MODEL 1
REMARK VINA RESULT:     -12.4      0.000      0.000
REMARK SMILES COc1ccc(NC(=O)[C@@H]2CC=CC[C@H]2C(=O)OCCOC(=O)c2ccc(-c3c4nc(c(-c5c(F)c(F)c(F)c(F)c5F)c5ccc([nH]5)c(-c5c(F)c(F)c(F)c(F)c5F)c5nc(c(-c6c(F)c(F)c(F)c(F)c6F)c6ccc3[nH]6)C=C5)C=C4)cc2)cc1Cl
REMARK SMILES IDX 19 1 18 2 16 3 17 4 15 5 10 6 11 7 12 8 14 9 13 10 8 11 7 12
REMARK SMILES IDX 9 14 6 15 3 16 4 17 88 18 5 19 87 20 89 21 2 22 1 23 20 24
REMARK SMILES IDX 21 25 22 26 23 27 24 28 25 29 86 30 26 31 85 32 27 33 28 34
REMARK SMILES IDX 29 35 79 36 30 37 84 38 78 39 80 40 31 41 83 42 77 43 76 44
REMARK SMILES IDX 32 46 64 47 44 48 63 49 45 50 48 51 62 52 81 53 46 54 47 55
REMARK SMILES IDX 61 57 82 58 49 59 33 60 34 61 42 62 35 63 36 64 40 65 43 66
REMARK SMILES IDX 37 67 38 68 41 69 39 70 65 71 66 72 74 73 67 74 68 75 72 76
REMARK SMILES IDX 75 77 69 78 70 79 73 80 71 81 50 82 51 83 59 84 52 85 53 86
REMARK SMILES IDX 57 87 60 88 54 89 55 90 58 91 56 92
REMARK H PARENT 7 13 80 45 48 56
REMARK Flexibility Score: inf
ROOT
ATOM      1  C   UNL A   1      31.706  29.492  25.455  1.00  0.00     0.274 C 
ENDROOT
BRANCH   1   2
ATOM      2  O   UNL A   1      32.645  28.558  26.027  1.00  0.00    -0.462 OA
BRANCH   2   3
ATOM      3  C   UNL A   1      32.100  27.495  26.656  1.00  0.00     0.310 C 
ATOM      4  O   UNL A   1      31.400  27.573  27.663  1.00  0.00    -0.252 OA
BRANCH   3   5
ATOM      5  C   UNL A   1      32.519  26.147  26.105  1.00  0.00     0.116 C 
ATOM      6  C   UNL A   1      31.636  25.436  25.057  1.00  0.00     0.097 C 
ATOM      7  C   UNL A   1      32.299  24.097  24.689  1.00  0.00     0.041 C 
ATOM      8  C   UNL A   1      33.775  24.170  24.442  1.00  0.00    -0.030 C 
ATOM      9  C   UNL A   1      33.946  26.380  25.560  1.00  0.00     0.043 C 
ATOM     10  C   UNL A   1      34.520  25.211  24.825  1.00  0.00    -0.030 C 
BRANCH   6  11
ATOM     11  C   UNL A   1      30.149  25.342  25.461  1.00  0.00     0.228 C 
ATOM     12  N   UNL A   1      29.150  25.547  24.545  1.00  0.00    -0.326 N 
ATOM     13  H   UNL A   1      28.648  24.745  24.274  1.00  0.00     0.169 HD
ATOM     14  O   UNL A   1      29.850  24.891  26.569  1.00  0.00    -0.274 OA
BRANCH  12  15
ATOM     15  C   UNL A   1      28.747  26.760  23.937  1.00  0.00     0.042 A 
ATOM     16  C   UNL A   1      28.047  29.236  22.744  1.00  0.00     0.137 A 
ATOM     17  C   UNL A   1      27.072  28.429  23.328  1.00  0.00     0.050 A 
ATOM     18  C   UNL A   1      29.374  28.777  22.737  1.00  0.00     0.085 A 
ATOM     19  C   UNL A   1      27.418  27.183  23.874  1.00  0.00     0.030 A 
ATOM     20  C   UNL A   1      29.720  27.547  23.319  1.00  0.00     0.050 A 
ATOM     21  Cl  UNL A   1      30.636  29.706  22.001  1.00  0.00    -0.080 Cl
BRANCH  16  22
ATOM     22  O   UNL A   1      27.804  30.471  22.210  1.00  0.00    -0.495 OA
ATOM     23  C   UNL A   1      27.659  31.579  23.091  1.00  0.00     0.278 C 
ENDBRANCH  16  22
ENDBRANCH  12  15
ENDBRANCH   6  11
ENDBRANCH   3   5
ENDBRANCH   2   3
ENDBRANCH   1   2
BRANCH   1  24
ATOM     24  C   UNL A   1      31.797  30.896  26.064  1.00  0.00     0.275 C 
BRANCH  24  25
ATOM     25  O   UNL A   1      32.585  30.923  27.268  1.00  0.00    -0.458 OA
BRANCH  25  26
ATOM     26  C   UNL A   1      33.402  31.990  27.404  1.00  0.00     0.338 C 
ATOM     27  O   UNL A   1      33.142  33.171  27.248  1.00  0.00    -0.246 OA
BRANCH  26  28
ATOM     28  C   UNL A   1      34.712  31.571  27.912  1.00  0.00     0.060 A 
ATOM     29  C   UNL A   1      34.840  30.249  28.346  1.00  0.00     0.016 A 
ATOM     30  C   UNL A   1      35.734  32.496  28.117  1.00  0.00     0.016 A 
ATOM     31  C   UNL A   1      35.991  29.842  29.007  1.00  0.00     0.010 A 
ATOM     32  C   UNL A   1      36.893  32.086  28.782  1.00  0.00     0.010 A 
ATOM     33  C   UNL A   1      37.015  30.765  29.247  1.00  0.00    -0.014 A 
BRANCH  33  34
ATOM     34  C   UNL A   1      38.185  30.352  30.050  1.00  0.00     0.031 A 
ATOM     35  C   UNL A   1      39.197  29.418  29.458  1.00  0.00     0.074 A 
ATOM     36  C   UNL A   1      38.349  30.848  31.287  1.00  0.00     0.049 A 
ATOM     37  N   UNL A   1      40.238  28.862  30.021  1.00  0.00    -0.248 NA
ATOM     38  C   UNL A   1      39.014  29.064  28.042  1.00  0.00     0.031 C 
ATOM     39  C   UNL A   1      37.461  31.816  31.931  1.00  0.00     0.029 A 
ATOM     40  N   UNL A   1      39.319  30.604  32.223  1.00  0.00    -0.354 N 
ATOM     41  C   UNL A   1      40.820  28.073  29.039  1.00  0.00     0.074 A 
ATOM     42  C   UNL A   1      40.015  28.218  27.844  1.00  0.00     0.031 C 
ATOM     43  C   UNL A   1      37.930  32.086  33.159  1.00  0.00     0.029 A 
ATOM     44  C   UNL A   1      39.118  31.273  33.403  1.00  0.00     0.049 A 
ATOM     45  H   UNL A   1      40.086  30.008  32.064  1.00  0.00     0.167 HD
ATOM     46  C   UNL A   1      41.923  27.295  29.133  1.00  0.00     0.037 A 
ATOM     47  C   UNL A   1      39.801  31.210  34.560  1.00  0.00     0.037 A 
ATOM     48  C   UNL A   1      42.726  27.172  30.323  1.00  0.00     0.049 A 
ATOM     49  C   UNL A   1      40.987  30.292  34.660  1.00  0.00     0.074 A 
ATOM     50  C   UNL A   1      43.867  26.416  30.524  1.00  0.00     0.029 A 
ATOM     51  N   UNL A   1      42.465  27.829  31.517  1.00  0.00    -0.354 N 
ATOM     52  N   UNL A   1      41.512  29.520  33.741  1.00  0.00    -0.248 NA
ATOM     53  C   UNL A   1      41.665  30.226  35.961  1.00  0.00     0.031 C 
ATOM     54  C   UNL A   1      44.278  26.590  31.851  1.00  0.00     0.029 A 
ATOM     55  C   UNL A   1      43.413  27.481  32.466  1.00  0.00     0.049 A 
ATOM     56  H   UNL A   1      41.716  28.450  31.668  1.00  0.00     0.167 HD
ATOM     57  C   UNL A   1      42.587  28.884  34.344  1.00  0.00     0.074 A 
ATOM     58  C   UNL A   1      42.647  29.371  35.708  1.00  0.00     0.031 C 
ATOM     59  C   UNL A   1      43.445  27.976  33.819  1.00  0.00     0.037 A 
BRANCH  46  60
ATOM     60  C   UNL A   1      42.298  26.484  27.930  1.00  0.00     0.064 A 
ATOM     61  C   UNL A   1      43.259  26.928  27.009  1.00  0.00     0.173 A 
ATOM     62  C   UNL A   1      41.695  25.239  27.702  1.00  0.00     0.173 A 
ATOM     63  F   UNL A   1      43.852  28.120  27.175  1.00  0.00    -0.203 F 
ATOM     64  C   UNL A   1      43.584  26.163  25.891  1.00  0.00     0.198 A 
ATOM     65  C   UNL A   1      42.038  24.468  26.595  1.00  0.00     0.198 A 
ATOM     66  F   UNL A   1      40.770  24.770  28.554  1.00  0.00    -0.203 F 
ATOM     67  F   UNL A   1      44.474  26.624  25.001  1.00  0.00    -0.200 F 
ATOM     68  C   UNL A   1      42.977  24.933  25.688  1.00  0.00     0.200 A 
ATOM     69  F   UNL A   1      41.455  23.276  26.404  1.00  0.00    -0.200 F 
ATOM     70  F   UNL A   1      43.291  24.199  24.611  1.00  0.00    -0.200 F 
ENDBRANCH  46  60
BRANCH  47  71
ATOM     71  C   UNL A   1      39.358  32.027  35.715  1.00  0.00     0.064 A 
ATOM     72  C   UNL A   1      38.376  31.556  36.596  1.00  0.00     0.173 A 
ATOM     73  C   UNL A   1      39.932  33.279  35.982  1.00  0.00     0.173 A 
ATOM     74  F   UNL A   1      37.783  30.375  36.366  1.00  0.00    -0.203 F 
ATOM     75  C   UNL A   1      37.985  32.306  37.702  1.00  0.00     0.198 A 
ATOM     76  C   UNL A   1      39.557  34.017  37.101  1.00  0.00     0.198 A 
ATOM     77  F   UNL A   1      40.875  33.772  35.166  1.00  0.00    -0.203 F 
ATOM     78  F   UNL A   1      37.028  31.845  38.518  1.00  0.00    -0.200 F 
ATOM     79  C   UNL A   1      38.583  33.532  37.958  1.00  0.00     0.200 A 
ATOM     80  F   UNL A   1      40.144  35.196  37.350  1.00  0.00    -0.200 F 
ATOM     81  F   UNL A   1      38.215  34.246  39.031  1.00  0.00    -0.200 F 
ENDBRANCH  47  71
BRANCH  59  82
ATOM     82  C   UNL A   1      44.528  27.467  34.720  1.00  0.00     0.064 A 
ATOM     83  C   UNL A   1      45.754  28.138  34.839  1.00  0.00     0.173 A 
ATOM     84  C   UNL A   1      44.326  26.314  35.493  1.00  0.00     0.173 A 
ATOM     85  F   UNL A   1      45.996  29.235  34.105  1.00  0.00    -0.203 F 
ATOM     86  C   UNL A   1      46.747  27.660  35.687  1.00  0.00     0.198 A 
ATOM     87  C   UNL A   1      45.315  25.852  36.356  1.00  0.00     0.198 A 
ATOM     88  F   UNL A   1      43.169  25.641  35.413  1.00  0.00    -0.203 F 
ATOM     89  F   UNL A   1      47.926  28.294  35.758  1.00  0.00    -0.200 F 
ATOM     90  C   UNL A   1      46.526  26.522  36.449  1.00  0.00     0.200 A 
ATOM     91  F   UNL A   1      45.098  24.756  37.096  1.00  0.00    -0.200 F 
ATOM     92  F   UNL A   1      47.485  26.065  37.266  1.00  0.00    -0.200 F 
ENDBRANCH  59  82
ENDBRANCH  33  34
ENDBRANCH  26  28
ENDBRANCH  25  26
ENDBRANCH  24  25
ENDBRANCH   1  24
TORSDOF 14
ENDMDL
MODEL 2
REMARK VINA RESULT:     -12.3      0.480      7.416
REMARK SMILES COc1ccc(NC(=O)[C@@H]2CC=CC[C@H]2C(=O)OCCOC(=O)c2ccc(-c3c4nc(c(-c5c(F)c(F)c(F)c(F)c5F)c5ccc([nH]5)c(-c5c(F)c(F)c(F)c(F)c5F)c5nc(c(-c6c(F)c(F)c(F)c(F)c6F)c6ccc3[nH]6)C=C5)C=C4)cc2)cc1Cl
REMARK SMILES IDX 19 1 18 2 16 3 17 4 15 5 10 6 11 7 12 8 14 9 13 10 8 11 7 12
REMARK SMILES IDX 9 14 6 15 3 16 4 17 88 18 5 19 87 20 89 21 2 22 1 23 20 24
REMARK SMILES IDX 21 25 22 26 23 27 24 28 25 29 86 30 26 31 85 32 27 33 28 34
REMARK SMILES IDX 29 35 79 36 30 37 84 38 78 39 80 40 31 41 83 42 77 43 76 44
REMARK SMILES IDX 32 46 64 47 44 48 63 49 45 50 48 51 62 52 81 53 46 54 47 55
REMARK SMILES IDX 61 57 82 58 49 59 33 60 34 61 42 62 35 63 36 64 40 65 43 66
REMARK SMILES IDX 37 67 38 68 41 69 39 70 65 71 66 72 74 73 67 74 68 75 72 76
REMARK SMILES IDX 75 77 69 78 70 79 73 80 71 81 50 82 51 83 59 84 52 85 53 86
REMARK SMILES IDX 57 87 60 88 54 89 55 90 58 91 56 92
REMARK H PARENT 7 13 80 45 48 56
REMARK Flexibility Score: inf
ROOT
ATOM      1  C   UNL A   1      31.598  29.731  25.470  1.00  0.00     0.274 C 
ENDROOT
BRANCH   1   2
ATOM      2  O   UNL A   1      32.498  28.745  26.018  1.00  0.00    -0.462 OA
BRANCH   2   3
ATOM      3  C   UNL A   1      31.911  27.701  26.640  1.00  0.00     0.310 C 
ATOM      4  O   UNL A   1      31.107  27.810  27.563  1.00  0.00    -0.252 OA
BRANCH   3   5
ATOM      5  C   UNL A   1      32.412  26.338  26.205  1.00  0.00     0.116 C 
ATOM      6  C   UNL A   1      31.613  25.520  25.168  1.00  0.00     0.097 C 
ATOM      7  C   UNL A   1      32.348  24.190  24.926  1.00  0.00     0.041 C 
ATOM      8  C   UNL A   1      33.830  24.310  24.748  1.00  0.00    -0.030 C 
ATOM      9  C   UNL A   1      33.854  26.597  25.716  1.00  0.00     0.043 C 
ATOM     10  C   UNL A   1      34.512  25.407  25.092  1.00  0.00    -0.030 C 
BRANCH   6  11
ATOM     11  C   UNL A   1      30.113  25.389  25.504  1.00  0.00     0.228 C 
ATOM     12  N   UNL A   1      29.151  25.580  24.546  1.00  0.00    -0.326 N 
ATOM     13  H   UNL A   1      28.679  24.769  24.246  1.00  0.00     0.169 HD
ATOM     14  O   UNL A   1      29.775  24.920  26.594  1.00  0.00    -0.274 OA
BRANCH  12  15
ATOM     15  C   UNL A   1      28.747  26.789  23.932  1.00  0.00     0.042 A 
ATOM     16  C   UNL A   1      28.047  29.258  22.724  1.00  0.00     0.137 A 
ATOM     17  C   UNL A   1      27.074  28.459  23.321  1.00  0.00     0.050 A 
ATOM     18  C   UNL A   1      29.372  28.794  22.710  1.00  0.00     0.085 A 
ATOM     19  C   UNL A   1      27.419  27.216  23.876  1.00  0.00     0.030 A 
ATOM     20  C   UNL A   1      29.718  27.568  23.299  1.00  0.00     0.050 A 
ATOM     21  Cl  UNL A   1      30.631  29.712  21.956  1.00  0.00    -0.080 Cl
BRANCH  16  22
ATOM     22  O   UNL A   1      27.804  30.490  22.182  1.00  0.00    -0.495 OA
ATOM     23  C   UNL A   1      27.654  31.603  23.055  1.00  0.00     0.278 C 
ENDBRANCH  16  22
ENDBRANCH  12  15
ENDBRANCH   6  11
ENDBRANCH   3   5
ENDBRANCH   2   3
ENDBRANCH   1   2
BRANCH   1  24
ATOM     24  C   UNL A   1      31.723  31.106  26.135  1.00  0.00     0.275 C 
BRANCH  24  25
ATOM     25  O   UNL A   1      32.512  31.064  27.339  1.00  0.00    -0.458 OA
BRANCH  25  26
ATOM     26  C   UNL A   1      33.364  32.098  27.510  1.00  0.00     0.338 C 
ATOM     27  O   UNL A   1      33.140  33.292  27.414  1.00  0.00    -0.246 OA
BRANCH  26  28
ATOM     28  C   UNL A   1      34.668  31.614  27.975  1.00  0.00     0.060 A 
ATOM     29  C   UNL A   1      34.809  30.239  28.177  1.00  0.00     0.016 A 
ATOM     30  C   UNL A   1      35.669  32.502  28.365  1.00  0.00     0.016 A 
ATOM     31  C   UNL A   1      35.949  29.738  28.790  1.00  0.00     0.010 A 
ATOM     32  C   UNL A   1      36.817  31.999  28.982  1.00  0.00     0.010 A 
ATOM     33  C   UNL A   1      36.951  30.619  29.214  1.00  0.00    -0.014 A 
BRANCH  33  34
ATOM     34  C   UNL A   1      38.107  30.088  29.966  1.00  0.00     0.031 A 
ATOM     35  C   UNL A   1      38.331  30.522  31.383  1.00  0.00     0.074 A 
ATOM     36  C   UNL A   1      38.923  29.194  29.385  1.00  0.00     0.049 A 
ATOM     37  N   UNL A   1      39.330  30.252  32.183  1.00  0.00    -0.248 NA
ATOM     38  C   UNL A   1      37.292  31.375  31.981  1.00  0.00     0.031 C 
ATOM     39  C   UNL A   1      38.754  28.652  28.037  1.00  0.00     0.029 A 
ATOM     40  N   UNL A   1      40.055  28.584  29.855  1.00  0.00    -0.354 N 
ATOM     41  C   UNL A   1      39.053  30.919  33.369  1.00  0.00     0.074 A 
ATOM     42  C   UNL A   1      37.795  31.611  33.183  1.00  0.00     0.031 C 
ATOM     43  C   UNL A   1      39.749  27.787  27.788  1.00  0.00     0.029 A 
ATOM     44  C   UNL A   1      40.648  27.754  28.939  1.00  0.00     0.049 A 
ATOM     45  H   UNL A   1      40.409  28.727  30.763  1.00  0.00     0.167 HD
ATOM     46  C   UNL A   1      39.790  30.952  34.503  1.00  0.00     0.037 A 
ATOM     47  C   UNL A   1      41.805  27.071  29.011  1.00  0.00     0.037 A 
ATOM     48  C   UNL A   1      41.032  30.245  34.681  1.00  0.00     0.049 A 
ATOM     49  C   UNL A   1      42.636  27.172  30.259  1.00  0.00     0.074 A 
ATOM     50  C   UNL A   1      41.855  30.204  35.792  1.00  0.00     0.029 A 
ATOM     51  N   UNL A   1      41.628  29.450  33.712  1.00  0.00    -0.354 N 
ATOM     52  N   UNL A   1      42.389  27.832  31.363  1.00  0.00    -0.248 NA
ATOM     53  C   UNL A   1      43.912  26.444  30.264  1.00  0.00     0.031 C 
ATOM     54  C   UNL A   1      42.967  29.411  35.483  1.00  0.00     0.029 A 
ATOM     55  C   UNL A   1      42.820  28.930  34.193  1.00  0.00     0.049 A 
ATOM     56  H   UNL A   1      41.260  29.280  32.814  1.00  0.00     0.167 HD
ATOM     57  C   UNL A   1      43.470  27.594  32.200  1.00  0.00     0.074 A 
ATOM     58  C   UNL A   1      44.369  26.716  31.479  1.00  0.00     0.031 C 
ATOM     59  C   UNL A   1      43.699  28.063  33.452  1.00  0.00     0.037 A 
BRANCH  46  60
ATOM     60  C   UNL A   1      39.291  31.814  35.622  1.00  0.00     0.064 A 
ATOM     61  C   UNL A   1      38.387  31.334  36.580  1.00  0.00     0.173 A 
ATOM     62  C   UNL A   1      39.736  33.139  35.744  1.00  0.00     0.173 A 
ATOM     63  F   UNL A   1      37.920  30.079  36.498  1.00  0.00    -0.203 F 
ATOM     64  C   UNL A   1      37.927  32.157  37.606  1.00  0.00     0.198 A 
ATOM     65  C   UNL A   1      39.291  33.952  36.783  1.00  0.00     0.198 A 
ATOM     66  F   UNL A   1      40.601  33.646  34.852  1.00  0.00    -0.203 F 
ATOM     67  F   UNL A   1      37.031  31.691  38.488  1.00  0.00    -0.200 F 
ATOM     68  C   UNL A   1      38.383  33.462  37.709  1.00  0.00     0.200 A 
ATOM     69  F   UNL A   1      39.737  35.212  36.884  1.00  0.00    -0.200 F 
ATOM     70  F   UNL A   1      37.940  34.253  38.696  1.00  0.00    -0.200 F 
ENDBRANCH  46  60
BRANCH  47  71
ATOM     71  C   UNL A   1      42.243  26.253  27.854  1.00  0.00     0.064 A 
ATOM     72  C   UNL A   1      43.174  26.750  26.933  1.00  0.00     0.173 A 
ATOM     73  C   UNL A   1      41.769  24.947  27.668  1.00  0.00     0.173 A 
ATOM     74  F   UNL A   1      43.636  28.003  27.060  1.00  0.00    -0.203 F 
ATOM     75  C   UNL A   1      43.615  25.970  25.867  1.00  0.00     0.198 A 
ATOM     76  C   UNL A   1      42.228  24.159  26.615  1.00  0.00     0.198 A 
ATOM     77  F   UNL A   1      40.876  24.428  28.523  1.00  0.00    -0.203 F 
ATOM     78  F   UNL A   1      44.488  26.475  24.986  1.00  0.00    -0.200 F 
ATOM     79  C   UNL A   1      43.148  24.672  25.714  1.00  0.00     0.200 A 
ATOM     80  F   UNL A   1      41.782  22.903  26.477  1.00  0.00    -0.200 F 
ATOM     81  F   UNL A   1      43.584  23.918  24.697  1.00  0.00    -0.200 F 
ENDBRANCH  47  71
BRANCH  59  82
ATOM     82  C   UNL A   1      44.964  27.620  34.119  1.00  0.00     0.064 A 
ATOM     83  C   UNL A   1      46.144  28.373  34.021  1.00  0.00     0.173 A 
ATOM     84  C   UNL A   1      44.990  26.447  34.888  1.00  0.00     0.173 A 
ATOM     85  F   UNL A   1      46.169  29.492  33.281  1.00  0.00    -0.203 F 
ATOM     86  C   UNL A   1      47.310  27.955  34.654  1.00  0.00     0.198 A 
ATOM     87  C   UNL A   1      46.153  26.045  35.537  1.00  0.00     0.198 A 
ATOM     88  F   UNL A   1      43.886  25.696  35.012  1.00  0.00    -0.203 F 
ATOM     89  F   UNL A   1      48.436  28.669  34.516  1.00  0.00    -0.200 F 
ATOM     90  C   UNL A   1      47.313  26.796  35.415  1.00  0.00     0.200 A 
ATOM     91  F   UNL A   1      46.153  24.928  36.277  1.00  0.00    -0.200 F 
ATOM     92  F   UNL A   1      48.437  26.397  36.025  1.00  0.00    -0.200 F 
ENDBRANCH  59  82
ENDBRANCH  33  34
ENDBRANCH  26  28
ENDBRANCH  25  26
ENDBRANCH  24  25
ENDBRANCH   1  24
TORSDOF 14
ENDMDL
MODEL 3
REMARK VINA RESULT:     -12.2      0.637      7.429
REMARK SMILES COc1ccc(NC(=O)[C@@H]2CC=CC[C@H]2C(=O)OCCOC(=O)c2ccc(-c3c4nc(c(-c5c(F)c(F)c(F)c(F)c5F)c5ccc([nH]5)c(-c5c(F)c(F)c(F)c(F)c5F)c5nc(c(-c6c(F)c(F)c(F)c(F)c6F)c6ccc3[nH]6)C=C5)C=C4)cc2)cc1Cl
REMARK SMILES IDX 19 1 18 2 16 3 17 4 15 5 10 6 11 7 12 8 14 9 13 10 8 11 7 12
REMARK SMILES IDX 9 14 6 15 3 16 4 17 88 18 5 19 87 20 89 21 2 22 1 23 20 24
REMARK SMILES IDX 21 25 22 26 23 27 24 28 25 29 86 30 26 31 85 32 27 33 28 34
REMARK SMILES IDX 29 35 79 36 30 37 84 38 78 39 80 40 31 41 83 42 77 43 76 44
REMARK SMILES IDX 32 46 64 47 44 48 63 49 45 50 48 51 62 52 81 53 46 54 47 55
REMARK SMILES IDX 61 57 82 58 49 59 33 60 34 61 42 62 35 63 36 64 40 65 43 66
REMARK SMILES IDX 37 67 38 68 41 69 39 70 65 71 66 72 74 73 67 74 68 75 72 76
REMARK SMILES IDX 75 77 69 78 70 79 73 80 71 81 50 82 51 83 59 84 52 85 53 86
REMARK SMILES IDX 57 87 60 88 54 89 55 90 58 91 56 92
REMARK H PARENT 7 13 80 45 48 56
REMARK Flexibility Score: inf
ROOT
ATOM      1  C   UNL A   1      31.726  29.500  25.531  1.00  0.00     0.274 C 
ENDROOT
BRANCH   1   2
ATOM      2  O   UNL A   1      32.659  28.529  26.048  1.00  0.00    -0.462 OA
BRANCH   2   3
ATOM      3  C   UNL A   1      32.110  27.489  26.711  1.00  0.00     0.310 C 
ATOM      4  O   UNL A   1      31.467  27.596  27.753  1.00  0.00    -0.252 OA
BRANCH   3   5
ATOM      5  C   UNL A   1      32.453  26.124  26.148  1.00  0.00     0.116 C 
ATOM      6  C   UNL A   1      31.545  25.485  25.076  1.00  0.00     0.097 C 
ATOM      7  C   UNL A   1      32.129  24.111  24.700  1.00  0.00     0.041 C 
ATOM      8  C   UNL A   1      33.610  24.094  24.479  1.00  0.00    -0.030 C 
ATOM      9  C   UNL A   1      33.901  26.274  25.631  1.00  0.00     0.043 C 
ATOM     10  C   UNL A   1      34.412  25.081  24.888  1.00  0.00    -0.030 C 
BRANCH   6  11
ATOM     11  C   UNL A   1      30.049  25.480  25.454  1.00  0.00     0.228 C 
ATOM     12  N   UNL A   1      29.078  25.700  24.512  1.00  0.00    -0.326 N 
ATOM     13  H   UNL A   1      28.540  24.914  24.261  1.00  0.00     0.169 HD
ATOM     14  O   UNL A   1      29.707  25.085  26.572  1.00  0.00    -0.274 OA
BRANCH  12  15
ATOM     15  C   UNL A   1      28.747  26.908  23.854  1.00  0.00     0.042 A 
ATOM     16  C   UNL A   1      28.194  29.370  22.558  1.00  0.00     0.137 A 
ATOM     17  C   UNL A   1      27.172  28.642  23.164  1.00  0.00     0.050 A 
ATOM     18  C   UNL A   1      29.493  28.838  22.581  1.00  0.00     0.085 A 
ATOM     19  C   UNL A   1      27.443  27.401  23.762  1.00  0.00     0.030 A 
ATOM     20  C   UNL A   1      29.766  27.615  23.214  1.00  0.00     0.050 A 
ATOM     21  Cl  UNL A   1      30.810  29.666  21.820  1.00  0.00    -0.080 Cl
BRANCH  16  22
ATOM     22  O   UNL A   1      28.024  30.595  21.974  1.00  0.00    -0.495 OA
ATOM     23  C   UNL A   1      27.892  31.738  22.811  1.00  0.00     0.278 C 
ENDBRANCH  16  22
ENDBRANCH  12  15
ENDBRANCH   6  11
ENDBRANCH   3   5
ENDBRANCH   2   3
ENDBRANCH   1   2
BRANCH   1  24
ATOM     24  C   UNL A   1      31.888  30.892  26.153  1.00  0.00     0.275 C 
BRANCH  24  25
ATOM     25  O   UNL A   1      32.678  30.867  27.357  1.00  0.00    -0.458 OA
BRANCH  25  26
ATOM     26  C   UNL A   1      33.537  31.898  27.509  1.00  0.00     0.338 C 
ATOM     27  O   UNL A   1      33.317  33.092  27.411  1.00  0.00    -0.246 OA
BRANCH  26  28
ATOM     28  C   UNL A   1      34.847  31.410  27.952  1.00  0.00     0.060 A 
ATOM     29  C   UNL A   1      34.943  30.064  28.315  1.00  0.00     0.016 A 
ATOM     30  C   UNL A   1      35.907  32.289  28.170  1.00  0.00     0.016 A 
ATOM     31  C   UNL A   1      36.099  29.587  28.918  1.00  0.00     0.010 A 
ATOM     32  C   UNL A   1      37.070  31.808  28.776  1.00  0.00     0.010 A 
ATOM     33  C   UNL A   1      37.161  30.462  29.170  1.00  0.00    -0.014 A 
BRANCH  33  34
ATOM     34  C   UNL A   1      38.340  29.971  29.913  1.00  0.00     0.031 A 
ATOM     35  C   UNL A   1      38.587  30.450  31.311  1.00  0.00     0.074 A 
ATOM     36  C   UNL A   1      39.157  29.070  29.341  1.00  0.00     0.049 A 
ATOM     37  N   UNL A   1      39.606  30.217  32.098  1.00  0.00    -0.248 NA
ATOM     38  C   UNL A   1      37.548  31.305  31.905  1.00  0.00     0.031 C 
ATOM     39  C   UNL A   1      38.969  28.487  28.014  1.00  0.00     0.029 A 
ATOM     40  N   UNL A   1      40.308  28.491  29.806  1.00  0.00    -0.354 N 
ATOM     41  C   UNL A   1      39.344  30.916  33.269  1.00  0.00     0.074 A 
ATOM     42  C   UNL A   1      38.072  31.584  33.090  1.00  0.00     0.031 C 
ATOM     43  C   UNL A   1      39.971  27.629  27.770  1.00  0.00     0.029 A 
ATOM     44  C   UNL A   1      40.894  27.643  28.902  1.00  0.00     0.049 A 
ATOM     45  H   UNL A   1      40.678  28.666  30.702  1.00  0.00     0.167 HD
ATOM     46  C   UNL A   1      40.103  30.993  34.386  1.00  0.00     0.037 A 
ATOM     47  C   UNL A   1      42.062  26.978  28.970  1.00  0.00     0.037 A 
ATOM     48  C   UNL A   1      41.359  30.309  34.559  1.00  0.00     0.049 A 
ATOM     49  C   UNL A   1      42.917  27.128  30.197  1.00  0.00     0.074 A 
ATOM     50  C   UNL A   1      42.205  30.313  35.653  1.00  0.00     0.029 A 
ATOM     51  N   UNL A   1      41.947  29.494  33.602  1.00  0.00    -0.354 N 
ATOM     52  N   UNL A   1      42.683  27.817  31.286  1.00  0.00    -0.248 NA
ATOM     53  C   UNL A   1      44.203  26.419  30.197  1.00  0.00     0.031 C 
ATOM     54  C   UNL A   1      43.321  29.527  35.345  1.00  0.00     0.029 A 
ATOM     55  C   UNL A   1      43.155  29.005  34.072  1.00  0.00     0.049 A 
ATOM     56  H   UNL A   1      41.562  29.292  32.717  1.00  0.00     0.167 HD
ATOM     57  C   UNL A   1      43.784  27.620  32.107  1.00  0.00     0.074 A 
ATOM     58  C   UNL A   1      44.681  26.733  31.393  1.00  0.00     0.031 C 
ATOM     59  C   UNL A   1      44.032  28.129  33.339  1.00  0.00     0.037 A 
BRANCH  46  60
ATOM     60  C   UNL A   1      39.615  31.881  35.490  1.00  0.00     0.064 A 
ATOM     61  C   UNL A   1      38.695  31.433  36.449  1.00  0.00     0.173 A 
ATOM     62  C   UNL A   1      40.084  33.198  35.595  1.00  0.00     0.173 A 
ATOM     63  F   UNL A   1      38.204  30.186  36.381  1.00  0.00    -0.203 F 
ATOM     64  C   UNL A   1      38.246  32.279  37.460  1.00  0.00     0.198 A 
ATOM     65  C   UNL A   1      39.649  34.035  36.619  1.00  0.00     0.198 A 
ATOM     66  F   UNL A   1      40.965  33.676  34.701  1.00  0.00    -0.203 F 
ATOM     67  F   UNL A   1      37.335  31.844  38.342  1.00  0.00    -0.200 F 
ATOM     68  C   UNL A   1      38.727  33.577  37.546  1.00  0.00     0.200 A 
ATOM     69  F   UNL A   1      40.120  35.288  36.704  1.00  0.00    -0.200 F 
ATOM     70  F   UNL A   1      38.293  34.391  38.519  1.00  0.00    -0.200 F 
ENDBRANCH  46  60
BRANCH  47  71
ATOM     71  C   UNL A   1      42.489  26.132  27.829  1.00  0.00     0.064 A 
ATOM     72  C   UNL A   1      42.018  24.821  27.691  1.00  0.00     0.173 A 
ATOM     73  C   UNL A   1      43.345  26.631  26.837  1.00  0.00     0.173 A 
ATOM     74  F   UNL A   1      41.216  24.295  28.628  1.00  0.00    -0.203 F 
ATOM     75  C   UNL A   1      42.389  24.038  26.600  1.00  0.00     0.198 A 
ATOM     76  C   UNL A   1      43.696  25.856  25.735  1.00  0.00     0.198 A 
ATOM     77  F   UNL A   1      43.821  27.881  26.928  1.00  0.00    -0.203 F 
ATOM     78  F   UNL A   1      41.944  22.778  26.500  1.00  0.00    -0.200 F 
ATOM     79  C   UNL A   1      43.220  24.560  25.618  1.00  0.00     0.200 A 
ATOM     80  F   UNL A   1      44.491  26.367  24.785  1.00  0.00    -0.200 F 
ATOM     81  F   UNL A   1      43.564  23.810  24.563  1.00  0.00    -0.200 F 
ENDBRANCH  47  71
BRANCH  59  82
ATOM     82  C   UNL A   1      45.317  27.724  33.993  1.00  0.00     0.064 A 
ATOM     83  C   UNL A   1      45.398  26.573  34.791  1.00  0.00     0.173 A 
ATOM     84  C   UNL A   1      46.484  28.477  33.797  1.00  0.00     0.173 A 
ATOM     85  F   UNL A   1      44.303  25.832  35.020  1.00  0.00    -0.203 F 
ATOM     86  C   UNL A   1      46.600  26.201  35.385  1.00  0.00     0.198 A 
ATOM     87  C   UNL A   1      47.688  28.090  34.375  1.00  0.00     0.198 A 
ATOM     88  F   UNL A   1      46.454  29.584  33.040  1.00  0.00    -0.203 F 
ATOM     89  F   UNL A   1      46.648  25.120  36.174  1.00  0.00    -0.200 F 
ATOM     90  C   UNL A   1      47.744  26.956  35.172  1.00  0.00     0.200 A 
ATOM     91  F   UNL A   1      48.794  28.816  34.165  1.00  0.00    -0.200 F 
ATOM     92  F   UNL A   1      48.901  26.595  35.745  1.00  0.00    -0.200 F 
ENDBRANCH  59  82
ENDBRANCH  33  34
ENDBRANCH  26  28
ENDBRANCH  25  26
ENDBRANCH  24  25
ENDBRANCH   1  24
TORSDOF 14
ENDMDL
