MODEL 1
REMARK VINA RESULT:     -12.0      0.000      0.000
REMARK SMILES CC(C)(C)OC(=O)N1CCC[C@H]1C(=O)N[C@@H](Cc1ccccc1)C(=O)OCCOC(=O)c1ccc(-c2c3nc(c(-c4c(F)c(F)c(F)c(F)c4F)c4ccc([nH]4)c(-c4c(F)c(F)c(F)c(F)c4F)c4nc(c(-c5c(F)c(F)c(F)c(F)c5F)c5ccc2[nH]5)C=C4)C=C3)cc1
REMARK SMILES IDX 26 1 24 2 25 3 16 4 15 5 13 6 14 7 12 9 8 10 9 11 10 12
REMARK SMILES IDX 11 13 6 14 7 15 5 16 2 17 1 18 3 19 4 20 17 21 18 22 19 23
REMARK SMILES IDX 23 24 20 25 22 26 21 27 27 28 28 29 29 30 30 31 31 32 32 33
REMARK SMILES IDX 33 34 94 35 34 36 93 37 35 38 36 39 37 40 87 41 38 42 92 43
REMARK SMILES IDX 86 44 88 45 39 46 91 47 85 48 84 49 40 51 72 52 52 53 71 54
REMARK SMILES IDX 53 55 56 56 70 57 89 58 54 59 55 60 69 62 90 63 57 64 41 65
REMARK SMILES IDX 42 66 50 67 43 68 44 69 48 70 51 71 45 72 46 73 49 74 47 75
REMARK SMILES IDX 73 76 74 77 82 78 75 79 76 80 80 81 83 82 77 83 78 84 81 85
REMARK SMILES IDX 79 86 58 87 59 88 67 89 60 90 61 91 65 92 68 93 62 94 63 95
REMARK SMILES IDX 66 96 64 97
REMARK H PARENT 15 8 88 50 56 61
REMARK Flexibility Score: inf
ROOT
ATOM      1  O   UNL A   1      31.906  29.412  25.505  1.00  0.00    -0.461 OA
ENDROOT
BRANCH   1   2
ATOM      2  C   UNL A   1      32.355  28.856  24.351  1.00  0.00     0.329 C 
ATOM      3  O   UNL A   1      33.200  29.360  23.616  1.00  0.00    -0.250 OA
BRANCH   2   4
ATOM      4  C   UNL A   1      31.706  27.503  24.043  1.00  0.00     0.196 C 
BRANCH   4   5
ATOM      5  N   UNL A   1      30.822  26.965  25.076  1.00  0.00    -0.341 N 
ATOM      6  C   UNL A   1      30.696  25.713  25.595  1.00  0.00     0.243 C 
ATOM      7  O   UNL A   1      29.688  25.538  26.294  1.00  0.00    -0.273 OA
ATOM      8  H   UNL A   1      30.208  27.627  25.468  1.00  0.00     0.164 HD
BRANCH   6   9
ATOM      9  C   UNL A   1      31.617  24.496  25.233  1.00  0.00     0.178 C 
ATOM     10  N   UNL A   1      32.720  24.158  26.126  1.00  0.00    -0.296 N 
ATOM     11  C   UNL A   1      32.281  23.217  27.124  1.00  0.00     0.124 C 
ATOM     12  C   UNL A   1      31.243  22.366  26.419  1.00  0.00     0.024 C 
ATOM     13  C   UNL A   1      30.770  23.202  25.226  1.00  0.00     0.037 C 
BRANCH  10  14
ATOM     14  C   UNL A   1      34.008  24.610  25.927  1.00  0.00     0.410 C 
ATOM     15  O   UNL A   1      34.254  25.794  25.756  1.00  0.00    -0.224 OA
BRANCH  14  16
ATOM     16  O   UNL A   1      34.946  23.635  26.089  1.00  0.00    -0.444 OA
BRANCH  16  17
ATOM     17  C   UNL A   1      35.477  22.820  24.991  1.00  0.00     0.106 C 
ATOM     18  C   UNL A   1      35.793  21.449  25.602  1.00  0.00     0.056 C 
ATOM     19  C   UNL A   1      36.794  23.438  24.503  1.00  0.00     0.056 C 
ATOM     20  C   UNL A   1      34.555  22.612  23.787  1.00  0.00     0.056 C 
ENDBRANCH  16  17
ENDBRANCH  14  16
ENDBRANCH  10  14
ENDBRANCH   6   9
ENDBRANCH   4   5
BRANCH   4  21
ATOM     21  C   UNL A   1      31.020  27.529  22.665  1.00  0.00     0.072 C 
BRANCH  21  22
ATOM     22  C   UNL A   1      29.846  28.479  22.585  1.00  0.00    -0.045 A 
ATOM     23  C   UNL A   1      28.603  28.133  23.126  1.00  0.00     0.004 A 
ATOM     24  C   UNL A   1      30.006  29.743  21.999  1.00  0.00     0.004 A 
ATOM     25  C   UNL A   1      27.545  29.044  23.094  1.00  0.00     0.000 A 
ATOM     26  C   UNL A   1      28.954  30.656  21.981  1.00  0.00     0.000 A 
ATOM     27  C   UNL A   1      27.723  30.307  22.531  1.00  0.00     0.000 A 
ENDBRANCH  21  22
ENDBRANCH   4  21
ENDBRANCH   2   4
ENDBRANCH   1   2
BRANCH   1  28
ATOM     28  C   UNL A   1      31.101  30.590  25.325  1.00  0.00     0.274 C 
BRANCH  28  29
ATOM     29  C   UNL A   1      31.442  31.629  26.388  1.00  0.00     0.275 C 
BRANCH  29  30
ATOM     30  O   UNL A   1      32.572  31.203  27.179  1.00  0.00    -0.458 OA
BRANCH  30  31
ATOM     31  C   UNL A   1      33.424  32.190  27.547  1.00  0.00     0.338 C 
ATOM     32  O   UNL A   1      33.189  33.389  27.577  1.00  0.00    -0.246 OA
BRANCH  31  33
ATOM     33  C   UNL A   1      34.748  31.650  27.925  1.00  0.00     0.060 A 
ATOM     34  C   UNL A   1      34.918  30.298  28.198  1.00  0.00     0.016 A 
ATOM     35  C   UNL A   1      35.801  32.538  28.175  1.00  0.00     0.016 A 
ATOM     36  C   UNL A   1      36.098  29.863  28.817  1.00  0.00     0.010 A 
ATOM     37  C   UNL A   1      37.006  32.080  28.734  1.00  0.00     0.010 A 
ATOM     38  C   UNL A   1      37.153  30.740  29.123  1.00  0.00    -0.014 A 
BRANCH  38  39
ATOM     39  C   UNL A   1      38.319  30.280  29.953  1.00  0.00     0.031 A 
ATOM     40  C   UNL A   1      39.431  29.465  29.327  1.00  0.00     0.074 A 
ATOM     41  C   UNL A   1      38.478  30.664  31.238  1.00  0.00     0.049 A 
ATOM     42  N   UNL A   1      40.417  28.822  29.906  1.00  0.00    -0.248 NA
ATOM     43  C   UNL A   1      39.442  29.363  27.859  1.00  0.00     0.031 C 
ATOM     44  C   UNL A   1      37.567  31.533  31.975  1.00  0.00     0.029 A 
ATOM     45  N   UNL A   1      39.492  30.419  32.137  1.00  0.00    -0.354 N 
ATOM     46  C   UNL A   1      41.108  28.176  28.889  1.00  0.00     0.074 A 
ATOM     47  C   UNL A   1      40.456  28.535  27.648  1.00  0.00     0.031 C 
ATOM     48  C   UNL A   1      38.121  31.854  33.155  1.00  0.00     0.029 A 
ATOM     49  C   UNL A   1      39.353  31.091  33.330  1.00  0.00     0.049 A 
ATOM     50  H   UNL A   1      40.249  29.819  31.944  1.00  0.00     0.167 HD
ATOM     51  C   UNL A   1      42.171  27.339  28.985  1.00  0.00     0.037 A 
ATOM     52  C   UNL A   1      40.093  31.062  34.457  1.00  0.00     0.037 A 
ATOM     53  C   UNL A   1      42.858  27.024  30.212  1.00  0.00     0.049 A 
ATOM     54  C   UNL A   1      41.235  30.084  34.559  1.00  0.00     0.074 A 
ATOM     55  C   UNL A   1      43.874  26.107  30.427  1.00  0.00     0.029 A 
ATOM     56  N   UNL A   1      42.626  27.649  31.426  1.00  0.00    -0.354 N 
ATOM     57  N   UNL A   1      41.756  29.319  33.633  1.00  0.00    -0.248 NA
ATOM     58  C   UNL A   1      41.844  29.918  35.888  1.00  0.00     0.031 C 
ATOM     59  C   UNL A   1      44.241  26.161  31.777  1.00  0.00     0.029 A 
ATOM     60  C   UNL A   1      43.478  27.139  32.393  1.00  0.00     0.049 A 
ATOM     61  H   UNL A   1      41.954  28.351  31.579  1.00  0.00     0.167 HD
ATOM     62  C   UNL A   1      42.738  28.570  34.268  1.00  0.00     0.074 A 
ATOM     63  C   UNL A   1      42.778  29.007  35.647  1.00  0.00     0.031 C 
ATOM     64  C   UNL A   1      43.514  27.582  33.760  1.00  0.00     0.037 A 
BRANCH  51  65
ATOM     65  C   UNL A   1      42.617  26.636  27.737  1.00  0.00     0.064 A 
ATOM     66  C   UNL A   1      43.579  27.176  26.875  1.00  0.00     0.173 A 
ATOM     67  C   UNL A   1      42.096  25.367  27.430  1.00  0.00     0.173 A 
ATOM     68  F   UNL A   1      44.092  28.393  27.116  1.00  0.00    -0.203 F 
ATOM     69  C   UNL A   1      43.996  26.478  25.743  1.00  0.00     0.198 A 
ATOM     70  C   UNL A   1      42.533  24.663  26.312  1.00  0.00     0.198 A 
ATOM     71  F   UNL A   1      41.176  24.804  28.227  1.00  0.00    -0.203 F 
ATOM     72  F   UNL A   1      44.893  27.027  24.913  1.00  0.00    -0.200 F 
ATOM     73  C   UNL A   1      43.478  25.221  25.467  1.00  0.00     0.200 A 
ATOM     74  F   UNL A   1      42.038  23.444  26.054  1.00  0.00    -0.200 F 
ATOM     75  F   UNL A   1      43.887  24.549  24.382  1.00  0.00    -0.200 F 
ENDBRANCH  51  65
BRANCH  52  76
ATOM     76  C   UNL A   1      39.739  31.916  35.628  1.00  0.00     0.064 A 
ATOM     77  C   UNL A   1      38.677  31.570  36.477  1.00  0.00     0.173 A 
ATOM     78  C   UNL A   1      40.418  33.114  35.899  1.00  0.00     0.173 A 
ATOM     79  F   UNL A   1      37.964  30.459  36.238  1.00  0.00    -0.203 F 
ATOM     80  C   UNL A   1      38.307  32.389  37.543  1.00  0.00     0.198 A 
ATOM     81  C   UNL A   1      40.077  33.908  36.992  1.00  0.00     0.198 A 
ATOM     82  F   UNL A   1      41.425  33.513  35.108  1.00  0.00    -0.203 F 
ATOM     83  F   UNL A   1      37.252  32.062  38.301  1.00  0.00    -0.200 F 
ATOM     84  C   UNL A   1      39.016  33.551  37.808  1.00  0.00     0.200 A 
ATOM     85  F   UNL A   1      40.775  35.023  37.249  1.00  0.00    -0.200 F 
ATOM     86  F   UNL A   1      38.667  34.333  38.837  1.00  0.00    -0.200 F 
ENDBRANCH  52  76
BRANCH  64  87
ATOM     87  C   UNL A   1      44.474  26.912  34.698  1.00  0.00     0.064 A 
ATOM     88  C   UNL A   1      45.742  27.457  34.955  1.00  0.00     0.173 A 
ATOM     89  C   UNL A   1      44.119  25.731  35.366  1.00  0.00     0.173 A 
ATOM     90  F   UNL A   1      46.134  28.577  34.328  1.00  0.00    -0.203 F 
ATOM     91  C   UNL A   1      46.627  26.830  35.827  1.00  0.00     0.198 A 
ATOM     92  C   UNL A   1      44.998  25.120  36.255  1.00  0.00     0.198 A 
ATOM     93  F   UNL A   1      42.917  25.174  35.158  1.00  0.00    -0.203 F 
ATOM     94  F   UNL A   1      47.849  27.344  36.023  1.00  0.00    -0.200 F 
ATOM     95  C   UNL A   1      46.254  25.665  36.479  1.00  0.00     0.200 A 
ATOM     96  F   UNL A   1      44.633  23.997  36.891  1.00  0.00    -0.200 F 
ATOM     97  F   UNL A   1      47.107  25.062  37.318  1.00  0.00    -0.200 F 
ENDBRANCH  64  87
ENDBRANCH  38  39
ENDBRANCH  31  33
ENDBRANCH  30  31
ENDBRANCH  29  30
ENDBRANCH  28  29
ENDBRANCH   1  28
TORSDOF 18
ENDMDL
MODEL 2
REMARK VINA RESULT:     -11.7      4.372     10.115
REMARK SMILES CC(C)(C)OC(=O)N1CCC[C@H]1C(=O)N[C@@H](Cc1ccccc1)C(=O)OCCOC(=O)c1ccc(-c2c3nc(c(-c4c(F)c(F)c(F)c(F)c4F)c4ccc([nH]4)c(-c4c(F)c(F)c(F)c(F)c4F)c4nc(c(-c5c(F)c(F)c(F)c(F)c5F)c5ccc2[nH]5)C=C4)C=C3)cc1
REMARK SMILES IDX 26 1 24 2 25 3 16 4 15 5 13 6 14 7 12 9 8 10 9 11 10 12
REMARK SMILES IDX 11 13 6 14 7 15 5 16 2 17 1 18 3 19 4 20 17 21 18 22 19 23
REMARK SMILES IDX 23 24 20 25 22 26 21 27 27 28 28 29 29 30 30 31 31 32 32 33
REMARK SMILES IDX 33 34 94 35 34 36 93 37 35 38 36 39 37 40 87 41 38 42 92 43
REMARK SMILES IDX 86 44 88 45 39 46 91 47 85 48 84 49 40 51 72 52 52 53 71 54
REMARK SMILES IDX 53 55 56 56 70 57 89 58 54 59 55 60 69 62 90 63 57 64 41 65
REMARK SMILES IDX 42 66 50 67 43 68 44 69 48 70 51 71 45 72 46 73 49 74 47 75
REMARK SMILES IDX 73 76 74 77 82 78 75 79 76 80 80 81 83 82 77 83 78 84 81 85
REMARK SMILES IDX 79 86 58 87 59 88 67 89 60 90 61 91 65 92 68 93 62 94 63 95
REMARK SMILES IDX 66 96 64 97
REMARK H PARENT 15 8 88 50 56 61
REMARK Flexibility Score: inf
ROOT
ATOM      1  O   UNL A   1      35.427  21.555  25.022  1.00  0.00    -0.461 OA
ENDROOT
BRANCH   1   2
ATOM      2  C   UNL A   1      34.149  21.588  24.563  1.00  0.00     0.329 C 
ATOM      3  O   UNL A   1      33.796  22.143  23.526  1.00  0.00    -0.250 OA
BRANCH   2   4
ATOM      4  C   UNL A   1      33.164  20.845  25.470  1.00  0.00     0.196 C 
BRANCH   4   5
ATOM      5  N   UNL A   1      32.401  21.671  26.403  1.00  0.00    -0.341 N 
ATOM      6  C   UNL A   1      32.190  23.015  26.457  1.00  0.00     0.243 C 
ATOM      7  O   UNL A   1      31.685  23.421  27.514  1.00  0.00    -0.273 OA
ATOM      8  H   UNL A   1      31.958  21.165  27.122  1.00  0.00     0.164 HD
BRANCH   6   9
ATOM      9  C   UNL A   1      32.684  24.044  25.382  1.00  0.00     0.178 C 
ATOM     10  N   UNL A   1      31.707  24.918  24.743  1.00  0.00    -0.296 N 
ATOM     11  C   UNL A   1      31.569  26.140  25.494  1.00  0.00     0.124 C 
ATOM     12  C   UNL A   1      32.950  26.398  26.065  1.00  0.00     0.024 C 
ATOM     13  C   UNL A   1      33.661  25.042  26.044  1.00  0.00     0.037 C 
BRANCH  10  14
ATOM     14  C   UNL A   1      31.118  24.622  23.531  1.00  0.00     0.410 C 
ATOM     15  O   UNL A   1      29.907  24.519  23.414  1.00  0.00    -0.224 OA
BRANCH  14  16
ATOM     16  O   UNL A   1      32.004  24.613  22.496  1.00  0.00    -0.444 OA
BRANCH  16  17
ATOM     17  C   UNL A   1      32.369  25.804  21.721  1.00  0.00     0.106 C 
ATOM     18  C   UNL A   1      33.687  26.308  22.322  1.00  0.00     0.056 C 
ATOM     19  C   UNL A   1      31.303  26.886  21.937  1.00  0.00     0.056 C 
ATOM     20  C   UNL A   1      32.569  25.604  20.216  1.00  0.00     0.056 C 
ENDBRANCH  16  17
ENDBRANCH  14  16
ENDBRANCH  10  14
ENDBRANCH   6   9
ENDBRANCH   4   5
BRANCH   4  21
ATOM     21  C   UNL A   1      32.248  19.926  24.642  1.00  0.00     0.072 C 
BRANCH  21  22
ATOM     22  C   UNL A   1      32.727  18.493  24.566  1.00  0.00    -0.045 A 
ATOM     23  C   UNL A   1      33.363  18.007  23.419  1.00  0.00     0.004 A 
ATOM     24  C   UNL A   1      32.573  17.644  25.672  1.00  0.00     0.004 A 
ATOM     25  C   UNL A   1      33.850  16.699  23.386  1.00  0.00     0.000 A 
ATOM     26  C   UNL A   1      33.072  16.343  25.643  1.00  0.00     0.000 A 
ATOM     27  C   UNL A   1      33.712  15.872  24.501  1.00  0.00     0.000 A 
ENDBRANCH  21  22
ENDBRANCH   4  21
ENDBRANCH   2   4
ENDBRANCH   1   2
BRANCH   1  28
ATOM     28  C   UNL A   1      36.037  20.253  24.990  1.00  0.00     0.274 C 
BRANCH  28  29
ATOM     29  C   UNL A   1      37.544  20.383  24.796  1.00  0.00     0.275 C 
BRANCH  29  30
ATOM     30  O   UNL A   1      38.042  21.583  25.423  1.00  0.00    -0.458 OA
BRANCH  30  31
ATOM     31  C   UNL A   1      39.201  21.438  26.110  1.00  0.00     0.338 C 
ATOM     32  O   UNL A   1      39.866  20.419  26.221  1.00  0.00    -0.246 OA
BRANCH  31  33
ATOM     33  C   UNL A   1      39.608  22.703  26.761  1.00  0.00     0.060 A 
ATOM     34  C   UNL A   1      39.018  23.911  26.409  1.00  0.00     0.016 A 
ATOM     35  C   UNL A   1      40.715  22.705  27.617  1.00  0.00     0.016 A 
ATOM     36  C   UNL A   1      39.605  25.112  26.828  1.00  0.00     0.010 A 
ATOM     37  C   UNL A   1      41.255  23.913  28.087  1.00  0.00     0.010 A 
ATOM     38  C   UNL A   1      40.745  25.145  27.649  1.00  0.00    -0.014 A 
BRANCH  38  39
ATOM     39  C   UNL A   1      41.457  26.440  27.925  1.00  0.00     0.031 A 
ATOM     40  C   UNL A   1      40.838  27.476  28.839  1.00  0.00     0.074 A 
ATOM     41  C   UNL A   1      42.706  26.679  27.471  1.00  0.00     0.049 A 
ATOM     42  N   UNL A   1      41.202  28.718  29.052  1.00  0.00    -0.248 NA
ATOM     43  C   UNL A   1      39.661  27.063  29.619  1.00  0.00     0.031 C 
ATOM     44  C   UNL A   1      43.501  25.757  26.667  1.00  0.00     0.029 A 
ATOM     45  N   UNL A   1      43.551  27.750  27.665  1.00  0.00    -0.354 N 
ATOM     46  C   UNL A   1      40.257  29.255  29.917  1.00  0.00     0.074 A 
ATOM     47  C   UNL A   1      39.322  28.193  30.226  1.00  0.00     0.031 C 
ATOM     48  C   UNL A   1      44.750  26.235  26.550  1.00  0.00     0.029 A 
ATOM     49  C   UNL A   1      44.807  27.572  27.132  1.00  0.00     0.049 A 
ATOM     50  H   UNL A   1      43.281  28.568  28.144  1.00  0.00     0.167 HD
ATOM     51  C   UNL A   1      40.161  30.523  30.388  1.00  0.00     0.037 A 
ATOM     52  C   UNL A   1      45.870  28.400  27.067  1.00  0.00     0.037 A 
ATOM     53  C   UNL A   1      41.120  31.568  30.131  1.00  0.00     0.049 A 
ATOM     54  C   UNL A   1      45.721  29.821  27.547  1.00  0.00     0.074 A 
ATOM     55  C   UNL A   1      41.056  32.908  30.474  1.00  0.00     0.029 A 
ATOM     56  N   UNL A   1      42.338  31.378  29.499  1.00  0.00    -0.354 N 
ATOM     57  N   UNL A   1      44.728  30.378  28.192  1.00  0.00    -0.248 NA
ATOM     58  C   UNL A   1      46.820  30.745  27.224  1.00  0.00     0.031 C 
ATOM     59  C   UNL A   1      42.227  33.535  30.029  1.00  0.00     0.029 A 
ATOM     60  C   UNL A   1      43.035  32.575  29.442  1.00  0.00     0.049 A 
ATOM     61  H   UNL A   1      42.661  30.519  29.142  1.00  0.00     0.167 HD
ATOM     62  C   UNL A   1      45.072  31.717  28.336  1.00  0.00     0.074 A 
ATOM     63  C   UNL A   1      46.388  31.880  27.757  1.00  0.00     0.031 C 
ATOM     64  C   UNL A   1      44.344  32.728  28.869  1.00  0.00     0.037 A 
BRANCH  51  65
ATOM     65  C   UNL A   1      38.935  30.882  31.175  1.00  0.00     0.064 A 
ATOM     66  C   UNL A   1      38.893  30.809  32.573  1.00  0.00     0.173 A 
ATOM     67  C   UNL A   1      37.794  31.356  30.506  1.00  0.00     0.173 A 
ATOM     68  F   UNL A   1      39.951  30.345  33.255  1.00  0.00    -0.203 F 
ATOM     69  C   UNL A   1      37.748  31.185  33.273  1.00  0.00     0.198 A 
ATOM     70  C   UNL A   1      36.662  31.753  31.210  1.00  0.00     0.198 A 
ATOM     71  F   UNL A   1      37.786  31.450  29.168  1.00  0.00    -0.203 F 
ATOM     72  F   UNL A   1      37.716  31.076  34.608  1.00  0.00    -0.200 F 
ATOM     73  C   UNL A   1      36.638  31.663  32.592  1.00  0.00     0.200 A 
ATOM     74  F   UNL A   1      35.595  32.225  30.549  1.00  0.00    -0.200 F 
ATOM     75  F   UNL A   1      35.542  32.032  33.269  1.00  0.00    -0.200 F 
ENDBRANCH  51  65
BRANCH  52  76
ATOM     76  C   UNL A   1      47.150  27.956  26.445  1.00  0.00     0.064 A 
ATOM     77  C   UNL A   1      47.290  27.894  25.049  1.00  0.00     0.173 A 
ATOM     78  C   UNL A   1      48.243  27.541  27.221  1.00  0.00     0.173 A 
ATOM     79  F   UNL A   1      46.262  28.234  24.258  1.00  0.00    -0.203 F 
ATOM     80  C   UNL A   1      48.466  27.431  24.460  1.00  0.00     0.198 A 
ATOM     81  C   UNL A   1      49.433  27.123  26.631  1.00  0.00     0.198 A 
ATOM     82  F   UNL A   1      48.161  27.553  28.560  1.00  0.00    -0.203 F 
ATOM     83  F   UNL A   1      48.549  27.327  23.127  1.00  0.00    -0.200 F 
ATOM     84  C   UNL A   1      49.542  27.058  25.252  1.00  0.00     0.200 A 
ATOM     85  F   UNL A   1      50.474  26.777  27.403  1.00  0.00    -0.200 F 
ATOM     86  F   UNL A   1      50.675  26.622  24.687  1.00  0.00    -0.200 F 
ENDBRANCH  52  76
BRANCH  64  87
ATOM     87  C   UNL A   1      44.958  34.096  28.856  1.00  0.00     0.064 A 
ATOM     88  C   UNL A   1      44.714  34.995  27.807  1.00  0.00     0.173 A 
ATOM     89  C   UNL A   1      45.778  34.524  29.911  1.00  0.00     0.173 A 
ATOM     90  F   UNL A   1      43.949  34.626  26.767  1.00  0.00    -0.203 F 
ATOM     91  C   UNL A   1      45.288  36.263  27.801  1.00  0.00     0.198 A 
ATOM     92  C   UNL A   1      46.332  35.801  29.913  1.00  0.00     0.198 A 
ATOM     93  F   UNL A   1      46.039  33.704  30.939  1.00  0.00    -0.203 F 
ATOM     94  F   UNL A   1      45.077  37.088  26.767  1.00  0.00    -0.200 F 
ATOM     95  C   UNL A   1      46.093  36.666  28.855  1.00  0.00     0.200 A 
ATOM     96  F   UNL A   1      47.105  36.194  30.936  1.00  0.00    -0.200 F 
ATOM     97  F   UNL A   1      46.646  37.887  28.849  1.00  0.00    -0.200 F 
ENDBRANCH  64  87
ENDBRANCH  38  39
ENDBRANCH  31  33
ENDBRANCH  30  31
ENDBRANCH  29  30
ENDBRANCH  28  29
ENDBRANCH   1  28
TORSDOF 18
ENDMDL
MODEL 3
REMARK VINA RESULT:     -11.4      1.206      2.171
REMARK SMILES CC(C)(C)OC(=O)N1CCC[C@H]1C(=O)N[C@@H](Cc1ccccc1)C(=O)OCCOC(=O)c1ccc(-c2c3nc(c(-c4c(F)c(F)c(F)c(F)c4F)c4ccc([nH]4)c(-c4c(F)c(F)c(F)c(F)c4F)c4nc(c(-c5c(F)c(F)c(F)c(F)c5F)c5ccc2[nH]5)C=C4)C=C3)cc1
REMARK SMILES IDX 26 1 24 2 25 3 16 4 15 5 13 6 14 7 12 9 8 10 9 11 10 12
REMARK SMILES IDX 11 13 6 14 7 15 5 16 2 17 1 18 3 19 4 20 17 21 18 22 19 23
REMARK SMILES IDX 23 24 20 25 22 26 21 27 27 28 28 29 29 30 30 31 31 32 32 33
REMARK SMILES IDX 33 34 94 35 34 36 93 37 35 38 36 39 37 40 87 41 38 42 92 43
REMARK SMILES IDX 86 44 88 45 39 46 91 47 85 48 84 49 40 51 72 52 52 53 71 54
REMARK SMILES IDX 53 55 56 56 70 57 89 58 54 59 55 60 69 62 90 63 57 64 41 65
REMARK SMILES IDX 42 66 50 67 43 68 44 69 48 70 51 71 45 72 46 73 49 74 47 75
REMARK SMILES IDX 73 76 74 77 82 78 75 79 76 80 80 81 83 82 77 83 78 84 81 85
REMARK SMILES IDX 79 86 58 87 59 88 67 89 60 90 61 91 65 92 68 93 62 94 63 95
REMARK SMILES IDX 66 96 64 97
REMARK H PARENT 15 8 88 50 56 61
REMARK Flexibility Score: inf
ROOT
ATOM      1  O   UNL A   1      31.895  29.197  24.980  1.00  0.00    -0.461 OA
ENDROOT
BRANCH   1   2
ATOM      2  C   UNL A   1      32.292  28.405  23.950  1.00  0.00     0.329 C 
ATOM      3  O   UNL A   1      33.282  28.611  23.254  1.00  0.00    -0.250 OA
BRANCH   2   4
ATOM      4  C   UNL A   1      31.376  27.196  23.735  1.00  0.00     0.196 C 
BRANCH   4   5
ATOM      5  N   UNL A   1      30.589  26.772  24.892  1.00  0.00    -0.341 N 
ATOM      6  C   UNL A   1      30.478  25.568  25.517  1.00  0.00     0.243 C 
ATOM      7  O   UNL A   1      29.544  25.486  26.327  1.00  0.00    -0.273 OA
ATOM      8  H   UNL A   1      30.041  27.485  25.291  1.00  0.00     0.164 HD
BRANCH   6   9
ATOM      9  C   UNL A   1      31.317  24.292  25.160  1.00  0.00     0.178 C 
ATOM     10  N   UNL A   1      32.699  24.207  25.618  1.00  0.00    -0.296 N 
ATOM     11  C   UNL A   1      32.755  23.583  26.915  1.00  0.00     0.124 C 
ATOM     12  C   UNL A   1      31.620  22.577  26.907  1.00  0.00     0.024 C 
ATOM     13  C   UNL A   1      30.661  23.053  25.812  1.00  0.00     0.037 C 
BRANCH  10  14
ATOM     14  C   UNL A   1      33.771  24.577  24.833  1.00  0.00     0.410 C 
ATOM     15  O   UNL A   1      34.267  25.690  24.907  1.00  0.00    -0.224 OA
BRANCH  14  16
ATOM     16  O   UNL A   1      34.282  23.543  24.109  1.00  0.00    -0.444 OA
BRANCH  16  17
ATOM     17  C   UNL A   1      35.507  22.819  24.468  1.00  0.00     0.106 C 
ATOM     18  C   UNL A   1      36.449  22.967  23.267  1.00  0.00     0.056 C 
ATOM     19  C   UNL A   1      35.176  21.329  24.632  1.00  0.00     0.056 C 
ATOM     20  C   UNL A   1      36.242  23.300  25.722  1.00  0.00     0.056 C 
ENDBRANCH  16  17
ENDBRANCH  14  16
ENDBRANCH  10  14
ENDBRANCH   6   9
ENDBRANCH   4   5
BRANCH   4  21
ATOM     21  C   UNL A   1      30.494  27.395  22.489  1.00  0.00     0.072 C 
BRANCH  21  22
ATOM     22  C   UNL A   1      29.523  28.549  22.608  1.00  0.00    -0.045 A 
ATOM     23  C   UNL A   1      29.882  29.837  22.196  1.00  0.00     0.004 A 
ATOM     24  C   UNL A   1      28.228  28.327  23.098  1.00  0.00     0.004 A 
ATOM     25  C   UNL A   1      28.955  30.880  22.260  1.00  0.00     0.000 A 
ATOM     26  C   UNL A   1      27.300  29.365  23.148  1.00  0.00     0.000 A 
ATOM     27  C   UNL A   1      27.663  30.641  22.726  1.00  0.00     0.000 A 
ENDBRANCH  21  22
ENDBRANCH   4  21
ENDBRANCH   2   4
ENDBRANCH   1   2
BRANCH   1  28
ATOM     28  C   UNL A   1      32.959  29.934  25.608  1.00  0.00     0.274 C 
BRANCH  28  29
ATOM     29  C   UNL A   1      32.397  30.841  26.698  1.00  0.00     0.275 C 
BRANCH  29  30
ATOM     30  O   UNL A   1      33.237  30.814  27.872  1.00  0.00    -0.458 OA
BRANCH  30  31
ATOM     31  C   UNL A   1      34.210  31.756  27.909  1.00  0.00     0.338 C 
ATOM     32  O   UNL A   1      34.073  32.958  27.742  1.00  0.00    -0.246 OA
BRANCH  31  33
ATOM     33  C   UNL A   1      35.535  31.157  28.178  1.00  0.00     0.060 A 
ATOM     34  C   UNL A   1      35.661  29.807  28.485  1.00  0.00     0.016 A 
ATOM     35  C   UNL A   1      36.652  31.993  28.292  1.00  0.00     0.016 A 
ATOM     36  C   UNL A   1      36.872  29.329  29.004  1.00  0.00     0.010 A 
ATOM     37  C   UNL A   1      37.880  31.489  28.750  1.00  0.00     0.010 A 
ATOM     38  C   UNL A   1      37.995  30.156  29.174  1.00  0.00    -0.014 A 
BRANCH  38  39
ATOM     39  C   UNL A   1      39.212  29.660  29.904  1.00  0.00     0.031 A 
ATOM     40  C   UNL A   1      40.141  28.657  29.254  1.00  0.00     0.074 A 
ATOM     41  C   UNL A   1      39.583  30.165  31.101  1.00  0.00     0.049 A 
ATOM     42  N   UNL A   1      41.127  27.974  29.784  1.00  0.00    -0.248 NA
ATOM     43  C   UNL A   1      39.941  28.390  27.821  1.00  0.00     0.031 C 
ATOM     44  C   UNL A   1      38.873  31.211  31.830  1.00  0.00     0.029 A 
ATOM     45  N   UNL A   1      40.680  29.907  31.892  1.00  0.00    -0.354 N 
ATOM     46  C   UNL A   1      41.605  27.142  28.780  1.00  0.00     0.074 A 
ATOM     47  C   UNL A   1      40.829  27.431  27.593  1.00  0.00     0.031 C 
ATOM     48  C   UNL A   1      39.611  31.596  32.882  1.00  0.00     0.029 A 
ATOM     49  C   UNL A   1      40.773  30.720  32.998  1.00  0.00     0.049 A 
ATOM     50  H   UNL A   1      41.340  29.205  31.684  1.00  0.00     0.167 HD
ATOM     51  C   UNL A   1      42.581  26.203  28.849  1.00  0.00     0.037 A 
ATOM     52  C   UNL A   1      41.653  30.733  34.020  1.00  0.00     0.037 A 
ATOM     53  C   UNL A   1      43.395  25.950  30.011  1.00  0.00     0.049 A 
ATOM     54  C   UNL A   1      42.695  29.647  34.103  1.00  0.00     0.074 A 
ATOM     55  C   UNL A   1      44.334  24.952  30.213  1.00  0.00     0.029 A 
ATOM     56  N   UNL A   1      43.394  26.730  31.156  1.00  0.00    -0.354 N 
ATOM     57  N   UNL A   1      43.005  28.727  33.224  1.00  0.00    -0.248 NA
ATOM     58  C   UNL A   1      43.460  29.561  35.357  1.00  0.00     0.031 C 
ATOM     59  C   UNL A   1      44.885  25.115  31.490  1.00  0.00     0.029 A 
ATOM     60  C   UNL A   1      44.315  26.237  32.067  1.00  0.00     0.049 A 
ATOM     61  H   UNL A   1      42.823  27.519  31.301  1.00  0.00     0.167 HD
ATOM     62  C   UNL A   1      43.985  27.946  33.823  1.00  0.00     0.074 A 
ATOM     63  C   UNL A   1      44.256  28.527  35.120  1.00  0.00     0.031 C 
ATOM     64  C   UNL A   1      44.582  26.823  33.352  1.00  0.00     0.037 A 
BRANCH  51  65
ATOM     65  C   UNL A   1      42.780  25.317  27.654  1.00  0.00     0.064 A 
ATOM     66  C   UNL A   1      41.993  24.183  27.422  1.00  0.00     0.173 A 
ATOM     67  C   UNL A   1      43.755  25.649  26.698  1.00  0.00     0.173 A 
ATOM     68  F   UNL A   1      41.061  23.815  28.315  1.00  0.00    -0.203 F 
ATOM     69  C   UNL A   1      42.181  23.404  26.282  1.00  0.00     0.198 A 
ATOM     70  C   UNL A   1      43.924  24.882  25.549  1.00  0.00     0.198 A 
ATOM     71  F   UNL A   1      44.531  26.729  26.871  1.00  0.00    -0.203 F 
ATOM     72  F   UNL A   1      41.440  22.303  26.095  1.00  0.00    -0.200 F 
ATOM     73  C   UNL A   1      43.141  23.757  25.345  1.00  0.00     0.200 A 
ATOM     74  F   UNL A   1      44.845  25.233  24.641  1.00  0.00    -0.200 F 
ATOM     75  F   UNL A   1      43.314  23.011  24.246  1.00  0.00    -0.200 F 
ENDBRANCH  51  65
BRANCH  52  76
ATOM     76  C   UNL A   1      41.550  31.748  35.108  1.00  0.00     0.064 A 
ATOM     77  C   UNL A   1      42.431  32.840  35.161  1.00  0.00     0.173 A 
ATOM     78  C   UNL A   1      40.605  31.631  36.139  1.00  0.00     0.173 A 
ATOM     79  F   UNL A   1      43.384  32.976  34.227  1.00  0.00    -0.203 F 
ATOM     80  C   UNL A   1      42.374  33.765  36.203  1.00  0.00     0.198 A 
ATOM     81  C   UNL A   1      40.519  32.582  37.153  1.00  0.00     0.198 A 
ATOM     82  F   UNL A   1      39.753  30.596  36.157  1.00  0.00    -0.203 F 
ATOM     83  F   UNL A   1      43.266  34.763  36.259  1.00  0.00    -0.200 F 
ATOM     84  C   UNL A   1      41.409  33.642  37.191  1.00  0.00     0.200 A 
ATOM     85  F   UNL A   1      39.575  32.464  38.097  1.00  0.00    -0.200 F 
ATOM     86  F   UNL A   1      41.347  34.536  38.187  1.00  0.00    -0.200 F 
ENDBRANCH  52  76
BRANCH  64  87
ATOM     87  C   UNL A   1      45.588  26.157  34.242  1.00  0.00     0.064 A 
ATOM     88  C   UNL A   1      46.941  26.530  34.218  1.00  0.00     0.173 A 
ATOM     89  C   UNL A   1      45.198  25.156  35.143  1.00  0.00     0.173 A 
ATOM     90  F   UNL A   1      47.366  27.472  33.362  1.00  0.00    -0.203 F 
ATOM     91  C   UNL A   1      47.870  25.907  35.047  1.00  0.00     0.198 A 
ATOM     92  C   UNL A   1      46.126  24.551  35.986  1.00  0.00     0.198 A 
ATOM     93  F   UNL A   1      43.916  24.767  35.206  1.00  0.00    -0.203 F 
ATOM     94  F   UNL A   1      49.164  26.248  34.976  1.00  0.00    -0.200 F 
ATOM     95  C   UNL A   1      47.462  24.921  35.932  1.00  0.00     0.200 A 
ATOM     96  F   UNL A   1      45.729  23.603  36.847  1.00  0.00    -0.200 F 
ATOM     97  F   UNL A   1      48.357  24.322  36.730  1.00  0.00    -0.200 F 
ENDBRANCH  64  87
ENDBRANCH  38  39
ENDBRANCH  31  33
ENDBRANCH  30  31
ENDBRANCH  29  30
ENDBRANCH  28  29
ENDBRANCH   1  28
TORSDOF 18
ENDMDL
