MODEL 1
REMARK VINA RESULT:     -11.5      0.000      0.000
REMARK SMILES COC(=O)CNC(=O)N1[C@@H](C(=O)OCCOC(=O)c2ccc(-c3c4nc(c(-c5c(F)c(F)c(F)c(F)c5F)c5ccc([nH]5)c(-c5c(F)c(F)c(F)c(F)c5F)c5nc(c(-c6c(F)c(F)c(F)c(F)c6F)c6ccc3[nH]6)C=C5)C=C4)cc2)CC[C@@H]2CCCC[C@H]21
REMARK SMILES IDX 14 1 13 2 11 3 12 4 10 5 9 6 89 7 82 8 84 9 88 10 83 11
REMARK SMILES IDX 85 12 87 13 86 14 7 15 6 16 8 18 5 19 3 20 4 21 2 22 1 23
REMARK SMILES IDX 15 24 16 25 17 26 18 27 19 28 20 29 81 30 21 31 80 32 22 33
REMARK SMILES IDX 23 34 24 35 74 36 25 37 79 38 73 39 75 40 26 41 78 42 72 43
REMARK SMILES IDX 71 44 27 46 59 47 39 48 58 49 40 50 43 51 57 52 76 53 41 54
REMARK SMILES IDX 42 55 56 57 77 58 44 59 28 60 29 61 37 62 30 63 31 64 35 65
REMARK SMILES IDX 38 66 32 67 33 68 36 69 34 70 60 71 61 72 69 73 62 74 63 75
REMARK SMILES IDX 67 76 70 77 64 78 65 79 68 80 66 81 45 82 46 83 54 84 47 85
REMARK SMILES IDX 48 86 52 87 55 88 49 89 50 90 53 91 51 92
REMARK H PARENT 6 17 75 45 43 56
REMARK Flexibility Score: inf
ROOT
ATOM      1  C   UNL A   1      36.894  20.684  24.701  1.00  0.00     0.274 C 
ENDROOT
BRANCH   1   2
ATOM      2  O   UNL A   1      36.937  22.119  24.825  1.00  0.00    -0.461 OA
BRANCH   2   3
ATOM      3  C   UNL A   1      36.098  22.796  23.997  1.00  0.00     0.329 C 
ATOM      4  O   UNL A   1      36.275  22.889  22.786  1.00  0.00    -0.250 OA
BRANCH   3   5
ATOM      5  C   UNL A   1      34.895  23.433  24.722  1.00  0.00     0.197 C 
ATOM      6  N   UNL A   1      33.553  22.801  24.706  1.00  0.00    -0.308 N 
ATOM      7  C   UNL A   1      32.527  23.477  25.546  1.00  0.00     0.091 C 
ATOM      8  C   UNL A   1      34.850  24.950  24.511  1.00  0.00     0.038 C 
ATOM      9  C   UNL A   1      32.533  25.022  25.410  1.00  0.00     0.012 C 
ATOM     10  C   UNL A   1      31.076  22.970  25.379  1.00  0.00     0.025 C 
ATOM     11  C   UNL A   1      33.944  25.591  25.551  1.00  0.00     0.008 C 
ATOM     12  C   UNL A   1      31.606  25.661  26.455  1.00  0.00     0.006 C 
ATOM     13  C   UNL A   1      30.121  23.625  26.378  1.00  0.00     0.002 C 
ATOM     14  C   UNL A   1      30.178  25.149  26.314  1.00  0.00     0.000 C 
BRANCH   6  15
ATOM     15  C   UNL A   1      33.159  22.040  23.634  1.00  0.00     0.318 C 
ATOM     16  N   UNL A   1      32.918  20.718  23.863  1.00  0.00    -0.327 N 
ATOM     17  H   UNL A   1      32.473  20.244  23.124  1.00  0.00     0.166 HD
ATOM     18  O   UNL A   1      32.898  22.505  22.529  1.00  0.00    -0.249 OA
BRANCH  16  19
ATOM     19  C   UNL A   1      33.214  19.894  25.030  1.00  0.00     0.240 C 
BRANCH  19  20
ATOM     20  C   UNL A   1      33.190  18.378  24.974  1.00  0.00     0.325 C 
ATOM     21  O   UNL A   1      32.224  17.718  25.351  1.00  0.00    -0.250 OA
BRANCH  20  22
ATOM     22  O   UNL A   1      34.230  17.870  24.262  1.00  0.00    -0.468 OA
ATOM     23  C   UNL A   1      33.864  16.707  23.514  1.00  0.00     0.282 C 
ENDBRANCH  20  22
ENDBRANCH  19  20
ENDBRANCH  16  19
ENDBRANCH   6  15
ENDBRANCH   3   5
ENDBRANCH   2   3
ENDBRANCH   1   2
BRANCH   1  24
ATOM     24  C   UNL A   1      38.226  19.997  25.049  1.00  0.00     0.275 C 
BRANCH  24  25
ATOM     25  O   UNL A   1      38.737  20.378  26.345  1.00  0.00    -0.458 OA
BRANCH  25  26
ATOM     26  C   UNL A   1      40.086  20.477  26.421  1.00  0.00     0.338 C 
ATOM     27  O   UNL A   1      40.898  19.681  25.978  1.00  0.00    -0.246 OA
BRANCH  26  28
ATOM     28  C   UNL A   1      40.501  21.799  26.939  1.00  0.00     0.060 A 
ATOM     29  C   UNL A   1      40.038  22.920  26.241  1.00  0.00     0.016 A 
ATOM     30  C   UNL A   1      41.367  21.960  28.021  1.00  0.00     0.016 A 
ATOM     31  C   UNL A   1      40.419  24.203  26.621  1.00  0.00     0.010 A 
ATOM     32  C   UNL A   1      41.782  23.253  28.384  1.00  0.00     0.010 A 
ATOM     33  C   UNL A   1      41.318  24.378  27.679  1.00  0.00    -0.014 A 
BRANCH  33  34
ATOM     34  C   UNL A   1      41.838  25.742  27.936  1.00  0.00     0.031 A 
ATOM     35  C   UNL A   1      43.175  26.139  27.377  1.00  0.00     0.074 A 
ATOM     36  C   UNL A   1      41.077  26.655  28.567  1.00  0.00     0.049 A 
ATOM     37  N   UNL A   1      43.800  27.287  27.449  1.00  0.00    -0.248 NA
ATOM     38  C   UNL A   1      43.901  25.104  26.624  1.00  0.00     0.031 C 
ATOM     39  C   UNL A   1      39.735  26.413  29.094  1.00  0.00     0.029 A 
ATOM     40  N   UNL A   1      41.322  27.974  28.857  1.00  0.00    -0.354 N 
ATOM     41  C   UNL A   1      44.993  27.111  26.760  1.00  0.00     0.074 A 
ATOM     42  C   UNL A   1      45.013  25.742  26.290  1.00  0.00     0.031 C 
ATOM     43  C   UNL A   1      39.273  27.550  29.642  1.00  0.00     0.029 A 
ATOM     44  C   UNL A   1      40.296  28.589  29.530  1.00  0.00     0.049 A 
ATOM     45  H   UNL A   1      42.154  28.437  28.605  1.00  0.00     0.167 HD
ATOM     46  C   UNL A   1      45.979  28.012  26.535  1.00  0.00     0.037 A 
ATOM     47  C   UNL A   1      40.202  29.842  30.017  1.00  0.00     0.037 A 
ATOM     48  C   UNL A   1      45.959  29.376  26.997  1.00  0.00     0.049 A 
ATOM     49  C   UNL A   1      41.343  30.803  29.811  1.00  0.00     0.074 A 
ATOM     50  C   UNL A   1      46.916  30.361  26.824  1.00  0.00     0.029 A 
ATOM     51  N   UNL A   1      44.928  29.947  27.729  1.00  0.00    -0.354 N 
ATOM     52  N   UNL A   1      42.470  30.627  29.166  1.00  0.00    -0.248 NA
ATOM     53  C   UNL A   1      41.195  32.140  30.404  1.00  0.00     0.031 C 
ATOM     54  C   UNL A   1      46.482  31.515  27.486  1.00  0.00     0.029 A 
ATOM     55  C   UNL A   1      45.234  31.263  28.032  1.00  0.00     0.049 A 
ATOM     56  H   UNL A   1      44.101  29.483  27.993  1.00  0.00     0.167 HD
ATOM     57  C   UNL A   1      43.157  31.831  29.260  1.00  0.00     0.074 A 
ATOM     58  C   UNL A   1      42.309  32.738  30.005  1.00  0.00     0.031 C 
ATOM     59  C   UNL A   1      44.382  32.154  28.777  1.00  0.00     0.037 A 
BRANCH  46  60
ATOM     60  C   UNL A   1      47.185  27.538  25.781  1.00  0.00     0.064 A 
ATOM     61  C   UNL A   1      47.277  27.654  24.387  1.00  0.00     0.173 A 
ATOM     62  C   UNL A   1      48.274  26.980  26.468  1.00  0.00     0.173 A 
ATOM     63  F   UNL A   1      46.257  28.164  23.682  1.00  0.00    -0.203 F 
ATOM     64  C   UNL A   1      48.409  27.210  23.706  1.00  0.00     0.198 A 
ATOM     65  C   UNL A   1      49.414  26.561  25.787  1.00  0.00     0.198 A 
ATOM     66  F   UNL A   1      48.236  26.849  27.802  1.00  0.00    -0.203 F 
ATOM     67  F   UNL A   1      48.459  27.293  22.368  1.00  0.00    -0.200 F 
ATOM     68  C   UNL A   1      49.477  26.670  24.406  1.00  0.00     0.200 A 
ATOM     69  F   UNL A   1      50.448  26.048  26.466  1.00  0.00    -0.200 F 
ATOM     70  F   UNL A   1      50.566  26.247  23.749  1.00  0.00    -0.200 F 
ENDBRANCH  46  60
BRANCH  47  71
ATOM     71  C   UNL A   1      38.988  30.259  30.766  1.00  0.00     0.064 A 
ATOM     72  C   UNL A   1      37.871  30.786  30.103  1.00  0.00     0.173 A 
ATOM     73  C   UNL A   1      38.932  30.160  32.164  1.00  0.00     0.173 A 
ATOM     74  F   UNL A   1      37.889  30.928  28.770  1.00  0.00    -0.203 F 
ATOM     75  C   UNL A   1      36.751  31.215  30.813  1.00  0.00     0.198 A 
ATOM     76  C   UNL A   1      37.801  30.563  32.869  1.00  0.00     0.198 A 
ATOM     77  F   UNL A   1      39.978  29.671  32.845  1.00  0.00    -0.203 F 
ATOM     78  F   UNL A   1      35.715  31.759  30.159  1.00  0.00    -0.200 F 
ATOM     79  C   UNL A   1      36.713  31.097  32.194  1.00  0.00     0.200 A 
ATOM     80  F   UNL A   1      37.767  30.441  34.203  1.00  0.00    -0.200 F 
ATOM     81  F   UNL A   1      35.635  31.508  32.875  1.00  0.00    -0.200 F 
ENDBRANCH  47  71
BRANCH  59  82
ATOM     82  C   UNL A   1      44.867  33.554  29.024  1.00  0.00     0.064 A 
ATOM     83  C   UNL A   1      44.569  34.601  28.139  1.00  0.00     0.173 A 
ATOM     84  C   UNL A   1      45.624  33.855  30.167  1.00  0.00     0.173 A 
ATOM     85  F   UNL A   1      43.861  34.362  27.025  1.00  0.00    -0.203 F 
ATOM     86  C   UNL A   1      45.038  35.891  28.373  1.00  0.00     0.198 A 
ATOM     87  C   UNL A   1      46.068  35.151  30.412  1.00  0.00     0.198 A 
ATOM     88  F   UNL A   1      45.930  32.891  31.048  1.00  0.00    -0.203 F 
ATOM     89  F   UNL A   1      44.787  36.864  27.487  1.00  0.00    -0.200 F 
ATOM     90  C   UNL A   1      45.783  36.166  29.511  1.00  0.00     0.200 A 
ATOM     91  F   UNL A   1      46.777  35.417  31.518  1.00  0.00    -0.200 F 
ATOM     92  F   UNL A   1      46.234  37.408  29.734  1.00  0.00    -0.200 F 
ENDBRANCH  59  82
ENDBRANCH  33  34
ENDBRANCH  26  28
ENDBRANCH  25  26
ENDBRANCH  24  25
ENDBRANCH   1  24
TORSDOF 15
ENDMDL
MODEL 2
REMARK VINA RESULT:     -11.4      4.754     10.104
REMARK SMILES COC(=O)CNC(=O)N1[C@@H](C(=O)OCCOC(=O)c2ccc(-c3c4nc(c(-c5c(F)c(F)c(F)c(F)c5F)c5ccc([nH]5)c(-c5c(F)c(F)c(F)c(F)c5F)c5nc(c(-c6c(F)c(F)c(F)c(F)c6F)c6ccc3[nH]6)C=C5)C=C4)cc2)CC[C@@H]2CCCC[C@H]21
REMARK SMILES IDX 14 1 13 2 11 3 12 4 10 5 9 6 89 7 82 8 84 9 88 10 83 11
REMARK SMILES IDX 85 12 87 13 86 14 7 15 6 16 8 18 5 19 3 20 4 21 2 22 1 23
REMARK SMILES IDX 15 24 16 25 17 26 18 27 19 28 20 29 81 30 21 31 80 32 22 33
REMARK SMILES IDX 23 34 24 35 74 36 25 37 79 38 73 39 75 40 26 41 78 42 72 43
REMARK SMILES IDX 71 44 27 46 59 47 39 48 58 49 40 50 43 51 57 52 76 53 41 54
REMARK SMILES IDX 42 55 56 57 77 58 44 59 28 60 29 61 37 62 30 63 31 64 35 65
REMARK SMILES IDX 38 66 32 67 33 68 36 69 34 70 60 71 61 72 69 73 62 74 63 75
REMARK SMILES IDX 67 76 70 77 64 78 65 79 68 80 66 81 45 82 46 83 54 84 47 85
REMARK SMILES IDX 48 86 52 87 55 88 49 89 50 90 53 91 51 92
REMARK H PARENT 6 17 75 45 43 56
REMARK Flexibility Score: inf
ROOT
ATOM      1  C   UNL A   1      30.910  31.508  25.688  1.00  0.00     0.274 C 
ENDROOT
BRANCH   1   2
ATOM      2  O   UNL A   1      31.485  30.186  25.677  1.00  0.00    -0.461 OA
BRANCH   2   3
ATOM      3  C   UNL A   1      30.949  29.331  24.766  1.00  0.00     0.329 C 
ATOM      4  O   UNL A   1      30.355  29.703  23.759  1.00  0.00    -0.250 OA
BRANCH   3   5
ATOM      5  C   UNL A   1      31.166  27.843  25.113  1.00  0.00     0.197 C 
ATOM      6  N   UNL A   1      32.523  27.249  25.181  1.00  0.00    -0.308 N 
ATOM      7  C   UNL A   1      32.571  25.834  25.640  1.00  0.00     0.091 C 
ATOM      8  C   UNL A   1      30.149  26.946  24.401  1.00  0.00     0.038 C 
ATOM      9  C   UNL A   1      31.485  24.935  24.994  1.00  0.00     0.012 C 
ATOM     10  C   UNL A   1      33.940  25.128  25.513  1.00  0.00     0.025 C 
ATOM     11  C   UNL A   1      30.103  25.581  25.071  1.00  0.00     0.008 C 
ATOM     12  C   UNL A   1      31.454  23.555  25.667  1.00  0.00     0.006 C 
ATOM     13  C   UNL A   1      33.925  23.731  26.135  1.00  0.00     0.002 C 
ATOM     14  C   UNL A   1      32.807  22.861  25.568  1.00  0.00     0.000 C 
BRANCH   6  15
ATOM     15  C   UNL A   1      33.535  27.742  24.394  1.00  0.00     0.318 C 
ATOM     16  N   UNL A   1      33.428  27.550  23.049  1.00  0.00    -0.327 N 
ATOM     17  H   UNL A   1      34.071  28.061  22.506  1.00  0.00     0.166 HD
ATOM     18  O   UNL A   1      34.449  28.440  24.821  1.00  0.00    -0.249 OA
BRANCH  16  19
ATOM     19  C   UNL A   1      32.514  26.709  22.286  1.00  0.00     0.240 C 
BRANCH  19  20
ATOM     20  C   UNL A   1      33.002  25.564  21.418  1.00  0.00     0.325 C 
ATOM     21  O   UNL A   1      32.904  25.574  20.193  1.00  0.00    -0.250 OA
BRANCH  20  22
ATOM     22  O   UNL A   1      33.751  24.670  22.116  1.00  0.00    -0.468 OA
ATOM     23  C   UNL A   1      33.277  23.328  21.970  1.00  0.00     0.282 C 
ENDBRANCH  20  22
ENDBRANCH  19  20
ENDBRANCH  16  19
ENDBRANCH   6  15
ENDBRANCH   3   5
ENDBRANCH   2   3
ENDBRANCH   1   2
BRANCH   1  24
ATOM     24  C   UNL A   1      31.505  32.427  26.769  1.00  0.00     0.275 C 
BRANCH  24  25
ATOM     25  O   UNL A   1      32.792  31.978  27.249  1.00  0.00    -0.458 OA
BRANCH  25  26
ATOM     26  C   UNL A   1      33.624  32.964  27.661  1.00  0.00     0.338 C 
ATOM     27  O   UNL A   1      33.339  34.142  27.802  1.00  0.00    -0.246 OA
BRANCH  26  28
ATOM     28  C   UNL A   1      34.914  32.417  28.134  1.00  0.00     0.060 A 
ATOM     29  C   UNL A   1      34.903  31.096  28.597  1.00  0.00     0.016 A 
ATOM     30  C   UNL A   1      36.087  33.169  28.201  1.00  0.00     0.016 A 
ATOM     31  C   UNL A   1      36.056  30.513  29.113  1.00  0.00     0.010 A 
ATOM     32  C   UNL A   1      37.243  32.593  28.755  1.00  0.00     0.010 A 
ATOM     33  C   UNL A   1      37.229  31.266  29.223  1.00  0.00    -0.014 A 
BRANCH  33  34
ATOM     34  C   UNL A   1      38.380  30.669  29.940  1.00  0.00     0.031 A 
ATOM     35  C   UNL A   1      38.614  31.021  31.382  1.00  0.00     0.074 A 
ATOM     36  C   UNL A   1      39.145  29.735  29.345  1.00  0.00     0.049 A 
ATOM     37  N   UNL A   1      39.533  30.587  32.207  1.00  0.00    -0.248 NA
ATOM     38  C   UNL A   1      37.675  31.985  31.979  1.00  0.00     0.031 C 
ATOM     39  C   UNL A   1      38.976  29.257  27.974  1.00  0.00     0.029 A 
ATOM     40  N   UNL A   1      40.208  29.012  29.827  1.00  0.00    -0.354 N 
ATOM     41  C   UNL A   1      39.291  31.228  33.414  1.00  0.00     0.074 A 
ATOM     42  C   UNL A   1      38.148  32.093  33.212  1.00  0.00     0.031 C 
ATOM     43  C   UNL A   1      39.903  28.316  27.725  1.00  0.00     0.029 A 
ATOM     44  C   UNL A   1      40.747  28.148  28.907  1.00  0.00     0.049 A 
ATOM     45  H   UNL A   1      40.551  29.104  30.745  1.00  0.00     0.167 HD
ATOM     46  C   UNL A   1      39.958  31.103  34.586  1.00  0.00     0.037 A 
ATOM     47  C   UNL A   1      41.812  27.328  29.005  1.00  0.00     0.037 A 
ATOM     48  C   UNL A   1      41.092  30.240  34.791  1.00  0.00     0.049 A 
ATOM     49  C   UNL A   1      42.577  27.258  30.300  1.00  0.00     0.074 A 
ATOM     50  C   UNL A   1      41.837  30.051  35.942  1.00  0.00     0.029 A 
ATOM     51  N   UNL A   1      41.648  29.422  33.818  1.00  0.00    -0.354 N 
ATOM     52  N   UNL A   1      42.347  27.874  31.434  1.00  0.00    -0.248 NA
ATOM     53  C   UNL A   1      43.754  26.377  30.326  1.00  0.00     0.031 C 
ATOM     54  C   UNL A   1      42.869  29.150  35.653  1.00  0.00     0.029 A 
ATOM     55  C   UNL A   1      42.738  28.743  34.336  1.00  0.00     0.049 A 
ATOM     56  H   UNL A   1      41.316  29.338  32.895  1.00  0.00     0.167 HD
ATOM     57  C   UNL A   1      43.335  27.444  32.311  1.00  0.00     0.074 A 
ATOM     58  C   UNL A   1      44.154  26.496  31.584  1.00  0.00     0.031 C 
ATOM     59  C   UNL A   1      43.547  27.805  33.600  1.00  0.00     0.037 A 
BRANCH  46  60
ATOM     60  C   UNL A   1      39.496  31.951  35.734  1.00  0.00     0.064 A 
ATOM     61  C   UNL A   1      40.010  33.236  35.957  1.00  0.00     0.173 A 
ATOM     62  C   UNL A   1      38.507  31.476  36.609  1.00  0.00     0.173 A 
ATOM     63  F   UNL A   1      40.970  33.728  35.160  1.00  0.00    -0.203 F 
ATOM     64  C   UNL A   1      39.565  34.008  37.028  1.00  0.00     0.198 A 
ATOM     65  C   UNL A   1      38.046  32.260  37.663  1.00  0.00     0.198 A 
ATOM     66  F   UNL A   1      37.982  30.254  36.437  1.00  0.00    -0.203 F 
ATOM     67  F   UNL A   1      40.099  35.217  37.248  1.00  0.00    -0.200 F 
ATOM     68  C   UNL A   1      38.580  33.522  37.876  1.00  0.00     0.200 A 
ATOM     69  F   UNL A   1      37.089  31.793  38.475  1.00  0.00    -0.200 F 
ATOM     70  F   UNL A   1      38.150  34.268  38.903  1.00  0.00    -0.200 F 
ENDBRANCH  46  60
BRANCH  47  71
ATOM     71  C   UNL A   1      42.233  26.516  27.833  1.00  0.00     0.064 A 
ATOM     72  C   UNL A   1      41.690  25.246  27.597  1.00  0.00     0.173 A 
ATOM     73  C   UNL A   1      43.208  26.987  26.941  1.00  0.00     0.173 A 
ATOM     74  F   UNL A   1      40.778  24.740  28.440  1.00  0.00    -0.203 F 
ATOM     75  C   UNL A   1      42.119  24.470  26.521  1.00  0.00     0.198 A 
ATOM     76  C   UNL A   1      43.614  26.223  25.850  1.00  0.00     0.198 A 
ATOM     77  F   UNL A   1      43.764  28.192  27.129  1.00  0.00    -0.203 F 
ATOM     78  F   UNL A   1      41.618  23.240  26.344  1.00  0.00    -0.200 F 
ATOM     79  C   UNL A   1      43.075  24.961  25.645  1.00  0.00     0.200 A 
ATOM     80  F   UNL A   1      44.534  26.704  25.002  1.00  0.00    -0.200 F 
ATOM     81  F   UNL A   1      43.485  24.216  24.610  1.00  0.00    -0.200 F 
ENDBRANCH  47  71
BRANCH  59  82
ATOM     82  C   UNL A   1      44.700  27.157  34.311  1.00  0.00     0.064 A 
ATOM     83  C   UNL A   1      44.554  25.934  34.984  1.00  0.00     0.173 A 
ATOM     84  C   UNL A   1      45.969  27.756  34.305  1.00  0.00     0.173 A 
ATOM     85  F   UNL A   1      43.359  25.329  35.031  1.00  0.00    -0.203 F 
ATOM     86  C   UNL A   1      45.629  25.352  35.652  1.00  0.00     0.198 A 
ATOM     87  C   UNL A   1      47.048  27.157  34.950  1.00  0.00     0.198 A 
ATOM     88  F   UNL A   1      46.164  28.921  33.669  1.00  0.00    -0.203 F 
ATOM     89  F   UNL A   1      45.454  24.212  36.333  1.00  0.00    -0.200 F 
ATOM     90  C   UNL A   1      46.875  25.962  35.630  1.00  0.00     0.200 A 
ATOM     91  F   UNL A   1      48.254  27.741  34.918  1.00  0.00    -0.200 F 
ATOM     92  F   UNL A   1      47.908  25.400  36.273  1.00  0.00    -0.200 F 
ENDBRANCH  59  82
ENDBRANCH  33  34
ENDBRANCH  26  28
ENDBRANCH  25  26
ENDBRANCH  24  25
ENDBRANCH   1  24
TORSDOF 15
ENDMDL
MODEL 3
REMARK VINA RESULT:     -11.4      0.957      1.955
REMARK SMILES COC(=O)CNC(=O)N1[C@@H](C(=O)OCCOC(=O)c2ccc(-c3c4nc(c(-c5c(F)c(F)c(F)c(F)c5F)c5ccc([nH]5)c(-c5c(F)c(F)c(F)c(F)c5F)c5nc(c(-c6c(F)c(F)c(F)c(F)c6F)c6ccc3[nH]6)C=C5)C=C4)cc2)CC[C@@H]2CCCC[C@H]21
REMARK SMILES IDX 14 1 13 2 11 3 12 4 10 5 9 6 89 7 82 8 84 9 88 10 83 11
REMARK SMILES IDX 85 12 87 13 86 14 7 15 6 16 8 18 5 19 3 20 4 21 2 22 1 23
REMARK SMILES IDX 15 24 16 25 17 26 18 27 19 28 20 29 81 30 21 31 80 32 22 33
REMARK SMILES IDX 23 34 24 35 74 36 25 37 79 38 73 39 75 40 26 41 78 42 72 43
REMARK SMILES IDX 71 44 27 46 59 47 39 48 58 49 40 50 43 51 57 52 76 53 41 54
REMARK SMILES IDX 42 55 56 57 77 58 44 59 28 60 29 61 37 62 30 63 31 64 35 65
REMARK SMILES IDX 38 66 32 67 33 68 36 69 34 70 60 71 61 72 69 73 62 74 63 75
REMARK SMILES IDX 67 76 70 77 64 78 65 79 68 80 66 81 45 82 46 83 54 84 47 85
REMARK SMILES IDX 48 86 52 87 55 88 49 89 50 90 53 91 51 92
REMARK H PARENT 6 17 75 45 43 56
REMARK Flexibility Score: inf
ROOT
ATOM      1  C   UNL A   1      36.610  21.528  24.566  1.00  0.00     0.274 C 
ENDROOT
BRANCH   1   2
ATOM      2  O   UNL A   1      36.132  22.647  25.341  1.00  0.00    -0.461 OA
BRANCH   2   3
ATOM      3  C   UNL A   1      34.970  22.431  26.011  1.00  0.00     0.329 C 
ATOM      4  O   UNL A   1      34.789  21.474  26.758  1.00  0.00    -0.250 OA
BRANCH   3   5
ATOM      5  C   UNL A   1      33.898  23.510  25.752  1.00  0.00     0.197 C 
ATOM      6  N   UNL A   1      32.911  23.379  24.653  1.00  0.00    -0.308 N 
ATOM      7  C   UNL A   1      31.873  24.445  24.606  1.00  0.00     0.091 C 
ATOM      8  C   UNL A   1      34.480  24.921  25.877  1.00  0.00     0.038 C 
ATOM      9  C   UNL A   1      32.439  25.872  24.823  1.00  0.00     0.012 C 
ATOM     10  C   UNL A   1      30.970  24.454  23.352  1.00  0.00     0.025 C 
ATOM     11  C   UNL A   1      33.356  25.933  26.043  1.00  0.00     0.008 C 
ATOM     12  C   UNL A   1      31.298  26.889  24.977  1.00  0.00     0.006 C 
ATOM     13  C   UNL A   1      29.850  25.491  23.459  1.00  0.00     0.002 C 
ATOM     14  C   UNL A   1      30.388  26.889  23.755  1.00  0.00     0.000 C 
BRANCH   6  15
ATOM     15  C   UNL A   1      33.238  22.700  23.506  1.00  0.00     0.318 C 
ATOM     16  N   UNL A   1      32.832  21.402  23.413  1.00  0.00    -0.327 N 
ATOM     17  H   UNL A   1      32.927  21.001  22.519  1.00  0.00     0.166 HD
ATOM     18  O   UNL A   1      33.760  23.227  22.528  1.00  0.00    -0.249 OA
BRANCH  16  19
ATOM     19  C   UNL A   1      32.279  20.512  24.427  1.00  0.00     0.240 C 
BRANCH  19  20
ATOM     20  C   UNL A   1      32.908  19.171  24.756  1.00  0.00     0.325 C 
ATOM     21  O   UNL A   1      34.111  18.954  24.620  1.00  0.00    -0.250 OA
BRANCH  20  22
ATOM     22  O   UNL A   1      32.055  18.348  25.420  1.00  0.00    -0.468 OA
ATOM     23  C   UNL A   1      32.597  17.038  25.611  1.00  0.00     0.282 C 
ENDBRANCH  20  22
ENDBRANCH  19  20
ENDBRANCH  16  19
ENDBRANCH   6  15
ENDBRANCH   3   5
ENDBRANCH   2   3
ENDBRANCH   1   2
BRANCH   1  24
ATOM     24  C   UNL A   1      37.691  20.702  25.283  1.00  0.00     0.275 C 
BRANCH  24  25
ATOM     25  O   UNL A   1      38.983  21.349  25.294  1.00  0.00    -0.458 OA
BRANCH  25  26
ATOM     26  C   UNL A   1      39.717  21.140  26.413  1.00  0.00     0.338 C 
ATOM     27  O   UNL A   1      40.088  20.061  26.847  1.00  0.00    -0.246 OA
BRANCH  26  28
ATOM     28  C   UNL A   1      40.215  22.413  26.976  1.00  0.00     0.060 A 
ATOM     29  C   UNL A   1      39.705  23.590  26.415  1.00  0.00     0.016 A 
ATOM     30  C   UNL A   1      41.198  22.482  27.964  1.00  0.00     0.016 A 
ATOM     31  C   UNL A   1      40.153  24.835  26.841  1.00  0.00     0.010 A 
ATOM     32  C   UNL A   1      41.679  23.739  28.370  1.00  0.00     0.010 A 
ATOM     33  C   UNL A   1      41.166  24.919  27.802  1.00  0.00    -0.014 A 
BRANCH  33  34
ATOM     34  C   UNL A   1      41.742  26.254  28.097  1.00  0.00     0.031 A 
ATOM     35  C   UNL A   1      43.107  26.599  27.573  1.00  0.00     0.074 A 
ATOM     36  C   UNL A   1      41.010  27.188  28.730  1.00  0.00     0.049 A 
ATOM     37  N   UNL A   1      43.781  27.716  27.680  1.00  0.00    -0.248 NA
ATOM     38  C   UNL A   1      43.800  25.547  26.814  1.00  0.00     0.031 C 
ATOM     39  C   UNL A   1      39.647  26.997  29.226  1.00  0.00     0.029 A 
ATOM     40  N   UNL A   1      41.307  28.489  29.051  1.00  0.00    -0.354 N 
ATOM     41  C   UNL A   1      44.979  27.500  27.012  1.00  0.00     0.074 A 
ATOM     42  C   UNL A   1      44.947  26.140  26.515  1.00  0.00     0.031 C 
ATOM     43  C   UNL A   1      39.225  28.143  29.786  1.00  0.00     0.029 A 
ATOM     44  C   UNL A   1      40.296  29.136  29.716  1.00  0.00     0.049 A 
ATOM     45  H   UNL A   1      42.164  28.917  28.826  1.00  0.00     0.167 HD
ATOM     46  C   UNL A   1      46.009  28.359  26.825  1.00  0.00     0.037 A 
ATOM     47  C   UNL A   1      40.249  30.383  30.226  1.00  0.00     0.037 A 
ATOM     48  C   UNL A   1      46.041  29.713  27.313  1.00  0.00     0.049 A 
ATOM     49  C   UNL A   1      41.436  31.295  30.062  1.00  0.00     0.074 A 
ATOM     50  C   UNL A   1      47.045  30.657  27.178  1.00  0.00     0.029 A 
ATOM     51  N   UNL A   1      45.022  30.316  28.036  1.00  0.00    -0.354 N 
ATOM     52  N   UNL A   1      42.567  31.080  29.436  1.00  0.00    -0.248 NA
ATOM     53  C   UNL A   1      41.336  32.626  30.678  1.00  0.00     0.031 C 
ATOM     54  C   UNL A   1      46.650  31.817  27.855  1.00  0.00     0.029 A 
ATOM     55  C   UNL A   1      45.380  31.612  28.370  1.00  0.00     0.049 A 
ATOM     56  H   UNL A   1      44.169  29.886  28.274  1.00  0.00     0.167 HD
ATOM     57  C   UNL A   1      43.306  32.250  29.568  1.00  0.00     0.074 A 
ATOM     58  C   UNL A   1      42.484  33.180  30.313  1.00  0.00     0.031 C 
ATOM     59  C   UNL A   1      44.553  32.526  29.116  1.00  0.00     0.037 A 
BRANCH  46  60
ATOM     60  C   UNL A   1      47.208  27.844  26.085  1.00  0.00     0.064 A 
ATOM     61  C   UNL A   1      47.257  27.819  24.684  1.00  0.00     0.173 A 
ATOM     62  C   UNL A   1      48.333  27.393  26.791  1.00  0.00     0.173 A 
ATOM     63  F   UNL A   1      46.201  28.224  23.964  1.00  0.00    -0.203 F 
ATOM     64  C   UNL A   1      48.383  27.340  24.017  1.00  0.00     0.198 A 
ATOM     65  C   UNL A   1      49.466  26.939  26.121  1.00  0.00     0.198 A 
ATOM     66  F   UNL A   1      48.337  27.399  28.133  1.00  0.00    -0.203 F 
ATOM     67  F   UNL A   1      48.392  27.285  22.678  1.00  0.00    -0.200 F 
ATOM     68  C   UNL A   1      49.487  26.906  24.735  1.00  0.00     0.200 A 
ATOM     69  F   UNL A   1      50.535  26.529  26.817  1.00  0.00    -0.200 F 
ATOM     70  F   UNL A   1      50.570  26.449  24.091  1.00  0.00    -0.200 F 
ENDBRANCH  46  60
BRANCH  47  71
ATOM     71  C   UNL A   1      39.039  30.840  30.958  1.00  0.00     0.064 A 
ATOM     72  C   UNL A   1      38.911  30.648  32.340  1.00  0.00     0.173 A 
ATOM     73  C   UNL A   1      37.976  31.457  30.283  1.00  0.00     0.173 A 
ATOM     74  F   UNL A   1      39.889  30.034  33.024  1.00  0.00    -0.203 F 
ATOM     75  C   UNL A   1      37.758  31.040  33.017  1.00  0.00     0.198 A 
ATOM     76  C   UNL A   1      36.836  31.875  30.965  1.00  0.00     0.198 A 
ATOM     77  F   UNL A   1      38.046  31.656  28.959  1.00  0.00    -0.203 F 
ATOM     78  F   UNL A   1      37.640  30.802  34.331  1.00  0.00    -0.200 F 
ATOM     79  C   UNL A   1      36.724  31.659  32.331  1.00  0.00     0.200 A 
ATOM     80  F   UNL A   1      35.842  32.478  30.299  1.00  0.00    -0.200 F 
ATOM     81  F   UNL A   1      35.616  32.038  32.982  1.00  0.00    -0.200 F 
ENDBRANCH  47  71
BRANCH  59  82
ATOM     82  C   UNL A   1      45.096  33.897  29.400  1.00  0.00     0.064 A 
ATOM     83  C   UNL A   1      45.848  34.165  30.554  1.00  0.00     0.173 A 
ATOM     84  C   UNL A   1      44.876  34.951  28.500  1.00  0.00     0.173 A 
ATOM     85  F   UNL A   1      46.073  33.195  31.452  1.00  0.00    -0.203 F 
ATOM     86  C   UNL A   1      46.333  35.445  30.812  1.00  0.00     0.198 A 
ATOM     87  C   UNL A   1      45.386  36.223  28.746  1.00  0.00     0.198 A 
ATOM     88  F   UNL A   1      44.170  34.746  27.378  1.00  0.00    -0.203 F 
ATOM     89  F   UNL A   1      47.002  35.690  31.946  1.00  0.00    -0.200 F 
ATOM     90  C   UNL A   1      46.105  36.471  29.906  1.00  0.00     0.200 A 
ATOM     91  F   UNL A   1      45.176  37.210  27.865  1.00  0.00    -0.200 F 
ATOM     92  F   UNL A   1      46.572  37.702  30.155  1.00  0.00    -0.200 F 
ENDBRANCH  59  82
ENDBRANCH  33  34
ENDBRANCH  26  28
ENDBRANCH  25  26
ENDBRANCH  24  25
ENDBRANCH   1  24
TORSDOF 15
ENDMDL
