MODEL 1
REMARK VINA RESULT:     -13.6      0.000      0.000
REMARK SMILES Cc1ccc2cc(C[N@H+]3CC[NH2+][C@H](C(=O)OCCOC(=O)c4ccc(-c5c6nc(c(-c7c(F)c(F)c(F)c(F)c7F)c7ccc([nH]7)c(-c7c(F)c(F)c(F)c(F)c7F)c7nc(c(-c8c(F)c(F)c(F)c(F)c8F)c8ccc5[nH]8)C=C7)C=C6)cc4)C3)c(N3CCOCC3)nc2c1
REMARK SMILES IDX 17 1 16 2 14 3 15 4 13 5 9 6 10 7 85 8 11 10 12 11 8 14 7 15
REMARK SMILES IDX 1 16 2 17 3 18 95 19 4 20 94 21 5 22 93 23 6 24 86 25 87 26
REMARK SMILES IDX 88 27 92 28 89 29 91 30 90 31 18 32 19 33 20 34 21 35 22 36
REMARK SMILES IDX 23 37 84 38 24 39 83 40 25 41 26 42 27 43 77 44 28 45 82 46
REMARK SMILES IDX 76 47 78 48 29 49 81 50 75 51 74 52 30 54 62 55 42 56 61 57
REMARK SMILES IDX 43 58 46 59 60 60 79 61 44 62 45 63 59 65 80 66 47 67 31 68
REMARK SMILES IDX 32 69 40 70 33 71 34 72 38 73 41 74 35 75 36 76 39 77 37 78
REMARK SMILES IDX 63 79 64 80 72 81 65 82 66 83 70 84 73 85 67 86 68 87 71 88
REMARK SMILES IDX 69 89 48 90 49 91 57 92 50 93 51 94 55 95 58 96 52 97 53 98
REMARK SMILES IDX 56 99 54 100
REMARK H PARENT 9 9 12 12 12 13 78 53 46 64
REMARK Flexibility Score: inf
ROOT
ATOM      1  C   UNL A   1      31.577  28.241  25.088  1.00  0.00     0.274 C 
ENDROOT
BRANCH   1   2
ATOM      2  O   UNL A   1      32.646  27.295  25.291  1.00  0.00    -0.457 OA
BRANCH   2   3
ATOM      3  C   UNL A   1      33.422  26.981  24.216  1.00  0.00     0.371 C 
ATOM      4  O   UNL A   1      34.028  27.799  23.531  1.00  0.00    -0.245 OA
BRANCH   3   5
ATOM      5  C   UNL A   1      33.510  25.460  24.015  1.00  0.00     0.348 C 
ATOM      6  N   UNL A   1      35.297  23.634  24.507  1.00  0.00    -0.321 N 
ATOM      7  C   UNL A   1      35.059  23.172  23.137  1.00  0.00     0.324 C 
ATOM      8  C   UNL A   1      34.782  24.983  24.753  1.00  0.00     0.341 C 
ATOM      9  H   UNL A   1      36.313  23.716  24.563  1.00  0.00     0.348 HD
ATOM     10  C   UNL A   1      33.748  23.659  22.472  1.00  0.00     0.323 C 
ATOM     11  N   UNL A   1      33.549  25.119  22.572  1.00  0.00    -0.325 N 
ATOM     12  H   UNL A   1      32.670  25.384  22.127  1.00  0.00     0.347 HD
ATOM     13  H   UNL A   1      34.304  25.619  22.103  1.00  0.00     0.347 HD
BRANCH   6  14
ATOM     14  C   UNL A   1      35.040  22.660  25.582  1.00  0.00     0.303 C 
BRANCH  14  15
ATOM     15  C   UNL A   1      34.271  21.422  25.184  1.00  0.00     0.049 A 
ATOM     16  C   UNL A   1      32.529  15.213  25.379  1.00  0.00     0.044 C 
ATOM     17  C   UNL A   1      33.156  16.550  25.123  1.00  0.00    -0.049 A 
ATOM     18  C   UNL A   1      34.473  16.629  24.676  1.00  0.00     0.004 A 
ATOM     19  C   UNL A   1      32.421  17.736  25.309  1.00  0.00     0.032 A 
ATOM     20  C   UNL A   1      35.060  17.874  24.491  1.00  0.00     0.010 A 
ATOM     21  C   UNL A   1      32.989  18.998  25.148  1.00  0.00     0.073 A 
ATOM     22  C   UNL A   1      34.339  19.046  24.767  1.00  0.00     0.001 A 
ATOM     23  N   UNL A   1      32.270  20.117  25.384  1.00  0.00    -0.230 NA
ATOM     24  C   UNL A   1      34.965  20.287  24.758  1.00  0.00     0.023 A 
ATOM     25  C   UNL A   1      32.888  21.319  25.365  1.00  0.00     0.138 A 
BRANCH  25  26
ATOM     26  N   UNL A   1      32.139  22.470  25.553  1.00  0.00    -0.352 N 
ATOM     27  C   UNL A   1      31.028  22.687  24.611  1.00  0.00     0.146 C 
ATOM     28  C   UNL A   1      31.826  22.892  26.917  1.00  0.00     0.146 C 
ATOM     29  C   UNL A   1      30.645  24.175  24.641  1.00  0.00     0.181 C 
ATOM     30  C   UNL A   1      31.412  24.376  26.872  1.00  0.00     0.181 C 
ATOM     31  O   UNL A   1      30.308  24.602  25.973  1.00  0.00    -0.378 OA
ENDBRANCH  25  26
ENDBRANCH  14  15
ENDBRANCH   6  14
ENDBRANCH   3   5
ENDBRANCH   2   3
ENDBRANCH   1   2
BRANCH   1  32
ATOM     32  C   UNL A   1      31.733  29.436  26.036  1.00  0.00     0.275 C 
BRANCH  32  33
ATOM     33  O   UNL A   1      33.002  30.103  25.854  1.00  0.00    -0.458 OA
BRANCH  33  34
ATOM     34  C   UNL A   1      33.286  31.016  26.805  1.00  0.00     0.338 C 
ATOM     35  O   UNL A   1      32.541  31.870  27.251  1.00  0.00    -0.246 OA
BRANCH  34  36
ATOM     36  C   UNL A   1      34.618  30.818  27.382  1.00  0.00     0.060 A 
ATOM     37  C   UNL A   1      35.475  31.878  27.657  1.00  0.00     0.016 A 
ATOM     38  C   UNL A   1      34.911  29.542  27.852  1.00  0.00     0.016 A 
ATOM     39  C   UNL A   1      36.643  31.629  28.389  1.00  0.00     0.010 A 
ATOM     40  C   UNL A   1      35.982  29.327  28.702  1.00  0.00     0.010 A 
ATOM     41  C   UNL A   1      36.903  30.351  28.924  1.00  0.00    -0.014 A 
BRANCH  41  42
ATOM     42  C   UNL A   1      38.174  30.045  29.628  1.00  0.00     0.031 A 
ATOM     43  C   UNL A   1      38.394  30.545  31.034  1.00  0.00     0.074 A 
ATOM     44  C   UNL A   1      39.141  29.343  29.008  1.00  0.00     0.049 A 
ATOM     45  N   UNL A   1      39.379  30.287  31.858  1.00  0.00    -0.248 NA
ATOM     46  C   UNL A   1      37.404  31.492  31.578  1.00  0.00     0.031 C 
ATOM     47  C   UNL A   1      39.110  28.908  27.612  1.00  0.00     0.029 A 
ATOM     48  N   UNL A   1      40.329  28.853  29.487  1.00  0.00    -0.354 N 
ATOM     49  C   UNL A   1      39.124  31.040  32.996  1.00  0.00     0.074 A 
ATOM     50  C   UNL A   1      37.955  31.841  32.729  1.00  0.00     0.031 C 
ATOM     51  C   UNL A   1      40.193  28.152  27.367  1.00  0.00     0.029 A 
ATOM     52  C   UNL A   1      40.988  28.051  28.588  1.00  0.00     0.049 A 
ATOM     53  H   UNL A   1      40.676  29.056  30.386  1.00  0.00     0.167 HD
ATOM     54  C   UNL A   1      39.763  31.023  34.188  1.00  0.00     0.037 A 
ATOM     55  C   UNL A   1      42.081  27.280  28.753  1.00  0.00     0.037 A 
ATOM     56  C   UNL A   1      40.882  30.176  34.481  1.00  0.00     0.049 A 
ATOM     57  C   UNL A   1      42.747  27.220  30.100  1.00  0.00     0.074 A 
ATOM     58  C   UNL A   1      41.531  29.986  35.687  1.00  0.00     0.029 A 
ATOM     59  N   UNL A   1      41.512  29.367  33.548  1.00  0.00    -0.354 N 
ATOM     60  N   UNL A   1      42.417  27.830  31.212  1.00  0.00    -0.248 NA
ATOM     61  C   UNL A   1      43.928  26.352  30.218  1.00  0.00     0.031 C 
ATOM     62  C   UNL A   1      42.573  29.075  35.477  1.00  0.00     0.029 A 
ATOM     63  C   UNL A   1      42.555  28.686  34.146  1.00  0.00     0.049 A 
ATOM     64  H   UNL A   1      41.254  29.288  32.601  1.00  0.00     0.167 HD
ATOM     65  C   UNL A   1      43.336  27.413  32.164  1.00  0.00     0.074 A 
ATOM     66  C   UNL A   1      44.232  26.485  31.503  1.00  0.00     0.031 C 
ATOM     67  C   UNL A   1      43.431  27.767  33.468  1.00  0.00     0.037 A 
BRANCH  54  68
ATOM     68  C   UNL A   1      39.220  31.904  35.272  1.00  0.00     0.064 A 
ATOM     69  C   UNL A   1      39.518  33.275  35.310  1.00  0.00     0.173 A 
ATOM     70  C   UNL A   1      38.398  31.381  36.280  1.00  0.00     0.173 A 
ATOM     71  F   UNL A   1      40.314  33.818  34.376  1.00  0.00    -0.203 F 
ATOM     72  C   UNL A   1      39.044  34.084  36.338  1.00  0.00     0.198 A 
ATOM     73  C   UNL A   1      37.903  32.199  37.292  1.00  0.00     0.198 A 
ATOM     74  F   UNL A   1      38.081  30.078  36.287  1.00  0.00    -0.203 F 
ATOM     75  F   UNL A   1      39.390  35.378  36.382  1.00  0.00    -0.200 F 
ATOM     76  C   UNL A   1      38.233  33.546  37.326  1.00  0.00     0.200 A 
ATOM     77  F   UNL A   1      37.113  31.683  38.243  1.00  0.00    -0.200 F 
ATOM     78  F   UNL A   1      37.778  34.327  38.316  1.00  0.00    -0.200 F 
ENDBRANCH  54  68
BRANCH  55  79
ATOM     79  C   UNL A   1      42.534  26.415  27.636  1.00  0.00     0.064 A 
ATOM     80  C   UNL A   1      43.540  26.855  26.764  1.00  0.00     0.173 A 
ATOM     81  C   UNL A   1      42.013  25.129  27.441  1.00  0.00     0.173 A 
ATOM     82  F   UNL A   1      44.059  28.084  26.908  1.00  0.00    -0.203 F 
ATOM     83  C   UNL A   1      44.006  26.040  25.736  1.00  0.00     0.198 A 
ATOM     84  C   UNL A   1      42.490  24.310  26.419  1.00  0.00     0.198 A 
ATOM     85  F   UNL A   1      41.054  24.664  28.255  1.00  0.00    -0.203 F 
ATOM     86  F   UNL A   1      44.958  26.490  24.907  1.00  0.00    -0.200 F 
ATOM     87  C   UNL A   1      43.485  24.767  25.567  1.00  0.00     0.200 A 
ATOM     88  F   UNL A   1      41.991  23.076  26.265  1.00  0.00    -0.200 F 
ATOM     89  F   UNL A   1      43.941  23.979  24.584  1.00  0.00    -0.200 F 
ENDBRANCH  55  79
BRANCH  67  90
ATOM     90  C   UNL A   1      44.540  27.169  34.274  1.00  0.00     0.064 A 
ATOM     91  C   UNL A   1      44.393  25.914  34.880  1.00  0.00     0.173 A 
ATOM     92  C   UNL A   1      45.791  27.797  34.344  1.00  0.00     0.173 A 
ATOM     93  F   UNL A   1      43.210  25.282  34.845  1.00  0.00    -0.203 F 
ATOM     94  C   UNL A   1      45.464  25.307  35.529  1.00  0.00     0.198 A 
ATOM     95  C   UNL A   1      46.865  27.179  34.977  1.00  0.00     0.198 A 
ATOM     96  F   UNL A   1      45.979  28.995  33.769  1.00  0.00    -0.203 F 
ATOM     97  F   UNL A   1      45.301  24.111  36.111  1.00  0.00    -0.200 F 
ATOM     98  C   UNL A   1      46.701  25.934  35.566  1.00  0.00     0.200 A 
ATOM     99  F   UNL A   1      48.063  27.779  35.002  1.00  0.00    -0.200 F 
ATOM    100  F   UNL A   1      47.737  25.337  36.171  1.00  0.00    -0.200 F 
ENDBRANCH  67  90
ENDBRANCH  41  42
ENDBRANCH  34  36
ENDBRANCH  33  34
ENDBRANCH  32  33
ENDBRANCH   1  32
TORSDOF 14
ENDMDL
MODEL 2
REMARK VINA RESULT:     -13.1      4.278     10.052
REMARK SMILES Cc1ccc2cc(C[N@H+]3CC[NH2+][C@H](C(=O)OCCOC(=O)c4ccc(-c5c6nc(c(-c7c(F)c(F)c(F)c(F)c7F)c7ccc([nH]7)c(-c7c(F)c(F)c(F)c(F)c7F)c7nc(c(-c8c(F)c(F)c(F)c(F)c8F)c8ccc5[nH]8)C=C7)C=C6)cc4)C3)c(N3CCOCC3)nc2c1
REMARK SMILES IDX 17 1 16 2 14 3 15 4 13 5 9 6 10 7 85 8 11 10 12 11 8 14 7 15
REMARK SMILES IDX 1 16 2 17 3 18 95 19 4 20 94 21 5 22 93 23 6 24 86 25 87 26
REMARK SMILES IDX 88 27 92 28 89 29 91 30 90 31 18 32 19 33 20 34 21 35 22 36
REMARK SMILES IDX 23 37 84 38 24 39 83 40 25 41 26 42 27 43 77 44 28 45 82 46
REMARK SMILES IDX 76 47 78 48 29 49 81 50 75 51 74 52 30 54 62 55 42 56 61 57
REMARK SMILES IDX 43 58 46 59 60 60 79 61 44 62 45 63 59 65 80 66 47 67 31 68
REMARK SMILES IDX 32 69 40 70 33 71 34 72 38 73 41 74 35 75 36 76 39 77 37 78
REMARK SMILES IDX 63 79 64 80 72 81 65 82 66 83 70 84 73 85 67 86 68 87 71 88
REMARK SMILES IDX 69 89 48 90 49 91 57 92 50 93 51 94 55 95 58 96 52 97 53 98
REMARK SMILES IDX 56 99 54 100
REMARK H PARENT 9 9 12 12 12 13 78 53 46 64
REMARK Flexibility Score: inf
ROOT
ATOM      1  C   UNL A   1      34.821  22.141  24.581  1.00  0.00     0.274 C 
ENDROOT
BRANCH   1   2
ATOM      2  O   UNL A   1      34.785  23.464  25.154  1.00  0.00    -0.457 OA
BRANCH   2   3
ATOM      3  C   UNL A   1      33.895  23.690  26.160  1.00  0.00     0.371 C 
ATOM      4  O   UNL A   1      33.933  23.147  27.260  1.00  0.00    -0.245 OA
BRANCH   3   5
ATOM      5  C   UNL A   1      32.879  24.778  25.774  1.00  0.00     0.348 C 
ATOM      6  N   UNL A   1      32.696  27.346  26.147  1.00  0.00    -0.321 N 
ATOM      7  C   UNL A   1      31.316  27.087  26.567  1.00  0.00     0.324 C 
ATOM      8  C   UNL A   1      33.524  26.139  26.127  1.00  0.00     0.341 C 
ATOM      9  H   UNL A   1      33.074  27.924  26.898  1.00  0.00     0.348 HD
ATOM     10  C   UNL A   1      30.721  25.720  26.149  1.00  0.00     0.323 C 
ATOM     11  N   UNL A   1      31.594  24.577  26.486  1.00  0.00    -0.325 N 
ATOM     12  H   UNL A   1      31.160  23.704  26.183  1.00  0.00     0.347 HD
ATOM     13  H   UNL A   1      31.743  24.521  27.494  1.00  0.00     0.347 HD
BRANCH   6  14
ATOM     14  C   UNL A   1      32.872  28.245  24.993  1.00  0.00     0.303 C 
BRANCH  14  15
ATOM     15  C   UNL A   1      31.627  28.548  24.193  1.00  0.00     0.049 A 
ATOM     16  C   UNL A   1      27.654  32.068  20.526  1.00  0.00     0.044 C 
ATOM     17  C   UNL A   1      28.419  31.393  21.623  1.00  0.00    -0.049 A 
ATOM     18  C   UNL A   1      28.504  31.983  22.881  1.00  0.00     0.004 A 
ATOM     19  C   UNL A   1      29.041  30.149  21.404  1.00  0.00     0.032 A 
ATOM     20  C   UNL A   1      29.257  31.373  23.876  1.00  0.00     0.010 A 
ATOM     21  C   UNL A   1      29.817  29.523  22.377  1.00  0.00     0.073 A 
ATOM     22  C   UNL A   1      29.944  30.178  23.612  1.00  0.00     0.001 A 
ATOM     23  N   UNL A   1      30.443  28.354  22.117  1.00  0.00    -0.230 NA
ATOM     24  C   UNL A   1      30.841  29.652  24.535  1.00  0.00     0.023 A 
ATOM     25  C   UNL A   1      31.308  27.848  23.026  1.00  0.00     0.138 A 
BRANCH  25  26
ATOM     26  N   UNL A   1      31.907  26.622  22.783  1.00  0.00    -0.352 N 
ATOM     27  C   UNL A   1      31.000  25.497  22.500  1.00  0.00     0.146 C 
ATOM     28  C   UNL A   1      33.135  26.583  21.991  1.00  0.00     0.146 C 
ATOM     29  C   UNL A   1      31.758  24.183  22.746  1.00  0.00     0.181 C 
ATOM     30  C   UNL A   1      33.825  25.229  22.252  1.00  0.00     0.181 C 
ATOM     31  O   UNL A   1      32.958  24.116  21.955  1.00  0.00    -0.378 OA
ENDBRANCH  25  26
ENDBRANCH  14  15
ENDBRANCH   6  14
ENDBRANCH   3   5
ENDBRANCH   2   3
ENDBRANCH   1   2
BRANCH   1  32
ATOM     32  C   UNL A   1      36.242  21.568  24.649  1.00  0.00     0.275 C 
BRANCH  32  33
ATOM     33  O   UNL A   1      36.888  21.883  25.903  1.00  0.00    -0.458 OA
BRANCH  33  34
ATOM     34  C   UNL A   1      38.222  21.686  25.900  1.00  0.00     0.338 C 
ATOM     35  O   UNL A   1      38.830  20.771  25.375  1.00  0.00    -0.246 OA
BRANCH  34  36
ATOM     36  C   UNL A   1      38.947  22.794  26.527  1.00  0.00     0.060 A 
ATOM     37  C   UNL A   1      40.121  22.603  27.247  1.00  0.00     0.016 A 
ATOM     38  C   UNL A   1      38.535  24.080  26.189  1.00  0.00     0.016 A 
ATOM     39  C   UNL A   1      40.860  23.725  27.643  1.00  0.00     0.010 A 
ATOM     40  C   UNL A   1      39.341  25.175  26.447  1.00  0.00     0.010 A 
ATOM     41  C   UNL A   1      40.479  25.022  27.240  1.00  0.00    -0.014 A 
BRANCH  41  42
ATOM     42  C   UNL A   1      41.197  26.229  27.720  1.00  0.00     0.031 A 
ATOM     43  C   UNL A   1      42.616  26.485  27.277  1.00  0.00     0.074 A 
ATOM     44  C   UNL A   1      40.596  27.085  28.568  1.00  0.00     0.049 A 
ATOM     45  N   UNL A   1      43.371  27.535  27.488  1.00  0.00    -0.248 NA
ATOM     46  C   UNL A   1      43.298  25.409  26.536  1.00  0.00     0.031 C 
ATOM     47  C   UNL A   1      39.277  26.894  29.171  1.00  0.00     0.029 A 
ATOM     48  N   UNL A   1      41.012  28.301  29.048  1.00  0.00    -0.354 N 
ATOM     49  C   UNL A   1      44.600  27.236  26.915  1.00  0.00     0.074 A 
ATOM     50  C   UNL A   1      44.532  25.877  26.437  1.00  0.00     0.031 C 
ATOM     51  C   UNL A   1      38.960  27.988  29.882  1.00  0.00     0.029 A 
ATOM     52  C   UNL A   1      40.052  28.953  29.781  1.00  0.00     0.049 A 
ATOM     53  H   UNL A   1      41.910  28.668  28.883  1.00  0.00     0.167 HD
ATOM     54  C   UNL A   1      45.674  28.039  26.739  1.00  0.00     0.037 A 
ATOM     55  C   UNL A   1      40.038  30.210  30.268  1.00  0.00     0.037 A 
ATOM     56  C   UNL A   1      45.719  29.412  27.150  1.00  0.00     0.049 A 
ATOM     57  C   UNL A   1      41.212  31.115  30.012  1.00  0.00     0.074 A 
ATOM     58  C   UNL A   1      46.705  30.352  26.916  1.00  0.00     0.029 A 
ATOM     59  N   UNL A   1      44.721  30.041  27.877  1.00  0.00    -0.354 N 
ATOM     60  N   UNL A   1      42.315  30.868  29.348  1.00  0.00    -0.248 NA
ATOM     61  C   UNL A   1      41.131  32.477  30.560  1.00  0.00     0.031 C 
ATOM     62  C   UNL A   1      46.312  31.550  27.524  1.00  0.00     0.029 A 
ATOM     63  C   UNL A   1      45.074  31.356  28.117  1.00  0.00     0.049 A 
ATOM     64  H   UNL A   1      43.886  29.615  28.177  1.00  0.00     0.167 HD
ATOM     65  C   UNL A   1      43.053  32.042  29.386  1.00  0.00     0.074 A 
ATOM     66  C   UNL A   1      42.267  33.008  30.127  1.00  0.00     0.031 C 
ATOM     67  C   UNL A   1      44.273  32.297  28.855  1.00  0.00     0.037 A 
BRANCH  54  68
ATOM     68  C   UNL A   1      46.854  27.461  26.018  1.00  0.00     0.064 A 
ATOM     69  C   UNL A   1      47.871  26.788  26.714  1.00  0.00     0.173 A 
ATOM     70  C   UNL A   1      46.973  27.576  24.626  1.00  0.00     0.173 A 
ATOM     71  F   UNL A   1      47.808  26.668  28.049  1.00  0.00    -0.203 F 
ATOM     72  C   UNL A   1      48.983  26.285  26.048  1.00  0.00     0.198 A 
ATOM     73  C   UNL A   1      48.076  27.046  23.960  1.00  0.00     0.198 A 
ATOM     74  F   UNL A   1      46.027  28.205  23.915  1.00  0.00    -0.203 F 
ATOM     75  F   UNL A   1      49.968  25.698  26.742  1.00  0.00    -0.200 F 
ATOM     76  C   UNL A   1      49.083  26.411  24.671  1.00  0.00     0.200 A 
ATOM     77  F   UNL A   1      48.169  27.160  22.628  1.00  0.00    -0.200 F 
ATOM     78  F   UNL A   1      50.156  25.926  24.031  1.00  0.00    -0.200 F 
ENDBRANCH  54  68
BRANCH  55  79
ATOM     79  C   UNL A   1      38.817  30.713  30.943  1.00  0.00     0.064 A 
ATOM     80  C   UNL A   1      37.730  31.174  30.186  1.00  0.00     0.173 A 
ATOM     81  C   UNL A   1      38.689  30.705  32.338  1.00  0.00     0.173 A 
ATOM     82  F   UNL A   1      37.815  31.210  28.848  1.00  0.00    -0.203 F 
ATOM     83  C   UNL A   1      36.561  31.612  30.801  1.00  0.00     0.198 A 
ATOM     84  C   UNL A   1      37.512  31.132  32.952  1.00  0.00     0.198 A 
ATOM     85  F   UNL A   1      39.700  30.267  33.102  1.00  0.00    -0.203 F 
ATOM     86  F   UNL A   1      35.543  32.063  30.056  1.00  0.00    -0.200 F 
ATOM     87  C   UNL A   1      36.450  31.585  32.182  1.00  0.00     0.200 A 
ATOM     88  F   UNL A   1      37.404  31.095  34.286  1.00  0.00    -0.200 F 
ATOM     89  F   UNL A   1      35.320  31.997  32.774  1.00  0.00    -0.200 F 
ENDBRANCH  55  79
BRANCH  67  90
ATOM     90  C   UNL A   1      44.850  33.663  29.057  1.00  0.00     0.064 A 
ATOM     91  C   UNL A   1      44.471  34.733  28.236  1.00  0.00     0.173 A 
ATOM     92  C   UNL A   1      45.693  33.927  30.145  1.00  0.00     0.173 A 
ATOM     93  F   UNL A   1      43.672  34.522  27.178  1.00  0.00    -0.203 F 
ATOM     94  C   UNL A   1      44.916  36.024  28.499  1.00  0.00     0.198 A 
ATOM     95  C   UNL A   1      46.121  35.223  30.416  1.00  0.00     0.198 A 
ATOM     96  F   UNL A   1      46.073  32.934  30.963  1.00  0.00    -0.203 F 
ATOM     97  F   UNL A   1      44.550  37.034  27.696  1.00  0.00    -0.200 F 
ATOM     98  C   UNL A   1      45.731  36.270  29.595  1.00  0.00     0.200 A 
ATOM     99  F   UNL A   1      46.898  35.462  31.482  1.00  0.00    -0.200 F 
ATOM    100  F   UNL A   1      46.139  37.519  29.860  1.00  0.00    -0.200 F 
ENDBRANCH  67  90
ENDBRANCH  41  42
ENDBRANCH  34  36
ENDBRANCH  33  34
ENDBRANCH  32  33
ENDBRANCH   1  32
TORSDOF 14
ENDMDL
MODEL 3
REMARK VINA RESULT:     -12.9      4.325     10.110
REMARK SMILES Cc1ccc2cc(C[N@H+]3CC[NH2+][C@H](C(=O)OCCOC(=O)c4ccc(-c5c6nc(c(-c7c(F)c(F)c(F)c(F)c7F)c7ccc([nH]7)c(-c7c(F)c(F)c(F)c(F)c7F)c7nc(c(-c8c(F)c(F)c(F)c(F)c8F)c8ccc5[nH]8)C=C7)C=C6)cc4)C3)c(N3CCOCC3)nc2c1
REMARK SMILES IDX 17 1 16 2 14 3 15 4 13 5 9 6 10 7 85 8 11 10 12 11 8 14 7 15
REMARK SMILES IDX 1 16 2 17 3 18 95 19 4 20 94 21 5 22 93 23 6 24 86 25 87 26
REMARK SMILES IDX 88 27 92 28 89 29 91 30 90 31 18 32 19 33 20 34 21 35 22 36
REMARK SMILES IDX 23 37 84 38 24 39 83 40 25 41 26 42 27 43 77 44 28 45 82 46
REMARK SMILES IDX 76 47 78 48 29 49 81 50 75 51 74 52 30 54 62 55 42 56 61 57
REMARK SMILES IDX 43 58 46 59 60 60 79 61 44 62 45 63 59 65 80 66 47 67 31 68
REMARK SMILES IDX 32 69 40 70 33 71 34 72 38 73 41 74 35 75 36 76 39 77 37 78
REMARK SMILES IDX 63 79 64 80 72 81 65 82 66 83 70 84 73 85 67 86 68 87 71 88
REMARK SMILES IDX 69 89 48 90 49 91 57 92 50 93 51 94 55 95 58 96 52 97 53 98
REMARK SMILES IDX 56 99 54 100
REMARK H PARENT 9 9 12 12 12 13 78 53 46 64
REMARK Flexibility Score: inf
ROOT
ATOM      1  C   UNL A   1      35.913  20.508  25.076  1.00  0.00     0.274 C 
ENDROOT
BRANCH   1   2
ATOM      2  O   UNL A   1      35.435  21.469  26.040  1.00  0.00    -0.457 OA
BRANCH   2   3
ATOM      3  C   UNL A   1      34.160  21.925  25.895  1.00  0.00     0.371 C 
ATOM      4  O   UNL A   1      33.229  21.643  26.644  1.00  0.00    -0.245 OA
BRANCH   3   5
ATOM      5  C   UNL A   1      34.047  22.908  24.719  1.00  0.00     0.348 C 
ATOM      6  N   UNL A   1      32.837  25.176  24.318  1.00  0.00    -0.321 N 
ATOM      7  C   UNL A   1      32.367  24.590  23.059  1.00  0.00     0.324 C 
ATOM      8  C   UNL A   1      33.347  24.176  25.258  1.00  0.00     0.341 C 
ATOM      9  H   UNL A   1      31.988  25.545  24.746  1.00  0.00     0.348 HD
ATOM     10  C   UNL A   1      33.137  23.343  22.559  1.00  0.00     0.323 C 
ATOM     11  N   UNL A   1      33.296  22.301  23.593  1.00  0.00    -0.325 N 
ATOM     12  H   UNL A   1      33.815  21.508  23.214  1.00  0.00     0.347 HD
ATOM     13  H   UNL A   1      32.387  21.961  23.906  1.00  0.00     0.347 HD
BRANCH   6  14
ATOM     14  C   UNL A   1      33.645  26.402  24.208  1.00  0.00     0.303 C 
BRANCH  14  15
ATOM     15  C   UNL A   1      33.400  27.454  25.264  1.00  0.00     0.049 A 
ATOM     16  C   UNL A   1      34.383  32.959  28.483  1.00  0.00     0.044 C 
ATOM     17  C   UNL A   1      34.369  31.560  27.947  1.00  0.00    -0.049 A 
ATOM     18  C   UNL A   1      35.463  30.722  28.152  1.00  0.00     0.004 A 
ATOM     19  C   UNL A   1      33.249  31.068  27.250  1.00  0.00     0.032 A 
ATOM     20  C   UNL A   1      35.461  29.445  27.607  1.00  0.00     0.010 A 
ATOM     21  C   UNL A   1      33.225  29.798  26.678  1.00  0.00     0.073 A 
ATOM     22  C   UNL A   1      34.371  29.004  26.840  1.00  0.00     0.001 A 
ATOM     23  N   UNL A   1      32.153  29.376  25.972  1.00  0.00    -0.230 NA
ATOM     24  C   UNL A   1      34.430  27.802  26.143  1.00  0.00     0.023 A 
ATOM     25  C   UNL A   1      32.220  28.202  25.304  1.00  0.00     0.138 A 
BRANCH  25  26
ATOM     26  N   UNL A   1      31.101  27.744  24.626  1.00  0.00    -0.352 N 
ATOM     27  C   UNL A   1      30.174  26.894  25.393  1.00  0.00     0.146 C 
ATOM     28  C   UNL A   1      30.419  28.647  23.701  1.00  0.00     0.146 C 
ATOM     29  C   UNL A   1      29.307  26.099  24.405  1.00  0.00     0.181 C 
ATOM     30  C   UNL A   1      29.538  27.794  22.767  1.00  0.00     0.181 C 
ATOM     31  O   UNL A   1      28.607  26.974  23.502  1.00  0.00    -0.378 OA
ENDBRANCH  25  26
ENDBRANCH  14  15
ENDBRANCH   6  14
ENDBRANCH   3   5
ENDBRANCH   2   3
ENDBRANCH   1   2
BRANCH   1  32
ATOM     32  C   UNL A   1      37.408  20.718  24.809  1.00  0.00     0.275 C 
BRANCH  32  33
ATOM     33  O   UNL A   1      37.951  21.791  25.611  1.00  0.00    -0.458 OA
BRANCH  33  34
ATOM     34  C   UNL A   1      39.133  21.500  26.192  1.00  0.00     0.338 C 
ATOM     35  O   UNL A   1      39.705  20.425  26.200  1.00  0.00    -0.246 OA
BRANCH  34  36
ATOM     36  C   UNL A   1      39.776  22.686  26.762  1.00  0.00     0.060 A 
ATOM     37  C   UNL A   1      40.864  22.602  27.624  1.00  0.00     0.016 A 
ATOM     38  C   UNL A   1      39.398  23.916  26.232  1.00  0.00     0.016 A 
ATOM     39  C   UNL A   1      41.548  23.775  27.965  1.00  0.00     0.010 A 
ATOM     40  C   UNL A   1      40.164  25.049  26.448  1.00  0.00     0.010 A 
ATOM     41  C   UNL A   1      41.207  25.010  27.374  1.00  0.00    -0.014 A 
BRANCH  41  42
ATOM     42  C   UNL A   1      41.861  26.277  27.786  1.00  0.00     0.031 A 
ATOM     43  C   UNL A   1      43.220  26.634  27.240  1.00  0.00     0.074 A 
ATOM     44  C   UNL A   1      41.255  27.099  28.664  1.00  0.00     0.049 A 
ATOM     45  N   UNL A   1      43.903  27.743  27.383  1.00  0.00    -0.248 NA
ATOM     46  C   UNL A   1      43.931  25.601  26.465  1.00  0.00     0.031 C 
ATOM     47  C   UNL A   1      40.001  26.818  29.363  1.00  0.00     0.029 A 
ATOM     48  N   UNL A   1      41.607  28.352  29.097  1.00  0.00    -0.354 N 
ATOM     49  C   UNL A   1      45.108  27.529  26.727  1.00  0.00     0.074 A 
ATOM     50  C   UNL A   1      45.113  26.161  26.272  1.00  0.00     0.031 C 
ATOM     51  C   UNL A   1      39.650  27.897  30.080  1.00  0.00     0.029 A 
ATOM     52  C   UNL A   1      40.653  28.942  29.889  1.00  0.00     0.049 A 
ATOM     53  H   UNL A   1      42.460  28.785  28.864  1.00  0.00     0.167 HD
ATOM     54  C   UNL A   1      46.101  28.410  26.464  1.00  0.00     0.037 A 
ATOM     55  C   UNL A   1      40.575  30.202  30.360  1.00  0.00     0.037 A 
ATOM     56  C   UNL A   1      46.067  29.790  26.853  1.00  0.00     0.049 A 
ATOM     57  C   UNL A   1      41.653  31.190  30.009  1.00  0.00     0.074 A 
ATOM     58  C   UNL A   1      46.958  30.799  26.537  1.00  0.00     0.029 A 
ATOM     59  N   UNL A   1      45.076  30.353  27.642  1.00  0.00    -0.354 N 
ATOM     60  N   UNL A   1      42.722  31.018  29.272  1.00  0.00    -0.248 NA
ATOM     61  C   UNL A   1      41.504  32.552  30.544  1.00  0.00     0.031 C 
ATOM     62  C   UNL A   1      46.515  31.973  27.157  1.00  0.00     0.029 A 
ATOM     63  C   UNL A   1      45.341  31.695  27.839  1.00  0.00     0.049 A 
ATOM     64  H   UNL A   1      44.300  29.869  28.007  1.00  0.00     0.167 HD
ATOM     65  C   UNL A   1      43.367  32.246  29.241  1.00  0.00     0.074 A 
ATOM     66  C   UNL A   1      42.562  33.162  30.024  1.00  0.00     0.031 C 
ATOM     67  C   UNL A   1      44.523  32.585  28.621  1.00  0.00     0.037 A 
BRANCH  54  68
ATOM     68  C   UNL A   1      47.269  27.912  25.668  1.00  0.00     0.064 A 
ATOM     69  C   UNL A   1      47.215  27.846  24.266  1.00  0.00     0.173 A 
ATOM     70  C   UNL A   1      48.448  27.499  26.301  1.00  0.00     0.173 A 
ATOM     71  F   UNL A   1      46.101  28.216  23.616  1.00  0.00    -0.203 F 
ATOM     72  C   UNL A   1      48.286  27.348  23.531  1.00  0.00     0.198 A 
ATOM     73  C   UNL A   1      49.528  27.026  25.560  1.00  0.00     0.198 A 
ATOM     74  F   UNL A   1      48.551  27.546  27.637  1.00  0.00    -0.203 F 
ATOM     75  F   UNL A   1      48.188  27.241  22.198  1.00  0.00    -0.200 F 
ATOM     76  C   UNL A   1      49.443  26.943  24.178  1.00  0.00     0.200 A 
ATOM     77  F   UNL A   1      50.650  26.642  26.183  1.00  0.00    -0.200 F 
ATOM     78  F   UNL A   1      50.473  26.462  23.468  1.00  0.00    -0.200 F 
ENDBRANCH  54  68
BRANCH  55  79
ATOM     79  C   UNL A   1      39.369  30.621  31.114  1.00  0.00     0.064 A 
ATOM     80  C   UNL A   1      39.243  30.311  32.477  1.00  0.00     0.173 A 
ATOM     81  C   UNL A   1      38.347  31.369  30.515  1.00  0.00     0.173 A 
ATOM     82  F   UNL A   1      40.193  29.587  33.087  1.00  0.00    -0.203 F 
ATOM     83  C   UNL A   1      38.137  30.731  33.210  1.00  0.00     0.198 A 
ATOM     84  C   UNL A   1      37.247  31.800  31.254  1.00  0.00     0.198 A 
ATOM     85  F   UNL A   1      38.427  31.694  29.217  1.00  0.00    -0.203 F 
ATOM     86  F   UNL A   1      38.034  30.409  34.507  1.00  0.00    -0.200 F 
ATOM     87  C   UNL A   1      37.143  31.480  32.601  1.00  0.00     0.200 A 
ATOM     88  F   UNL A   1      36.292  32.532  30.665  1.00  0.00    -0.200 F 
ATOM     89  F   UNL A   1      36.084  31.894  33.309  1.00  0.00    -0.200 F 
ENDBRANCH  55  79
BRANCH  67  90
ATOM     90  C   UNL A   1      45.003  33.994  28.764  1.00  0.00     0.064 A 
ATOM     91  C   UNL A   1      45.929  34.342  29.757  1.00  0.00     0.173 A 
ATOM     92  C   UNL A   1      44.626  34.974  27.835  1.00  0.00     0.173 A 
ATOM     93  F   UNL A   1      46.309  33.437  30.671  1.00  0.00    -0.203 F 
ATOM     94  C   UNL A   1      46.463  35.625  29.814  1.00  0.00     0.198 A 
ATOM     95  C   UNL A   1      45.177  36.251  27.884  1.00  0.00     0.198 A 
ATOM     96  F   UNL A   1      43.750  34.683  26.862  1.00  0.00    -0.203 F 
ATOM     97  F   UNL A   1      47.340  35.942  30.777  1.00  0.00    -0.200 F 
ATOM     98  C   UNL A   1      46.096  36.575  28.871  1.00  0.00     0.200 A 
ATOM     99  F   UNL A   1      44.832  37.164  26.965  1.00  0.00    -0.200 F 
ATOM    100  F   UNL A   1      46.630  37.803  28.913  1.00  0.00    -0.200 F 
ENDBRANCH  67  90
ENDBRANCH  41  42
ENDBRANCH  34  36
ENDBRANCH  33  34
ENDBRANCH  32  33
ENDBRANCH   1  32
TORSDOF 14
ENDMDL
