MODEL 1
REMARK VINA RESULT:     -11.0      0.000      0.000
REMARK SMILES N#CCC1(C[N@H+]2CCO[C@H](CC(=O)OCCOC(=O)c3ccc(-c4c5nc(c(-c6c(F)c(F)c(F)c(F)c6F)c6ccc([nH]6)c(-c6c(F)c(F)c(F)c(F)c6F)c6nc(c(-c7c(F)c(F)c(F)c(F)c7F)c7ccc4[nH]7)C=C6)C=C5)cc3)C2)CC1
REMARK SMILES IDX 14 1 12 2 13 3 11 4 10 5 6 6 7 7 83 8 8 10 9 11 5 12 4 13
REMARK SMILES IDX 84 14 85 15 3 16 2 17 1 18 15 19 16 20 17 21 18 22 19 23
REMARK SMILES IDX 20 24 21 25 82 26 22 27 81 28 23 29 24 30 25 31 75 32 26 33
REMARK SMILES IDX 80 34 74 35 76 36 27 37 79 38 73 39 72 40 28 42 60 43 40 44
REMARK SMILES IDX 59 45 41 46 44 47 58 48 77 49 42 50 43 51 57 53 78 54 45 55
REMARK SMILES IDX 29 56 30 57 38 58 31 59 32 60 36 61 39 62 33 63 34 64 37 65
REMARK SMILES IDX 35 66 61 67 62 68 70 69 63 70 64 71 68 72 71 73 65 74 66 75
REMARK SMILES IDX 69 76 67 77 46 78 47 79 55 80 48 81 49 82 53 83 56 84 50 85
REMARK SMILES IDX 51 86 54 87 52 88
REMARK H PARENT 6 9 76 41 44 52
REMARK Flexibility Score: inf
ROOT
ATOM      1  O   UNL A   1      31.282  27.660  25.135  1.00  0.00    -0.462 OA
ENDROOT
BRANCH   1   2
ATOM      2  C   UNL A   1      31.427  26.828  26.199  1.00  0.00     0.308 C 
ATOM      3  O   UNL A   1      31.024  27.065  27.326  1.00  0.00    -0.252 OA
BRANCH   2   4
ATOM      4  C   UNL A   1      32.174  25.574  25.820  1.00  0.00     0.160 C 
BRANCH   4   5
ATOM      5  C   UNL A   1      32.128  24.497  26.909  1.00  0.00     0.184 C 
ATOM      6  N   UNL A   1      32.680  22.519  25.568  1.00  0.00    -0.330 N 
ATOM      7  C   UNL A   1      31.350  21.954  25.751  1.00  0.00     0.291 C 
ATOM      8  C   UNL A   1      33.107  23.324  26.690  1.00  0.00     0.295 C 
ATOM      9  H   UNL A   1      32.572  23.154  24.778  1.00  0.00     0.348 HD
ATOM     10  C   UNL A   1      30.341  23.086  26.074  1.00  0.00     0.222 C 
ATOM     11  O   UNL A   1      30.786  23.986  27.103  1.00  0.00    -0.366 OA
BRANCH   6  12
ATOM     12  C   UNL A   1      33.619  22.010  24.589  1.00  0.00     0.270 C 
BRANCH  12  13
ATOM     13  C   UNL A   1      34.260  23.181  23.807  1.00  0.00     0.032 C 
ATOM     14  C   UNL A   1      35.738  23.019  23.462  1.00  0.00     0.015 C 
ATOM     15  C   UNL A   1      35.317  24.083  24.421  1.00  0.00     0.015 C 
BRANCH  13  16
ATOM     16  C   UNL A   1      33.391  23.584  22.679  1.00  0.00     0.133 C 
BRANCH  16  17
ATOM     17  C   UNL A   1      33.410  24.994  22.111  1.00  0.00     0.063 C 
ATOM     18  N   UNL A   1      33.425  26.163  21.640  1.00  0.00    -0.198 NA
ENDBRANCH  16  17
ENDBRANCH  13  16
ENDBRANCH  12  13
ENDBRANCH   6  12
ENDBRANCH   4   5
ENDBRANCH   2   4
ENDBRANCH   1   2
BRANCH   1  19
ATOM     19  C   UNL A   1      32.352  28.603  24.919  1.00  0.00     0.274 C 
BRANCH  19  20
ATOM     20  C   UNL A   1      32.025  29.983  25.489  1.00  0.00     0.275 C 
BRANCH  20  21
ATOM     21  O   UNL A   1      32.383  30.098  26.881  1.00  0.00    -0.458 OA
BRANCH  21  22
ATOM     22  C   UNL A   1      33.037  31.221  27.220  1.00  0.00     0.338 C 
ATOM     23  O   UNL A   1      32.584  32.370  27.251  1.00  0.00    -0.246 OA
BRANCH  22  24
ATOM     24  C   UNL A   1      34.416  30.924  27.613  1.00  0.00     0.060 A 
ATOM     25  C   UNL A   1      34.736  29.618  27.973  1.00  0.00     0.016 A 
ATOM     26  C   UNL A   1      35.338  31.950  27.817  1.00  0.00     0.016 A 
ATOM     27  C   UNL A   1      35.926  29.337  28.636  1.00  0.00     0.010 A 
ATOM     28  C   UNL A   1      36.566  31.657  28.423  1.00  0.00     0.010 A 
ATOM     29  C   UNL A   1      36.851  30.357  28.879  1.00  0.00    -0.014 A 
BRANCH  29  30
ATOM     30  C   UNL A   1      38.082  30.079  29.663  1.00  0.00     0.031 A 
ATOM     31  C   UNL A   1      39.144  29.182  29.094  1.00  0.00     0.074 A 
ATOM     32  C   UNL A   1      38.264  30.644  30.871  1.00  0.00     0.049 A 
ATOM     33  N   UNL A   1      40.186  28.651  29.684  1.00  0.00    -0.248 NA
ATOM     34  C   UNL A   1      39.019  28.836  27.670  1.00  0.00     0.031 C 
ATOM     35  C   UNL A   1      37.363  31.608  31.501  1.00  0.00     0.029 A 
ATOM     36  N   UNL A   1      39.270  30.475  31.791  1.00  0.00    -0.354 N 
ATOM     37  C   UNL A   1      40.814  27.876  28.718  1.00  0.00     0.074 A 
ATOM     38  C   UNL A   1      40.041  28.009  27.501  1.00  0.00     0.031 C 
ATOM     39  C   UNL A   1      37.851  31.940  32.707  1.00  0.00     0.029 A 
ATOM     40  C   UNL A   1      39.056  31.157  32.962  1.00  0.00     0.049 A 
ATOM     41  H   UNL A   1      40.066  29.919  31.625  1.00  0.00     0.167 HD
ATOM     42  C   UNL A   1      41.928  27.117  28.843  1.00  0.00     0.037 A 
ATOM     43  C   UNL A   1      39.722  31.112  34.132  1.00  0.00     0.037 A 
ATOM     44  C   UNL A   1      42.714  27.014  30.044  1.00  0.00     0.049 A 
ATOM     45  C   UNL A   1      40.908  30.199  34.272  1.00  0.00     0.074 A 
ATOM     46  C   UNL A   1      43.858  26.268  30.270  1.00  0.00     0.029 A 
ATOM     47  N   UNL A   1      42.437  27.687  31.225  1.00  0.00    -0.354 N 
ATOM     48  N   UNL A   1      41.459  29.416  33.378  1.00  0.00    -0.248 NA
ATOM     49  C   UNL A   1      41.552  30.149  35.593  1.00  0.00     0.031 C 
ATOM     50  C   UNL A   1      44.255  26.465  31.597  1.00  0.00     0.029 A 
ATOM     51  C   UNL A   1      43.380  27.361  32.186  1.00  0.00     0.049 A 
ATOM     52  H   UNL A   1      41.682  28.305  31.359  1.00  0.00     0.167 HD
ATOM     53  C   UNL A   1      42.521  28.792  34.020  1.00  0.00     0.074 A 
ATOM     54  C   UNL A   1      42.546  29.299  35.376  1.00  0.00     0.031 C 
ATOM     55  C   UNL A   1      43.394  27.880  33.530  1.00  0.00     0.037 A 
BRANCH  42  56
ATOM     56  C   UNL A   1      42.344  26.299  27.657  1.00  0.00     0.064 A 
ATOM     57  C   UNL A   1      43.282  26.766  26.726  1.00  0.00     0.173 A 
ATOM     58  C   UNL A   1      41.822  25.009  27.475  1.00  0.00     0.173 A 
ATOM     59  F   UNL A   1      43.799  27.997  26.850  1.00  0.00    -0.203 F 
ATOM     60  C   UNL A   1      43.670  25.978  25.644  1.00  0.00     0.198 A 
ATOM     61  C   UNL A   1      42.227  24.216  26.405  1.00  0.00     0.198 A 
ATOM     62  F   UNL A   1      40.924  24.515  28.341  1.00  0.00    -0.203 F 
ATOM     63  F   UNL A   1      44.541  26.457  24.747  1.00  0.00    -0.200 F 
ATOM     64  C   UNL A   1      43.147  24.702  25.489  1.00  0.00     0.200 A 
ATOM     65  F   UNL A   1      41.727  22.981  26.262  1.00  0.00    -0.200 F 
ATOM     66  F   UNL A   1      43.525  23.943  24.451  1.00  0.00    -0.200 F 
ENDBRANCH  42  56
BRANCH  43  67
ATOM     67  C   UNL A   1      39.244  31.919  35.283  1.00  0.00     0.064 A 
ATOM     68  C   UNL A   1      38.373  31.371  36.233  1.00  0.00     0.173 A 
ATOM     69  C   UNL A   1      39.644  33.252  35.452  1.00  0.00     0.173 A 
ATOM     70  F   UNL A   1      37.942  30.108  36.097  1.00  0.00    -0.203 F 
ATOM     71  C   UNL A   1      37.910  32.132  37.305  1.00  0.00     0.198 A 
ATOM     72  C   UNL A   1      39.203  34.003  36.538  1.00  0.00     0.198 A 
ATOM     73  F   UNL A   1      40.474  33.822  34.567  1.00  0.00    -0.203 F 
ATOM     74  F   UNL A   1      37.045  31.598  38.178  1.00  0.00    -0.200 F 
ATOM     75  C   UNL A   1      38.331  33.445  37.460  1.00  0.00     0.200 A 
ATOM     76  F   UNL A   1      39.620  35.267  36.689  1.00  0.00    -0.200 F 
ATOM     77  F   UNL A   1      37.890  34.173  38.495  1.00  0.00    -0.200 F 
ENDBRANCH  43  67
BRANCH  55  78
ATOM     78  C   UNL A   1      44.468  27.395  34.455  1.00  0.00     0.064 A 
ATOM     79  C   UNL A   1      45.689  28.073  34.580  1.00  0.00     0.173 A 
ATOM     80  C   UNL A   1      44.259  26.258  35.252  1.00  0.00     0.173 A 
ATOM     81  F   UNL A   1      45.940  29.153  33.826  1.00  0.00    -0.203 F 
ATOM     82  C   UNL A   1      46.670  27.619  35.457  1.00  0.00     0.198 A 
ATOM     83  C   UNL A   1      45.234  25.821  36.143  1.00  0.00     0.198 A 
ATOM     84  F   UNL A   1      43.105  25.579  35.170  1.00  0.00    -0.203 F 
ATOM     85  F   UNL A   1      47.845  28.259  35.532  1.00  0.00    -0.200 F 
ATOM     86  C   UNL A   1      46.440  26.498  36.242  1.00  0.00     0.200 A 
ATOM     87  F   UNL A   1      45.007  24.744  36.907  1.00  0.00    -0.200 F 
ATOM     88  F   UNL A   1      47.385  26.066  37.087  1.00  0.00    -0.200 F 
ENDBRANCH  55  78
ENDBRANCH  29  30
ENDBRANCH  22  24
ENDBRANCH  21  22
ENDBRANCH  20  21
ENDBRANCH  19  20
ENDBRANCH   1  19
TORSDOF 16
ENDMDL
MODEL 2
REMARK VINA RESULT:     -10.8      0.942      2.306
REMARK SMILES N#CCC1(C[N@H+]2CCO[C@H](CC(=O)OCCOC(=O)c3ccc(-c4c5nc(c(-c6c(F)c(F)c(F)c(F)c6F)c6ccc([nH]6)c(-c6c(F)c(F)c(F)c(F)c6F)c6nc(c(-c7c(F)c(F)c(F)c(F)c7F)c7ccc4[nH]7)C=C6)C=C5)cc3)C2)CC1
REMARK SMILES IDX 14 1 12 2 13 3 11 4 10 5 6 6 7 7 83 8 8 10 9 11 5 12 4 13
REMARK SMILES IDX 84 14 85 15 3 16 2 17 1 18 15 19 16 20 17 21 18 22 19 23
REMARK SMILES IDX 20 24 21 25 82 26 22 27 81 28 23 29 24 30 25 31 75 32 26 33
REMARK SMILES IDX 80 34 74 35 76 36 27 37 79 38 73 39 72 40 28 42 60 43 40 44
REMARK SMILES IDX 59 45 41 46 44 47 58 48 77 49 42 50 43 51 57 53 78 54 45 55
REMARK SMILES IDX 29 56 30 57 38 58 31 59 32 60 36 61 39 62 33 63 34 64 37 65
REMARK SMILES IDX 35 66 61 67 62 68 70 69 63 70 64 71 68 72 71 73 65 74 66 75
REMARK SMILES IDX 69 76 67 77 46 78 47 79 55 80 48 81 49 82 53 83 56 84 50 85
REMARK SMILES IDX 51 86 54 87 52 88
REMARK H PARENT 6 9 76 41 44 52
REMARK Flexibility Score: inf
ROOT
ATOM      1  O   UNL A   1      33.270  28.797  24.703  1.00  0.00    -0.462 OA
ENDROOT
BRANCH   1   2
ATOM      2  C   UNL A   1      33.605  27.967  23.680  1.00  0.00     0.308 C 
ATOM      3  O   UNL A   1      34.065  28.334  22.611  1.00  0.00    -0.252 OA
BRANCH   2   4
ATOM      4  C   UNL A   1      33.313  26.527  24.020  1.00  0.00     0.160 C 
BRANCH   4   5
ATOM      5  C   UNL A   1      33.652  26.174  25.472  1.00  0.00     0.184 C 
ATOM      6  N   UNL A   1      33.374  23.739  25.389  1.00  0.00    -0.330 N 
ATOM      7  C   UNL A   1      32.215  23.784  26.269  1.00  0.00     0.291 C 
ATOM      8  C   UNL A   1      34.323  24.796  25.655  1.00  0.00     0.295 C 
ATOM      9  H   UNL A   1      32.989  23.920  24.462  1.00  0.00     0.348 HD
ATOM     10  C   UNL A   1      31.559  25.188  26.198  1.00  0.00     0.222 C 
ATOM     11  O   UNL A   1      32.492  26.273  26.334  1.00  0.00    -0.366 OA
BRANCH   6  12
ATOM     12  C   UNL A   1      33.737  22.558  24.631  1.00  0.00     0.270 C 
BRANCH  12  13
ATOM     13  C   UNL A   1      32.770  22.375  23.436  1.00  0.00     0.032 C 
ATOM     14  C   UNL A   1      33.199  23.033  22.128  1.00  0.00     0.015 C 
ATOM     15  C   UNL A   1      31.987  23.532  22.843  1.00  0.00     0.015 C 
BRANCH  13  16
ATOM     16  C   UNL A   1      32.356  20.959  23.321  1.00  0.00     0.133 C 
BRANCH  16  17
ATOM     17  C   UNL A   1      32.436  19.997  24.496  1.00  0.00     0.063 C 
ATOM     18  N   UNL A   1      32.502  19.200  25.471  1.00  0.00    -0.198 NA
ENDBRANCH  16  17
ENDBRANCH  13  16
ENDBRANCH  12  13
ENDBRANCH   6  12
ENDBRANCH   4   5
ENDBRANCH   2   4
ENDBRANCH   1   2
BRANCH   1  19
ATOM     19  C   UNL A   1      31.973  29.420  24.613  1.00  0.00     0.274 C 
BRANCH  19  20
ATOM     20  C   UNL A   1      31.751  30.446  25.725  1.00  0.00     0.275 C 
BRANCH  20  21
ATOM     21  O   UNL A   1      32.657  30.256  26.831  1.00  0.00    -0.458 OA
BRANCH  21  22
ATOM     22  C   UNL A   1      33.267  31.367  27.275  1.00  0.00     0.338 C 
ATOM     23  O   UNL A   1      32.779  32.496  27.386  1.00  0.00    -0.246 OA
BRANCH  22  24
ATOM     24  C   UNL A   1      34.645  31.078  27.681  1.00  0.00     0.060 A 
ATOM     25  C   UNL A   1      34.972  29.771  28.033  1.00  0.00     0.016 A 
ATOM     26  C   UNL A   1      35.555  32.110  27.905  1.00  0.00     0.016 A 
ATOM     27  C   UNL A   1      36.157  29.494  28.706  1.00  0.00     0.010 A 
ATOM     28  C   UNL A   1      36.779  31.822  28.522  1.00  0.00     0.010 A 
ATOM     29  C   UNL A   1      37.070  30.520  28.969  1.00  0.00    -0.014 A 
BRANCH  29  30
ATOM     30  C   UNL A   1      38.295  30.246  29.764  1.00  0.00     0.031 A 
ATOM     31  C   UNL A   1      39.368  29.357  29.202  1.00  0.00     0.074 A 
ATOM     32  C   UNL A   1      38.462  30.806  30.976  1.00  0.00     0.049 A 
ATOM     33  N   UNL A   1      40.407  28.829  29.800  1.00  0.00    -0.248 NA
ATOM     34  C   UNL A   1      39.258  29.016  27.775  1.00  0.00     0.031 C 
ATOM     35  C   UNL A   1      37.549  31.763  31.602  1.00  0.00     0.029 A 
ATOM     36  N   UNL A   1      39.459  30.638  31.906  1.00  0.00    -0.354 N 
ATOM     37  C   UNL A   1      41.048  28.061  28.837  1.00  0.00     0.074 A 
ATOM     38  C   UNL A   1      40.287  28.195  27.613  1.00  0.00     0.031 C 
ATOM     39  C   UNL A   1      38.023  32.092  32.814  1.00  0.00     0.029 A 
ATOM     40  C   UNL A   1      39.230  31.314  33.078  1.00  0.00     0.049 A 
ATOM     41  H   UNL A   1      40.260  30.088  31.745  1.00  0.00     0.167 HD
ATOM     42  C   UNL A   1      42.165  27.308  28.969  1.00  0.00     0.037 A 
ATOM     43  C   UNL A   1      39.885  31.268  34.253  1.00  0.00     0.037 A 
ATOM     44  C   UNL A   1      42.940  27.204  30.178  1.00  0.00     0.049 A 
ATOM     45  C   UNL A   1      41.074  30.361  34.402  1.00  0.00     0.074 A 
ATOM     46  C   UNL A   1      44.086  26.463  30.412  1.00  0.00     0.029 A 
ATOM     47  N   UNL A   1      42.647  27.870  31.359  1.00  0.00    -0.354 N 
ATOM     48  N   UNL A   1      41.639  29.584  33.510  1.00  0.00    -0.248 NA
ATOM     49  C   UNL A   1      41.705  30.309  35.729  1.00  0.00     0.031 C 
ATOM     50  C   UNL A   1      44.468  26.656  31.744  1.00  0.00     0.029 A 
ATOM     51  C   UNL A   1      43.582  27.546  32.328  1.00  0.00     0.049 A 
ATOM     52  H   UNL A   1      41.888  28.484  31.489  1.00  0.00     0.167 HD
ATOM     53  C   UNL A   1      42.697  28.964  34.160  1.00  0.00     0.074 A 
ATOM     54  C   UNL A   1      42.706  29.465  35.518  1.00  0.00     0.031 C 
ATOM     55  C   UNL A   1      43.580  28.059  33.674  1.00  0.00     0.037 A 
BRANCH  42  56
ATOM     56  C   UNL A   1      42.598  26.497  27.785  1.00  0.00     0.064 A 
ATOM     57  C   UNL A   1      42.066  25.227  27.521  1.00  0.00     0.173 A 
ATOM     58  C   UNL A   1      43.532  27.021  26.878  1.00  0.00     0.173 A 
ATOM     59  F   UNL A   1      41.180  24.679  28.366  1.00  0.00    -0.203 F 
ATOM     60  C   UNL A   1      42.468  24.502  26.401  1.00  0.00     0.198 A 
ATOM     61  C   UNL A   1      43.916  26.302  25.749  1.00  0.00     0.198 A 
ATOM     62  F   UNL A   1      44.068  28.234  27.085  1.00  0.00    -0.203 F 
ATOM     63  F   UNL A   1      41.974  23.276  26.187  1.00  0.00    -0.200 F 
ATOM     64  C   UNL A   1      43.387  25.043  25.514  1.00  0.00     0.200 A 
ATOM     65  F   UNL A   1      44.797  26.831  24.889  1.00  0.00    -0.200 F 
ATOM     66  F   UNL A   1      43.768  24.347  24.434  1.00  0.00    -0.200 F 
ENDBRANCH  42  56
BRANCH  43  67
ATOM     67  C   UNL A   1      39.391  32.067  35.404  1.00  0.00     0.064 A 
ATOM     68  C   UNL A   1      38.533  31.503  36.356  1.00  0.00     0.173 A 
ATOM     69  C   UNL A   1      39.761  33.409  35.568  1.00  0.00     0.173 A 
ATOM     70  F   UNL A   1      38.130  30.230  36.224  1.00  0.00    -0.203 F 
ATOM     71  C   UNL A   1      38.056  32.256  37.427  1.00  0.00     0.198 A 
ATOM     72  C   UNL A   1      39.305  34.153  36.653  1.00  0.00     0.198 A 
ATOM     73  F   UNL A   1      40.577  33.995  34.680  1.00  0.00    -0.203 F 
ATOM     74  F   UNL A   1      37.204  31.706  38.303  1.00  0.00    -0.200 F 
ATOM     75  C   UNL A   1      38.448  33.579  37.578  1.00  0.00     0.200 A 
ATOM     76  F   UNL A   1      39.695  35.427  36.800  1.00  0.00    -0.200 F 
ATOM     77  F   UNL A   1      37.993  34.300  38.611  1.00  0.00    -0.200 F 
ENDBRANCH  43  67
BRANCH  55  78
ATOM     78  C   UNL A   1      44.647  27.575  34.608  1.00  0.00     0.064 A 
ATOM     79  C   UNL A   1      44.475  26.418  35.382  1.00  0.00     0.173 A 
ATOM     80  C   UNL A   1      45.870  28.257  34.704  1.00  0.00     0.173 A 
ATOM     81  F   UNL A   1      43.317  25.743  35.336  1.00  0.00    -0.203 F 
ATOM     82  C   UNL A   1      45.482  25.973  36.233  1.00  0.00     0.198 A 
ATOM     83  C   UNL A   1      46.882  27.796  35.539  1.00  0.00     0.198 A 
ATOM     84  F   UNL A   1      46.082  29.367  33.981  1.00  0.00    -0.203 F 
ATOM     85  F   UNL A   1      45.282  24.887  36.993  1.00  0.00    -0.200 F 
ATOM     86  C   UNL A   1      46.687  26.657  36.306  1.00  0.00     0.200 A 
ATOM     87  F   UNL A   1      48.049  28.453  35.603  1.00  0.00    -0.200 F 
ATOM     88  F   UNL A   1      47.656  26.223  37.123  1.00  0.00    -0.200 F 
ENDBRANCH  55  78
ENDBRANCH  29  30
ENDBRANCH  22  24
ENDBRANCH  21  22
ENDBRANCH  20  21
ENDBRANCH  19  20
ENDBRANCH   1  19
TORSDOF 16
ENDMDL
MODEL 3
REMARK VINA RESULT:     -10.8      1.073      2.490
REMARK SMILES N#CCC1(C[N@H+]2CCO[C@H](CC(=O)OCCOC(=O)c3ccc(-c4c5nc(c(-c6c(F)c(F)c(F)c(F)c6F)c6ccc([nH]6)c(-c6c(F)c(F)c(F)c(F)c6F)c6nc(c(-c7c(F)c(F)c(F)c(F)c7F)c7ccc4[nH]7)C=C6)C=C5)cc3)C2)CC1
REMARK SMILES IDX 14 1 12 2 13 3 11 4 10 5 6 6 7 7 83 8 8 10 9 11 5 12 4 13
REMARK SMILES IDX 84 14 85 15 3 16 2 17 1 18 15 19 16 20 17 21 18 22 19 23
REMARK SMILES IDX 20 24 21 25 82 26 22 27 81 28 23 29 24 30 25 31 75 32 26 33
REMARK SMILES IDX 80 34 74 35 76 36 27 37 79 38 73 39 72 40 28 42 60 43 40 44
REMARK SMILES IDX 59 45 41 46 44 47 58 48 77 49 42 50 43 51 57 53 78 54 45 55
REMARK SMILES IDX 29 56 30 57 38 58 31 59 32 60 36 61 39 62 33 63 34 64 37 65
REMARK SMILES IDX 35 66 61 67 62 68 70 69 63 70 64 71 68 72 71 73 65 74 66 75
REMARK SMILES IDX 69 76 67 77 46 78 47 79 55 80 48 81 49 82 53 83 56 84 50 85
REMARK SMILES IDX 51 86 54 87 52 88
REMARK H PARENT 6 9 76 41 44 52
REMARK Flexibility Score: inf
ROOT
ATOM      1  O   UNL A   1      32.340  28.113  25.232  1.00  0.00    -0.462 OA
ENDROOT
BRANCH   1   2
ATOM      2  C   UNL A   1      31.468  27.437  24.440  1.00  0.00     0.308 C 
ATOM      3  O   UNL A   1      30.619  27.962  23.736  1.00  0.00    -0.252 OA
BRANCH   2   4
ATOM      4  C   UNL A   1      31.661  25.946  24.553  1.00  0.00     0.160 C 
BRANCH   4   5
ATOM      5  C   UNL A   1      31.227  25.188  23.294  1.00  0.00     0.184 C 
ATOM      6  N   UNL A   1      31.820  22.902  23.954  1.00  0.00    -0.330 N 
ATOM      7  C   UNL A   1      32.870  22.823  22.948  1.00  0.00     0.291 C 
ATOM      8  C   UNL A   1      30.722  23.753  23.555  1.00  0.00     0.295 C 
ATOM      9  H   UNL A   1      32.270  23.359  24.746  1.00  0.00     0.348 HD
ATOM     10  C   UNL A   1      33.345  24.252  22.576  1.00  0.00     0.222 C 
ATOM     11  O   UNL A   1      32.273  25.166  22.292  1.00  0.00    -0.366 OA
BRANCH   6  12
ATOM     12  C   UNL A   1      31.689  21.936  25.026  1.00  0.00     0.270 C 
BRANCH  12  13
ATOM     13  C   UNL A   1      32.945  21.968  25.928  1.00  0.00     0.032 C 
ATOM     14  C   UNL A   1      32.753  22.578  27.314  1.00  0.00     0.015 C 
ATOM     15  C   UNL A   1      33.629  23.266  26.320  1.00  0.00     0.015 C 
BRANCH  13  16
ATOM     16  C   UNL A   1      33.627  20.654  25.909  1.00  0.00     0.133 C 
BRANCH  16  17
ATOM     17  C   UNL A   1      32.920  19.385  25.462  1.00  0.00     0.063 C 
ATOM     18  N   UNL A   1      32.333  18.332  25.091  1.00  0.00    -0.198 NA
ENDBRANCH  16  17
ENDBRANCH  13  16
ENDBRANCH  12  13
ENDBRANCH   6  12
ENDBRANCH   4   5
ENDBRANCH   2   4
ENDBRANCH   1   2
BRANCH   1  19
ATOM     19  C   UNL A   1      32.543  29.504  24.906  1.00  0.00     0.274 C 
BRANCH  19  20
ATOM     20  C   UNL A   1      31.810  30.433  25.874  1.00  0.00     0.275 C 
BRANCH  20  21
ATOM     21  O   UNL A   1      32.469  30.517  27.154  1.00  0.00    -0.458 OA
BRANCH  21  22
ATOM     22  C   UNL A   1      33.170  31.641  27.371  1.00  0.00     0.338 C 
ATOM     23  O   UNL A   1      32.761  32.805  27.299  1.00  0.00    -0.246 OA
BRANCH  22  24
ATOM     24  C   UNL A   1      34.546  31.330  27.766  1.00  0.00     0.060 A 
ATOM     25  C   UNL A   1      34.868  30.008  28.060  1.00  0.00     0.016 A 
ATOM     26  C   UNL A   1      35.459  32.347  28.038  1.00  0.00     0.016 A 
ATOM     27  C   UNL A   1      36.050  29.697  28.724  1.00  0.00     0.010 A 
ATOM     28  C   UNL A   1      36.680  32.029  28.644  1.00  0.00     0.010 A 
ATOM     29  C   UNL A   1      36.966  30.707  29.033  1.00  0.00    -0.014 A 
BRANCH  29  30
ATOM     30  C   UNL A   1      38.188  30.394  29.818  1.00  0.00     0.031 A 
ATOM     31  C   UNL A   1      39.246  29.502  29.231  1.00  0.00     0.074 A 
ATOM     32  C   UNL A   1      38.367  30.920  31.044  1.00  0.00     0.049 A 
ATOM     33  N   UNL A   1      40.277  28.944  29.813  1.00  0.00    -0.248 NA
ATOM     34  C   UNL A   1      39.128  29.200  27.796  1.00  0.00     0.031 C 
ATOM     35  C   UNL A   1      37.470  31.875  31.696  1.00  0.00     0.029 A 
ATOM     36  N   UNL A   1      39.363  30.713  31.966  1.00  0.00    -0.354 N 
ATOM     37  C   UNL A   1      40.905  28.190  28.829  1.00  0.00     0.074 A 
ATOM     38  C   UNL A   1      40.143  28.367  27.611  1.00  0.00     0.031 C 
ATOM     39  C   UNL A   1      37.952  32.165  32.915  1.00  0.00     0.029 A 
ATOM     40  C   UNL A   1      39.147  31.362  33.156  1.00  0.00     0.049 A 
ATOM     41  H   UNL A   1      40.155  30.154  31.790  1.00  0.00     0.167 HD
ATOM     42  C   UNL A   1      42.010  27.417  28.940  1.00  0.00     0.037 A 
ATOM     43  C   UNL A   1      39.804  31.277  34.328  1.00  0.00     0.037 A 
ATOM     44  C   UNL A   1      42.785  27.270  30.144  1.00  0.00     0.049 A 
ATOM     45  C   UNL A   1      40.978  30.347  34.450  1.00  0.00     0.074 A 
ATOM     46  C   UNL A   1      43.920  26.506  30.356  1.00  0.00     0.029 A 
ATOM     47  N   UNL A   1      42.506  27.910  31.342  1.00  0.00    -0.354 N 
ATOM     48  N   UNL A   1      41.529  29.585  33.538  1.00  0.00    -0.248 NA
ATOM     49  C   UNL A   1      41.612  30.252  35.774  1.00  0.00     0.031 C 
ATOM     50  C   UNL A   1      44.308  26.659  31.691  1.00  0.00     0.029 A 
ATOM     51  C   UNL A   1      43.437  27.547  32.300  1.00  0.00     0.049 A 
ATOM     52  H   UNL A   1      41.756  28.532  31.489  1.00  0.00     0.167 HD
ATOM     53  C   UNL A   1      42.579  28.932  34.169  1.00  0.00     0.074 A 
ATOM     54  C   UNL A   1      42.598  29.398  35.540  1.00  0.00     0.031 C 
ATOM     55  C   UNL A   1      43.446  28.025  33.659  1.00  0.00     0.037 A 
BRANCH  42  56
ATOM     56  C   UNL A   1      42.427  26.629  27.734  1.00  0.00     0.064 A 
ATOM     57  C   UNL A   1      43.411  27.094  26.849  1.00  0.00     0.173 A 
ATOM     58  C   UNL A   1      41.858  25.371  27.485  1.00  0.00     0.173 A 
ATOM     59  F   UNL A   1      43.974  28.296  27.038  1.00  0.00    -0.203 F 
ATOM     60  C   UNL A   1      43.797  26.334  25.747  1.00  0.00     0.198 A 
ATOM     61  C   UNL A   1      42.262  24.605  26.395  1.00  0.00     0.198 A 
ATOM     62  F   UNL A   1      40.916  24.882  28.304  1.00  0.00    -0.203 F 
ATOM     63  F   UNL A   1      44.714  26.812  24.895  1.00  0.00    -0.200 F 
ATOM     64  C   UNL A   1      43.228  25.088  25.525  1.00  0.00     0.200 A 
ATOM     65  F   UNL A   1      41.717  23.399  26.187  1.00  0.00    -0.200 F 
ATOM     66  F   UNL A   1      43.605  24.356  24.468  1.00  0.00    -0.200 F 
ENDBRANCH  42  56
BRANCH  43  67
ATOM     67  C   UNL A   1      39.324  32.053  35.500  1.00  0.00     0.064 A 
ATOM     68  C   UNL A   1      39.735  33.376  35.703  1.00  0.00     0.173 A 
ATOM     69  C   UNL A   1      38.452  31.485  36.439  1.00  0.00     0.173 A 
ATOM     70  F   UNL A   1      40.590  33.952  34.845  1.00  0.00    -0.203 F 
ATOM     71  C   UNL A   1      39.299  34.100  36.810  1.00  0.00     0.198 A 
ATOM     72  C   UNL A   1      37.996  32.219  37.531  1.00  0.00     0.198 A 
ATOM     73  F   UNL A   1      38.034  30.220  36.290  1.00  0.00    -0.203 F 
ATOM     74  F   UNL A   1      39.737  35.352  37.006  1.00  0.00    -0.200 F 
ATOM     75  C   UNL A   1      38.424  33.523  37.720  1.00  0.00     0.200 A 
ATOM     76  F   UNL A   1      37.143  31.660  38.401  1.00  0.00    -0.200 F 
ATOM     77  F   UNL A   1      38.001  34.222  38.782  1.00  0.00    -0.200 F 
ENDBRANCH  43  67
BRANCH  55  78
ATOM     78  C   UNL A   1      44.508  27.501  34.578  1.00  0.00     0.064 A 
ATOM     79  C   UNL A   1      44.326  26.319  35.309  1.00  0.00     0.173 A 
ATOM     80  C   UNL A   1      45.734  28.172  34.701  1.00  0.00     0.173 A 
ATOM     81  F   UNL A   1      43.163  25.654  35.236  1.00  0.00    -0.203 F 
ATOM     82  C   UNL A   1      45.328  25.836  36.146  1.00  0.00     0.198 A 
ATOM     83  C   UNL A   1      46.742  27.674  35.521  1.00  0.00     0.198 A 
ATOM     84  F   UNL A   1      45.956  29.305  34.018  1.00  0.00    -0.203 F 
ATOM     85  F   UNL A   1      45.119  24.725  36.866  1.00  0.00    -0.200 F 
ATOM     86  C   UNL A   1      46.537  26.509  36.246  1.00  0.00     0.200 A 
ATOM     87  F   UNL A   1      47.912  28.320  35.611  1.00  0.00    -0.200 F 
ATOM     88  F   UNL A   1      47.500  26.040  37.050  1.00  0.00    -0.200 F 
ENDBRANCH  55  78
ENDBRANCH  29  30
ENDBRANCH  22  24
ENDBRANCH  21  22
ENDBRANCH  20  21
ENDBRANCH  19  20
ENDBRANCH   1  19
TORSDOF 16
ENDMDL
