MODEL 1
REMARK VINA RESULT:     -11.3      0.000      0.000
REMARK SMILES CC[C@H](C)CN(CC)c1nc(C(=O)OCCOC(=O)c2ccc(-c3c4nc(c(-c5c(F)c(F)c(F)c(F)c5F)c5ccc([nH]5)c(-c5c(F)c(F)c(F)c(F)c5F)c5nc(c(-c6c(F)c(F)c(F)c(F)c6F)c6ccc3[nH]6)C=C5)C=C4)cc2)cc2ccccc12
REMARK SMILES IDX 15 1 14 2 12 3 13 4 11 5 9 6 10 7 89 8 84 9 88 10 83 11
REMARK SMILES IDX 85 12 87 13 86 14 6 15 5 16 3 17 4 18 2 19 1 20 7 21 8 22
REMARK SMILES IDX 16 23 17 24 18 25 19 26 20 27 21 28 82 29 22 30 81 31 23 32
REMARK SMILES IDX 24 33 25 34 75 35 26 36 80 37 74 38 76 39 27 40 79 41 73 42
REMARK SMILES IDX 72 43 28 45 60 46 40 47 59 48 41 49 44 50 58 51 77 52 42 53
REMARK SMILES IDX 43 54 57 56 78 57 45 58 29 59 30 60 38 61 31 62 32 63 36 64
REMARK SMILES IDX 39 65 33 66 34 67 37 68 35 69 61 70 62 71 70 72 63 73 64 74
REMARK SMILES IDX 68 75 71 76 65 77 66 78 69 79 67 80 46 81 47 82 55 83 48 84
REMARK SMILES IDX 49 85 53 86 56 87 50 88 51 89 54 90 52 91
REMARK H PARENT 76 44 44 55
REMARK Flexibility Score: inf
ROOT
ATOM      1  C   UNL A   1      37.019  22.386  23.562  1.00  0.00     0.275 C 
ENDROOT
BRANCH   1   2
ATOM      2  O   UNL A   1      36.306  23.463  24.205  1.00  0.00    -0.457 OA
BRANCH   2   3
ATOM      3  C   UNL A   1      35.143  23.795  23.594  1.00  0.00     0.357 C 
ATOM      4  O   UNL A   1      34.812  23.481  22.457  1.00  0.00    -0.244 OA
BRANCH   3   5
ATOM      5  C   UNL A   1      34.224  24.554  24.474  1.00  0.00     0.151 A 
ATOM      6  C   UNL A   1      32.831  26.384  24.619  1.00  0.00     0.137 A 
ATOM      7  N   UNL A   1      33.978  25.840  24.156  1.00  0.00    -0.223 NA
ATOM      8  C   UNL A   1      31.827  25.580  25.236  1.00  0.00     0.024 A 
ATOM      9  C   UNL A   1      32.208  24.316  25.712  1.00  0.00    -0.012 A 
ATOM     10  C   UNL A   1      30.470  25.940  25.405  1.00  0.00     0.012 A 
ATOM     11  C   UNL A   1      33.450  23.821  25.353  1.00  0.00     0.045 A 
ATOM     12  C   UNL A   1      31.330  23.542  26.490  1.00  0.00     0.009 A 
ATOM     13  C   UNL A   1      29.585  25.158  26.153  1.00  0.00     0.001 A 
ATOM     14  C   UNL A   1      30.029  23.974  26.727  1.00  0.00     0.001 A 
BRANCH   6  15
ATOM     15  N   UNL A   1      32.701  27.783  24.558  1.00  0.00    -0.356 N 
BRANCH  15  16
ATOM     16  C   UNL A   1      33.816  28.556  25.177  1.00  0.00     0.121 C 
BRANCH  16  17
ATOM     17  C   UNL A   1      33.759  28.627  26.721  1.00  0.00     0.005 C 
ATOM     18  C   UNL A   1      35.019  29.299  27.286  1.00  0.00     0.009 C 
BRANCH  17  19
ATOM     19  C   UNL A   1      32.497  29.329  27.263  1.00  0.00     0.002 C 
ATOM     20  C   UNL A   1      31.474  28.305  27.756  1.00  0.00     0.004 C 
ENDBRANCH  17  19
ENDBRANCH  16  17
ENDBRANCH  15  16
BRANCH  15  21
ATOM     21  C   UNL A   1      32.193  28.310  23.278  1.00  0.00     0.114 C 
ATOM     22  C   UNL A   1      30.861  29.055  23.371  1.00  0.00     0.027 C 
ENDBRANCH  15  21
ENDBRANCH   6  15
ENDBRANCH   3   5
ENDBRANCH   2   3
ENDBRANCH   1   2
BRANCH   1  23
ATOM     23  C   UNL A   1      37.181  21.181  24.491  1.00  0.00     0.275 C 
BRANCH  23  24
ATOM     24  O   UNL A   1      37.573  21.593  25.817  1.00  0.00    -0.458 OA
BRANCH  24  25
ATOM     25  C   UNL A   1      38.894  21.492  26.090  1.00  0.00     0.338 C 
ATOM     26  O   UNL A   1      39.641  20.574  25.798  1.00  0.00    -0.246 OA
BRANCH  25  27
ATOM     27  C   UNL A   1      39.389  22.696  26.784  1.00  0.00     0.060 A 
ATOM     28  C   UNL A   1      38.853  23.940  26.480  1.00  0.00     0.016 A 
ATOM     29  C   UNL A   1      40.540  22.614  27.567  1.00  0.00     0.016 A 
ATOM     30  C   UNL A   1      39.562  25.099  26.790  1.00  0.00     0.010 A 
ATOM     31  C   UNL A   1      41.159  23.787  28.020  1.00  0.00     0.010 A 
ATOM     32  C   UNL A   1      40.714  25.050  27.589  1.00  0.00    -0.014 A 
BRANCH  32  33
ATOM     33  C   UNL A   1      41.452  26.299  27.950  1.00  0.00     0.031 A 
ATOM     34  C   UNL A   1      40.797  27.364  28.798  1.00  0.00     0.074 A 
ATOM     35  C   UNL A   1      42.722  26.491  27.534  1.00  0.00     0.049 A 
ATOM     36  N   UNL A   1      41.183  28.596  29.026  1.00  0.00    -0.248 NA
ATOM     37  C   UNL A   1      39.536  27.004  29.466  1.00  0.00     0.031 C 
ATOM     38  C   UNL A   1      43.510  25.542  26.747  1.00  0.00     0.029 A 
ATOM     39  N   UNL A   1      43.579  27.548  27.725  1.00  0.00    -0.354 N 
ATOM     40  C   UNL A   1      40.177  29.177  29.791  1.00  0.00     0.074 A 
ATOM     41  C   UNL A   1      39.170  28.160  30.004  1.00  0.00     0.031 C 
ATOM     42  C   UNL A   1      44.749  26.026  26.579  1.00  0.00     0.029 A 
ATOM     43  C   UNL A   1      44.808  27.371  27.135  1.00  0.00     0.049 A 
ATOM     44  H   UNL A   1      43.337  28.355  28.235  1.00  0.00     0.167 HD
ATOM     45  C   UNL A   1      40.100  30.445  30.265  1.00  0.00     0.037 A 
ATOM     46  C   UNL A   1      45.853  28.209  27.000  1.00  0.00     0.037 A 
ATOM     47  C   UNL A   1      41.139  31.434  30.120  1.00  0.00     0.049 A 
ATOM     48  C   UNL A   1      45.742  29.610  27.523  1.00  0.00     0.074 A 
ATOM     49  C   UNL A   1      41.162  32.739  30.583  1.00  0.00     0.029 A 
ATOM     50  N   UNL A   1      42.354  31.216  29.486  1.00  0.00    -0.354 N 
ATOM     51  N   UNL A   1      44.749  30.175  28.163  1.00  0.00    -0.248 NA
ATOM     52  C   UNL A   1      46.884  30.500  27.274  1.00  0.00     0.031 C 
ATOM     53  C   UNL A   1      42.378  33.320  30.203  1.00  0.00     0.029 A 
ATOM     54  C   UNL A   1      43.128  32.364  29.538  1.00  0.00     0.049 A 
ATOM     55  H   UNL A   1      42.625  30.370  29.061  1.00  0.00     0.167 HD
ATOM     56  C   UNL A   1      45.141  31.486  28.391  1.00  0.00     0.074 A 
ATOM     57  C   UNL A   1      46.477  31.624  27.847  1.00  0.00     0.031 C 
ATOM     58  C   UNL A   1      44.452  32.488  28.988  1.00  0.00     0.037 A 
BRANCH  45  59
ATOM     59  C   UNL A   1      38.834  30.860  30.956  1.00  0.00     0.064 A 
ATOM     60  C   UNL A   1      38.701  30.838  32.350  1.00  0.00     0.173 A 
ATOM     61  C   UNL A   1      37.749  31.340  30.203  1.00  0.00     0.173 A 
ATOM     62  F   UNL A   1      39.703  30.378  33.116  1.00  0.00    -0.203 F 
ATOM     63  C   UNL A   1      37.524  31.262  32.965  1.00  0.00     0.198 A 
ATOM     64  C   UNL A   1      36.585  31.787  30.820  1.00  0.00     0.198 A 
ATOM     65  F   UNL A   1      37.826  31.392  28.864  1.00  0.00    -0.203 F 
ATOM     66  F   UNL A   1      37.406  31.197  34.299  1.00  0.00    -0.200 F 
ATOM     67  C   UNL A   1      36.471  31.742  32.201  1.00  0.00     0.200 A 
ATOM     68  F   UNL A   1      35.573  32.263  30.080  1.00  0.00    -0.200 F 
ATOM     69  F   UNL A   1      35.344  32.158  32.796  1.00  0.00    -0.200 F 
ENDBRANCH  45  59
BRANCH  46  70
ATOM     70  C   UNL A   1      47.072  27.753  26.281  1.00  0.00     0.064 A 
ATOM     71  C   UNL A   1      48.181  27.266  26.984  1.00  0.00     0.173 A 
ATOM     72  C   UNL A   1      47.141  27.771  24.880  1.00  0.00     0.173 A 
ATOM     73  F   UNL A   1      48.173  27.256  28.324  1.00  0.00    -0.203 F 
ATOM     74  C   UNL A   1      49.315  26.815  26.310  1.00  0.00     0.198 A 
ATOM     75  C   UNL A   1      48.261  27.289  24.208  1.00  0.00     0.198 A 
ATOM     76  F   UNL A   1      46.106  28.231  24.162  1.00  0.00    -0.203 F 
ATOM     77  F   UNL A   1      50.376  26.384  27.006  1.00  0.00    -0.200 F 
ATOM     78  C   UNL A   1      49.349  26.816  24.923  1.00  0.00     0.200 A 
ATOM     79  F   UNL A   1      48.282  27.278  22.868  1.00  0.00    -0.200 F 
ATOM     80  F   UNL A   1      50.433  26.365  24.278  1.00  0.00    -0.200 F 
ENDBRANCH  46  70
BRANCH  58  81
ATOM     81  C   UNL A   1      45.139  33.815  29.093  1.00  0.00     0.064 A 
ATOM     82  C   UNL A   1      45.889  34.160  30.225  1.00  0.00     0.173 A 
ATOM     83  C   UNL A   1      45.058  34.743  28.045  1.00  0.00     0.173 A 
ATOM     84  F   UNL A   1      45.978  33.311  31.261  1.00  0.00    -0.203 F 
ATOM     85  C   UNL A   1      46.518  35.399  30.316  1.00  0.00     0.198 A 
ATOM     86  C   UNL A   1      45.706  35.972  28.129  1.00  0.00     0.198 A 
ATOM     87  F   UNL A   1      44.354  34.457  26.941  1.00  0.00    -0.203 F 
ATOM     88  F   UNL A   1      47.193  35.727  31.425  1.00  0.00    -0.200 F 
ATOM     89  C   UNL A   1      46.430  36.301  29.265  1.00  0.00     0.200 A 
ATOM     90  F   UNL A   1      45.626  36.840  27.111  1.00  0.00    -0.200 F 
ATOM     91  F   UNL A   1      47.034  37.494  29.353  1.00  0.00    -0.200 F 
ENDBRANCH  58  81
ENDBRANCH  32  33
ENDBRANCH  25  27
ENDBRANCH  24  25
ENDBRANCH  23  24
ENDBRANCH   1  23
TORSDOF 16
ENDMDL
MODEL 2
REMARK VINA RESULT:     -11.2      4.266      9.494
REMARK SMILES CC[C@H](C)CN(CC)c1nc(C(=O)OCCOC(=O)c2ccc(-c3c4nc(c(-c5c(F)c(F)c(F)c(F)c5F)c5ccc([nH]5)c(-c5c(F)c(F)c(F)c(F)c5F)c5nc(c(-c6c(F)c(F)c(F)c(F)c6F)c6ccc3[nH]6)C=C5)C=C4)cc2)cc2ccccc12
REMARK SMILES IDX 15 1 14 2 12 3 13 4 11 5 9 6 10 7 89 8 84 9 88 10 83 11
REMARK SMILES IDX 85 12 87 13 86 14 6 15 5 16 3 17 4 18 2 19 1 20 7 21 8 22
REMARK SMILES IDX 16 23 17 24 18 25 19 26 20 27 21 28 82 29 22 30 81 31 23 32
REMARK SMILES IDX 24 33 25 34 75 35 26 36 80 37 74 38 76 39 27 40 79 41 73 42
REMARK SMILES IDX 72 43 28 45 60 46 40 47 59 48 41 49 44 50 58 51 77 52 42 53
REMARK SMILES IDX 43 54 57 56 78 57 45 58 29 59 30 60 38 61 31 62 32 63 36 64
REMARK SMILES IDX 39 65 33 66 34 67 37 68 35 69 61 70 62 71 70 72 63 73 64 74
REMARK SMILES IDX 68 75 71 76 65 77 66 78 69 79 67 80 46 81 47 82 55 83 48 84
REMARK SMILES IDX 49 85 53 86 56 87 50 88 51 89 54 90 52 91
REMARK H PARENT 76 44 44 55
REMARK Flexibility Score: inf
ROOT
ATOM      1  C   UNL A   1      32.345  29.392  24.590  1.00  0.00     0.275 C 
ENDROOT
BRANCH   1   2
ATOM      2  O   UNL A   1      33.128  28.306  25.128  1.00  0.00    -0.457 OA
BRANCH   2   3
ATOM      3  C   UNL A   1      33.657  27.489  24.186  1.00  0.00     0.357 C 
ATOM      4  O   UNL A   1      34.238  27.845  23.168  1.00  0.00    -0.244 OA
BRANCH   3   5
ATOM      5  C   UNL A   1      33.529  26.053  24.528  1.00  0.00     0.151 A 
ATOM      6  C   UNL A   1      34.382  24.331  25.798  1.00  0.00     0.137 A 
ATOM      7  N   UNL A   1      34.604  25.441  25.061  1.00  0.00    -0.223 NA
ATOM      8  C   UNL A   1      33.062  23.942  26.172  1.00  0.00     0.024 A 
ATOM      9  C   UNL A   1      31.993  24.484  25.441  1.00  0.00    -0.012 A 
ATOM     10  C   UNL A   1      32.727  23.059  27.225  1.00  0.00     0.012 A 
ATOM     11  C   UNL A   1      32.250  25.531  24.573  1.00  0.00     0.045 A 
ATOM     12  C   UNL A   1      30.681  24.015  25.623  1.00  0.00     0.009 A 
ATOM     13  C   UNL A   1      31.418  22.614  27.429  1.00  0.00     0.001 A 
ATOM     14  C   UNL A   1      30.399  23.066  26.601  1.00  0.00     0.001 A 
BRANCH   6  15
ATOM     15  N   UNL A   1      35.489  23.519  26.106  1.00  0.00    -0.356 N 
BRANCH  15  16
ATOM     16  C   UNL A   1      35.191  22.066  26.265  1.00  0.00     0.121 C 
BRANCH  16  17
ATOM     17  C   UNL A   1      35.291  21.250  24.956  1.00  0.00     0.005 C 
ATOM     18  C   UNL A   1      36.544  20.362  24.957  1.00  0.00     0.009 C 
BRANCH  17  19
ATOM     19  C   UNL A   1      34.039  20.399  24.659  1.00  0.00     0.002 C 
ATOM     20  C   UNL A   1      32.982  21.222  23.922  1.00  0.00     0.004 C 
ENDBRANCH  17  19
ENDBRANCH  16  17
ENDBRANCH  15  16
BRANCH  15  21
ATOM     21  C   UNL A   1      36.726  23.839  25.368  1.00  0.00     0.114 C 
ATOM     22  C   UNL A   1      37.985  23.925  26.230  1.00  0.00     0.027 C 
ENDBRANCH  15  21
ENDBRANCH   6  15
ENDBRANCH   3   5
ENDBRANCH   2   3
ENDBRANCH   1   2
BRANCH   1  23
ATOM     23  C   UNL A   1      31.674  30.210  25.696  1.00  0.00     0.275 C 
BRANCH  23  24
ATOM     24  O   UNL A   1      32.446  30.172  26.914  1.00  0.00    -0.458 OA
BRANCH  24  25
ATOM     25  C   UNL A   1      33.134  31.300  27.200  1.00  0.00     0.338 C 
ATOM     26  O   UNL A   1      32.712  32.444  27.200  1.00  0.00    -0.246 OA
BRANCH  25  27
ATOM     27  C   UNL A   1      34.527  30.995  27.580  1.00  0.00     0.060 A 
ATOM     28  C   UNL A   1      34.904  29.681  27.828  1.00  0.00     0.016 A 
ATOM     29  C   UNL A   1      35.394  32.035  27.910  1.00  0.00     0.016 A 
ATOM     30  C   UNL A   1      36.052  29.415  28.572  1.00  0.00     0.010 A 
ATOM     31  C   UNL A   1      36.628  31.749  28.510  1.00  0.00     0.010 A 
ATOM     32  C   UNL A   1      36.951  30.439  28.906  1.00  0.00    -0.014 A 
BRANCH  32  33
ATOM     33  C   UNL A   1      38.200  30.145  29.674  1.00  0.00     0.031 A 
ATOM     34  C   UNL A   1      39.286  29.279  29.078  1.00  0.00     0.074 A 
ATOM     35  C   UNL A   1      38.383  30.657  30.908  1.00  0.00     0.049 A 
ATOM     36  N   UNL A   1      40.324  28.731  29.663  1.00  0.00    -0.248 NA
ATOM     37  C   UNL A   1      39.185  28.976  27.642  1.00  0.00     0.031 C 
ATOM     38  C   UNL A   1      37.453  31.546  31.607  1.00  0.00     0.029 A 
ATOM     39  N   UNL A   1      39.424  30.514  31.795  1.00  0.00    -0.354 N 
ATOM     40  C   UNL A   1      40.948  27.959  28.689  1.00  0.00     0.074 A 
ATOM     41  C   UNL A   1      40.184  28.120  27.471  1.00  0.00     0.031 C 
ATOM     42  C   UNL A   1      37.989  31.919  32.776  1.00  0.00     0.029 A 
ATOM     43  C   UNL A   1      39.241  31.201  32.971  1.00  0.00     0.049 A 
ATOM     44  H   UNL A   1      40.223  29.971  31.607  1.00  0.00     0.167 HD
ATOM     45  C   UNL A   1      42.053  27.182  28.806  1.00  0.00     0.037 A 
ATOM     46  C   UNL A   1      39.962  31.217  34.108  1.00  0.00     0.037 A 
ATOM     47  C   UNL A   1      42.859  27.085  29.997  1.00  0.00     0.049 A 
ATOM     48  C   UNL A   1      41.176  30.342  34.218  1.00  0.00     0.074 A 
ATOM     49  C   UNL A   1      44.008  26.340  30.206  1.00  0.00     0.029 A 
ATOM     50  N   UNL A   1      42.614  27.777  31.174  1.00  0.00    -0.354 N 
ATOM     51  N   UNL A   1      41.703  29.546  33.321  1.00  0.00    -0.248 NA
ATOM     52  C   UNL A   1      41.874  30.342  35.511  1.00  0.00     0.031 C 
ATOM     53  C   UNL A   1      44.441  26.559  31.519  1.00  0.00     0.029 A 
ATOM     54  C   UNL A   1      43.585  27.469  32.114  1.00  0.00     0.049 A 
ATOM     55  H   UNL A   1      41.861  28.394  31.321  1.00  0.00     0.167 HD
ATOM     56  C   UNL A   1      42.791  28.947  33.939  1.00  0.00     0.074 A 
ATOM     57  C   UNL A   1      42.867  29.494  35.278  1.00  0.00     0.031 C 
ATOM     58  C   UNL A   1      43.644  28.018  33.444  1.00  0.00     0.037 A 
BRANCH  45  59
ATOM     59  C   UNL A   1      42.445  26.339  27.627  1.00  0.00     0.064 A 
ATOM     60  C   UNL A   1      43.457  26.723  26.737  1.00  0.00     0.173 A 
ATOM     61  C   UNL A   1      41.827  25.094  27.419  1.00  0.00     0.173 A 
ATOM     62  F   UNL A   1      44.071  27.907  26.884  1.00  0.00    -0.203 F 
ATOM     63  C   UNL A   1      43.823  25.902  25.671  1.00  0.00     0.198 A 
ATOM     64  C   UNL A   1      42.212  24.266  26.370  1.00  0.00     0.198 A 
ATOM     65  F   UNL A   1      40.859  24.674  28.248  1.00  0.00    -0.203 F 
ATOM     66  F   UNL A   1      44.767  26.307  24.811  1.00  0.00    -0.200 F 
ATOM     67  C   UNL A   1      43.205  24.673  25.493  1.00  0.00     0.200 A 
ATOM     68  F   UNL A   1      41.624  23.073  26.207  1.00  0.00    -0.200 F 
ATOM     69  F   UNL A   1      43.566  23.882  24.472  1.00  0.00    -0.200 F 
ENDBRANCH  45  59
BRANCH  46  70
ATOM     70  C   UNL A   1      39.511  32.049  35.254  1.00  0.00     0.064 A 
ATOM     71  C   UNL A   1      39.934  33.377  35.388  1.00  0.00     0.173 A 
ATOM     72  C   UNL A   1      38.629  31.542  36.220  1.00  0.00     0.173 A 
ATOM     73  F   UNL A   1      40.800  33.897  34.506  1.00  0.00    -0.203 F 
ATOM     74  C   UNL A   1      39.492  34.167  36.448  1.00  0.00     0.198 A 
ATOM     75  C   UNL A   1      38.162  32.342  37.259  1.00  0.00     0.198 A 
ATOM     76  F   UNL A   1      38.196  30.275  36.136  1.00  0.00    -0.203 F 
ATOM     77  F   UNL A   1      39.937  35.425  36.573  1.00  0.00    -0.200 F 
ATOM     78  C   UNL A   1      38.597  33.653  37.375  1.00  0.00     0.200 A 
ATOM     79  F   UNL A   1      37.285  31.845  38.142  1.00  0.00    -0.200 F 
ATOM     80  F   UNL A   1      38.159  34.419  38.382  1.00  0.00    -0.200 F 
ENDBRANCH  46  70
BRANCH  58  81
ATOM     81  C   UNL A   1      44.738  27.549  34.353  1.00  0.00     0.064 A 
ATOM     82  C   UNL A   1      45.969  28.217  34.418  1.00  0.00     0.173 A 
ATOM     83  C   UNL A   1      44.549  26.431  35.178  1.00  0.00     0.173 A 
ATOM     84  F   UNL A   1      46.203  29.280  33.633  1.00  0.00    -0.203 F 
ATOM     85  C   UNL A   1      46.982  27.768  35.262  1.00  0.00     0.198 A 
ATOM     86  C   UNL A   1      45.555  25.998  36.036  1.00  0.00     0.198 A 
ATOM     87  F   UNL A   1      43.387  25.761  35.151  1.00  0.00    -0.203 F 
ATOM     88  F   UNL A   1      48.166  28.393  35.276  1.00  0.00    -0.200 F 
ATOM     89  C   UNL A   1      46.772  26.662  36.073  1.00  0.00     0.200 A 
ATOM     90  F   UNL A   1      45.349  24.934  36.824  1.00  0.00    -0.200 F 
ATOM     91  F   UNL A   1      47.747  26.230  36.884  1.00  0.00    -0.200 F 
ENDBRANCH  58  81
ENDBRANCH  32  33
ENDBRANCH  25  27
ENDBRANCH  24  25
ENDBRANCH  23  24
ENDBRANCH   1  23
TORSDOF 16
ENDMDL
MODEL 3
REMARK VINA RESULT:     -11.2      5.016     10.280
REMARK SMILES CC[C@H](C)CN(CC)c1nc(C(=O)OCCOC(=O)c2ccc(-c3c4nc(c(-c5c(F)c(F)c(F)c(F)c5F)c5ccc([nH]5)c(-c5c(F)c(F)c(F)c(F)c5F)c5nc(c(-c6c(F)c(F)c(F)c(F)c6F)c6ccc3[nH]6)C=C5)C=C4)cc2)cc2ccccc12
REMARK SMILES IDX 15 1 14 2 12 3 13 4 11 5 9 6 10 7 89 8 84 9 88 10 83 11
REMARK SMILES IDX 85 12 87 13 86 14 6 15 5 16 3 17 4 18 2 19 1 20 7 21 8 22
REMARK SMILES IDX 16 23 17 24 18 25 19 26 20 27 21 28 82 29 22 30 81 31 23 32
REMARK SMILES IDX 24 33 25 34 75 35 26 36 80 37 74 38 76 39 27 40 79 41 73 42
REMARK SMILES IDX 72 43 28 45 60 46 40 47 59 48 41 49 44 50 58 51 77 52 42 53
REMARK SMILES IDX 43 54 57 56 78 57 45 58 29 59 30 60 38 61 31 62 32 63 36 64
REMARK SMILES IDX 39 65 33 66 34 67 37 68 35 69 61 70 62 71 70 72 63 73 64 74
REMARK SMILES IDX 68 75 71 76 65 77 66 78 69 79 67 80 46 81 47 82 55 83 48 84
REMARK SMILES IDX 49 85 53 86 56 87 50 88 51 89 54 90 52 91
REMARK H PARENT 76 44 44 55
REMARK Flexibility Score: inf
ROOT
ATOM      1  C   UNL A   1      33.648  31.868  27.898  1.00  0.00     0.275 C 
ENDROOT
BRANCH   1   2
ATOM      2  O   UNL A   1      32.991  30.703  27.356  1.00  0.00    -0.457 OA
BRANCH   2   3
ATOM      3  C   UNL A   1      33.842  29.727  26.957  1.00  0.00     0.357 C 
ATOM      4  O   UNL A   1      34.939  29.484  27.445  1.00  0.00    -0.244 OA
BRANCH   3   5
ATOM      5  C   UNL A   1      33.291  28.890  25.866  1.00  0.00     0.151 A 
ATOM      6  C   UNL A   1      32.565  26.781  25.287  1.00  0.00     0.137 A 
ATOM      7  N   UNL A   1      33.435  27.555  25.972  1.00  0.00    -0.223 NA
ATOM      8  C   UNL A   1      31.417  27.343  24.652  1.00  0.00     0.024 A 
ATOM      9  C   UNL A   1      31.421  28.725  24.406  1.00  0.00    -0.012 A 
ATOM     10  C   UNL A   1      30.264  26.629  24.251  1.00  0.00     0.012 A 
ATOM     11  C   UNL A   1      32.407  29.497  24.994  1.00  0.00     0.045 A 
ATOM     12  C   UNL A   1      30.418  29.323  23.625  1.00  0.00     0.009 A 
ATOM     13  C   UNL A   1      29.248  27.229  23.500  1.00  0.00     0.001 A 
ATOM     14  C   UNL A   1      29.345  28.571  23.156  1.00  0.00     0.001 A 
BRANCH   6  15
ATOM     15  N   UNL A   1      32.877  25.417  25.141  1.00  0.00    -0.356 N 
BRANCH  15  16
ATOM     16  C   UNL A   1      34.111  25.125  24.357  1.00  0.00     0.121 C 
BRANCH  16  17
ATOM     17  C   UNL A   1      33.879  24.234  23.115  1.00  0.00     0.005 C 
ATOM     18  C   UNL A   1      33.938  22.746  23.488  1.00  0.00     0.009 C 
BRANCH  17  19
ATOM     19  C   UNL A   1      32.565  24.541  22.369  1.00  0.00     0.002 C 
ATOM     20  C   UNL A   1      32.693  25.819  21.540  1.00  0.00     0.004 C 
ENDBRANCH  17  19
ENDBRANCH  16  17
ENDBRANCH  15  16
BRANCH  15  21
ATOM     21  C   UNL A   1      32.680  24.597  26.351  1.00  0.00     0.114 C 
ATOM     22  C   UNL A   1      31.282  23.996  26.500  1.00  0.00     0.027 C 
ENDBRANCH  15  21
ENDBRANCH   6  15
ENDBRANCH   3   5
ENDBRANCH   2   3
ENDBRANCH   1   2
BRANCH   1  23
ATOM     23  C   UNL A   1      32.979  33.163  27.434  1.00  0.00     0.275 C 
BRANCH  23  24
ATOM     24  O   UNL A   1      32.331  33.838  28.532  1.00  0.00    -0.458 OA
BRANCH  24  25
ATOM     25  C   UNL A   1      32.924  34.983  28.941  1.00  0.00     0.338 C 
ATOM     26  O   UNL A   1      32.540  36.123  28.750  1.00  0.00    -0.246 OA
BRANCH  25  27
ATOM     27  C   UNL A   1      34.140  34.702  29.729  1.00  0.00     0.060 A 
ATOM     28  C   UNL A   1      35.390  34.818  29.136  1.00  0.00     0.016 A 
ATOM     29  C   UNL A   1      34.024  34.106  30.984  1.00  0.00     0.016 A 
ATOM     30  C   UNL A   1      36.491  34.175  29.700  1.00  0.00     0.010 A 
ATOM     31  C   UNL A   1      35.166  33.608  31.626  1.00  0.00     0.010 A 
ATOM     32  C   UNL A   1      36.409  33.581  30.968  1.00  0.00    -0.014 A 
BRANCH  32  33
ATOM     33  C   UNL A   1      37.601  32.923  31.586  1.00  0.00     0.031 A 
ATOM     34  C   UNL A   1      38.328  31.810  30.867  1.00  0.00     0.074 A 
ATOM     35  C   UNL A   1      38.056  33.321  32.792  1.00  0.00     0.049 A 
ATOM     36  N   UNL A   1      39.227  30.974  31.328  1.00  0.00    -0.248 NA
ATOM     37  C   UNL A   1      37.988  31.596  29.452  1.00  0.00     0.031 C 
ATOM     38  C   UNL A   1      37.496  34.409  33.595  1.00  0.00     0.029 A 
ATOM     39  N   UNL A   1      39.105  32.863  33.553  1.00  0.00    -0.354 N 
ATOM     40  C   UNL A   1      39.498  30.093  30.287  1.00  0.00     0.074 A 
ATOM     41  C   UNL A   1      38.682  30.502  29.165  1.00  0.00     0.031 C 
ATOM     42  C   UNL A   1      38.240  34.578  34.696  1.00  0.00     0.029 A 
ATOM     43  C   UNL A   1      39.254  33.533  34.744  1.00  0.00     0.049 A 
ATOM     44  H   UNL A   1      39.694  32.125  33.272  1.00  0.00     0.167 HD
ATOM     45  C   UNL A   1      40.346  29.034  30.274  1.00  0.00     0.037 A 
ATOM     46  C   UNL A   1      40.071  33.307  35.790  1.00  0.00     0.037 A 
ATOM     47  C   UNL A   1      41.218  28.675  31.364  1.00  0.00     0.049 A 
ATOM     48  C   UNL A   1      40.994  32.125  35.757  1.00  0.00     0.074 A 
ATOM     49  C   UNL A   1      42.127  27.633  31.438  1.00  0.00     0.029 A 
ATOM     50  N   UNL A   1      41.309  29.367  32.563  1.00  0.00    -0.354 N 
ATOM     51  N   UNL A   1      41.174  31.245  34.804  1.00  0.00    -0.248 NA
ATOM     52  C   UNL A   1      41.802  31.886  36.961  1.00  0.00     0.031 C 
ATOM     53  C   UNL A   1      42.746  27.676  32.692  1.00  0.00     0.029 A 
ATOM     54  C   UNL A   1      42.251  28.769  33.384  1.00  0.00     0.049 A 
ATOM     55  H   UNL A   1      40.781  30.164  32.796  1.00  0.00     0.167 HD
ATOM     56  C   UNL A   1      42.111  30.345  35.291  1.00  0.00     0.074 A 
ATOM     57  C   UNL A   1      42.485  30.803  36.614  1.00  0.00     0.031 C 
ATOM     58  C   UNL A   1      42.608  29.233  34.699  1.00  0.00     0.037 A 
BRANCH  45  59
ATOM     59  C   UNL A   1      40.353  28.156  29.056  1.00  0.00     0.064 A 
ATOM     60  C   UNL A   1      41.111  28.463  27.918  1.00  0.00     0.173 A 
ATOM     61  C   UNL A   1      39.624  26.955  29.054  1.00  0.00     0.173 A 
ATOM     62  F   UNL A   1      41.817  29.603  27.864  1.00  0.00    -0.203 F 
ATOM     63  C   UNL A   1      41.125  27.610  26.816  1.00  0.00     0.198 A 
ATOM     64  C   UNL A   1      39.660  26.093  27.962  1.00  0.00     0.198 A 
ATOM     65  F   UNL A   1      38.889  26.609  30.121  1.00  0.00    -0.203 F 
ATOM     66  F   UNL A   1      41.828  27.941  25.723  1.00  0.00    -0.200 F 
ATOM     67  C   UNL A   1      40.405  26.424  26.841  1.00  0.00     0.200 A 
ATOM     68  F   UNL A   1      38.974  24.942  27.994  1.00  0.00    -0.200 F 
ATOM     69  F   UNL A   1      40.428  25.602  25.783  1.00  0.00    -0.200 F 
ENDBRANCH  45  59
BRANCH  46  70
ATOM     70  C   UNL A   1      40.001  34.192  36.982  1.00  0.00     0.064 A 
ATOM     71  C   UNL A   1      40.784  35.351  37.064  1.00  0.00     0.173 A 
ATOM     72  C   UNL A   1      39.132  33.913  38.047  1.00  0.00     0.173 A 
ATOM     73  F   UNL A   1      41.650  35.645  36.083  1.00  0.00    -0.203 F 
ATOM     74  C   UNL A   1      40.701  36.196  38.169  1.00  0.00     0.198 A 
ATOM     75  C   UNL A   1      39.026  34.775  39.135  1.00  0.00     0.198 A 
ATOM     76  F   UNL A   1      38.363  32.814  38.017  1.00  0.00    -0.203 F 
ATOM     77  F   UNL A   1      41.484  37.281  38.239  1.00  0.00    -0.200 F 
ATOM     78  C   UNL A   1      39.813  35.914  39.198  1.00  0.00     0.200 A 
ATOM     79  F   UNL A   1      38.155  34.506  40.118  1.00  0.00    -0.200 F 
ATOM     80  F   UNL A   1      39.722  36.736  40.251  1.00  0.00    -0.200 F 
ENDBRANCH  46  70
BRANCH  58  81
ATOM     81  C   UNL A   1      43.619  28.446  35.475  1.00  0.00     0.064 A 
ATOM     82  C   UNL A   1      44.995  28.659  35.307  1.00  0.00     0.173 A 
ATOM     83  C   UNL A   1      43.209  27.481  36.407  1.00  0.00     0.173 A 
ATOM     84  F   UNL A   1      45.434  29.558  34.412  1.00  0.00    -0.203 F 
ATOM     85  C   UNL A   1      45.926  27.917  36.028  1.00  0.00     0.198 A 
ATOM     86  C   UNL A   1      44.142  26.757  37.142  1.00  0.00     0.198 A 
ATOM     87  F   UNL A   1      41.904  27.244  36.603  1.00  0.00    -0.203 F 
ATOM     88  F   UNL A   1      47.236  28.104  35.820  1.00  0.00    -0.200 F 
ATOM     89  C   UNL A   1      45.499  26.971  36.949  1.00  0.00     0.200 A 
ATOM     90  F   UNL A   1      43.728  25.848  38.035  1.00  0.00    -0.200 F 
ATOM     91  F   UNL A   1      46.396  26.256  37.642  1.00  0.00    -0.200 F 
ENDBRANCH  58  81
ENDBRANCH  32  33
ENDBRANCH  25  27
ENDBRANCH  24  25
ENDBRANCH  23  24
ENDBRANCH   1  23
TORSDOF 16
ENDMDL
