MODEL 1
REMARK VINA RESULT:     -14.3      0.000      0.000
REMARK SMILES Cc1c(C(=O)OCCOC(=O)c2ccc(-c3c4nc(c(-c5c(F)c(F)c(F)c(F)c5F)c5ccc([nH]5)c(-c5c(F)c(F)c(F)c(F)c5F)c5nc(c(-c6c(F)c(F)c(F)c(F)c6F)c6ccc3[nH]6)C=C5)C=C4)cc2)cccc1-n1c(C)cc(/C=C2/C(=O)NC(=S)N=C2O)c1C
REMARK SMILES IDX 7 1 6 2 4 3 5 4 3 5 1 6 2 7 78 8 75 9 77 10 76 11 79 12
REMARK SMILES IDX 80 13 94 14 81 15 82 16 83 17 95 18 84 19 85 20 86 21 92 22
REMARK SMILES IDX 87 23 88 24 91 25 89 26 90 28 93 29 8 31 9 32 10 33 11 34
REMARK SMILES IDX 12 35 13 36 74 37 14 38 73 39 15 40 16 41 17 42 67 43 18 44
REMARK SMILES IDX 72 45 66 46 68 47 19 48 71 49 65 50 64 51 20 53 52 54 32 55
REMARK SMILES IDX 51 56 33 57 36 58 50 59 69 60 34 61 35 62 49 64 70 65 37 66
REMARK SMILES IDX 21 67 22 68 30 69 23 70 24 71 28 72 31 73 25 74 26 75 29 76
REMARK SMILES IDX 27 77 53 78 54 79 62 80 55 81 56 82 60 83 63 84 57 85 58 86
REMARK SMILES IDX 61 87 59 88 38 89 39 90 47 91 40 92 41 93 45 94 48 95 42 96
REMARK SMILES IDX 43 97 46 98 44 99
REMARK H PARENT 88 27 93 30 68 52 36 63
REMARK Flexibility Score: inf
ROOT
ATOM      1  C   UNL A   1      32.445  30.326  27.112  1.00  0.00     0.275 C 
ENDROOT
BRANCH   1   2
ATOM      2  O   UNL A   1      31.862  29.103  26.651  1.00  0.00    -0.458 OA
BRANCH   2   3
ATOM      3  C   UNL A   1      31.515  29.184  25.347  1.00  0.00     0.338 C 
ATOM      4  O   UNL A   1      31.393  30.219  24.707  1.00  0.00    -0.246 OA
BRANCH   3   5
ATOM      5  C   UNL A   1      31.155  27.899  24.737  1.00  0.00     0.065 A 
ATOM      6  C   UNL A   1      33.603  27.357  24.970  1.00  0.00     0.047 C 
ATOM      7  C   UNL A   1      32.169  26.938  24.722  1.00  0.00    -0.012 A 
ATOM      8  C   UNL A   1      31.801  25.630  24.380  1.00  0.00     0.049 A 
ATOM      9  C   UNL A   1      29.860  27.594  24.291  1.00  0.00     0.016 A 
ATOM     10  C   UNL A   1      30.484  25.281  24.045  1.00  0.00     0.027 A 
ATOM     11  C   UNL A   1      29.514  26.275  23.987  1.00  0.00     0.003 A 
BRANCH   8  12
ATOM     12  N   UNL A   1      32.820  24.768  23.941  1.00  0.00    -0.318 N 
ATOM     13  C   UNL A   1      33.127  24.465  22.629  1.00  0.00     0.020 A 
ATOM     14  C   UNL A   1      33.336  23.788  24.784  1.00  0.00     0.027 A 
ATOM     15  C   UNL A   1      32.523  25.174  21.464  1.00  0.00     0.065 C 
ATOM     16  C   UNL A   1      34.017  23.408  22.666  1.00  0.00     0.031 A 
ATOM     17  C   UNL A   1      34.196  23.018  24.025  1.00  0.00    -0.003 A 
ATOM     18  C   UNL A   1      32.861  23.676  26.205  1.00  0.00     0.065 C 
BRANCH  17  19
ATOM     19  C   UNL A   1      34.960  21.887  24.443  1.00  0.00     0.029 C 
ATOM     20  C   UNL A   1      34.604  20.604  24.640  1.00  0.00     0.102 C 
ATOM     21  C   UNL A   1      35.717  19.653  24.881  1.00  0.00     0.262 C 
ATOM     22  C   UNL A   1      33.294  19.954  24.545  1.00  0.00     0.226 C 
ATOM     23  O   UNL A   1      36.845  19.981  25.227  1.00  0.00    -0.269 OA
ATOM     24  N   UNL A   1      35.389  18.347  24.628  1.00  0.00    -0.297 N 
ATOM     25  N   UNL A   1      33.070  18.705  24.358  1.00  0.00    -0.184 NA
ATOM     26  C   UNL A   1      34.149  17.865  24.290  1.00  0.00     0.203 C 
ATOM     27  H   UNL A   1      36.117  17.687  24.696  1.00  0.00     0.172 HD
ATOM     28  S   UNL A   1      34.030  16.246  23.876  1.00  0.00    -0.038 S 
BRANCH  22  29
ATOM     29  O   UNL A   1      32.225  20.728  24.732  1.00  0.00    -0.493 OA
ATOM     30  H   UNL A   1      31.902  20.882  25.599  1.00  0.00     0.295 HD
ENDBRANCH  22  29
ENDBRANCH  17  19
ENDBRANCH   8  12
ENDBRANCH   3   5
ENDBRANCH   2   3
ENDBRANCH   1   2
BRANCH   1  31
ATOM     31  C   UNL A   1      33.961  30.384  26.923  1.00  0.00     0.275 C 
BRANCH  31  32
ATOM     32  O   UNL A   1      34.844  29.650  27.819  1.00  0.00    -0.458 OA
BRANCH  32  33
ATOM     33  C   UNL A   1      35.808  30.147  28.641  1.00  0.00     0.338 C 
ATOM     34  O   UNL A   1      35.620  31.099  29.362  1.00  0.00    -0.246 OA
BRANCH  33  35
ATOM     35  C   UNL A   1      37.125  29.472  28.607  1.00  0.00     0.060 A 
ATOM     36  C   UNL A   1      38.064  29.852  27.629  1.00  0.00     0.016 A 
ATOM     37  C   UNL A   1      37.468  28.581  29.612  1.00  0.00     0.016 A 
ATOM     38  C   UNL A   1      39.394  29.465  27.744  1.00  0.00     0.010 A 
ATOM     39  C   UNL A   1      38.794  28.303  29.810  1.00  0.00     0.010 A 
ATOM     40  C   UNL A   1      39.743  28.709  28.858  1.00  0.00    -0.014 A 
BRANCH  40  41
ATOM     41  C   UNL A   1      40.990  27.978  28.958  1.00  0.00     0.031 A 
ATOM     42  C   UNL A   1      41.131  26.619  28.427  1.00  0.00     0.074 A 
ATOM     43  C   UNL A   1      41.947  28.763  29.501  1.00  0.00     0.049 A 
ATOM     44  N   UNL A   1      41.779  25.676  29.021  1.00  0.00    -0.248 NA
ATOM     45  C   UNL A   1      40.490  26.168  27.188  1.00  0.00     0.031 C 
ATOM     46  C   UNL A   1      43.386  28.650  29.583  1.00  0.00     0.029 A 
ATOM     47  N   UNL A   1      41.663  29.920  30.261  1.00  0.00    -0.354 N 
ATOM     48  C   UNL A   1      41.975  24.701  28.063  1.00  0.00     0.074 A 
ATOM     49  C   UNL A   1      40.971  24.925  27.055  1.00  0.00     0.031 C 
ATOM     50  C   UNL A   1      43.810  29.451  30.586  1.00  0.00     0.029 A 
ATOM     51  C   UNL A   1      42.627  29.980  31.263  1.00  0.00     0.049 A 
ATOM     52  H   UNL A   1      40.928  30.556  30.112  1.00  0.00     0.167 HD
ATOM     53  C   UNL A   1      43.169  24.043  28.010  1.00  0.00     0.037 A 
ATOM     54  C   UNL A   1      42.210  29.700  32.535  1.00  0.00     0.037 A 
ATOM     55  C   UNL A   1      44.095  24.633  28.968  1.00  0.00     0.049 A 
ATOM     56  C   UNL A   1      42.817  28.413  33.042  1.00  0.00     0.074 A 
ATOM     57  C   UNL A   1      45.073  25.603  28.835  1.00  0.00     0.029 A 
ATOM     58  N   UNL A   1      43.808  24.563  30.315  1.00  0.00    -0.354 N 
ATOM     59  N   UNL A   1      43.266  27.466  32.265  1.00  0.00    -0.248 NA
ATOM     60  C   UNL A   1      42.915  28.074  34.456  1.00  0.00     0.031 C 
ATOM     61  C   UNL A   1      45.420  26.066  30.132  1.00  0.00     0.029 A 
ATOM     62  C   UNL A   1      44.623  25.402  31.044  1.00  0.00     0.049 A 
ATOM     63  H   UNL A   1      43.111  23.989  30.706  1.00  0.00     0.167 HD
ATOM     64  C   UNL A   1      43.800  26.467  33.030  1.00  0.00     0.074 A 
ATOM     65  C   UNL A   1      43.477  26.855  34.392  1.00  0.00     0.031 C 
ATOM     66  C   UNL A   1      44.483  25.419  32.484  1.00  0.00     0.037 A 
BRANCH  53  67
ATOM     67  C   UNL A   1      43.613  23.162  26.868  1.00  0.00     0.064 A 
ATOM     68  C   UNL A   1      43.166  21.827  26.764  1.00  0.00     0.173 A 
ATOM     69  C   UNL A   1      44.459  23.593  25.829  1.00  0.00     0.173 A 
ATOM     70  F   UNL A   1      42.295  21.304  27.636  1.00  0.00    -0.203 F 
ATOM     71  C   UNL A   1      43.594  20.965  25.755  1.00  0.00     0.198 A 
ATOM     72  C   UNL A   1      44.904  22.721  24.825  1.00  0.00     0.198 A 
ATOM     73  F   UNL A   1      44.857  24.871  25.748  1.00  0.00    -0.203 F 
ATOM     74  F   UNL A   1      43.143  19.703  25.728  1.00  0.00    -0.200 F 
ATOM     75  C   UNL A   1      44.479  21.406  24.794  1.00  0.00     0.200 A 
ATOM     76  F   UNL A   1      45.750  23.162  23.882  1.00  0.00    -0.200 F 
ATOM     77  F   UNL A   1      44.905  20.569  23.838  1.00  0.00    -0.200 F 
ENDBRANCH  53  67
BRANCH  54  78
ATOM     78  C   UNL A   1      40.805  30.151  32.844  1.00  0.00     0.064 A 
ATOM     79  C   UNL A   1      40.483  31.528  32.770  1.00  0.00     0.173 A 
ATOM     80  C   UNL A   1      39.725  29.263  32.940  1.00  0.00     0.173 A 
ATOM     81  F   UNL A   1      41.462  32.445  32.681  1.00  0.00    -0.203 F 
ATOM     82  C   UNL A   1      39.164  31.977  32.684  1.00  0.00     0.198 A 
ATOM     83  C   UNL A   1      38.401  29.719  32.887  1.00  0.00     0.198 A 
ATOM     84  F   UNL A   1      39.930  27.941  33.008  1.00  0.00    -0.203 F 
ATOM     85  F   UNL A   1      38.911  33.278  32.479  1.00  0.00    -0.200 F 
ATOM     86  C   UNL A   1      38.123  31.069  32.734  1.00  0.00     0.200 A 
ATOM     87  F   UNL A   1      37.392  28.837  32.893  1.00  0.00    -0.200 F 
ATOM     88  F   UNL A   1      36.858  31.483  32.576  1.00  0.00    -0.200 F 
ENDBRANCH  54  78
BRANCH  66  89
ATOM     89  C   UNL A   1      45.096  24.293  33.265  1.00  0.00     0.064 A 
ATOM     90  C   UNL A   1      44.357  23.202  33.731  1.00  0.00     0.173 A 
ATOM     91  C   UNL A   1      46.459  24.322  33.650  1.00  0.00     0.173 A 
ATOM     92  F   UNL A   1      43.026  23.153  33.578  1.00  0.00    -0.203 F 
ATOM     93  C   UNL A   1      44.964  22.142  34.405  1.00  0.00     0.198 A 
ATOM     94  C   UNL A   1      47.050  23.296  34.376  1.00  0.00     0.198 A 
ATOM     95  F   UNL A   1      47.276  25.333  33.328  1.00  0.00    -0.203 F 
ATOM     96  F   UNL A   1      44.235  21.074  34.750  1.00  0.00    -0.200 F 
ATOM     97  C   UNL A   1      46.311  22.187  34.721  1.00  0.00     0.200 A 
ATOM     98  F   UNL A   1      48.341  23.389  34.723  1.00  0.00    -0.200 F 
ATOM     99  F   UNL A   1      46.893  21.168  35.365  1.00  0.00    -0.200 F 
ENDBRANCH  66  89
ENDBRANCH  40  41
ENDBRANCH  33  35
ENDBRANCH  32  33
ENDBRANCH  31  32
ENDBRANCH   1  31
TORSDOF 14
ENDMDL
MODEL 2
REMARK VINA RESULT:     -14.1      4.135     10.367
REMARK SMILES Cc1c(C(=O)OCCOC(=O)c2ccc(-c3c4nc(c(-c5c(F)c(F)c(F)c(F)c5F)c5ccc([nH]5)c(-c5c(F)c(F)c(F)c(F)c5F)c5nc(c(-c6c(F)c(F)c(F)c(F)c6F)c6ccc3[nH]6)C=C5)C=C4)cc2)cccc1-n1c(C)cc(/C=C2/C(=O)NC(=S)N=C2O)c1C
REMARK SMILES IDX 7 1 6 2 4 3 5 4 3 5 1 6 2 7 78 8 75 9 77 10 76 11 79 12
REMARK SMILES IDX 80 13 94 14 81 15 82 16 83 17 95 18 84 19 85 20 86 21 92 22
REMARK SMILES IDX 87 23 88 24 91 25 89 26 90 28 93 29 8 31 9 32 10 33 11 34
REMARK SMILES IDX 12 35 13 36 74 37 14 38 73 39 15 40 16 41 17 42 67 43 18 44
REMARK SMILES IDX 72 45 66 46 68 47 19 48 71 49 65 50 64 51 20 53 52 54 32 55
REMARK SMILES IDX 51 56 33 57 36 58 50 59 69 60 34 61 35 62 49 64 70 65 37 66
REMARK SMILES IDX 21 67 22 68 30 69 23 70 24 71 28 72 31 73 25 74 26 75 29 76
REMARK SMILES IDX 27 77 53 78 54 79 62 80 55 81 56 82 60 83 63 84 57 85 58 86
REMARK SMILES IDX 61 87 59 88 38 89 39 90 47 91 40 92 41 93 45 94 48 95 42 96
REMARK SMILES IDX 43 97 46 98 44 99
REMARK H PARENT 88 27 93 30 68 52 36 63
REMARK Flexibility Score: inf
ROOT
ATOM      1  C   UNL A   1      37.799  21.669  24.955  1.00  0.00     0.275 C 
ENDROOT
BRANCH   1   2
ATOM      2  O   UNL A   1      36.582  22.000  24.277  1.00  0.00    -0.458 OA
BRANCH   2   3
ATOM      3  C   UNL A   1      35.531  21.326  24.795  1.00  0.00     0.338 C 
ATOM      4  O   UNL A   1      35.600  20.288  25.437  1.00  0.00    -0.246 OA
BRANCH   3   5
ATOM      5  C   UNL A   1      34.221  21.871  24.422  1.00  0.00     0.065 A 
ATOM      6  C   UNL A   1      34.800  23.743  26.005  1.00  0.00     0.047 C 
ATOM      7  C   UNL A   1      33.953  23.159  24.894  1.00  0.00    -0.012 A 
ATOM      8  C   UNL A   1      32.831  23.810  24.362  1.00  0.00     0.049 A 
ATOM      9  C   UNL A   1      33.328  21.212  23.564  1.00  0.00     0.016 A 
ATOM     10  C   UNL A   1      31.992  23.210  23.412  1.00  0.00     0.027 A 
ATOM     11  C   UNL A   1      32.237  21.898  23.024  1.00  0.00     0.003 A 
BRANCH   8  12
ATOM     12  N   UNL A   1      32.297  24.879  25.101  1.00  0.00    -0.318 N 
ATOM     13  C   UNL A   1      31.200  24.826  25.938  1.00  0.00     0.020 A 
ATOM     14  C   UNL A   1      32.541  26.196  24.726  1.00  0.00     0.027 A 
ATOM     15  C   UNL A   1      30.528  23.552  26.328  1.00  0.00     0.065 C 
ATOM     16  C   UNL A   1      30.885  26.134  26.258  1.00  0.00     0.031 A 
ATOM     17  C   UNL A   1      31.764  26.997  25.542  1.00  0.00    -0.003 A 
ATOM     18  C   UNL A   1      33.438  26.505  23.561  1.00  0.00     0.065 C 
BRANCH  17  19
ATOM     19  C   UNL A   1      31.666  28.420  25.536  1.00  0.00     0.029 C 
ATOM     20  C   UNL A   1      31.023  29.258  24.701  1.00  0.00     0.102 C 
ATOM     21  C   UNL A   1      30.973  30.680  25.123  1.00  0.00     0.262 C 
ATOM     22  C   UNL A   1      30.255  28.986  23.484  1.00  0.00     0.226 C 
ATOM     23  O   UNL A   1      31.715  31.181  25.958  1.00  0.00    -0.269 OA
ATOM     24  N   UNL A   1      29.967  31.395  24.528  1.00  0.00    -0.297 N 
ATOM     25  N   UNL A   1      29.360  29.738  22.957  1.00  0.00    -0.184 NA
ATOM     26  C   UNL A   1      29.116  30.950  23.546  1.00  0.00     0.203 C 
ATOM     27  H   UNL A   1      29.841  32.322  24.834  1.00  0.00     0.172 HD
ATOM     28  S   UNL A   1      27.863  31.961  23.084  1.00  0.00    -0.038 S 
BRANCH  22  29
ATOM     29  O   UNL A   1      30.560  27.870  22.819  1.00  0.00    -0.493 OA
ATOM     30  H   UNL A   1      30.766  27.085  23.289  1.00  0.00     0.295 HD
ENDBRANCH  22  29
ENDBRANCH  17  19
ENDBRANCH   8  12
ENDBRANCH   3   5
ENDBRANCH   2   3
ENDBRANCH   1   2
BRANCH   1  31
ATOM     31  C   UNL A   1      38.053  22.527  26.196  1.00  0.00     0.275 C 
BRANCH  31  32
ATOM     32  O   UNL A   1      38.629  23.857  26.066  1.00  0.00    -0.458 OA
BRANCH  32  33
ATOM     33  C   UNL A   1      39.748  24.350  26.664  1.00  0.00     0.338 C 
ATOM     34  O   UNL A   1      40.811  23.775  26.628  1.00  0.00    -0.246 OA
BRANCH  33  35
ATOM     35  C   UNL A   1      39.607  25.635  27.385  1.00  0.00     0.060 A 
ATOM     36  C   UNL A   1      39.175  25.625  28.725  1.00  0.00     0.016 A 
ATOM     37  C   UNL A   1      40.029  26.812  26.785  1.00  0.00     0.016 A 
ATOM     38  C   UNL A   1      39.313  26.758  29.516  1.00  0.00     0.010 A 
ATOM     39  C   UNL A   1      40.293  27.891  27.584  1.00  0.00     0.010 A 
ATOM     40  C   UNL A   1      39.897  27.877  28.932  1.00  0.00    -0.014 A 
BRANCH  40  41
ATOM     41  C   UNL A   1      39.825  29.202  29.512  1.00  0.00     0.031 A 
ATOM     42  C   UNL A   1      38.742  30.131  29.177  1.00  0.00     0.074 A 
ATOM     43  C   UNL A   1      40.810  29.366  30.423  1.00  0.00     0.049 A 
ATOM     44  N   UNL A   1      38.909  31.397  28.991  1.00  0.00    -0.248 NA
ATOM     45  C   UNL A   1      37.357  29.707  28.951  1.00  0.00     0.031 C 
ATOM     46  C   UNL A   1      41.042  30.347  31.459  1.00  0.00     0.029 A 
ATOM     47  N   UNL A   1      41.975  28.567  30.458  1.00  0.00    -0.354 N 
ATOM     48  C   UNL A   1      37.645  31.949  29.054  1.00  0.00     0.074 A 
ATOM     49  C   UNL A   1      36.726  30.875  28.779  1.00  0.00     0.031 C 
ATOM     50  C   UNL A   1      42.356  30.312  31.778  1.00  0.00     0.029 A 
ATOM     51  C   UNL A   1      43.017  29.406  30.841  1.00  0.00     0.049 A 
ATOM     52  H   UNL A   1      42.037  27.607  30.251  1.00  0.00     0.167 HD
ATOM     53  C   UNL A   1      37.466  33.143  29.689  1.00  0.00     0.037 A 
ATOM     54  C   UNL A   1      43.927  29.736  29.875  1.00  0.00     0.037 A 
ATOM     55  C   UNL A   1      38.714  33.555  30.316  1.00  0.00     0.049 A 
ATOM     56  C   UNL A   1      43.849  31.204  29.527  1.00  0.00     0.074 A 
ATOM     57  C   UNL A   1      39.204  33.395  31.601  1.00  0.00     0.029 A 
ATOM     58  N   UNL A   1      39.808  33.833  29.524  1.00  0.00    -0.354 N 
ATOM     59  N   UNL A   1      42.794  31.944  29.728  1.00  0.00    -0.248 NA
ATOM     60  C   UNL A   1      44.932  31.933  28.878  1.00  0.00     0.031 C 
ATOM     61  C   UNL A   1      40.601  33.649  31.580  1.00  0.00     0.029 A 
ATOM     62  C   UNL A   1      40.960  33.926  30.276  1.00  0.00     0.049 A 
ATOM     63  H   UNL A   1      39.773  33.949  28.547  1.00  0.00     0.167 HD
ATOM     64  C   UNL A   1      43.066  33.231  29.359  1.00  0.00     0.074 A 
ATOM     65  C   UNL A   1      44.384  33.154  28.753  1.00  0.00     0.031 C 
ATOM     66  C   UNL A   1      42.198  34.256  29.603  1.00  0.00     0.037 A 
BRANCH  53  67
ATOM     67  C   UNL A   1      36.124  33.723  30.064  1.00  0.00     0.064 A 
ATOM     68  C   UNL A   1      35.264  34.259  29.081  1.00  0.00     0.173 A 
ATOM     69  C   UNL A   1      35.621  33.750  31.378  1.00  0.00     0.173 A 
ATOM     70  F   UNL A   1      35.575  34.230  27.779  1.00  0.00    -0.203 F 
ATOM     71  C   UNL A   1      34.040  34.851  29.392  1.00  0.00     0.198 A 
ATOM     72  C   UNL A   1      34.399  34.362  31.693  1.00  0.00     0.198 A 
ATOM     73  F   UNL A   1      36.288  33.166  32.384  1.00  0.00    -0.203 F 
ATOM     74  F   UNL A   1      33.282  35.358  28.409  1.00  0.00    -0.200 F 
ATOM     75  C   UNL A   1      33.615  34.920  30.701  1.00  0.00     0.200 A 
ATOM     76  F   UNL A   1      33.982  34.408  32.966  1.00  0.00    -0.200 F 
ATOM     77  F   UNL A   1      32.448  35.509  30.998  1.00  0.00    -0.200 F 
ENDBRANCH  53  67
BRANCH  54  78
ATOM     78  C   UNL A   1      44.199  28.643  28.874  1.00  0.00     0.064 A 
ATOM     79  C   UNL A   1      44.758  27.418  29.314  1.00  0.00     0.173 A 
ATOM     80  C   UNL A   1      43.685  28.660  27.570  1.00  0.00     0.173 A 
ATOM     81  F   UNL A   1      45.277  27.319  30.550  1.00  0.00    -0.203 F 
ATOM     82  C   UNL A   1      44.702  26.258  28.539  1.00  0.00     0.198 A 
ATOM     83  C   UNL A   1      43.660  27.501  26.782  1.00  0.00     0.198 A 
ATOM     84  F   UNL A   1      43.131  29.771  27.069  1.00  0.00    -0.203 F 
ATOM     85  F   UNL A   1      45.122  25.090  29.050  1.00  0.00    -0.200 F 
ATOM     86  C   UNL A   1      44.145  26.300  27.276  1.00  0.00     0.200 A 
ATOM     87  F   UNL A   1      43.082  27.531  25.573  1.00  0.00    -0.200 F 
ATOM     88  F   UNL A   1      44.018  25.176  26.556  1.00  0.00    -0.200 F 
ENDBRANCH  54  78
BRANCH  66  89
ATOM     89  C   UNL A   1      42.435  35.690  29.228  1.00  0.00     0.064 A 
ATOM     90  C   UNL A   1      41.964  36.251  28.036  1.00  0.00     0.173 A 
ATOM     91  C   UNL A   1      43.234  36.539  30.033  1.00  0.00     0.173 A 
ATOM     92  F   UNL A   1      41.345  35.499  27.115  1.00  0.00    -0.203 F 
ATOM     93  C   UNL A   1      42.150  37.601  27.741  1.00  0.00     0.198 A 
ATOM     94  C   UNL A   1      43.473  37.867  29.706  1.00  0.00     0.198 A 
ATOM     95  F   UNL A   1      43.803  36.122  31.171  1.00  0.00    -0.203 F 
ATOM     96  F   UNL A   1      41.601  38.117  26.635  1.00  0.00    -0.200 F 
ATOM     97  C   UNL A   1      42.899  38.410  28.579  1.00  0.00     0.200 A 
ATOM     98  F   UNL A   1      44.251  38.614  30.502  1.00  0.00    -0.200 F 
ATOM     99  F   UNL A   1      43.074  39.706  28.296  1.00  0.00    -0.200 F 
ENDBRANCH  66  89
ENDBRANCH  40  41
ENDBRANCH  33  35
ENDBRANCH  32  33
ENDBRANCH  31  32
ENDBRANCH   1  31
TORSDOF 14
ENDMDL
MODEL 3
REMARK VINA RESULT:     -14.0      3.769      9.801
REMARK SMILES Cc1c(C(=O)OCCOC(=O)c2ccc(-c3c4nc(c(-c5c(F)c(F)c(F)c(F)c5F)c5ccc([nH]5)c(-c5c(F)c(F)c(F)c(F)c5F)c5nc(c(-c6c(F)c(F)c(F)c(F)c6F)c6ccc3[nH]6)C=C5)C=C4)cc2)cccc1-n1c(C)cc(/C=C2/C(=O)NC(=S)N=C2O)c1C
REMARK SMILES IDX 7 1 6 2 4 3 5 4 3 5 1 6 2 7 78 8 75 9 77 10 76 11 79 12
REMARK SMILES IDX 80 13 94 14 81 15 82 16 83 17 95 18 84 19 85 20 86 21 92 22
REMARK SMILES IDX 87 23 88 24 91 25 89 26 90 28 93 29 8 31 9 32 10 33 11 34
REMARK SMILES IDX 12 35 13 36 74 37 14 38 73 39 15 40 16 41 17 42 67 43 18 44
REMARK SMILES IDX 72 45 66 46 68 47 19 48 71 49 65 50 64 51 20 53 52 54 32 55
REMARK SMILES IDX 51 56 33 57 36 58 50 59 69 60 34 61 35 62 49 64 70 65 37 66
REMARK SMILES IDX 21 67 22 68 30 69 23 70 24 71 28 72 31 73 25 74 26 75 29 76
REMARK SMILES IDX 27 77 53 78 54 79 62 80 55 81 56 82 60 83 63 84 57 85 58 86
REMARK SMILES IDX 61 87 59 88 38 89 39 90 47 91 40 92 41 93 45 94 48 95 42 96
REMARK SMILES IDX 43 97 46 98 44 99
REMARK H PARENT 88 27 93 30 68 52 36 63
REMARK Flexibility Score: inf
ROOT
ATOM      1  C   UNL A   1      36.527  21.169  24.627  1.00  0.00     0.275 C 
ENDROOT
BRANCH   1   2
ATOM      2  O   UNL A   1      35.434  22.090  24.545  1.00  0.00    -0.458 OA
BRANCH   2   3
ATOM      3  C   UNL A   1      35.565  22.915  23.483  1.00  0.00     0.338 C 
ATOM      4  O   UNL A   1      36.599  23.117  22.862  1.00  0.00    -0.246 OA
BRANCH   3   5
ATOM      5  C   UNL A   1      34.360  23.693  23.170  1.00  0.00     0.065 A 
ATOM      6  C   UNL A   1      34.786  24.819  25.382  1.00  0.00     0.047 C 
ATOM      7  C   UNL A   1      34.092  24.755  24.038  1.00  0.00    -0.012 A 
ATOM      8  C   UNL A   1      33.104  25.667  23.640  1.00  0.00     0.049 A 
ATOM      9  C   UNL A   1      33.578  23.475  22.026  1.00  0.00     0.016 A 
ATOM     10  C   UNL A   1      32.393  25.530  22.439  1.00  0.00     0.027 A 
ATOM     11  C   UNL A   1      32.623  24.418  21.638  1.00  0.00     0.003 A 
BRANCH   8  12
ATOM     12  N   UNL A   1      32.520  26.460  24.642  1.00  0.00    -0.318 N 
ATOM     13  C   UNL A   1      31.419  26.130  25.407  1.00  0.00     0.020 A 
ATOM     14  C   UNL A   1      32.714  27.837  24.663  1.00  0.00     0.027 A 
ATOM     15  C   UNL A   1      30.796  24.775  25.403  1.00  0.00     0.065 C 
ATOM     16  C   UNL A   1      31.048  27.280  26.079  1.00  0.00     0.031 A 
ATOM     17  C   UNL A   1      31.898  28.343  25.656  1.00  0.00    -0.003 A 
ATOM     18  C   UNL A   1      33.609  28.498  23.652  1.00  0.00     0.065 C 
BRANCH  17  19
ATOM     19  C   UNL A   1      31.741  29.705  26.054  1.00  0.00     0.029 C 
ATOM     20  C   UNL A   1      32.491  30.483  26.856  1.00  0.00     0.102 C 
ATOM     21  C   UNL A   1      32.132  31.922  26.881  1.00  0.00     0.262 C 
ATOM     22  C   UNL A   1      33.691  30.170  27.635  1.00  0.00     0.226 C 
ATOM     23  O   UNL A   1      31.057  32.374  26.507  1.00  0.00    -0.269 OA
ATOM     24  N   UNL A   1      33.145  32.735  27.318  1.00  0.00    -0.297 N 
ATOM     25  N   UNL A   1      34.572  31.003  28.056  1.00  0.00    -0.184 NA
ATOM     26  C   UNL A   1      34.363  32.333  27.807  1.00  0.00     0.203 C 
ATOM     27  H   UNL A   1      32.983  33.705  27.277  1.00  0.00     0.172 HD
ATOM     28  S   UNL A   1      35.501  33.519  28.134  1.00  0.00    -0.038 S 
BRANCH  22  29
ATOM     29  O   UNL A   1      33.855  28.897  27.999  1.00  0.00    -0.493 OA
ATOM     30  H   UNL A   1      33.142  28.293  27.930  1.00  0.00     0.295 HD
ENDBRANCH  22  29
ENDBRANCH  17  19
ENDBRANCH   8  12
ENDBRANCH   3   5
ENDBRANCH   2   3
ENDBRANCH   1   2
BRANCH   1  31
ATOM     31  C   UNL A   1      37.526  21.511  25.733  1.00  0.00     0.275 C 
BRANCH  31  32
ATOM     32  O   UNL A   1      38.953  21.554  25.450  1.00  0.00    -0.458 OA
BRANCH  32  33
ATOM     33  C   UNL A   1      39.987  21.424  26.326  1.00  0.00     0.338 C 
ATOM     34  O   UNL A   1      40.566  20.376  26.497  1.00  0.00    -0.246 OA
BRANCH  33  35
ATOM     35  C   UNL A   1      40.374  22.636  27.083  1.00  0.00     0.060 A 
ATOM     36  C   UNL A   1      41.254  22.508  28.175  1.00  0.00     0.016 A 
ATOM     37  C   UNL A   1      39.984  23.886  26.630  1.00  0.00     0.016 A 
ATOM     38  C   UNL A   1      41.868  23.630  28.718  1.00  0.00     0.010 A 
ATOM     39  C   UNL A   1      40.679  24.982  27.064  1.00  0.00     0.010 A 
ATOM     40  C   UNL A   1      41.584  24.859  28.131  1.00  0.00    -0.014 A 
BRANCH  40  41
ATOM     41  C   UNL A   1      41.888  26.127  28.761  1.00  0.00     0.031 A 
ATOM     42  C   UNL A   1      40.852  27.137  28.998  1.00  0.00     0.074 A 
ATOM     43  C   UNL A   1      43.182  26.155  29.149  1.00  0.00     0.049 A 
ATOM     44  N   UNL A   1      41.029  28.404  28.833  1.00  0.00    -0.248 NA
ATOM     45  C   UNL A   1      39.477  26.806  29.384  1.00  0.00     0.031 C 
ATOM     46  C   UNL A   1      43.928  27.024  30.031  1.00  0.00     0.029 A 
ATOM     47  N   UNL A   1      44.171  25.298  28.616  1.00  0.00    -0.354 N 
ATOM     48  C   UNL A   1      39.974  29.012  29.483  1.00  0.00     0.074 A 
ATOM     49  C   UNL A   1      38.938  28.016  29.580  1.00  0.00     0.031 C 
ATOM     50  C   UNL A   1      45.241  26.892  29.733  1.00  0.00     0.029 A 
ATOM     51  C   UNL A   1      45.344  26.044  28.547  1.00  0.00     0.049 A 
ATOM     52  H   UNL A   1      44.053  24.360  28.345  1.00  0.00     0.167 HD
ATOM     53  C   UNL A   1      40.195  30.150  30.203  1.00  0.00     0.037 A 
ATOM     54  C   UNL A   1      45.764  26.415  27.300  1.00  0.00     0.037 A 
ATOM     55  C   UNL A   1      41.622  30.438  30.235  1.00  0.00     0.049 A 
ATOM     56  C   UNL A   1      45.669  27.911  27.111  1.00  0.00     0.074 A 
ATOM     57  C   UNL A   1      42.609  30.135  31.157  1.00  0.00     0.029 A 
ATOM     58  N   UNL A   1      42.278  30.732  29.058  1.00  0.00    -0.354 N 
ATOM     59  N   UNL A   1      44.876  28.682  27.803  1.00  0.00    -0.248 NA
ATOM     60  C   UNL A   1      46.416  28.641  26.094  1.00  0.00     0.031 C 
ATOM     61  C   UNL A   1      43.872  30.319  30.534  1.00  0.00     0.029 A 
ATOM     62  C   UNL A   1      43.646  30.696  29.226  1.00  0.00     0.049 A 
ATOM     63  H   UNL A   1      41.829  30.939  28.207  1.00  0.00     0.167 HD
ATOM     64  C   UNL A   1      45.069  29.982  27.430  1.00  0.00     0.074 A 
ATOM     65  C   UNL A   1      45.977  29.894  26.299  1.00  0.00     0.031 C 
ATOM     66  C   UNL A   1      44.487  31.024  28.094  1.00  0.00     0.037 A 
BRANCH  53  67
ATOM     67  C   UNL A   1      39.208  30.760  31.168  1.00  0.00     0.064 A 
ATOM     68  C   UNL A   1      39.108  30.294  32.497  1.00  0.00     0.173 A 
ATOM     69  C   UNL A   1      38.352  31.829  30.842  1.00  0.00     0.173 A 
ATOM     70  F   UNL A   1      39.912  29.335  32.971  1.00  0.00    -0.203 F 
ATOM     71  C   UNL A   1      38.173  30.794  33.402  1.00  0.00     0.198 A 
ATOM     72  C   UNL A   1      37.400  32.320  31.748  1.00  0.00     0.198 A 
ATOM     73  F   UNL A   1      38.433  32.439  29.651  1.00  0.00    -0.203 F 
ATOM     74  F   UNL A   1      38.120  30.291  34.644  1.00  0.00    -0.200 F 
ATOM     75  C   UNL A   1      37.305  31.795  33.023  1.00  0.00     0.200 A 
ATOM     76  F   UNL A   1      36.571  33.307  31.378  1.00  0.00    -0.200 F 
ATOM     77  F   UNL A   1      36.394  32.259  33.889  1.00  0.00    -0.200 F 
ENDBRANCH  53  67
BRANCH  54  78
ATOM     78  C   UNL A   1      45.475  25.406  26.218  1.00  0.00     0.064 A 
ATOM     79  C   UNL A   1      46.368  24.327  26.014  1.00  0.00     0.173 A 
ATOM     80  C   UNL A   1      44.233  25.316  25.573  1.00  0.00     0.173 A 
ATOM     81  F   UNL A   1      47.581  24.338  26.593  1.00  0.00    -0.203 F 
ATOM     82  C   UNL A   1      45.999  23.183  25.305  1.00  0.00     0.198 A 
ATOM     83  C   UNL A   1      43.877  24.181  24.834  1.00  0.00     0.198 A 
ATOM     84  F   UNL A   1      43.319  26.286  25.712  1.00  0.00    -0.203 F 
ATOM     85  F   UNL A   1      46.829  22.130  25.252  1.00  0.00    -0.200 F 
ATOM     86  C   UNL A   1      44.749  23.108  24.722  1.00  0.00     0.200 A 
ATOM     87  F   UNL A   1      42.650  24.089  24.304  1.00  0.00    -0.200 F 
ATOM     88  F   UNL A   1      44.358  21.984  24.104  1.00  0.00    -0.200 F 
ENDBRANCH  54  78
BRANCH  66  89
ATOM     89  C   UNL A   1      44.659  32.472  27.740  1.00  0.00     0.064 A 
ATOM     90  C   UNL A   1      44.144  33.033  26.567  1.00  0.00     0.173 A 
ATOM     91  C   UNL A   1      45.438  33.339  28.545  1.00  0.00     0.173 A 
ATOM     92  F   UNL A   1      43.539  32.271  25.644  1.00  0.00    -0.203 F 
ATOM     93  C   UNL A   1      44.270  34.394  26.292  1.00  0.00     0.198 A 
ATOM     94  C   UNL A   1      45.617  34.681  28.237  1.00  0.00     0.198 A 
ATOM     95  F   UNL A   1      46.044  32.928  29.666  1.00  0.00    -0.203 F 
ATOM     96  F   UNL A   1      43.680  34.906  25.204  1.00  0.00    -0.200 F 
ATOM     97  C   UNL A   1      45.001  35.218  27.130  1.00  0.00     0.200 A 
ATOM     98  F   UNL A   1      46.378  35.447  29.032  1.00  0.00    -0.200 F 
ATOM     99  F   UNL A   1      45.118  36.525  26.866  1.00  0.00    -0.200 F 
ENDBRANCH  66  89
ENDBRANCH  40  41
ENDBRANCH  33  35
ENDBRANCH  32  33
ENDBRANCH  31  32
ENDBRANCH   1  31
TORSDOF 14
ENDMDL
