MODEL 1
REMARK VINA RESULT:     -11.9      0.000      0.000
REMARK SMILES O=C(OCCOC(=O)c1conc1-c1ccc(Cl)cc1)c1ccc(-c2c3nc(c(-c4c(F)c(F)c(F)c(F)c4F)c4ccc([nH]4)c(-c4c(F)c(F)c(F)c(F)c4F)c4nc(c(-c5c(F)c(F)c(F)c(F)c5F)c5ccc2[nH]5)C=C4)C=C3)cc1
REMARK SMILES IDX 4 1 3 2 2 3 1 4 21 5 22 6 83 7 23 8 82 9 24 10 25 11 26 12
REMARK SMILES IDX 76 13 27 14 81 15 75 16 77 17 28 18 80 19 74 20 73 21 29 23
REMARK SMILES IDX 61 24 41 25 60 26 42 27 45 28 59 29 78 30 43 31 44 32 58 34
REMARK SMILES IDX 79 35 46 36 30 37 31 38 39 39 32 40 33 41 37 42 40 43 34 44
REMARK SMILES IDX 35 45 38 46 36 47 62 48 63 49 71 50 64 51 65 52 69 53 72 54
REMARK SMILES IDX 66 55 67 56 70 57 68 58 47 59 48 60 56 61 49 62 50 63 54 64
REMARK SMILES IDX 57 65 51 66 52 67 55 68 53 69 5 70 6 71 7 72 8 73 9 74 10 75
REMARK SMILES IDX 13 76 11 77 12 78 14 79 15 80 20 81 16 82 19 83 17 84 18 85
REMARK H PARENT 77 22 45 33
REMARK Flexibility Score: inf
ROOT
ATOM      1  C   UNL A   1      37.311  21.516  24.352  1.00  0.00     0.275 C 
ENDROOT
BRANCH   1   2
ATOM      2  O   UNL A   1      37.709  21.594  25.736  1.00  0.00    -0.458 OA
BRANCH   2   3
ATOM      3  C   UNL A   1      38.995  21.547  26.130  1.00  0.00     0.338 C 
ATOM      4  O   UNL A   1      39.660  20.526  26.040  1.00  0.00    -0.246 OA
BRANCH   3   5
ATOM      5  C   UNL A   1      39.603  22.841  26.560  1.00  0.00     0.060 A 
ATOM      6  C   UNL A   1      39.142  24.083  26.125  1.00  0.00     0.016 A 
ATOM      7  C   UNL A   1      40.643  22.800  27.502  1.00  0.00     0.016 A 
ATOM      8  C   UNL A   1      39.672  25.254  26.656  1.00  0.00     0.010 A 
ATOM      9  C   UNL A   1      41.122  23.961  28.097  1.00  0.00     0.010 A 
ATOM     10  C   UNL A   1      40.660  25.195  27.644  1.00  0.00    -0.014 A 
BRANCH  10  11
ATOM     11  C   UNL A   1      41.327  26.442  28.058  1.00  0.00     0.031 A 
ATOM     12  C   UNL A   1      42.747  26.653  27.625  1.00  0.00     0.074 A 
ATOM     13  C   UNL A   1      40.631  27.372  28.732  1.00  0.00     0.049 A 
ATOM     14  N   UNL A   1      43.497  27.714  27.744  1.00  0.00    -0.248 NA
ATOM     15  C   UNL A   1      43.416  25.519  26.960  1.00  0.00     0.031 C 
ATOM     16  C   UNL A   1      39.249  27.217  29.192  1.00  0.00     0.029 A 
ATOM     17  N   UNL A   1      40.974  28.631  29.138  1.00  0.00    -0.354 N 
ATOM     18  C   UNL A   1      44.708  27.381  27.152  1.00  0.00     0.074 A 
ATOM     19  C   UNL A   1      44.630  25.999  26.747  1.00  0.00     0.031 C 
ATOM     20  C   UNL A   1      38.860  28.341  29.814  1.00  0.00     0.029 A 
ATOM     21  C   UNL A   1      39.966  29.290  29.800  1.00  0.00     0.049 A 
ATOM     22  H   UNL A   1      41.861  29.028  28.973  1.00  0.00     0.167 HD
ATOM     23  C   UNL A   1      45.773  28.181  26.927  1.00  0.00     0.037 A 
ATOM     24  C   UNL A   1      39.952  30.530  30.319  1.00  0.00     0.037 A 
ATOM     25  C   UNL A   1      45.818  29.551  27.355  1.00  0.00     0.049 A 
ATOM     26  C   UNL A   1      41.173  31.385  30.099  1.00  0.00     0.074 A 
ATOM     27  C   UNL A   1      46.829  30.478  27.200  1.00  0.00     0.029 A 
ATOM     28  N   UNL A   1      44.787  30.185  28.039  1.00  0.00    -0.354 N 
ATOM     29  N   UNL A   1      42.288  31.087  29.472  1.00  0.00    -0.248 NA
ATOM     30  C   UNL A   1      41.126  32.752  30.627  1.00  0.00     0.031 C 
ATOM     31  C   UNL A   1      46.427  31.660  27.832  1.00  0.00     0.029 A 
ATOM     32  C   UNL A   1      45.144  31.488  28.331  1.00  0.00     0.049 A 
ATOM     33  H   UNL A   1      43.929  29.767  28.281  1.00  0.00     0.167 HD
ATOM     34  C   UNL A   1      43.064  32.234  29.503  1.00  0.00     0.074 A 
ATOM     35  C   UNL A   1      42.278  33.242  30.190  1.00  0.00     0.031 C 
ATOM     36  C   UNL A   1      44.313  32.447  29.017  1.00  0.00     0.037 A 
BRANCH  23  37
ATOM     37  C   UNL A   1      46.943  27.585  26.199  1.00  0.00     0.064 A 
ATOM     38  C   UNL A   1      48.008  26.982  26.891  1.00  0.00     0.173 A 
ATOM     39  C   UNL A   1      47.018  27.633  24.801  1.00  0.00     0.173 A 
ATOM     40  F   UNL A   1      48.000  26.933  28.233  1.00  0.00    -0.203 F 
ATOM     41  C   UNL A   1      49.114  26.478  26.211  1.00  0.00     0.198 A 
ATOM     42  C   UNL A   1      48.113  27.102  24.122  1.00  0.00     0.198 A 
ATOM     43  F   UNL A   1      46.035  28.205  24.090  1.00  0.00    -0.203 F 
ATOM     44  F   UNL A   1      50.143  25.963  26.899  1.00  0.00    -0.200 F 
ATOM     45  C   UNL A   1      49.163  26.533  24.828  1.00  0.00     0.200 A 
ATOM     46  F   UNL A   1      48.158  27.152  22.783  1.00  0.00    -0.200 F 
ATOM     47  F   UNL A   1      50.229  26.050  24.174  1.00  0.00    -0.200 F 
ENDBRANCH  23  37
BRANCH  24  48
ATOM     48  C   UNL A   1      38.757  31.035  31.048  1.00  0.00     0.064 A 
ATOM     49  C   UNL A   1      38.644  30.920  32.441  1.00  0.00     0.173 A 
ATOM     50  C   UNL A   1      37.690  31.639  30.362  1.00  0.00     0.173 A 
ATOM     51  F   UNL A   1      39.631  30.347  33.147  1.00  0.00    -0.203 F 
ATOM     52  C   UNL A   1      37.502  31.356  33.113  1.00  0.00     0.198 A 
ATOM     53  C   UNL A   1      36.563  32.102  31.039  1.00  0.00     0.198 A 
ATOM     54  F   UNL A   1      37.748  31.789  29.031  1.00  0.00    -0.203 F 
ATOM     55  F   UNL A   1      37.403  31.186  34.439  1.00  0.00    -0.200 F 
ATOM     56  C   UNL A   1      36.464  31.950  32.413  1.00  0.00     0.200 A 
ATOM     57  F   UNL A   1      35.571  32.694  30.359  1.00  0.00    -0.200 F 
ATOM     58  F   UNL A   1      35.368  32.368  33.060  1.00  0.00    -0.200 F 
ENDBRANCH  24  48
BRANCH  36  59
ATOM     59  C   UNL A   1      44.874  33.825  29.197  1.00  0.00     0.064 A 
ATOM     60  C   UNL A   1      45.653  34.158  30.314  1.00  0.00     0.173 A 
ATOM     61  C   UNL A   1      44.656  34.810  28.222  1.00  0.00     0.173 A 
ATOM     62  F   UNL A   1      45.874  33.251  31.278  1.00  0.00    -0.203 F 
ATOM     63  C   UNL A   1      46.164  35.442  30.466  1.00  0.00     0.198 A 
ATOM     64  C   UNL A   1      45.201  36.080  28.360  1.00  0.00     0.198 A 
ATOM     65  F   UNL A   1      43.925  34.532  27.131  1.00  0.00    -0.203 F 
ATOM     66  F   UNL A   1      46.854  35.758  31.571  1.00  0.00    -0.200 F 
ATOM     67  C   UNL A   1      45.945  36.399  29.485  1.00  0.00     0.200 A 
ATOM     68  F   UNL A   1      45.003  36.998  27.404  1.00  0.00    -0.200 F 
ATOM     69  F   UNL A   1      46.444  37.634  29.632  1.00  0.00    -0.200 F 
ENDBRANCH  36  59
ENDBRANCH  10  11
ENDBRANCH   3   5
ENDBRANCH   2   3
ENDBRANCH   1   2
BRANCH   1  70
ATOM     70  C   UNL A   1      36.651  22.712  23.645  1.00  0.00     0.275 C 
BRANCH  70  71
ATOM     71  O   UNL A   1      35.530  23.286  24.333  1.00  0.00    -0.458 OA
BRANCH  71  72
ATOM     72  C   UNL A   1      34.392  23.493  23.593  1.00  0.00     0.343 C 
ATOM     73  O   UNL A   1      34.380  23.912  22.442  1.00  0.00    -0.246 OA
BRANCH  72  74
ATOM     74  C   UNL A   1      33.199  23.162  24.327  1.00  0.00     0.127 A 
ATOM     75  C   UNL A   1      32.361  24.078  24.920  1.00  0.00     0.247 A 
ATOM     76  C   UNL A   1      32.578  21.906  24.597  1.00  0.00     0.128 A 
ATOM     77  O   UNL A   1      31.337  23.442  25.526  1.00  0.00    -0.363 OA
ATOM     78  N   UNL A   1      31.466  22.084  25.332  1.00  0.00    -0.079 NA
BRANCH  76  79
ATOM     79  C   UNL A   1      32.984  20.546  24.249  1.00  0.00     0.005 A 
ATOM     80  C   UNL A   1      34.097  19.950  24.848  1.00  0.00     0.012 A 
ATOM     81  C   UNL A   1      32.197  19.770  23.395  1.00  0.00     0.012 A 
ATOM     82  C   UNL A   1      34.423  18.611  24.625  1.00  0.00     0.021 A 
ATOM     83  C   UNL A   1      32.528  18.430  23.151  1.00  0.00     0.021 A 
ATOM     84  C   UNL A   1      33.635  17.854  23.772  1.00  0.00     0.041 A 
ATOM     85  Cl  UNL A   1      34.025  16.202  23.497  1.00  0.00    -0.084 Cl
ENDBRANCH  76  79
ENDBRANCH  72  74
ENDBRANCH  71  72
ENDBRANCH  70  71
ENDBRANCH   1  70
TORSDOF 12
ENDMDL
MODEL 2
REMARK VINA RESULT:     -11.9      5.685      8.310
REMARK SMILES O=C(OCCOC(=O)c1conc1-c1ccc(Cl)cc1)c1ccc(-c2c3nc(c(-c4c(F)c(F)c(F)c(F)c4F)c4ccc([nH]4)c(-c4c(F)c(F)c(F)c(F)c4F)c4nc(c(-c5c(F)c(F)c(F)c(F)c5F)c5ccc2[nH]5)C=C4)C=C3)cc1
REMARK SMILES IDX 4 1 3 2 2 3 1 4 21 5 22 6 83 7 23 8 82 9 24 10 25 11 26 12
REMARK SMILES IDX 76 13 27 14 81 15 75 16 77 17 28 18 80 19 74 20 73 21 29 23
REMARK SMILES IDX 61 24 41 25 60 26 42 27 45 28 59 29 78 30 43 31 44 32 58 34
REMARK SMILES IDX 79 35 46 36 30 37 31 38 39 39 32 40 33 41 37 42 40 43 34 44
REMARK SMILES IDX 35 45 38 46 36 47 62 48 63 49 71 50 64 51 65 52 69 53 72 54
REMARK SMILES IDX 66 55 67 56 70 57 68 58 47 59 48 60 56 61 49 62 50 63 54 64
REMARK SMILES IDX 57 65 51 66 52 67 55 68 53 69 5 70 6 71 7 72 8 73 9 74 10 75
REMARK SMILES IDX 13 76 11 77 12 78 14 79 15 80 20 81 16 82 19 83 17 84 18 85
REMARK H PARENT 77 22 45 33
REMARK Flexibility Score: inf
ROOT
ATOM      1  C   UNL A   1      46.433  24.095  25.818  1.00  0.00     0.275 C 
ENDROOT
BRANCH   1   2
ATOM      2  O   UNL A   1      45.585  25.020  25.108  1.00  0.00    -0.458 OA
BRANCH   2   3
ATOM      3  C   UNL A   1      44.242  24.999  25.202  1.00  0.00     0.338 C 
ATOM      4  O   UNL A   1      43.554  24.323  24.454  1.00  0.00    -0.246 OA
BRANCH   3   5
ATOM      5  C   UNL A   1      43.649  25.743  26.352  1.00  0.00     0.060 A 
ATOM      6  C   UNL A   1      43.979  27.063  26.660  1.00  0.00     0.016 A 
ATOM      7  C   UNL A   1      42.660  25.101  27.114  1.00  0.00     0.016 A 
ATOM      8  C   UNL A   1      43.301  27.739  27.669  1.00  0.00     0.010 A 
ATOM      9  C   UNL A   1      41.923  25.793  28.068  1.00  0.00     0.010 A 
ATOM     10  C   UNL A   1      42.271  27.107  28.373  1.00  0.00    -0.014 A 
BRANCH  10  11
ATOM     11  C   UNL A   1      41.695  27.780  29.549  1.00  0.00     0.031 A 
ATOM     12  C   UNL A   1      42.395  27.610  30.865  1.00  0.00     0.074 A 
ATOM     13  C   UNL A   1      40.625  28.577  29.396  1.00  0.00     0.049 A 
ATOM     14  N   UNL A   1      42.165  28.205  32.004  1.00  0.00    -0.248 NA
ATOM     15  C   UNL A   1      43.509  26.645  30.908  1.00  0.00     0.031 C 
ATOM     16  C   UNL A   1      39.895  28.772  28.143  1.00  0.00     0.029 A 
ATOM     17  N   UNL A   1      39.970  29.382  30.287  1.00  0.00    -0.354 N 
ATOM     18  C   UNL A   1      43.117  27.703  32.882  1.00  0.00     0.074 A 
ATOM     19  C   UNL A   1      43.874  26.698  32.177  1.00  0.00     0.031 C 
ATOM     20  C   UNL A   1      38.894  29.643  28.342  1.00  0.00     0.029 A 
ATOM     21  C   UNL A   1      38.911  30.063  29.738  1.00  0.00     0.049 A 
ATOM     22  H   UNL A   1      40.233  29.463  31.233  1.00  0.00     0.167 HD
ATOM     23  C   UNL A   1      43.361  28.088  34.153  1.00  0.00     0.037 A 
ATOM     24  C   UNL A   1      38.067  30.937  30.312  1.00  0.00     0.037 A 
ATOM     25  C   UNL A   1      42.578  29.086  34.826  1.00  0.00     0.049 A 
ATOM     26  C   UNL A   1      38.330  31.311  31.747  1.00  0.00     0.074 A 
ATOM     27  C   UNL A   1      42.708  29.573  36.111  1.00  0.00     0.029 A 
ATOM     28  N   UNL A   1      41.499  29.747  34.248  1.00  0.00    -0.354 N 
ATOM     29  N   UNL A   1      39.280  30.887  32.550  1.00  0.00    -0.248 NA
ATOM     30  C   UNL A   1      37.433  32.303  32.348  1.00  0.00     0.031 C 
ATOM     31  C   UNL A   1      41.677  30.496  36.325  1.00  0.00     0.029 A 
ATOM     32  C   UNL A   1      40.941  30.626  35.156  1.00  0.00     0.049 A 
ATOM     33  H   UNL A   1      41.181  29.608  33.326  1.00  0.00     0.167 HD
ATOM     34  C   UNL A   1      39.113  31.579  33.740  1.00  0.00     0.074 A 
ATOM     35  C   UNL A   1      37.985  32.470  33.541  1.00  0.00     0.031 C 
ATOM     36  C   UNL A   1      39.817  31.491  34.897  1.00  0.00     0.037 A 
BRANCH  23  37
ATOM     37  C   UNL A   1      44.504  27.426  34.867  1.00  0.00     0.064 A 
ATOM     38  C   UNL A   1      44.315  26.264  35.635  1.00  0.00     0.173 A 
ATOM     39  C   UNL A   1      45.796  27.965  34.807  1.00  0.00     0.173 A 
ATOM     40  F   UNL A   1      43.093  25.721  35.750  1.00  0.00    -0.203 F 
ATOM     41  C   UNL A   1      45.370  25.686  36.337  1.00  0.00     0.198 A 
ATOM     42  C   UNL A   1      46.856  27.368  35.488  1.00  0.00     0.198 A 
ATOM     43  F   UNL A   1      46.032  29.079  34.097  1.00  0.00    -0.203 F 
ATOM     44  F   UNL A   1      45.151  24.614  37.110  1.00  0.00    -0.200 F 
ATOM     45  C   UNL A   1      46.641  26.235  36.258  1.00  0.00     0.200 A 
ATOM     46  F   UNL A   1      48.085  27.897  35.406  1.00  0.00    -0.200 F 
ATOM     47  F   UNL A   1      47.655  25.680  36.935  1.00  0.00    -0.200 F 
ENDBRANCH  23  37
BRANCH  24  48
ATOM     48  C   UNL A   1      36.943  31.530  29.537  1.00  0.00     0.064 A 
ATOM     49  C   UNL A   1      36.922  32.892  29.201  1.00  0.00     0.173 A 
ATOM     50  C   UNL A   1      35.856  30.746  29.120  1.00  0.00     0.173 A 
ATOM     51  F   UNL A   1      37.932  33.690  29.577  1.00  0.00    -0.203 F 
ATOM     52  C   UNL A   1      35.845  33.450  28.511  1.00  0.00     0.198 A 
ATOM     53  C   UNL A   1      34.795  31.299  28.404  1.00  0.00     0.198 A 
ATOM     54  F   UNL A   1      35.828  29.434  29.400  1.00  0.00    -0.203 F 
ATOM     55  F   UNL A   1      35.831  34.764  28.250  1.00  0.00    -0.200 F 
ATOM     56  C   UNL A   1      34.784  32.653  28.110  1.00  0.00     0.200 A 
ATOM     57  F   UNL A   1      33.781  30.519  28.002  1.00  0.00    -0.200 F 
ATOM     58  F   UNL A   1      33.751  33.190  27.448  1.00  0.00    -0.200 F 
ENDBRANCH  24  48
BRANCH  36  59
ATOM     59  C   UNL A   1      39.391  32.403  36.008  1.00  0.00     0.064 A 
ATOM     60  C   UNL A   1      39.964  33.672  36.172  1.00  0.00     0.173 A 
ATOM     61  C   UNL A   1      38.377  32.012  36.894  1.00  0.00     0.173 A 
ATOM     62  F   UNL A   1      40.948  34.081  35.357  1.00  0.00    -0.203 F 
ATOM     63  C   UNL A   1      39.559  34.505  37.210  1.00  0.00     0.198 A 
ATOM     64  C   UNL A   1      37.949  32.863  37.905  1.00  0.00     0.198 A 
ATOM     65  F   UNL A   1      37.794  30.810  36.767  1.00  0.00    -0.203 F 
ATOM     66  F   UNL A   1      40.160  35.688  37.388  1.00  0.00    -0.200 F 
ATOM     67  C   UNL A   1      38.546  34.103  38.069  1.00  0.00     0.200 A 
ATOM     68  F   UNL A   1      36.959  32.480  38.725  1.00  0.00    -0.200 F 
ATOM     69  F   UNL A   1      38.154  34.910  39.064  1.00  0.00    -0.200 F 
ENDBRANCH  36  59
ENDBRANCH  10  11
ENDBRANCH   3   5
ENDBRANCH   2   3
ENDBRANCH   1   2
BRANCH   1  70
ATOM     70  C   UNL A   1      45.983  22.649  26.088  1.00  0.00     0.275 C 
BRANCH  70  71
ATOM     71  O   UNL A   1      46.314  21.704  25.060  1.00  0.00    -0.458 OA
BRANCH  71  72
ATOM     72  C   UNL A   1      45.264  21.081  24.433  1.00  0.00     0.343 C 
ATOM     73  O   UNL A   1      44.661  21.539  23.470  1.00  0.00    -0.246 OA
BRANCH  72  74
ATOM     74  C   UNL A   1      44.941  19.816  25.041  1.00  0.00     0.127 A 
ATOM     75  C   UNL A   1      45.797  18.743  25.124  1.00  0.00     0.247 A 
ATOM     76  C   UNL A   1      43.761  19.365  25.704  1.00  0.00     0.128 A 
ATOM     77  O   UNL A   1      45.189  17.715  25.751  1.00  0.00    -0.363 OA
ATOM     78  N   UNL A   1      43.916  18.093  26.115  1.00  0.00    -0.079 NA
BRANCH  76  79
ATOM     79  C   UNL A   1      42.483  20.032  25.938  1.00  0.00     0.005 A 
ATOM     80  C   UNL A   1      42.404  21.423  26.043  1.00  0.00     0.012 A 
ATOM     81  C   UNL A   1      41.293  19.300  25.945  1.00  0.00     0.012 A 
ATOM     82  C   UNL A   1      41.179  22.086  26.138  1.00  0.00     0.021 A 
ATOM     83  C   UNL A   1      40.059  19.955  26.059  1.00  0.00     0.021 A 
ATOM     84  C   UNL A   1      40.007  21.345  26.147  1.00  0.00     0.041 A 
ATOM     85  Cl  UNL A   1      38.493  22.152  26.256  1.00  0.00    -0.084 Cl
ENDBRANCH  76  79
ENDBRANCH  72  74
ENDBRANCH  71  72
ENDBRANCH  70  71
ENDBRANCH   1  70
TORSDOF 12
ENDMDL
MODEL 3
REMARK VINA RESULT:     -11.9      4.524      9.726
REMARK SMILES O=C(OCCOC(=O)c1conc1-c1ccc(Cl)cc1)c1ccc(-c2c3nc(c(-c4c(F)c(F)c(F)c(F)c4F)c4ccc([nH]4)c(-c4c(F)c(F)c(F)c(F)c4F)c4nc(c(-c5c(F)c(F)c(F)c(F)c5F)c5ccc2[nH]5)C=C4)C=C3)cc1
REMARK SMILES IDX 4 1 3 2 2 3 1 4 21 5 22 6 83 7 23 8 82 9 24 10 25 11 26 12
REMARK SMILES IDX 76 13 27 14 81 15 75 16 77 17 28 18 80 19 74 20 73 21 29 23
REMARK SMILES IDX 61 24 41 25 60 26 42 27 45 28 59 29 78 30 43 31 44 32 58 34
REMARK SMILES IDX 79 35 46 36 30 37 31 38 39 39 32 40 33 41 37 42 40 43 34 44
REMARK SMILES IDX 35 45 38 46 36 47 62 48 63 49 71 50 64 51 65 52 69 53 72 54
REMARK SMILES IDX 66 55 67 56 70 57 68 58 47 59 48 60 56 61 49 62 50 63 54 64
REMARK SMILES IDX 57 65 51 66 52 67 55 68 53 69 5 70 6 71 7 72 8 73 9 74 10 75
REMARK SMILES IDX 13 76 11 77 12 78 14 79 15 80 20 81 16 82 19 83 17 84 18 85
REMARK H PARENT 77 22 45 33
REMARK Flexibility Score: inf
ROOT
ATOM      1  C   UNL A   1      31.954  29.917  26.383  1.00  0.00     0.275 C 
ENDROOT
BRANCH   1   2
ATOM      2  O   UNL A   1      33.243  30.558  26.305  1.00  0.00    -0.458 OA
BRANCH   2   3
ATOM      3  C   UNL A   1      33.675  31.443  27.223  1.00  0.00     0.338 C 
ATOM      4  O   UNL A   1      32.996  32.398  27.566  1.00  0.00    -0.246 OA
BRANCH   3   5
ATOM      5  C   UNL A   1      34.969  31.122  27.893  1.00  0.00     0.060 A 
ATOM      6  C   UNL A   1      36.021  32.032  27.996  1.00  0.00     0.016 A 
ATOM      7  C   UNL A   1      35.101  29.869  28.509  1.00  0.00     0.016 A 
ATOM      8  C   UNL A   1      37.154  31.715  28.738  1.00  0.00     0.010 A 
ATOM      9  C   UNL A   1      36.191  29.574  29.318  1.00  0.00     0.010 A 
ATOM     10  C   UNL A   1      37.240  30.487  29.402  1.00  0.00    -0.014 A 
BRANCH  10  11
ATOM     11  C   UNL A   1      38.517  30.106  30.029  1.00  0.00     0.031 A 
ATOM     12  C   UNL A   1      38.809  30.637  31.401  1.00  0.00     0.074 A 
ATOM     13  C   UNL A   1      39.332  29.244  29.399  1.00  0.00     0.049 A 
ATOM     14  N   UNL A   1      39.790  30.340  32.210  1.00  0.00    -0.248 NA
ATOM     15  C   UNL A   1      37.869  31.635  31.943  1.00  0.00     0.031 C 
ATOM     16  C   UNL A   1      39.106  28.703  28.057  1.00  0.00     0.029 A 
ATOM     17  N   UNL A   1      40.503  28.661  29.797  1.00  0.00    -0.354 N 
ATOM     18  C   UNL A   1      39.568  31.094  33.354  1.00  0.00     0.074 A 
ATOM     19  C   UNL A   1      38.413  31.924  33.113  1.00  0.00     0.031 C 
ATOM     20  C   UNL A   1      40.104  27.863  27.744  1.00  0.00     0.029 A 
ATOM     21  C   UNL A   1      41.040  27.811  28.860  1.00  0.00     0.049 A 
ATOM     22  H   UNL A   1      40.921  28.834  30.672  1.00  0.00     0.167 HD
ATOM     23  C   UNL A   1      40.248  31.055  34.521  1.00  0.00     0.037 A 
ATOM     24  C   UNL A   1      42.160  27.070  28.921  1.00  0.00     0.037 A 
ATOM     25  C   UNL A   1      41.401  30.223  34.720  1.00  0.00     0.049 A 
ATOM     26  C   UNL A   1      42.929  27.085  30.216  1.00  0.00     0.074 A 
ATOM     27  C   UNL A   1      42.189  30.084  35.845  1.00  0.00     0.029 A 
ATOM     28  N   UNL A   1      41.931  29.385  33.745  1.00  0.00    -0.354 N 
ATOM     29  N   UNL A   1      42.671  27.745  31.322  1.00  0.00    -0.248 NA
ATOM     30  C   UNL A   1      44.122  26.235  30.287  1.00  0.00     0.031 C 
ATOM     31  C   UNL A   1      43.225  29.196  35.534  1.00  0.00     0.029 A 
ATOM     32  C   UNL A   1      43.050  28.739  34.235  1.00  0.00     0.049 A 
ATOM     33  H   UNL A   1      41.564  29.271  32.839  1.00  0.00     0.167 HD
ATOM     34  C   UNL A   1      43.649  27.370  32.230  1.00  0.00     0.074 A 
ATOM     35  C   UNL A   1      44.490  26.403  31.549  1.00  0.00     0.031 C 
ATOM     36  C   UNL A   1      43.847  27.782  33.508  1.00  0.00     0.037 A 
BRANCH  23  37
ATOM     37  C   UNL A   1      39.755  31.932  35.636  1.00  0.00     0.064 A 
ATOM     38  C   UNL A   1      38.723  31.515  36.495  1.00  0.00     0.173 A 
ATOM     39  C   UNL A   1      40.297  33.207  35.839  1.00  0.00     0.173 A 
ATOM     40  F   UNL A   1      38.149  30.313  36.329  1.00  0.00    -0.203 F 
ATOM     41  C   UNL A   1      38.236  32.355  37.494  1.00  0.00     0.198 A 
ATOM     42  C   UNL A   1      39.827  34.034  36.858  1.00  0.00     0.198 A 
ATOM     43  F   UNL A   1      41.277  33.661  35.043  1.00  0.00    -0.203 F 
ATOM     44  F   UNL A   1      37.211  31.957  38.260  1.00  0.00    -0.200 F 
ATOM     45  C   UNL A   1      38.792  33.611  37.679  1.00  0.00     0.200 A 
ATOM     46  F   UNL A   1      40.369  35.247  37.038  1.00  0.00    -0.200 F 
ATOM     47  F   UNL A   1      38.321  34.419  38.638  1.00  0.00    -0.200 F 
ENDBRANCH  23  37
BRANCH  24  48
ATOM     48  C   UNL A   1      42.590  26.246  27.758  1.00  0.00     0.064 A 
ATOM     49  C   UNL A   1      43.527  26.721  26.829  1.00  0.00     0.173 A 
ATOM     50  C   UNL A   1      42.063  24.962  27.544  1.00  0.00     0.173 A 
ATOM     51  F   UNL A   1      44.060  27.943  26.981  1.00  0.00    -0.203 F 
ATOM     52  C   UNL A   1      43.893  25.961  25.718  1.00  0.00     0.198 A 
ATOM     53  C   UNL A   1      42.453  24.192  26.450  1.00  0.00     0.198 A 
ATOM     54  F   UNL A   1      41.173  24.450  28.407  1.00  0.00    -0.203 F 
ATOM     55  F   UNL A   1      44.753  26.463  24.821  1.00  0.00    -0.200 F 
ATOM     56  C   UNL A   1      43.359  24.696  25.530  1.00  0.00     0.200 A 
ATOM     57  F   UNL A   1      41.948  22.961  26.285  1.00  0.00    -0.200 F 
ATOM     58  F   UNL A   1      43.711  23.968  24.463  1.00  0.00    -0.200 F 
ENDBRANCH  24  48
BRANCH  36  59
ATOM     59  C   UNL A   1      44.998  27.161  34.238  1.00  0.00     0.064 A 
ATOM     60  C   UNL A   1      46.267  27.759  34.246  1.00  0.00     0.173 A 
ATOM     61  C   UNL A   1      44.818  25.976  34.965  1.00  0.00     0.173 A 
ATOM     62  F   UNL A   1      46.488  28.886  33.552  1.00  0.00    -0.203 F 
ATOM     63  C   UNL A   1      47.326  27.169  34.928  1.00  0.00     0.198 A 
ATOM     64  C   UNL A   1      45.870  25.411  35.676  1.00  0.00     0.198 A 
ATOM     65  F   UNL A   1      43.619  25.375  34.994  1.00  0.00    -0.203 F 
ATOM     66  F   UNL A   1      48.545  27.722  34.872  1.00  0.00    -0.200 F 
ATOM     67  C   UNL A   1      47.124  26.001  35.649  1.00  0.00     0.200 A 
ATOM     68  F   UNL A   1      45.670  24.291  36.386  1.00  0.00    -0.200 F 
ATOM     69  F   UNL A   1      48.144  25.438  36.310  1.00  0.00    -0.200 F 
ENDBRANCH  36  59
ENDBRANCH  10  11
ENDBRANCH   3   5
ENDBRANCH   2   3
ENDBRANCH   1   2
BRANCH   1  70
ATOM     70  C   UNL A   1      31.832  28.401  26.620  1.00  0.00     0.275 C 
BRANCH  70  71
ATOM     71  O   UNL A   1      31.952  27.588  25.444  1.00  0.00    -0.458 OA
BRANCH  71  72
ATOM     72  C   UNL A   1      33.198  27.077  25.173  1.00  0.00     0.343 C 
ATOM     73  O   UNL A   1      33.991  26.696  26.024  1.00  0.00    -0.246 OA
BRANCH  72  74
ATOM     74  C   UNL A   1      33.473  27.041  23.760  1.00  0.00     0.127 A 
ATOM     75  C   UNL A   1      33.767  28.140  22.987  1.00  0.00     0.247 A 
ATOM     76  C   UNL A   1      33.549  25.949  22.844  1.00  0.00     0.128 A 
ATOM     77  O   UNL A   1      33.973  27.763  21.708  1.00  0.00    -0.363 OA
ATOM     78  N   UNL A   1      33.836  26.396  21.609  1.00  0.00    -0.079 NA
BRANCH  76  79
ATOM     79  C   UNL A   1      33.326  24.519  23.043  1.00  0.00     0.005 A 
ATOM     80  C   UNL A   1      34.369  23.673  23.431  1.00  0.00     0.012 A 
ATOM     81  C   UNL A   1      32.037  23.985  22.962  1.00  0.00     0.012 A 
ATOM     82  C   UNL A   1      34.148  22.332  23.749  1.00  0.00     0.021 A 
ATOM     83  C   UNL A   1      31.809  22.635  23.262  1.00  0.00     0.021 A 
ATOM     84  C   UNL A   1      32.864  21.816  23.661  1.00  0.00     0.041 A 
ATOM     85  Cl  UNL A   1      32.582  20.167  24.057  1.00  0.00    -0.084 Cl
ENDBRANCH  76  79
ENDBRANCH  72  74
ENDBRANCH  71  72
ENDBRANCH  70  71
ENDBRANCH   1  70
TORSDOF 12
ENDMDL
