MODEL 1
REMARK VINA RESULT:     -13.0      0.000      0.000
REMARK SMILES Cc1cc(NC(=O)/C=C/c2ccco2)cc(C(=O)OCCOC(=O)c2ccc(-c3c4nc(c(-c5c(F)c(F)c(F)c(F)c5F)c5ccc([nH]5)c(-c5c(F)c(F)c(F)c(F)c5F)c5nc(c(-c6c(F)c(F)c(F)c(F)c6F)c6ccc3[nH]6)C=C5)C=C4)cc2)c1O
REMARK SMILES IDX 20 1 19 2 17 3 18 4 16 5 1 6 2 7 3 8 88 9 4 10 15 11 89 12
REMARK SMILES IDX 5 14 6 15 7 17 8 18 9 19 10 20 11 21 14 22 12 23 13 24 21 25
REMARK SMILES IDX 22 26 23 27 24 28 25 29 26 30 87 31 27 32 86 33 28 34 29 35
REMARK SMILES IDX 30 36 80 37 31 38 85 39 79 40 81 41 32 42 84 43 78 44 77 45
REMARK SMILES IDX 33 47 65 48 45 49 64 50 46 51 49 52 63 53 82 54 47 55 48 56
REMARK SMILES IDX 62 58 83 59 50 60 34 61 35 62 43 63 36 64 37 65 41 66 44 67
REMARK SMILES IDX 38 68 39 69 42 70 40 71 66 72 67 73 75 74 68 75 69 76 73 77
REMARK SMILES IDX 76 78 70 79 71 80 74 81 72 82 51 83 52 84 60 85 53 86 54 87
REMARK SMILES IDX 58 88 61 89 55 90 56 91 59 92 57 93
REMARK H PARENT 89 13 5 16 81 46 49 57
REMARK Flexibility Score: inf
ROOT
ATOM      1  C   UNL A   1      33.199  29.239  24.390  1.00  0.00     0.275 C 
ENDROOT
BRANCH   1   2
ATOM      2  O   UNL A   1      32.609  28.898  23.119  1.00  0.00    -0.458 OA
BRANCH   2   3
ATOM      3  C   UNL A   1      33.164  27.847  22.452  1.00  0.00     0.342 C 
ATOM      4  O   UNL A   1      34.148  27.862  21.745  1.00  0.00    -0.246 OA
BRANCH   3   5
ATOM      5  C   UNL A   1      32.333  26.655  22.742  1.00  0.00     0.104 A 
ATOM      6  C   UNL A   1      32.563  22.866  23.164  1.00  0.00     0.048 C 
ATOM      7  C   UNL A   1      32.046  24.276  23.103  1.00  0.00    -0.006 A 
ATOM      8  C   UNL A   1      30.713  24.532  23.481  1.00  0.00     0.033 A 
ATOM      9  C   UNL A   1      32.855  25.360  22.736  1.00  0.00     0.133 A 
ATOM     10  C   UNL A   1      30.173  25.828  23.473  1.00  0.00     0.042 A 
ATOM     11  C   UNL A   1      30.988  26.875  23.059  1.00  0.00     0.045 A 
BRANCH   9  12
ATOM     12  O   UNL A   1      34.157  25.173  22.376  1.00  0.00    -0.507 OA
ATOM     13  H   UNL A   1      34.743  25.903  22.343  1.00  0.00     0.293 HD
ENDBRANCH   9  12
BRANCH  10  14
ATOM     14  N   UNL A   1      28.839  25.956  23.908  1.00  0.00    -0.322 N 
ATOM     15  C   UNL A   1      27.898  26.941  23.804  1.00  0.00     0.248 C 
ATOM     16  H   UNL A   1      28.515  25.163  24.393  1.00  0.00     0.170 HD
ATOM     17  O   UNL A   1      26.770  26.756  24.257  1.00  0.00    -0.270 OA
BRANCH  15  18
ATOM     18  C   UNL A   1      28.200  28.205  23.124  1.00  0.00     0.075 C 
ATOM     19  C   UNL A   1      27.319  29.217  23.127  1.00  0.00     0.053 C 
BRANCH  19  20
ATOM     20  C   UNL A   1      27.705  30.476  22.591  1.00  0.00     0.126 A 
ATOM     21  C   UNL A   1      27.878  31.696  23.235  1.00  0.00     0.050 A 
ATOM     22  O   UNL A   1      28.030  30.664  21.264  1.00  0.00    -0.465 OA
ATOM     23  C   UNL A   1      28.296  32.643  22.267  1.00  0.00     0.042 A 
ATOM     24  C   UNL A   1      28.381  31.958  21.083  1.00  0.00     0.195 A 
ENDBRANCH  19  20
ENDBRANCH  15  18
ENDBRANCH  10  14
ENDBRANCH   3   5
ENDBRANCH   2   3
ENDBRANCH   1   2
BRANCH   1  25
ATOM     25  C   UNL A   1      32.111  29.719  25.352  1.00  0.00     0.275 C 
BRANCH  25  26
ATOM     26  O   UNL A   1      32.703  29.795  26.660  1.00  0.00    -0.458 OA
BRANCH  26  27
ATOM     27  C   UNL A   1      33.109  31.015  27.065  1.00  0.00     0.338 C 
ATOM     28  O   UNL A   1      32.464  32.045  27.143  1.00  0.00    -0.246 OA
BRANCH  27  29
ATOM     29  C   UNL A   1      34.465  30.855  27.602  1.00  0.00     0.060 A 
ATOM     30  C   UNL A   1      34.914  29.553  27.801  1.00  0.00     0.016 A 
ATOM     31  C   UNL A   1      35.244  31.937  27.996  1.00  0.00     0.016 A 
ATOM     32  C   UNL A   1      36.106  29.318  28.472  1.00  0.00     0.010 A 
ATOM     33  C   UNL A   1      36.484  31.696  28.606  1.00  0.00     0.010 A 
ATOM     34  C   UNL A   1      36.907  30.383  28.892  1.00  0.00    -0.014 A 
BRANCH  34  35
ATOM     35  C   UNL A   1      38.108  30.118  29.736  1.00  0.00     0.031 A 
ATOM     36  C   UNL A   1      39.239  29.305  29.163  1.00  0.00     0.074 A 
ATOM     37  C   UNL A   1      38.243  30.651  30.968  1.00  0.00     0.049 A 
ATOM     38  N   UNL A   1      40.253  28.745  29.770  1.00  0.00    -0.248 NA
ATOM     39  C   UNL A   1      39.218  29.085  27.707  1.00  0.00     0.031 C 
ATOM     40  C   UNL A   1      37.287  31.549  31.617  1.00  0.00     0.029 A 
ATOM     41  N   UNL A   1      39.253  30.525  31.891  1.00  0.00    -0.354 N 
ATOM     42  C   UNL A   1      40.934  28.034  28.789  1.00  0.00     0.074 A 
ATOM     43  C   UNL A   1      40.235  28.252  27.542  1.00  0.00     0.031 C 
ATOM     44  C   UNL A   1      37.774  31.926  32.809  1.00  0.00     0.029 A 
ATOM     45  C   UNL A   1      39.018  31.208  33.060  1.00  0.00     0.049 A 
ATOM     46  H   UNL A   1      40.068  29.996  31.730  1.00  0.00     0.167 HD
ATOM     47  C   UNL A   1      42.036  27.260  28.927  1.00  0.00     0.037 A 
ATOM     48  C   UNL A   1      39.693  31.208  34.227  1.00  0.00     0.037 A 
ATOM     49  C   UNL A   1      42.772  27.120  30.156  1.00  0.00     0.049 A 
ATOM     50  C   UNL A   1      40.902  30.324  34.368  1.00  0.00     0.074 A 
ATOM     51  C   UNL A   1      43.891  26.347  30.414  1.00  0.00     0.029 A 
ATOM     52  N   UNL A   1      42.475  27.799  31.330  1.00  0.00    -0.354 N 
ATOM     53  N   UNL A   1      41.464  29.544  33.476  1.00  0.00    -0.248 NA
ATOM     54  C   UNL A   1      41.552  30.294  35.685  1.00  0.00     0.031 C 
ATOM     55  C   UNL A   1      44.257  26.543  31.750  1.00  0.00     0.029 A 
ATOM     56  C   UNL A   1      43.391  27.467  32.312  1.00  0.00     0.049 A 
ATOM     57  H   UNL A   1      41.724  28.425  31.445  1.00  0.00     0.167 HD
ATOM     58  C   UNL A   1      42.528  28.931  34.122  1.00  0.00     0.074 A 
ATOM     59  C   UNL A   1      42.554  29.454  35.473  1.00  0.00     0.031 C 
ATOM     60  C   UNL A   1      43.399  28.008  33.646  1.00  0.00     0.037 A 
BRANCH  47  61
ATOM     61  C   UNL A   1      42.487  26.467  27.736  1.00  0.00     0.064 A 
ATOM     62  C   UNL A   1      43.465  26.936  26.848  1.00  0.00     0.173 A 
ATOM     63  C   UNL A   1      41.943  25.194  27.498  1.00  0.00     0.173 A 
ATOM     64  F   UNL A   1      44.002  28.154  27.018  1.00  0.00    -0.203 F 
ATOM     65  C   UNL A   1      43.869  26.169  25.757  1.00  0.00     0.198 A 
ATOM     66  C   UNL A   1      42.369  24.419  26.423  1.00  0.00     0.198 A 
ATOM     67  F   UNL A   1      41.003  24.697  28.317  1.00  0.00    -0.203 F 
ATOM     68  F   UNL A   1      44.774  26.656  24.897  1.00  0.00    -0.200 F 
ATOM     69  C   UNL A   1      43.327  24.909  25.550  1.00  0.00     0.200 A 
ATOM     70  F   UNL A   1      41.851  23.197  26.233  1.00  0.00    -0.200 F 
ATOM     71  F   UNL A   1      43.723  24.170  24.505  1.00  0.00    -0.200 F 
ENDBRANCH  47  61
BRANCH  48  72
ATOM     72  C   UNL A   1      39.193  32.009  35.377  1.00  0.00     0.064 A 
ATOM     73  C   UNL A   1      39.544  33.357  35.531  1.00  0.00     0.173 A 
ATOM     74  C   UNL A   1      38.354  31.441  36.349  1.00  0.00     0.173 A 
ATOM     75  F   UNL A   1      40.369  33.940  34.650  1.00  0.00    -0.203 F 
ATOM     76  C   UNL A   1      39.080  34.103  36.615  1.00  0.00     0.198 A 
ATOM     77  C   UNL A   1      37.862  32.196  37.411  1.00  0.00     0.198 A 
ATOM     78  F   UNL A   1      37.995  30.152  36.256  1.00  0.00    -0.203 F 
ATOM     79  F   UNL A   1      39.467  35.377  36.764  1.00  0.00    -0.200 F 
ATOM     80  C   UNL A   1      38.231  33.524  37.548  1.00  0.00     0.200 A 
ATOM     81  F   UNL A   1      37.032  31.635  38.300  1.00  0.00    -0.200 F 
ATOM     82  F   UNL A   1      37.777  34.245  38.582  1.00  0.00    -0.200 F 
ENDBRANCH  48  72
BRANCH  60  83
ATOM     83  C   UNL A   1      44.465  27.529  34.586  1.00  0.00     0.064 A 
ATOM     84  C   UNL A   1      45.688  28.204  34.710  1.00  0.00     0.173 A 
ATOM     85  C   UNL A   1      44.247  26.402  35.390  1.00  0.00     0.173 A 
ATOM     86  F   UNL A   1      45.947  29.278  33.949  1.00  0.00    -0.203 F 
ATOM     87  C   UNL A   1      46.665  27.752  35.592  1.00  0.00     0.198 A 
ATOM     88  C   UNL A   1      45.216  25.967  36.289  1.00  0.00     0.198 A 
ATOM     89  F   UNL A   1      43.090  25.727  35.310  1.00  0.00    -0.203 F 
ATOM     90  F   UNL A   1      47.844  28.384  35.665  1.00  0.00    -0.200 F 
ATOM     91  C   UNL A   1      46.427  26.638  36.385  1.00  0.00     0.200 A 
ATOM     92  F   UNL A   1      44.981  24.898  37.061  1.00  0.00    -0.200 F 
ATOM     93  F   UNL A   1      47.368  26.206  37.235  1.00  0.00    -0.200 F 
ENDBRANCH  60  83
ENDBRANCH  34  35
ENDBRANCH  27  29
ENDBRANCH  26  27
ENDBRANCH  25  26
ENDBRANCH   1  25
TORSDOF 15
ENDMDL
MODEL 2
REMARK VINA RESULT:     -12.8      1.555      3.624
REMARK SMILES Cc1cc(NC(=O)/C=C/c2ccco2)cc(C(=O)OCCOC(=O)c2ccc(-c3c4nc(c(-c5c(F)c(F)c(F)c(F)c5F)c5ccc([nH]5)c(-c5c(F)c(F)c(F)c(F)c5F)c5nc(c(-c6c(F)c(F)c(F)c(F)c6F)c6ccc3[nH]6)C=C5)C=C4)cc2)c1O
REMARK SMILES IDX 20 1 19 2 17 3 18 4 16 5 1 6 2 7 3 8 88 9 4 10 15 11 89 12
REMARK SMILES IDX 5 14 6 15 7 17 8 18 9 19 10 20 11 21 14 22 12 23 13 24 21 25
REMARK SMILES IDX 22 26 23 27 24 28 25 29 26 30 87 31 27 32 86 33 28 34 29 35
REMARK SMILES IDX 30 36 80 37 31 38 85 39 79 40 81 41 32 42 84 43 78 44 77 45
REMARK SMILES IDX 33 47 65 48 45 49 64 50 46 51 49 52 63 53 82 54 47 55 48 56
REMARK SMILES IDX 62 58 83 59 50 60 34 61 35 62 43 63 36 64 37 65 41 66 44 67
REMARK SMILES IDX 38 68 39 69 42 70 40 71 66 72 67 73 75 74 68 75 69 76 73 77
REMARK SMILES IDX 76 78 70 79 71 80 74 81 72 82 51 83 52 84 60 85 53 86 54 87
REMARK SMILES IDX 58 88 61 89 55 90 56 91 59 92 57 93
REMARK H PARENT 89 13 5 16 81 46 49 57
REMARK Flexibility Score: inf
ROOT
ATOM      1  C   UNL A   1      31.701  29.390  24.491  1.00  0.00     0.275 C 
ENDROOT
BRANCH   1   2
ATOM      2  O   UNL A   1      30.350  28.986  24.185  1.00  0.00    -0.458 OA
BRANCH   2   3
ATOM      3  C   UNL A   1      30.159  28.351  22.994  1.00  0.00     0.342 C 
ATOM      4  O   UNL A   1      29.744  28.832  21.963  1.00  0.00    -0.246 OA
BRANCH   3   5
ATOM      5  C   UNL A   1      30.550  26.935  23.185  1.00  0.00     0.104 A 
ATOM      6  C   UNL A   1      32.865  24.244  21.774  1.00  0.00     0.048 C 
ATOM      7  C   UNL A   1      31.857  24.975  22.617  1.00  0.00    -0.006 A 
ATOM      8  C   UNL A   1      31.334  24.340  23.760  1.00  0.00     0.033 A 
ATOM      9  C   UNL A   1      31.454  26.288  22.340  1.00  0.00     0.133 A 
ATOM     10  C   UNL A   1      30.410  24.974  24.606  1.00  0.00     0.042 A 
ATOM     11  C   UNL A   1      29.996  26.260  24.278  1.00  0.00     0.045 A 
BRANCH   9  12
ATOM     12  O   UNL A   1      31.941  26.957  21.255  1.00  0.00    -0.507 OA
ATOM     13  H   UNL A   1      32.866  27.031  21.127  1.00  0.00     0.293 HD
ENDBRANCH   9  12
BRANCH  10  14
ATOM     14  N   UNL A   1      29.991  24.247  25.737  1.00  0.00    -0.322 N 
ATOM     15  C   UNL A   1      30.644  23.545  26.710  1.00  0.00     0.248 C 
ATOM     16  H   UNL A   1      29.013  24.244  25.852  1.00  0.00     0.170 HD
ATOM     17  O   UNL A   1      30.005  23.030  27.626  1.00  0.00    -0.270 OA
BRANCH  15  18
ATOM     18  C   UNL A   1      32.107  23.426  26.702  1.00  0.00     0.075 C 
ATOM     19  C   UNL A   1      32.706  22.323  26.232  1.00  0.00     0.053 C 
BRANCH  19  20
ATOM     20  C   UNL A   1      34.122  22.304  26.098  1.00  0.00     0.126 A 
ATOM     21  C   UNL A   1      35.043  23.324  26.303  1.00  0.00     0.050 A 
ATOM     22  O   UNL A   1      34.834  21.170  25.766  1.00  0.00    -0.465 OA
ATOM     23  C   UNL A   1      36.337  22.796  26.067  1.00  0.00     0.042 A 
ATOM     24  C   UNL A   1      36.152  21.475  25.751  1.00  0.00     0.195 A 
ENDBRANCH  19  20
ENDBRANCH  15  18
ENDBRANCH  10  14
ENDBRANCH   3   5
ENDBRANCH   2   3
ENDBRANCH   1   2
BRANCH   1  25
ATOM     25  C   UNL A   1      31.788  29.832  25.952  1.00  0.00     0.275 C 
BRANCH  25  26
ATOM     26  O   UNL A   1      33.179  30.055  26.246  1.00  0.00    -0.458 OA
BRANCH  26  27
ATOM     27  C   UNL A   1      33.465  31.128  27.012  1.00  0.00     0.338 C 
ATOM     28  O   UNL A   1      32.732  32.039  27.350  1.00  0.00    -0.246 OA
BRANCH  27  29
ATOM     29  C   UNL A   1      34.810  30.912  27.557  1.00  0.00     0.060 A 
ATOM     30  C   UNL A   1      35.193  29.595  27.789  1.00  0.00     0.016 A 
ATOM     31  C   UNL A   1      35.643  31.964  27.925  1.00  0.00     0.016 A 
ATOM     32  C   UNL A   1      36.371  29.317  28.469  1.00  0.00     0.010 A 
ATOM     33  C   UNL A   1      36.868  31.676  28.544  1.00  0.00     0.010 A 
ATOM     34  C   UNL A   1      37.224  30.351  28.864  1.00  0.00    -0.014 A 
BRANCH  34  35
ATOM     35  C   UNL A   1      38.408  30.047  29.717  1.00  0.00     0.031 A 
ATOM     36  C   UNL A   1      39.516  29.195  29.154  1.00  0.00     0.074 A 
ATOM     37  C   UNL A   1      38.552  30.577  30.949  1.00  0.00     0.049 A 
ATOM     38  N   UNL A   1      40.506  28.603  29.770  1.00  0.00    -0.248 NA
ATOM     39  C   UNL A   1      39.498  28.974  27.699  1.00  0.00     0.031 C 
ATOM     40  C   UNL A   1      37.622  31.508  31.590  1.00  0.00     0.029 A 
ATOM     41  N   UNL A   1      39.551  30.419  31.881  1.00  0.00    -0.354 N 
ATOM     42  C   UNL A   1      41.170  27.867  28.795  1.00  0.00     0.074 A 
ATOM     43  C   UNL A   1      40.488  28.106  27.543  1.00  0.00     0.031 C 
ATOM     44  C   UNL A   1      38.113  31.871  32.785  1.00  0.00     0.029 A 
ATOM     45  C   UNL A   1      39.330  31.112  33.047  1.00  0.00     0.049 A 
ATOM     46  H   UNL A   1      40.348  29.862  31.726  1.00  0.00     0.167 HD
ATOM     47  C   UNL A   1      42.244  27.057  28.943  1.00  0.00     0.037 A 
ATOM     48  C   UNL A   1      39.996  31.091  34.219  1.00  0.00     0.037 A 
ATOM     49  C   UNL A   1      42.965  26.894  30.178  1.00  0.00     0.049 A 
ATOM     50  C   UNL A   1      41.173  30.167  34.370  1.00  0.00     0.074 A 
ATOM     51  C   UNL A   1      44.056  26.085  30.445  1.00  0.00     0.029 A 
ATOM     52  N   UNL A   1      42.683  27.585  31.348  1.00  0.00    -0.354 N 
ATOM     53  N   UNL A   1      41.715  29.367  33.484  1.00  0.00    -0.248 NA
ATOM     54  C   UNL A   1      41.812  30.118  35.692  1.00  0.00     0.031 C 
ATOM     55  C   UNL A   1      44.418  26.270  31.784  1.00  0.00     0.029 A 
ATOM     56  C   UNL A   1      43.580  27.223  32.338  1.00  0.00     0.049 A 
ATOM     57  H   UNL A   1      41.953  28.237  31.457  1.00  0.00     0.167 HD
ATOM     58  C   UNL A   1      42.753  28.720  34.139  1.00  0.00     0.074 A 
ATOM     59  C   UNL A   1      42.787  29.244  35.489  1.00  0.00     0.031 C 
ATOM     60  C   UNL A   1      43.596  27.766  33.671  1.00  0.00     0.037 A 
BRANCH  47  61
ATOM     61  C   UNL A   1      42.677  26.247  27.756  1.00  0.00     0.064 A 
ATOM     62  C   UNL A   1      42.072  25.028  27.420  1.00  0.00     0.173 A 
ATOM     63  C   UNL A   1      43.701  26.722  26.922  1.00  0.00     0.173 A 
ATOM     64  F   UNL A   1      41.102  24.519  28.195  1.00  0.00    -0.203 F 
ATOM     65  C   UNL A   1      42.490  24.305  26.304  1.00  0.00     0.198 A 
ATOM     66  C   UNL A   1      44.097  26.012  25.792  1.00  0.00     0.198 A 
ATOM     67  F   UNL A   1      44.313  27.885  27.198  1.00  0.00    -0.203 F 
ATOM     68  F   UNL A   1      41.928  23.121  26.026  1.00  0.00    -0.200 F 
ATOM     69  C   UNL A   1      43.496  24.801  25.487  1.00  0.00     0.200 A 
ATOM     70  F   UNL A   1      45.062  26.501  24.999  1.00  0.00    -0.200 F 
ATOM     71  F   UNL A   1      43.890  24.108  24.410  1.00  0.00    -0.200 F 
ENDBRANCH  47  61
BRANCH  48  72
ATOM     72  C   UNL A   1      39.514  31.910  35.364  1.00  0.00     0.064 A 
ATOM     73  C   UNL A   1      39.958  33.226  35.553  1.00  0.00     0.173 A 
ATOM     74  C   UNL A   1      38.601  31.393  36.296  1.00  0.00     0.173 A 
ATOM     75  F   UNL A   1      40.856  33.759  34.711  1.00  0.00    -0.203 F 
ATOM     76  C   UNL A   1      39.511  33.989  36.632  1.00  0.00     0.198 A 
ATOM     77  C   UNL A   1      38.128  32.167  37.352  1.00  0.00     0.198 A 
ATOM     78  F   UNL A   1      38.152  30.135  36.168  1.00  0.00    -0.203 F 
ATOM     79  F   UNL A   1      39.985  35.229  36.816  1.00  0.00    -0.200 F 
ATOM     80  C   UNL A   1      38.589  33.462  37.524  1.00  0.00     0.200 A 
ATOM     81  F   UNL A   1      37.227  31.657  38.202  1.00  0.00    -0.200 F 
ATOM     82  F   UNL A   1      38.151  34.200  38.554  1.00  0.00    -0.200 F 
ENDBRANCH  48  72
BRANCH  60  83
ATOM     83  C   UNL A   1      44.638  27.254  34.619  1.00  0.00     0.064 A 
ATOM     84  C   UNL A   1      45.885  27.883  34.747  1.00  0.00     0.173 A 
ATOM     85  C   UNL A   1      44.373  26.141  35.429  1.00  0.00     0.173 A 
ATOM     86  F   UNL A   1      46.188  28.941  33.981  1.00  0.00    -0.203 F 
ATOM     87  C   UNL A   1      46.840  27.399  35.637  1.00  0.00     0.198 A 
ATOM     88  C   UNL A   1      45.320  25.676  36.337  1.00  0.00     0.198 A 
ATOM     89  F   UNL A   1      43.192  25.510  35.347  1.00  0.00    -0.203 F 
ATOM     90  F   UNL A   1      48.041  27.988  35.712  1.00  0.00    -0.200 F 
ATOM     91  C   UNL A   1      46.555  26.300  36.435  1.00  0.00     0.200 A 
ATOM     92  F   UNL A   1      45.041  24.621  37.114  1.00  0.00    -0.200 F 
ATOM     93  F   UNL A   1      47.474  25.839  37.293  1.00  0.00    -0.200 F 
ENDBRANCH  60  83
ENDBRANCH  34  35
ENDBRANCH  27  29
ENDBRANCH  26  27
ENDBRANCH  25  26
ENDBRANCH   1  25
TORSDOF 15
ENDMDL
MODEL 3
REMARK VINA RESULT:     -12.8      1.742      4.418
REMARK SMILES Cc1cc(NC(=O)/C=C/c2ccco2)cc(C(=O)OCCOC(=O)c2ccc(-c3c4nc(c(-c5c(F)c(F)c(F)c(F)c5F)c5ccc([nH]5)c(-c5c(F)c(F)c(F)c(F)c5F)c5nc(c(-c6c(F)c(F)c(F)c(F)c6F)c6ccc3[nH]6)C=C5)C=C4)cc2)c1O
REMARK SMILES IDX 20 1 19 2 17 3 18 4 16 5 1 6 2 7 3 8 88 9 4 10 15 11 89 12
REMARK SMILES IDX 5 14 6 15 7 17 8 18 9 19 10 20 11 21 14 22 12 23 13 24 21 25
REMARK SMILES IDX 22 26 23 27 24 28 25 29 26 30 87 31 27 32 86 33 28 34 29 35
REMARK SMILES IDX 30 36 80 37 31 38 85 39 79 40 81 41 32 42 84 43 78 44 77 45
REMARK SMILES IDX 33 47 65 48 45 49 64 50 46 51 49 52 63 53 82 54 47 55 48 56
REMARK SMILES IDX 62 58 83 59 50 60 34 61 35 62 43 63 36 64 37 65 41 66 44 67
REMARK SMILES IDX 38 68 39 69 42 70 40 71 66 72 67 73 75 74 68 75 69 76 73 77
REMARK SMILES IDX 76 78 70 79 71 80 74 81 72 82 51 83 52 84 60 85 53 86 54 87
REMARK SMILES IDX 58 88 61 89 55 90 56 91 59 92 57 93
REMARK H PARENT 89 13 5 16 81 46 49 57
REMARK Flexibility Score: inf
ROOT
ATOM      1  C   UNL A   1      31.405  29.329  24.457  1.00  0.00     0.275 C 
ENDROOT
BRANCH   1   2
ATOM      2  O   UNL A   1      30.556  28.177  24.275  1.00  0.00    -0.458 OA
BRANCH   2   3
ATOM      3  C   UNL A   1      31.064  27.159  23.524  1.00  0.00     0.342 C 
ATOM      4  O   UNL A   1      31.092  27.081  22.315  1.00  0.00    -0.246 OA
BRANCH   3   5
ATOM      5  C   UNL A   1      31.582  26.138  24.463  1.00  0.00     0.104 A 
ATOM      6  C   UNL A   1      30.419  23.413  26.874  1.00  0.00     0.048 C 
ATOM      7  C   UNL A   1      31.278  24.332  26.051  1.00  0.00    -0.006 A 
ATOM      8  C   UNL A   1      32.673  24.140  26.045  1.00  0.00     0.033 A 
ATOM      9  C   UNL A   1      30.740  25.344  25.244  1.00  0.00     0.133 A 
ATOM     10  C   UNL A   1      33.531  24.945  25.278  1.00  0.00     0.042 A 
ATOM     11  C   UNL A   1      32.970  25.969  24.524  1.00  0.00     0.045 A 
BRANCH   9  12
ATOM     12  O   UNL A   1      29.394  25.564  25.199  1.00  0.00    -0.507 OA
ATOM     13  H   UNL A   1      28.799  24.844  25.275  1.00  0.00     0.293 HD
ENDBRANCH   9  12
BRANCH  10  14
ATOM     14  N   UNL A   1      34.903  24.628  25.329  1.00  0.00    -0.322 N 
ATOM     15  C   UNL A   1      35.637  23.531  24.980  1.00  0.00     0.248 C 
ATOM     16  H   UNL A   1      35.452  25.358  25.698  1.00  0.00     0.170 HD
ATOM     17  O   UNL A   1      36.860  23.551  25.102  1.00  0.00    -0.270 OA
BRANCH  15  18
ATOM     18  C   UNL A   1      34.991  22.337  24.422  1.00  0.00     0.075 C 
ATOM     19  C   UNL A   1      34.856  21.222  25.154  1.00  0.00     0.053 C 
BRANCH  19  20
ATOM     20  C   UNL A   1      34.092  20.139  24.636  1.00  0.00     0.126 A 
ATOM     21  C   UNL A   1      32.844  20.149  24.027  1.00  0.00     0.050 A 
ATOM     22  O   UNL A   1      34.543  18.835  24.626  1.00  0.00    -0.465 OA
ATOM     23  C   UNL A   1      32.526  18.817  23.662  1.00  0.00     0.042 A 
ATOM     24  C   UNL A   1      33.601  18.057  24.043  1.00  0.00     0.195 A 
ENDBRANCH  19  20
ENDBRANCH  15  18
ENDBRANCH  10  14
ENDBRANCH   3   5
ENDBRANCH   2   3
ENDBRANCH   1   2
BRANCH   1  25
ATOM     25  C   UNL A   1      31.759  29.478  25.937  1.00  0.00     0.275 C 
BRANCH  25  26
ATOM     26  O   UNL A   1      33.094  30.012  26.003  1.00  0.00    -0.458 OA
BRANCH  26  27
ATOM     27  C   UNL A   1      33.289  31.032  26.863  1.00  0.00     0.338 C 
ATOM     28  O   UNL A   1      32.490  31.863  27.253  1.00  0.00    -0.246 OA
BRANCH  27  29
ATOM     29  C   UNL A   1      34.633  30.858  27.428  1.00  0.00     0.060 A 
ATOM     30  C   UNL A   1      35.062  29.552  27.642  1.00  0.00     0.016 A 
ATOM     31  C   UNL A   1      35.417  31.933  27.831  1.00  0.00     0.016 A 
ATOM     32  C   UNL A   1      36.238  29.306  28.338  1.00  0.00     0.010 A 
ATOM     33  C   UNL A   1      36.642  31.681  28.466  1.00  0.00     0.010 A 
ATOM     34  C   UNL A   1      37.044  30.364  28.768  1.00  0.00    -0.014 A 
BRANCH  34  35
ATOM     35  C   UNL A   1      38.224  30.089  29.636  1.00  0.00     0.031 A 
ATOM     36  C   UNL A   1      39.362  29.269  29.086  1.00  0.00     0.074 A 
ATOM     37  C   UNL A   1      38.337  30.619  30.871  1.00  0.00     0.049 A 
ATOM     38  N   UNL A   1      40.358  28.701  29.713  1.00  0.00    -0.248 NA
ATOM     39  C   UNL A   1      39.369  29.052  27.629  1.00  0.00     0.031 C 
ATOM     40  C   UNL A   1      37.374  31.523  31.501  1.00  0.00     0.029 A 
ATOM     41  N   UNL A   1      39.326  30.485  31.815  1.00  0.00    -0.354 N 
ATOM     42  C   UNL A   1      41.055  27.986  28.746  1.00  0.00     0.074 A 
ATOM     43  C   UNL A   1      40.383  28.211  27.485  1.00  0.00     0.031 C 
ATOM     44  C   UNL A   1      37.839  31.895  32.704  1.00  0.00     0.029 A 
ATOM     45  C   UNL A   1      39.072  31.168  32.981  1.00  0.00     0.049 A 
ATOM     46  H   UNL A   1      40.141  29.950  31.671  1.00  0.00     0.167 HD
ATOM     47  C   UNL A   1      42.148  27.205  28.906  1.00  0.00     0.037 A 
ATOM     48  C   UNL A   1      39.722  31.162  34.161  1.00  0.00     0.037 A 
ATOM     49  C   UNL A   1      42.856  27.057  30.150  1.00  0.00     0.049 A 
ATOM     50  C   UNL A   1      40.922  30.268  34.326  1.00  0.00     0.074 A 
ATOM     51  C   UNL A   1      43.964  26.276  30.430  1.00  0.00     0.029 A 
ATOM     52  N   UNL A   1      42.540  27.737  31.318  1.00  0.00    -0.354 N 
ATOM     53  N   UNL A   1      41.497  29.486  33.446  1.00  0.00    -0.248 NA
ATOM     54  C   UNL A   1      41.543  30.232  35.657  1.00  0.00     0.031 C 
ATOM     55  C   UNL A   1      44.304  26.467  31.774  1.00  0.00     0.029 A 
ATOM     56  C   UNL A   1      43.433  27.396  32.319  1.00  0.00     0.049 A 
ATOM     57  H   UNL A   1      41.791  28.368  31.419  1.00  0.00     0.167 HD
ATOM     58  C   UNL A   1      42.542  28.865  34.113  1.00  0.00     0.074 A 
ATOM     59  C   UNL A   1      42.544  29.385  35.465  1.00  0.00     0.031 C 
ATOM     60  C   UNL A   1      43.416  27.935  33.654  1.00  0.00     0.037 A 
BRANCH  47  61
ATOM     61  C   UNL A   1      42.618  26.410  27.723  1.00  0.00     0.064 A 
ATOM     62  C   UNL A   1      42.079  25.157  27.399  1.00  0.00     0.173 A 
ATOM     63  C   UNL A   1      43.611  26.934  26.880  1.00  0.00     0.173 A 
ATOM     64  F   UNL A   1      41.143  24.602  28.184  1.00  0.00    -0.203 F 
ATOM     65  C   UNL A   1      42.531  24.450  26.287  1.00  0.00     0.198 A 
ATOM     66  C   UNL A   1      44.039  26.237  25.753  1.00  0.00     0.198 A 
ATOM     67  F   UNL A   1      44.160  28.130  27.143  1.00  0.00    -0.203 F 
ATOM     68  F   UNL A   1      42.033  23.234  26.021  1.00  0.00    -0.200 F 
ATOM     69  C   UNL A   1      43.503  24.993  25.460  1.00  0.00     0.200 A 
ATOM     70  F   UNL A   1      44.971  26.772  24.951  1.00  0.00    -0.200 F 
ATOM     71  F   UNL A   1      43.930  24.314  24.387  1.00  0.00    -0.200 F 
ENDBRANCH  47  61
BRANCH  48  72
ATOM     72  C   UNL A   1      39.203  31.964  35.302  1.00  0.00     0.064 A 
ATOM     73  C   UNL A   1      38.419  31.379  36.305  1.00  0.00     0.173 A 
ATOM     74  C   UNL A   1      39.479  33.336  35.411  1.00  0.00     0.173 A 
ATOM     75  F   UNL A   1      38.097  30.079  36.232  1.00  0.00    -0.203 F 
ATOM     76  C   UNL A   1      37.927  32.135  37.369  1.00  0.00     0.198 A 
ATOM     77  C   UNL A   1      39.018  34.083  36.493  1.00  0.00     0.198 A 
ATOM     78  F   UNL A   1      40.216  33.950  34.473  1.00  0.00    -0.203 F 
ATOM     79  F   UNL A   1      37.143  31.561  38.291  1.00  0.00    -0.200 F 
ATOM     80  C   UNL A   1      38.237  33.484  37.467  1.00  0.00     0.200 A 
ATOM     81  F   UNL A   1      39.332  35.381  36.589  1.00  0.00    -0.200 F 
ATOM     82  F   UNL A   1      37.774  34.207  38.496  1.00  0.00    -0.200 F 
ENDBRANCH  48  72
BRANCH  60  83
ATOM     83  C   UNL A   1      44.459  27.448  34.615  1.00  0.00     0.064 A 
ATOM     84  C   UNL A   1      45.681  28.117  34.771  1.00  0.00     0.173 A 
ATOM     85  C   UNL A   1      44.218  26.318  35.408  1.00  0.00     0.173 A 
ATOM     86  F   UNL A   1      45.961  29.194  34.022  1.00  0.00    -0.203 F 
ATOM     87  C   UNL A   1      46.636  27.657  35.673  1.00  0.00     0.198 A 
ATOM     88  C   UNL A   1      45.165  25.874  36.327  1.00  0.00     0.198 A 
ATOM     89  F   UNL A   1      43.061  25.647  35.298  1.00  0.00    -0.203 F 
ATOM     90  F   UNL A   1      47.815  28.285  35.776  1.00  0.00    -0.200 F 
ATOM     91  C   UNL A   1      46.376  26.540  36.454  1.00  0.00     0.200 A 
ATOM     92  F   UNL A   1      44.908  24.802  37.087  1.00  0.00    -0.200 F 
ATOM     93  F   UNL A   1      47.295  26.100  37.322  1.00  0.00    -0.200 F 
ENDBRANCH  60  83
ENDBRANCH  34  35
ENDBRANCH  27  29
ENDBRANCH  26  27
ENDBRANCH  25  26
ENDBRANCH   1  25
TORSDOF 15
ENDMDL
