MODEL 1
REMARK VINA RESULT:     -13.3      0.000      0.000
REMARK SMILES O=C(CCOc1cccc(/C=C2/SC(=S)N(c3ccc(Cl)c(Cl)c3)C2=O)c1)OCCOC(=O)c1ccc(-c2c3nc(c(-c4c(F)c(F)c(F)c(F)c4F)c4ccc([nH]4)c(-c4c(F)c(F)c(F)c(F)c4F)c4nc(c(-c5c(F)c(F)c(F)c(F)c5F)c5ccc2[nH]5)C=C4)C=C3)cc1
REMARK SMILES IDX 28 1 2 2 1 3 3 4 4 5 5 6 6 7 7 8 27 9 8 10 10 11 9 12 11 13
REMARK SMILES IDX 12 14 13 15 25 16 14 17 16 18 26 19 15 20 17 21 18 22 24 23
REMARK SMILES IDX 19 24 22 25 20 26 23 27 21 28 29 29 30 30 31 31 32 32 33 33
REMARK SMILES IDX 34 34 35 35 96 36 36 37 95 38 37 39 38 40 39 41 89 42 40 43
REMARK SMILES IDX 94 44 88 45 90 46 41 47 93 48 87 49 86 50 42 52 74 53 54 54
REMARK SMILES IDX 73 55 55 56 58 57 72 58 91 59 56 60 57 61 71 63 92 64 59 65
REMARK SMILES IDX 43 66 44 67 52 68 45 69 46 70 50 71 53 72 47 73 48 74 51 75
REMARK SMILES IDX 49 76 75 77 76 78 84 79 77 80 78 81 82 82 85 83 79 84 80 85
REMARK SMILES IDX 83 86 81 87 60 88 61 89 69 90 62 91 63 92 67 93 70 94 64 95
REMARK SMILES IDX 65 96 68 97 66 98
REMARK H PARENT 90 51 58 62
REMARK Flexibility Score: inf
ROOT
ATOM      1  O   UNL A   1      43.578  20.382  24.961  1.00  0.00    -0.462 OA
ENDROOT
BRANCH   1   2
ATOM      2  C   UNL A   1      43.709  19.087  25.316  1.00  0.00     0.309 C 
ATOM      3  O   UNL A   1      44.610  18.406  24.826  1.00  0.00    -0.252 OA
BRANCH   2   4
ATOM      4  C   UNL A   1      42.843  18.517  26.396  1.00  0.00     0.164 C 
BRANCH   4   5
ATOM      5  C   UNL A   1      41.646  19.427  26.650  1.00  0.00     0.241 C 
BRANCH   5   6
ATOM      6  O   UNL A   1      40.557  19.216  25.746  1.00  0.00    -0.493 OA
BRANCH   6   7
ATOM      7  C   UNL A   1      39.588  20.173  25.606  1.00  0.00     0.119 A 
ATOM      8  C   UNL A   1      39.913  21.417  26.146  1.00  0.00     0.046 A 
ATOM      9  C   UNL A   1      38.313  19.989  25.074  1.00  0.00     0.054 A 
ATOM     10  C   UNL A   1      38.962  22.439  26.201  1.00  0.00     0.004 A 
ATOM     11  C   UNL A   1      37.311  20.953  25.264  1.00  0.00    -0.021 A 
ATOM     12  C   UNL A   1      37.652  22.199  25.786  1.00  0.00     0.008 A 
BRANCH  11  13
ATOM     13  C   UNL A   1      35.917  20.562  25.003  1.00  0.00     0.029 C 
ATOM     14  C   UNL A   1      34.941  21.384  24.573  1.00  0.00     0.081 C 
ATOM     15  S   UNL A   1      33.291  20.889  24.528  1.00  0.00    -0.054 SA
ATOM     16  C   UNL A   1      35.037  22.821  24.160  1.00  0.00     0.270 C 
ATOM     17  C   UNL A   1      32.701  22.505  24.132  1.00  0.00     0.152 C 
ATOM     18  N   UNL A   1      33.766  23.393  24.036  1.00  0.00    -0.261 N 
ATOM     19  O   UNL A   1      36.109  23.379  23.956  1.00  0.00    -0.268 OA
ATOM     20  S   UNL A   1      31.075  22.737  23.798  1.00  0.00    -0.051 S 
BRANCH  18  21
ATOM     21  C   UNL A   1      33.633  24.817  23.846  1.00  0.00     0.052 A 
ATOM     22  C   UNL A   1      33.535  25.376  22.561  1.00  0.00     0.028 A 
ATOM     23  C   UNL A   1      33.739  25.707  24.930  1.00  0.00     0.048 A 
ATOM     24  C   UNL A   1      33.565  26.763  22.363  1.00  0.00     0.024 A 
ATOM     25  C   UNL A   1      33.783  27.097  24.737  1.00  0.00     0.061 A 
ATOM     26  C   UNL A   1      33.700  27.627  23.448  1.00  0.00     0.059 A 
ATOM     27  Cl  UNL A   1      34.012  28.096  26.129  1.00  0.00    -0.083 Cl
ATOM     28  Cl  UNL A   1      33.798  29.320  23.127  1.00  0.00    -0.083 Cl
ENDBRANCH  18  21
ENDBRANCH  11  13
ENDBRANCH   6   7
ENDBRANCH   5   6
ENDBRANCH   4   5
ENDBRANCH   2   4
ENDBRANCH   1   2
BRANCH   1  29
ATOM     29  C   UNL A   1      44.637  21.366  24.923  1.00  0.00     0.274 C 
BRANCH  29  30
ATOM     30  C   UNL A   1      44.194  22.515  24.026  1.00  0.00     0.275 C 
BRANCH  30  31
ATOM     31  O   UNL A   1      43.530  23.506  24.823  1.00  0.00    -0.458 OA
BRANCH  31  32
ATOM     32  C   UNL A   1      44.277  24.605  25.113  1.00  0.00     0.338 C 
ATOM     33  O   UNL A   1      45.328  24.943  24.608  1.00  0.00    -0.246 OA
BRANCH  32  34
ATOM     34  C   UNL A   1      43.482  25.451  26.028  1.00  0.00     0.060 A 
ATOM     35  C   UNL A   1      43.762  26.821  26.085  1.00  0.00     0.016 A 
ATOM     36  C   UNL A   1      42.461  24.898  26.806  1.00  0.00     0.016 A 
ATOM     37  C   UNL A   1      43.041  27.641  26.951  1.00  0.00     0.010 A 
ATOM     38  C   UNL A   1      41.748  25.713  27.680  1.00  0.00     0.010 A 
ATOM     39  C   UNL A   1      42.068  27.076  27.782  1.00  0.00    -0.014 A 
BRANCH  39  40
ATOM     40  C   UNL A   1      41.570  27.837  28.944  1.00  0.00     0.031 A 
ATOM     41  C   UNL A   1      42.301  27.664  30.245  1.00  0.00     0.074 A 
ATOM     42  C   UNL A   1      40.492  28.632  28.850  1.00  0.00     0.049 A 
ATOM     43  N   UNL A   1      42.058  28.193  31.415  1.00  0.00    -0.248 NA
ATOM     44  C   UNL A   1      43.462  26.756  30.223  1.00  0.00     0.031 C 
ATOM     45  C   UNL A   1      39.718  28.870  27.634  1.00  0.00     0.029 A 
ATOM     46  N   UNL A   1      39.859  29.378  29.808  1.00  0.00    -0.354 N 
ATOM     47  C   UNL A   1      43.035  27.687  32.261  1.00  0.00     0.074 A 
ATOM     48  C   UNL A   1      43.849  26.779  31.487  1.00  0.00     0.031 C 
ATOM     49  C   UNL A   1      38.701  29.701  27.923  1.00  0.00     0.029 A 
ATOM     50  C   UNL A   1      38.750  30.039  29.345  1.00  0.00     0.049 A 
ATOM     51  H   UNL A   1      40.169  29.433  30.741  1.00  0.00     0.167 HD
ATOM     52  C   UNL A   1      43.240  27.966  33.569  1.00  0.00     0.037 A 
ATOM     53  C   UNL A   1      37.879  30.823  30.007  1.00  0.00     0.037 A 
ATOM     54  C   UNL A   1      42.413  28.857  34.334  1.00  0.00     0.049 A 
ATOM     55  C   UNL A   1      38.107  31.089  31.474  1.00  0.00     0.074 A 
ATOM     56  C   UNL A   1      42.531  29.221  35.661  1.00  0.00     0.029 A 
ATOM     57  N   UNL A   1      41.303  29.517  33.829  1.00  0.00    -0.354 N 
ATOM     58  N   UNL A   1      39.064  30.653  32.258  1.00  0.00    -0.248 NA
ATOM     59  C   UNL A   1      37.140  31.968  32.144  1.00  0.00     0.031 C 
ATOM     60  C   UNL A   1      41.465  30.075  35.971  1.00  0.00     0.029 A 
ATOM     61  C   UNL A   1      40.714  30.278  34.823  1.00  0.00     0.049 A 
ATOM     62  H   UNL A   1      40.981  29.455  32.900  1.00  0.00     0.167 HD
ATOM     63  C   UNL A   1      38.839  31.234  33.498  1.00  0.00     0.074 A 
ATOM     64  C   UNL A   1      37.656  32.059  33.362  1.00  0.00     0.031 C 
ATOM     65  C   UNL A   1      39.548  31.104  34.648  1.00  0.00     0.037 A 
BRANCH  52  66
ATOM     66  C   UNL A   1      44.388  27.275  34.242  1.00  0.00     0.064 A 
ATOM     67  C   UNL A   1      44.214  26.061  34.925  1.00  0.00     0.173 A 
ATOM     68  C   UNL A   1      45.671  27.836  34.215  1.00  0.00     0.173 A 
ATOM     69  F   UNL A   1      43.000  25.496  35.001  1.00  0.00    -0.203 F 
ATOM     70  C   UNL A   1      45.280  25.450  35.580  1.00  0.00     0.198 A 
ATOM     71  C   UNL A   1      46.741  27.209  34.847  1.00  0.00     0.198 A 
ATOM     72  F   UNL A   1      45.888  28.998  33.580  1.00  0.00    -0.203 F 
ATOM     73  F   UNL A   1      45.080  24.318  36.270  1.00  0.00    -0.200 F 
ATOM     74  C   UNL A   1      46.543  26.021  35.536  1.00  0.00     0.200 A 
ATOM     75  F   UNL A   1      47.962  27.759  34.800  1.00  0.00    -0.200 F 
ATOM     76  F   UNL A   1      47.568  25.432  36.166  1.00  0.00    -0.200 F 
ENDBRANCH  52  66
BRANCH  53  77
ATOM     77  C   UNL A   1      36.733  31.439  29.290  1.00  0.00     0.064 A 
ATOM     78  C   UNL A   1      36.728  32.807  28.984  1.00  0.00     0.173 A 
ATOM     79  C   UNL A   1      35.615  30.681  28.913  1.00  0.00     0.173 A 
ATOM     80  F   UNL A   1      37.765  33.577  29.345  1.00  0.00    -0.203 F 
ATOM     81  C   UNL A   1      35.638  33.399  28.348  1.00  0.00     0.198 A 
ATOM     82  C   UNL A   1      34.536  31.270  28.255  1.00  0.00     0.198 A 
ATOM     83  F   UNL A   1      35.571  29.368  29.182  1.00  0.00    -0.203 F 
ATOM     84  F   UNL A   1      35.640  34.717  28.110  1.00  0.00    -0.200 F 
ATOM     85  C   UNL A   1      34.545  32.629  27.981  1.00  0.00     0.200 A 
ATOM     86  F   UNL A   1      33.486  30.521  27.894  1.00  0.00    -0.200 F 
ATOM     87  F   UNL A   1      33.496  33.198  27.371  1.00  0.00    -0.200 F 
ENDBRANCH  53  77
BRANCH  65  88
ATOM     88  C   UNL A   1      39.093  31.912  35.828  1.00  0.00     0.064 A 
ATOM     89  C   UNL A   1      39.491  33.244  36.007  1.00  0.00     0.173 A 
ATOM     90  C   UNL A   1      38.213  31.353  36.767  1.00  0.00     0.173 A 
ATOM     91  F   UNL A   1      40.341  33.817  35.142  1.00  0.00    -0.203 F 
ATOM     92  C   UNL A   1      39.044  33.979  37.100  1.00  0.00     0.198 A 
ATOM     93  C   UNL A   1      37.745  32.101  37.842  1.00  0.00     0.198 A 
ATOM     94  F   UNL A   1      37.797  30.085  36.632  1.00  0.00    -0.203 F 
ATOM     95  F   UNL A   1      39.473  35.237  37.279  1.00  0.00    -0.200 F 
ATOM     96  C   UNL A   1      38.167  33.410  38.013  1.00  0.00     0.200 A 
ATOM     97  F   UNL A   1      36.888  31.554  38.715  1.00  0.00    -0.200 F 
ATOM     98  F   UNL A   1      37.734  34.123  39.062  1.00  0.00    -0.200 F 
ENDBRANCH  65  88
ENDBRANCH  39  40
ENDBRANCH  32  34
ENDBRANCH  31  32
ENDBRANCH  30  31
ENDBRANCH  29  30
ENDBRANCH   1  29
TORSDOF 16
ENDMDL
MODEL 2
REMARK VINA RESULT:     -13.1      5.644     11.457
REMARK SMILES O=C(CCOc1cccc(/C=C2/SC(=S)N(c3ccc(Cl)c(Cl)c3)C2=O)c1)OCCOC(=O)c1ccc(-c2c3nc(c(-c4c(F)c(F)c(F)c(F)c4F)c4ccc([nH]4)c(-c4c(F)c(F)c(F)c(F)c4F)c4nc(c(-c5c(F)c(F)c(F)c(F)c5F)c5ccc2[nH]5)C=C4)C=C3)cc1
REMARK SMILES IDX 28 1 2 2 1 3 3 4 4 5 5 6 6 7 7 8 27 9 8 10 10 11 9 12 11 13
REMARK SMILES IDX 12 14 13 15 25 16 14 17 16 18 26 19 15 20 17 21 18 22 24 23
REMARK SMILES IDX 19 24 22 25 20 26 23 27 21 28 29 29 30 30 31 31 32 32 33 33
REMARK SMILES IDX 34 34 35 35 96 36 36 37 95 38 37 39 38 40 39 41 89 42 40 43
REMARK SMILES IDX 94 44 88 45 90 46 41 47 93 48 87 49 86 50 42 52 74 53 54 54
REMARK SMILES IDX 73 55 55 56 58 57 72 58 91 59 56 60 57 61 71 63 92 64 59 65
REMARK SMILES IDX 43 66 44 67 52 68 45 69 46 70 50 71 53 72 47 73 48 74 51 75
REMARK SMILES IDX 49 76 75 77 76 78 84 79 77 80 78 81 82 82 85 83 79 84 80 85
REMARK SMILES IDX 83 86 81 87 60 88 61 89 69 90 62 91 63 92 67 93 70 94 64 95
REMARK SMILES IDX 65 96 68 97 66 98
REMARK H PARENT 90 51 58 62
REMARK Flexibility Score: inf
ROOT
ATOM      1  O   UNL A   1      33.087  35.065  31.393  1.00  0.00    -0.462 OA
ENDROOT
BRANCH   1   2
ATOM      2  C   UNL A   1      32.888  36.206  30.703  1.00  0.00     0.309 C 
ATOM      3  O   UNL A   1      32.742  37.269  31.306  1.00  0.00    -0.252 OA
BRANCH   2   4
ATOM      4  C   UNL A   1      32.972  36.200  29.208  1.00  0.00     0.164 C 
BRANCH   4   5
ATOM      5  C   UNL A   1      33.490  34.853  28.714  1.00  0.00     0.241 C 
BRANCH   5   6
ATOM      6  O   UNL A   1      32.528  34.105  27.962  1.00  0.00    -0.493 OA
BRANCH   6   7
ATOM      7  C   UNL A   1      32.764  32.790  27.665  1.00  0.00     0.119 A 
ATOM      8  C   UNL A   1      34.039  32.335  28.001  1.00  0.00     0.046 A 
ATOM      9  C   UNL A   1      31.903  31.924  26.994  1.00  0.00     0.054 A 
ATOM     10  C   UNL A   1      34.462  31.058  27.623  1.00  0.00     0.004 A 
ATOM     11  C   UNL A   1      32.369  30.705  26.478  1.00  0.00    -0.021 A 
ATOM     12  C   UNL A   1      33.636  30.253  26.837  1.00  0.00     0.008 A 
BRANCH  11  13
ATOM     13  C   UNL A   1      31.533  30.008  25.489  1.00  0.00     0.029 C 
ATOM     14  C   UNL A   1      31.581  28.692  25.212  1.00  0.00     0.081 C 
ATOM     15  S   UNL A   1      30.736  28.013  23.873  1.00  0.00    -0.054 SA
ATOM     16  C   UNL A   1      32.382  27.619  25.885  1.00  0.00     0.270 C 
ATOM     17  C   UNL A   1      31.486  26.426  24.060  1.00  0.00     0.152 C 
ATOM     18  N   UNL A   1      32.362  26.435  25.139  1.00  0.00    -0.261 N 
ATOM     19  O   UNL A   1      32.953  27.794  26.954  1.00  0.00    -0.268 OA
ATOM     20  S   UNL A   1      30.988  25.152  23.091  1.00  0.00    -0.051 S 
BRANCH  18  21
ATOM     21  C   UNL A   1      33.231  25.342  25.500  1.00  0.00     0.052 A 
ATOM     22  C   UNL A   1      34.404  25.072  24.776  1.00  0.00     0.028 A 
ATOM     23  C   UNL A   1      32.865  24.423  26.500  1.00  0.00     0.048 A 
ATOM     24  C   UNL A   1      35.167  23.922  25.021  1.00  0.00     0.024 A 
ATOM     25  C   UNL A   1      33.618  23.263  26.742  1.00  0.00     0.061 A 
ATOM     26  C   UNL A   1      34.771  23.009  25.996  1.00  0.00     0.059 A 
ATOM     27  Cl  UNL A   1      33.026  22.151  27.926  1.00  0.00    -0.083 Cl
ATOM     28  Cl  UNL A   1      35.719  21.581  26.200  1.00  0.00    -0.083 Cl
ENDBRANCH  18  21
ENDBRANCH  11  13
ENDBRANCH   6   7
ENDBRANCH   5   6
ENDBRANCH   4   5
ENDBRANCH   2   4
ENDBRANCH   1   2
BRANCH   1  29
ATOM     29  C   UNL A   1      34.298  34.693  32.093  1.00  0.00     0.274 C 
BRANCH  29  30
ATOM     30  C   UNL A   1      34.092  33.316  32.713  1.00  0.00     0.275 C 
BRANCH  30  31
ATOM     31  O   UNL A   1      35.050  32.403  32.161  1.00  0.00    -0.458 OA
BRANCH  31  32
ATOM     32  C   UNL A   1      36.118  32.138  32.961  1.00  0.00     0.338 C 
ATOM     33  O   UNL A   1      36.218  32.336  34.156  1.00  0.00    -0.246 OA
BRANCH  32  34
ATOM     34  C   UNL A   1      37.091  31.365  32.161  1.00  0.00     0.060 A 
ATOM     35  C   UNL A   1      38.061  30.611  32.831  1.00  0.00     0.016 A 
ATOM     36  C   UNL A   1      37.032  31.372  30.764  1.00  0.00     0.016 A 
ATOM     37  C   UNL A   1      39.001  29.886  32.103  1.00  0.00     0.010 A 
ATOM     38  C   UNL A   1      37.978  30.658  30.035  1.00  0.00     0.010 A 
ATOM     39  C   UNL A   1      38.987  29.950  30.705  1.00  0.00    -0.014 A 
BRANCH  39  40
ATOM     40  C   UNL A   1      40.171  29.508  29.944  1.00  0.00     0.031 A 
ATOM     41  C   UNL A   1      41.252  30.524  29.701  1.00  0.00     0.074 A 
ATOM     42  C   UNL A   1      40.268  28.258  29.464  1.00  0.00     0.049 A 
ATOM     43  N   UNL A   1      42.376  30.404  29.045  1.00  0.00    -0.248 NA
ATOM     44  C   UNL A   1      41.024  31.864  30.269  1.00  0.00     0.031 C 
ATOM     45  C   UNL A   1      39.278  27.200  29.649  1.00  0.00     0.029 A 
ATOM     46  N   UNL A   1      41.252  27.676  28.709  1.00  0.00    -0.354 N 
ATOM     47  C   UNL A   1      42.986  31.648  29.128  1.00  0.00     0.074 A 
ATOM     48  C   UNL A   1      42.096  32.520  29.858  1.00  0.00     0.031 C 
ATOM     49  C   UNL A   1      39.701  26.094  29.012  1.00  0.00     0.029 A 
ATOM     50  C   UNL A   1      40.983  26.375  28.367  1.00  0.00     0.049 A 
ATOM     51  H   UNL A   1      42.072  28.146  28.437  1.00  0.00     0.167 HD
ATOM     52  C   UNL A   1      44.192  32.025  28.644  1.00  0.00     0.037 A 
ATOM     53  C   UNL A   1      41.699  25.520  27.614  1.00  0.00     0.037 A 
ATOM     54  C   UNL A   1      45.062  31.156  27.903  1.00  0.00     0.049 A 
ATOM     55  C   UNL A   1      43.023  25.977  27.053  1.00  0.00     0.074 A 
ATOM     56  C   UNL A   1      46.308  31.426  27.372  1.00  0.00     0.029 A 
ATOM     57  N   UNL A   1      44.761  29.840  27.583  1.00  0.00    -0.354 N 
ATOM     58  N   UNL A   1      43.624  27.136  27.180  1.00  0.00    -0.248 NA
ATOM     59  C   UNL A   1      43.775  24.998  26.256  1.00  0.00     0.031 C 
ATOM     60  C   UNL A   1      46.747  30.282  26.695  1.00  0.00     0.029 A 
ATOM     61  C   UNL A   1      45.793  29.286  26.846  1.00  0.00     0.049 A 
ATOM     62  H   UNL A   1      43.936  29.369  27.841  1.00  0.00     0.167 HD
ATOM     63  C   UNL A   1      44.837  27.015  26.516  1.00  0.00     0.074 A 
ATOM     64  C   UNL A   1      44.890  25.665  25.991  1.00  0.00     0.031 C 
ATOM     65  C   UNL A   1      45.823  27.932  26.356  1.00  0.00     0.037 A 
BRANCH  52  66
ATOM     66  C   UNL A   1      44.611  33.444  28.886  1.00  0.00     0.064 A 
ATOM     67  C   UNL A   1      45.381  33.800  30.004  1.00  0.00     0.173 A 
ATOM     68  C   UNL A   1      44.231  34.461  27.999  1.00  0.00     0.173 A 
ATOM     69  F   UNL A   1      45.749  32.867  30.896  1.00  0.00    -0.203 F 
ATOM     70  C   UNL A   1      45.731  35.127  30.240  1.00  0.00     0.198 A 
ATOM     71  C   UNL A   1      44.606  35.783  28.222  1.00  0.00     0.198 A 
ATOM     72  F   UNL A   1      43.490  34.173  26.919  1.00  0.00    -0.203 F 
ATOM     73  F   UNL A   1      46.422  35.451  31.341  1.00  0.00    -0.200 F 
ATOM     74  C   UNL A   1      45.348  36.116  29.346  1.00  0.00     0.200 A 
ATOM     75  F   UNL A   1      44.240  36.736  27.356  1.00  0.00    -0.200 F 
ATOM     76  F   UNL A   1      45.685  37.393  29.573  1.00  0.00    -0.200 F 
ENDBRANCH  52  66
BRANCH  53  77
ATOM     77  C   UNL A   1      41.203  24.141  27.370  1.00  0.00     0.064 A 
ATOM     78  C   UNL A   1      41.816  23.038  27.982  1.00  0.00     0.173 A 
ATOM     79  C   UNL A   1      40.123  23.896  26.512  1.00  0.00     0.173 A 
ATOM     80  F   UNL A   1      42.868  23.222  28.793  1.00  0.00    -0.203 F 
ATOM     81  C   UNL A   1      41.381  21.740  27.725  1.00  0.00     0.198 A 
ATOM     82  C   UNL A   1      39.673  22.597  26.275  1.00  0.00     0.198 A 
ATOM     83  F   UNL A   1      39.501  24.917  25.903  1.00  0.00    -0.203 F 
ATOM     84  F   UNL A   1      42.014  20.701  28.286  1.00  0.00    -0.200 F 
ATOM     85  C   UNL A   1      40.308  21.520  26.876  1.00  0.00     0.200 A 
ATOM     86  F   UNL A   1      38.630  22.390  25.461  1.00  0.00    -0.200 F 
ATOM     87  F   UNL A   1      39.890  20.271  26.628  1.00  0.00    -0.200 F 
ENDBRANCH  53  77
BRANCH  65  88
ATOM     88  C   UNL A   1      47.061  27.489  25.633  1.00  0.00     0.064 A 
ATOM     89  C   UNL A   1      47.213  27.670  24.252  1.00  0.00     0.173 A 
ATOM     90  C   UNL A   1      48.124  26.914  26.346  1.00  0.00     0.173 A 
ATOM     91  F   UNL A   1      46.218  28.203  23.527  1.00  0.00    -0.203 F 
ATOM     92  C   UNL A   1      48.377  27.266  23.605  1.00  0.00     0.198 A 
ATOM     93  C   UNL A   1      49.298  26.538  25.700  1.00  0.00     0.198 A 
ATOM     94  F   UNL A   1      48.029  26.730  27.671  1.00  0.00    -0.203 F 
ATOM     95  F   UNL A   1      48.484  27.404  22.276  1.00  0.00    -0.200 F 
ATOM     96  C   UNL A   1      49.420  26.706  24.329  1.00  0.00     0.200 A 
ATOM     97  F   UNL A   1      50.309  26.012  26.403  1.00  0.00    -0.200 F 
ATOM     98  F   UNL A   1      50.541  26.323  23.704  1.00  0.00    -0.200 F 
ENDBRANCH  65  88
ENDBRANCH  39  40
ENDBRANCH  32  34
ENDBRANCH  31  32
ENDBRANCH  30  31
ENDBRANCH  29  30
ENDBRANCH   1  29
TORSDOF 16
ENDMDL
MODEL 3
REMARK VINA RESULT:     -12.1      1.001      1.982
REMARK SMILES O=C(CCOc1cccc(/C=C2/SC(=S)N(c3ccc(Cl)c(Cl)c3)C2=O)c1)OCCOC(=O)c1ccc(-c2c3nc(c(-c4c(F)c(F)c(F)c(F)c4F)c4ccc([nH]4)c(-c4c(F)c(F)c(F)c(F)c4F)c4nc(c(-c5c(F)c(F)c(F)c(F)c5F)c5ccc2[nH]5)C=C4)C=C3)cc1
REMARK SMILES IDX 28 1 2 2 1 3 3 4 4 5 5 6 6 7 7 8 27 9 8 10 10 11 9 12 11 13
REMARK SMILES IDX 12 14 13 15 25 16 14 17 16 18 26 19 15 20 17 21 18 22 24 23
REMARK SMILES IDX 19 24 22 25 20 26 23 27 21 28 29 29 30 30 31 31 32 32 33 33
REMARK SMILES IDX 34 34 35 35 96 36 36 37 95 38 37 39 38 40 39 41 89 42 40 43
REMARK SMILES IDX 94 44 88 45 90 46 41 47 93 48 87 49 86 50 42 52 74 53 54 54
REMARK SMILES IDX 73 55 55 56 58 57 72 58 91 59 56 60 57 61 71 63 92 64 59 65
REMARK SMILES IDX 43 66 44 67 52 68 45 69 46 70 50 71 53 72 47 73 48 74 51 75
REMARK SMILES IDX 49 76 75 77 76 78 84 79 77 80 78 81 82 82 85 83 79 84 80 85
REMARK SMILES IDX 83 86 81 87 60 88 61 89 69 90 62 91 63 92 67 93 70 94 64 95
REMARK SMILES IDX 65 96 68 97 66 98
REMARK H PARENT 90 51 58 62
REMARK Flexibility Score: inf
ROOT
ATOM      1  O   UNL A   1      43.598  20.944  25.123  1.00  0.00    -0.462 OA
ENDROOT
BRANCH   1   2
ATOM      2  C   UNL A   1      43.225  19.747  25.621  1.00  0.00     0.309 C 
ATOM      3  O   UNL A   1      43.766  18.719  25.214  1.00  0.00    -0.252 OA
BRANCH   2   4
ATOM      4  C   UNL A   1      42.250  19.680  26.755  1.00  0.00     0.164 C 
BRANCH   4   5
ATOM      5  C   UNL A   1      41.337  20.902  26.739  1.00  0.00     0.241 C 
BRANCH   5   6
ATOM      6  O   UNL A   1      40.255  20.803  25.808  1.00  0.00    -0.493 OA
BRANCH   6   7
ATOM      7  C   UNL A   1      39.212  21.687  25.873  1.00  0.00     0.119 A 
ATOM      8  C   UNL A   1      39.531  22.927  26.427  1.00  0.00     0.046 A 
ATOM      9  C   UNL A   1      37.885  21.430  25.534  1.00  0.00     0.054 A 
ATOM     10  C   UNL A   1      38.532  23.869  26.686  1.00  0.00     0.004 A 
ATOM     11  C   UNL A   1      36.861  22.303  25.931  1.00  0.00    -0.021 A 
ATOM     12  C   UNL A   1      37.193  23.547  26.464  1.00  0.00     0.008 A 
BRANCH  11  13
ATOM     13  C   UNL A   1      35.474  21.818  25.864  1.00  0.00     0.029 C 
ATOM     14  C   UNL A   1      34.387  22.582  25.645  1.00  0.00     0.081 C 
ATOM     15  S   UNL A   1      32.790  21.962  25.825  1.00  0.00    -0.054 SA
ATOM     16  C   UNL A   1      34.316  24.042  25.315  1.00  0.00     0.270 C 
ATOM     17  C   UNL A   1      32.033  23.545  25.630  1.00  0.00     0.152 C 
ATOM     18  N   UNL A   1      33.005  24.518  25.427  1.00  0.00    -0.261 N 
ATOM     19  O   UNL A   1      35.300  24.692  24.983  1.00  0.00    -0.268 OA
ATOM     20  S   UNL A   1      30.363  23.665  25.567  1.00  0.00    -0.051 S 
BRANCH  18  21
ATOM     21  C   UNL A   1      32.745  25.935  25.351  1.00  0.00     0.052 A 
ATOM     22  C   UNL A   1      32.775  26.744  26.499  1.00  0.00     0.028 A 
ATOM     23  C   UNL A   1      32.314  26.531  24.153  1.00  0.00     0.048 A 
ATOM     24  C   UNL A   1      32.370  28.086  26.459  1.00  0.00     0.024 A 
ATOM     25  C   UNL A   1      31.895  27.870  24.108  1.00  0.00     0.061 A 
ATOM     26  C   UNL A   1      31.919  28.649  25.267  1.00  0.00     0.059 A 
ATOM     27  Cl  UNL A   1      31.292  28.476  22.605  1.00  0.00    -0.083 Cl
ATOM     28  Cl  UNL A   1      31.372  30.286  25.303  1.00  0.00    -0.083 Cl
ENDBRANCH  18  21
ENDBRANCH  11  13
ENDBRANCH   6   7
ENDBRANCH   5   6
ENDBRANCH   4   5
ENDBRANCH   2   4
ENDBRANCH   1   2
BRANCH   1  29
ATOM     29  C   UNL A   1      44.942  21.478  25.108  1.00  0.00     0.274 C 
BRANCH  29  30
ATOM     30  C   UNL A   1      44.933  22.781  24.318  1.00  0.00     0.275 C 
BRANCH  30  31
ATOM     31  O   UNL A   1      44.181  23.766  25.042  1.00  0.00    -0.458 OA
BRANCH  31  32
ATOM     32  C   UNL A   1      44.782  24.981  25.153  1.00  0.00     0.338 C 
ATOM     33  O   UNL A   1      45.723  25.405  24.512  1.00  0.00    -0.246 OA
BRANCH  32  34
ATOM     34  C   UNL A   1      43.960  25.800  26.067  1.00  0.00     0.060 A 
ATOM     35  C   UNL A   1      44.259  27.161  26.199  1.00  0.00     0.016 A 
ATOM     36  C   UNL A   1      42.893  25.233  26.770  1.00  0.00     0.016 A 
ATOM     37  C   UNL A   1      43.512  27.955  27.066  1.00  0.00     0.010 A 
ATOM     38  C   UNL A   1      42.153  26.021  27.646  1.00  0.00     0.010 A 
ATOM     39  C   UNL A   1      42.490  27.372  27.824  1.00  0.00    -0.014 A 
BRANCH  39  40
ATOM     40  C   UNL A   1      41.951  28.090  28.995  1.00  0.00     0.031 A 
ATOM     41  C   UNL A   1      42.687  27.938  30.296  1.00  0.00     0.074 A 
ATOM     42  C   UNL A   1      40.833  28.829  28.908  1.00  0.00     0.049 A 
ATOM     43  N   UNL A   1      42.413  28.438  31.472  1.00  0.00    -0.248 NA
ATOM     44  C   UNL A   1      43.893  27.092  30.265  1.00  0.00     0.031 C 
ATOM     45  C   UNL A   1      40.051  29.043  27.693  1.00  0.00     0.029 A 
ATOM     46  N   UNL A   1      40.159  29.527  29.874  1.00  0.00    -0.354 N 
ATOM     47  C   UNL A   1      43.414  27.972  32.314  1.00  0.00     0.074 A 
ATOM     48  C   UNL A   1      44.276  27.118  31.531  1.00  0.00     0.031 C 
ATOM     49  C   UNL A   1      38.991  29.815  27.990  1.00  0.00     0.029 A 
ATOM     50  C   UNL A   1      39.018  30.136  29.416  1.00  0.00     0.049 A 
ATOM     51  H   UNL A   1      40.464  29.586  30.809  1.00  0.00     0.167 HD
ATOM     52  C   UNL A   1      43.600  28.243  33.626  1.00  0.00     0.037 A 
ATOM     53  C   UNL A   1      38.106  30.865  30.086  1.00  0.00     0.037 A 
ATOM     54  C   UNL A   1      42.727  29.079  34.400  1.00  0.00     0.049 A 
ATOM     55  C   UNL A   1      38.317  31.121  31.557  1.00  0.00     0.074 A 
ATOM     56  C   UNL A   1      42.822  29.431  35.733  1.00  0.00     0.029 A 
ATOM     57  N   UNL A   1      41.584  29.687  33.901  1.00  0.00    -0.354 N 
ATOM     58  N   UNL A   1      39.293  30.726  32.339  1.00  0.00    -0.248 NA
ATOM     59  C   UNL A   1      37.303  31.940  32.236  1.00  0.00     0.031 C 
ATOM     60  C   UNL A   1      41.712  30.223  36.051  1.00  0.00     0.029 A 
ATOM     61  C   UNL A   1      40.954  30.402  34.903  1.00  0.00     0.049 A 
ATOM     62  H   UNL A   1      41.269  29.621  32.970  1.00  0.00     0.167 HD
ATOM     63  C   UNL A   1      39.035  31.277  33.586  1.00  0.00     0.074 A 
ATOM     64  C   UNL A   1      37.811  32.041  33.457  1.00  0.00     0.031 C 
ATOM     65  C   UNL A   1      39.746  31.169  34.736  1.00  0.00     0.037 A 
BRANCH  52  66
ATOM     66  C   UNL A   1      44.781  27.604  34.294  1.00  0.00     0.064 A 
ATOM     67  C   UNL A   1      46.031  28.240  34.338  1.00  0.00     0.173 A 
ATOM     68  C   UNL A   1      44.665  26.339  34.886  1.00  0.00     0.173 A 
ATOM     69  F   UNL A   1      46.200  29.440  33.763  1.00  0.00    -0.203 F 
ATOM     70  C   UNL A   1      47.130  27.618  34.926  1.00  0.00     0.198 A 
ATOM     71  C   UNL A   1      45.758  25.732  35.498  1.00  0.00     0.198 A 
ATOM     72  F   UNL A   1      43.493  25.688  34.865  1.00  0.00    -0.203 F 
ATOM     73  F   UNL A   1      48.327  28.221  34.911  1.00  0.00    -0.200 F 
ATOM     74  C   UNL A   1      46.991  26.368  35.511  1.00  0.00     0.200 A 
ATOM     75  F   UNL A   1      45.622  24.527  36.067  1.00  0.00    -0.200 F 
ATOM     76  F   UNL A   1      48.048  25.771  36.077  1.00  0.00    -0.200 F 
ENDBRANCH  52  66
BRANCH  53  77
ATOM     77  C   UNL A   1      36.931  31.430  29.374  1.00  0.00     0.064 A 
ATOM     78  C   UNL A   1      35.849  30.614  29.013  1.00  0.00     0.173 A 
ATOM     79  C   UNL A   1      36.872  32.786  29.026  1.00  0.00     0.173 A 
ATOM     80  F   UNL A   1      35.871  29.306  29.305  1.00  0.00    -0.203 F 
ATOM     81  C   UNL A   1      34.763  31.131  28.309  1.00  0.00     0.198 A 
ATOM     82  C   UNL A   1      35.773  33.306  28.343  1.00  0.00     0.198 A 
ATOM     83  F   UNL A   1      37.881  33.609  29.350  1.00  0.00    -0.203 F 
ATOM     84  F   UNL A   1      33.765  30.319  27.935  1.00  0.00    -0.200 F 
ATOM     85  C   UNL A   1      34.724  32.476  27.978  1.00  0.00     0.200 A 
ATOM     86  F   UNL A   1      35.735  34.609  28.033  1.00  0.00    -0.200 F 
ATOM     87  F   UNL A   1      33.679  32.972  27.300  1.00  0.00    -0.200 F 
ENDBRANCH  53  77
BRANCH  65  88
ATOM     88  C   UNL A   1      39.248  31.936  35.925  1.00  0.00     0.064 A 
ATOM     89  C   UNL A   1      39.655  33.252  36.178  1.00  0.00     0.173 A 
ATOM     90  C   UNL A   1      38.315  31.353  36.798  1.00  0.00     0.173 A 
ATOM     91  F   UNL A   1      40.554  33.846  35.379  1.00  0.00    -0.203 F 
ATOM     92  C   UNL A   1      39.166  33.950  37.278  1.00  0.00     0.198 A 
ATOM     93  C   UNL A   1      37.807  32.065  37.880  1.00  0.00     0.198 A 
ATOM     94  F   UNL A   1      37.888  30.098  36.592  1.00  0.00    -0.203 F 
ATOM     95  F   UNL A   1      39.605  35.192  37.529  1.00  0.00    -0.200 F 
ATOM     96  C   UNL A   1      38.239  33.359  38.124  1.00  0.00     0.200 A 
ATOM     97  F   UNL A   1      36.901  31.497  38.687  1.00  0.00    -0.200 F 
ATOM     98  F   UNL A   1      37.766  34.036  39.180  1.00  0.00    -0.200 F 
ENDBRANCH  65  88
ENDBRANCH  39  40
ENDBRANCH  32  34
ENDBRANCH  31  32
ENDBRANCH  30  31
ENDBRANCH  29  30
ENDBRANCH   1  29
TORSDOF 16
ENDMDL
