MODEL 1
REMARK VINA RESULT:     -12.1      0.000      0.000
REMARK SMILES O=C(C[C@@H](NS(=O)(=O)c1ccc(Cl)cc1)c1ccc(F)cc1)OCCOC(=O)c1ccc(-c2c3nc(c(-c4c(F)c(F)c(F)c(F)c4F)c4ccc([nH]4)c(-c4c(F)c(F)c(F)c(F)c4F)c4nc(c(-c5c(F)c(F)c(F)c(F)c5F)c5ccc2[nH]5)C=C4)C=C3)cc1
REMARK SMILES IDX 24 1 23 2 2 3 1 4 3 5 4 6 5 7 6 9 7 10 8 11 9 12 10 13 15 14
REMARK SMILES IDX 11 15 14 16 12 17 13 18 16 19 17 20 22 21 18 22 21 23 19 24
REMARK SMILES IDX 20 25 25 26 26 27 27 28 28 29 29 30 30 31 91 32 31 33 90 34
REMARK SMILES IDX 32 35 33 36 34 37 84 38 35 39 89 40 83 41 85 42 36 43 88 44
REMARK SMILES IDX 82 45 81 46 37 48 69 49 49 50 68 51 50 52 53 53 67 54 86 55
REMARK SMILES IDX 51 56 52 57 66 59 87 60 54 61 38 62 39 63 47 64 40 65 41 66
REMARK SMILES IDX 45 67 48 68 42 69 43 70 46 71 44 72 70 73 71 74 79 75 72 76
REMARK SMILES IDX 73 77 77 78 80 79 74 80 75 81 78 82 76 83 55 84 56 85 64 86
REMARK SMILES IDX 57 87 58 88 62 89 65 90 59 91 60 92 63 93 61 94
REMARK H PARENT 5 8 85 47 53 58
REMARK Flexibility Score: inf
ROOT
ATOM      1  C   UNL A   1      31.266  29.729  24.925  1.00  0.00     0.274 C 
ENDROOT
BRANCH   1   2
ATOM      2  O   UNL A   1      30.172  29.993  24.013  1.00  0.00    -0.462 OA
BRANCH   2   3
ATOM      3  C   UNL A   1      29.902  29.259  22.903  1.00  0.00     0.307 C 
ATOM      4  O   UNL A   1      29.895  29.769  21.789  1.00  0.00    -0.252 OA
BRANCH   3   5
ATOM      5  C   UNL A   1      29.541  27.817  23.097  1.00  0.00     0.147 C 
BRANCH   5   6
ATOM      6  C   UNL A   1      30.646  26.814  22.735  1.00  0.00     0.111 C 
BRANCH   6   7
ATOM      7  N   UNL A   1      31.955  27.504  22.622  1.00  0.00    -0.203 NA
ATOM      8  H   UNL A   1      32.218  27.803  23.561  1.00  0.00     0.142 HD
BRANCH   7   9
ATOM      9  S   UNL A   1      33.275  26.658  21.984  1.00  0.00     0.241 S 
ATOM     10  O   UNL A   1      32.768  25.806  20.933  1.00  0.00    -0.207 OA
ATOM     11  O   UNL A   1      34.280  27.666  21.732  1.00  0.00    -0.207 OA
BRANCH   9  12
ATOM     12  C   UNL A   1      33.868  25.654  23.312  1.00  0.00     0.082 A 
ATOM     13  C   UNL A   1      34.113  24.298  23.075  1.00  0.00     0.023 A 
ATOM     14  C   UNL A   1      34.019  26.198  24.592  1.00  0.00     0.023 A 
ATOM     15  C   UNL A   1      34.470  23.469  24.137  1.00  0.00     0.022 A 
ATOM     16  C   UNL A   1      34.366  25.360  25.653  1.00  0.00     0.022 A 
ATOM     17  C   UNL A   1      34.578  23.998  25.423  1.00  0.00     0.041 A 
ATOM     18  Cl  UNL A   1      34.955  22.961  26.741  1.00  0.00    -0.084 Cl
ENDBRANCH   9  12
ENDBRANCH   7   9
ENDBRANCH   6   7
BRANCH   6  19
ATOM     19  C   UNL A   1      30.663  25.736  23.823  1.00  0.00    -0.029 A 
ATOM     20  C   UNL A   1      30.695  24.362  23.495  1.00  0.00     0.008 A 
ATOM     21  C   UNL A   1      30.612  26.094  25.179  1.00  0.00     0.008 A 
ATOM     22  C   UNL A   1      30.707  23.382  24.488  1.00  0.00     0.039 A 
ATOM     23  C   UNL A   1      30.599  25.107  26.173  1.00  0.00     0.039 A 
ATOM     24  C   UNL A   1      30.654  23.764  25.818  1.00  0.00     0.123 A 
ATOM     25  F   UNL A   1      30.639  22.824  26.771  1.00  0.00    -0.207 F 
ENDBRANCH   6  19
ENDBRANCH   5   6
ENDBRANCH   3   5
ENDBRANCH   2   3
ENDBRANCH   1   2
BRANCH   1  26
ATOM     26  C   UNL A   1      31.468  30.836  25.961  1.00  0.00     0.275 C 
BRANCH  26  27
ATOM     27  O   UNL A   1      32.632  30.563  26.762  1.00  0.00    -0.458 OA
BRANCH  27  28
ATOM     28  C   UNL A   1      33.273  31.658  27.238  1.00  0.00     0.338 C 
ATOM     29  O   UNL A   1      32.804  32.774  27.372  1.00  0.00    -0.246 OA
BRANCH  28  30
ATOM     30  C   UNL A   1      34.598  31.264  27.775  1.00  0.00     0.060 A 
ATOM     31  C   UNL A   1      34.816  29.901  28.010  1.00  0.00     0.016 A 
ATOM     32  C   UNL A   1      35.619  32.189  28.015  1.00  0.00     0.016 A 
ATOM     33  C   UNL A   1      36.039  29.463  28.516  1.00  0.00     0.010 A 
ATOM     34  C   UNL A   1      36.847  31.749  28.523  1.00  0.00     0.010 A 
ATOM     35  C   UNL A   1      37.052  30.387  28.802  1.00  0.00    -0.014 A 
BRANCH  35  36
ATOM     36  C   UNL A   1      38.258  29.946  29.542  1.00  0.00     0.031 A 
ATOM     37  C   UNL A   1      38.487  30.474  30.931  1.00  0.00     0.074 A 
ATOM     38  C   UNL A   1      39.119  29.061  29.010  1.00  0.00     0.049 A 
ATOM     39  N   UNL A   1      39.459  30.217  31.769  1.00  0.00    -0.248 NA
ATOM     40  C   UNL A   1      37.482  31.419  31.446  1.00  0.00     0.031 C 
ATOM     41  C   UNL A   1      38.997  28.454  27.687  1.00  0.00     0.029 A 
ATOM     42  N   UNL A   1      40.271  28.518  29.526  1.00  0.00    -0.354 N 
ATOM     43  C   UNL A   1      39.179  30.960  32.907  1.00  0.00     0.074 A 
ATOM     44  C   UNL A   1      37.970  31.709  32.642  1.00  0.00     0.031 C 
ATOM     45  C   UNL A   1      40.032  27.618  27.496  1.00  0.00     0.029 A 
ATOM     46  C   UNL A   1      40.902  27.648  28.673  1.00  0.00     0.049 A 
ATOM     47  H   UNL A   1      40.610  28.733  30.425  1.00  0.00     0.167 HD
ATOM     48  C   UNL A   1      39.859  31.000  34.077  1.00  0.00     0.037 A 
ATOM     49  C   UNL A   1      42.051  26.961  28.824  1.00  0.00     0.037 A 
ATOM     50  C   UNL A   1      41.059  30.259  34.347  1.00  0.00     0.049 A 
ATOM     51  C   UNL A   1      42.832  27.083  30.109  1.00  0.00     0.074 A 
ATOM     52  C   UNL A   1      41.807  30.228  35.511  1.00  0.00     0.029 A 
ATOM     53  N   UNL A   1      41.691  29.423  33.440  1.00  0.00    -0.354 N 
ATOM     54  N   UNL A   1      42.542  27.762  31.193  1.00  0.00    -0.248 NA
ATOM     55  C   UNL A   1      44.100  26.341  30.191  1.00  0.00     0.031 C 
ATOM     56  C   UNL A   1      42.919  29.408  35.293  1.00  0.00     0.029 A 
ATOM     57  C   UNL A   1      42.836  28.890  34.011  1.00  0.00     0.049 A 
ATOM     58  H   UNL A   1      41.375  29.236  32.527  1.00  0.00     0.167 HD
ATOM     59  C   UNL A   1      43.573  27.509  32.090  1.00  0.00     0.074 A 
ATOM     60  C   UNL A   1      44.492  26.608  31.430  1.00  0.00     0.031 C 
ATOM     61  C   UNL A   1      43.738  27.982  33.350  1.00  0.00     0.037 A 
BRANCH  48  62
ATOM     62  C   UNL A   1      39.319  31.883  35.160  1.00  0.00     0.064 A 
ATOM     63  C   UNL A   1      39.655  33.244  35.203  1.00  0.00     0.173 A 
ATOM     64  C   UNL A   1      38.514  31.369  36.187  1.00  0.00     0.173 A 
ATOM     65  F   UNL A   1      40.423  33.781  34.243  1.00  0.00    -0.203 F 
ATOM     66  C   UNL A   1      39.212  34.057  36.242  1.00  0.00     0.198 A 
ATOM     67  C   UNL A   1      38.053  32.190  37.212  1.00  0.00     0.198 A 
ATOM     68  F   UNL A   1      38.153  30.077  36.179  1.00  0.00    -0.203 F 
ATOM     69  F   UNL A   1      39.565  35.349  36.277  1.00  0.00    -0.200 F 
ATOM     70  C   UNL A   1      38.410  33.530  37.244  1.00  0.00     0.200 A 
ATOM     71  F   UNL A   1      37.257  31.687  38.166  1.00  0.00    -0.200 F 
ATOM     72  F   UNL A   1      37.975  34.317  38.237  1.00  0.00    -0.200 F 
ENDBRANCH  48  62
BRANCH  49  73
ATOM     73  C   UNL A   1      42.536  26.080  27.729  1.00  0.00     0.064 A 
ATOM     74  C   UNL A   1      43.497  26.523  26.810  1.00  0.00     0.173 A 
ATOM     75  C   UNL A   1      42.048  24.774  27.588  1.00  0.00     0.173 A 
ATOM     76  F   UNL A   1      43.997  27.763  26.906  1.00  0.00    -0.203 F 
ATOM     77  C   UNL A   1      43.943  25.696  25.782  1.00  0.00     0.198 A 
ATOM     78  C   UNL A   1      42.512  23.939  26.574  1.00  0.00     0.198 A 
ATOM     79  F   UNL A   1      41.148  24.298  28.460  1.00  0.00    -0.203 F 
ATOM     80  F   UNL A   1      44.845  26.151  24.901  1.00  0.00    -0.200 F 
ATOM     81  C   UNL A   1      43.454  24.403  25.667  1.00  0.00     0.200 A 
ATOM     82  F   UNL A   1      42.057  22.682  26.483  1.00  0.00    -0.200 F 
ATOM     83  F   UNL A   1      43.895  23.602  24.688  1.00  0.00    -0.200 F 
ENDBRANCH  49  73
BRANCH  61  84
ATOM     84  C   UNL A   1      44.940  27.525  34.124  1.00  0.00     0.064 A 
ATOM     85  C   UNL A   1      46.160  28.210  34.008  1.00  0.00     0.173 A 
ATOM     86  C   UNL A   1      44.911  26.358  34.899  1.00  0.00     0.173 A 
ATOM     87  F   UNL A   1      46.241  29.327  33.269  1.00  0.00    -0.203 F 
ATOM     88  C   UNL A   1      47.312  27.729  34.623  1.00  0.00     0.198 A 
ATOM     89  C   UNL A   1      46.061  25.895  35.535  1.00  0.00     0.198 A 
ATOM     90  F   UNL A   1      43.766  25.675  35.049  1.00  0.00    -0.203 F 
ATOM     91  F   UNL A   1      48.475  28.377  34.465  1.00  0.00    -0.200 F 
ATOM     92  C   UNL A   1      47.262  26.573  35.387  1.00  0.00     0.200 A 
ATOM     93  F   UNL A   1      46.008  24.787  36.288  1.00  0.00    -0.200 F 
ATOM     94  F   UNL A   1      48.371  26.112  35.981  1.00  0.00    -0.200 F 
ENDBRANCH  61  84
ENDBRANCH  35  36
ENDBRANCH  28  30
ENDBRANCH  27  28
ENDBRANCH  26  27
ENDBRANCH   1  26
TORSDOF 16
ENDMDL
MODEL 2
REMARK VINA RESULT:     -12.0      1.462      2.160
REMARK SMILES O=C(C[C@@H](NS(=O)(=O)c1ccc(Cl)cc1)c1ccc(F)cc1)OCCOC(=O)c1ccc(-c2c3nc(c(-c4c(F)c(F)c(F)c(F)c4F)c4ccc([nH]4)c(-c4c(F)c(F)c(F)c(F)c4F)c4nc(c(-c5c(F)c(F)c(F)c(F)c5F)c5ccc2[nH]5)C=C4)C=C3)cc1
REMARK SMILES IDX 24 1 23 2 2 3 1 4 3 5 4 6 5 7 6 9 7 10 8 11 9 12 10 13 15 14
REMARK SMILES IDX 11 15 14 16 12 17 13 18 16 19 17 20 22 21 18 22 21 23 19 24
REMARK SMILES IDX 20 25 25 26 26 27 27 28 28 29 29 30 30 31 91 32 31 33 90 34
REMARK SMILES IDX 32 35 33 36 34 37 84 38 35 39 89 40 83 41 85 42 36 43 88 44
REMARK SMILES IDX 82 45 81 46 37 48 69 49 49 50 68 51 50 52 53 53 67 54 86 55
REMARK SMILES IDX 51 56 52 57 66 59 87 60 54 61 38 62 39 63 47 64 40 65 41 66
REMARK SMILES IDX 45 67 48 68 42 69 43 70 46 71 44 72 70 73 71 74 79 75 72 76
REMARK SMILES IDX 73 77 77 78 80 79 74 80 75 81 78 82 76 83 55 84 56 85 64 86
REMARK SMILES IDX 57 87 58 88 62 89 65 90 59 91 60 92 63 93 61 94
REMARK H PARENT 5 8 85 47 53 58
REMARK Flexibility Score: inf
ROOT
ATOM      1  C   UNL A   1      31.814  28.964  27.130  1.00  0.00     0.274 C 
ENDROOT
BRANCH   1   2
ATOM      2  O   UNL A   1      31.601  28.229  25.900  1.00  0.00    -0.462 OA
BRANCH   2   3
ATOM      3  C   UNL A   1      31.139  26.954  25.838  1.00  0.00     0.307 C 
ATOM      4  O   UNL A   1      31.201  26.207  26.809  1.00  0.00    -0.252 OA
BRANCH   3   5
ATOM      5  C   UNL A   1      30.620  26.468  24.519  1.00  0.00     0.147 C 
BRANCH   5   6
ATOM      6  C   UNL A   1      31.170  27.206  23.290  1.00  0.00     0.111 C 
BRANCH   6   7
ATOM      7  N   UNL A   1      31.474  26.244  22.202  1.00  0.00    -0.203 NA
ATOM      8  H   UNL A   1      31.000  26.580  21.364  1.00  0.00     0.142 HD
BRANCH   7   9
ATOM      9  S   UNL A   1      33.090  25.968  21.779  1.00  0.00     0.241 S 
ATOM     10  O   UNL A   1      33.087  25.284  20.507  1.00  0.00    -0.207 OA
ATOM     11  O   UNL A   1      33.748  27.243  21.960  1.00  0.00    -0.207 OA
BRANCH   9  12
ATOM     12  C   UNL A   1      33.715  24.880  23.024  1.00  0.00     0.082 A 
ATOM     13  C   UNL A   1      34.193  25.427  24.219  1.00  0.00     0.023 A 
ATOM     14  C   UNL A   1      33.791  23.505  22.783  1.00  0.00     0.023 A 
ATOM     15  C   UNL A   1      34.793  24.595  25.163  1.00  0.00     0.022 A 
ATOM     16  C   UNL A   1      34.405  22.679  23.727  1.00  0.00     0.022 A 
ATOM     17  C   UNL A   1      34.912  23.230  24.907  1.00  0.00     0.041 A 
ATOM     18  Cl  UNL A   1      35.711  22.217  26.044  1.00  0.00    -0.084 Cl
ENDBRANCH   9  12
ENDBRANCH   7   9
ENDBRANCH   6   7
BRANCH   6  19
ATOM     19  C   UNL A   1      30.118  28.234  22.862  1.00  0.00    -0.029 A 
ATOM     20  C   UNL A   1      30.478  29.401  22.153  1.00  0.00     0.008 A 
ATOM     21  C   UNL A   1      28.768  28.052  23.200  1.00  0.00     0.008 A 
ATOM     22  C   UNL A   1      29.519  30.338  21.768  1.00  0.00     0.039 A 
ATOM     23  C   UNL A   1      27.811  29.007  22.833  1.00  0.00     0.039 A 
ATOM     24  C   UNL A   1      28.193  30.134  22.116  1.00  0.00     0.123 A 
ATOM     25  F   UNL A   1      27.276  31.045  21.770  1.00  0.00    -0.207 F 
ENDBRANCH   6  19
ENDBRANCH   5   6
ENDBRANCH   3   5
ENDBRANCH   2   3
ENDBRANCH   1   2
BRANCH   1  26
ATOM     26  C   UNL A   1      31.874  30.479  26.924  1.00  0.00     0.275 C 
BRANCH  26  27
ATOM     27  O   UNL A   1      33.218  30.886  26.606  1.00  0.00    -0.458 OA
BRANCH  27  28
ATOM     28  C   UNL A   1      33.723  31.870  27.390  1.00  0.00     0.338 C 
ATOM     29  O   UNL A   1      33.148  32.884  27.744  1.00  0.00    -0.246 OA
BRANCH  28  30
ATOM     30  C   UNL A   1      35.032  31.445  27.938  1.00  0.00     0.060 A 
ATOM     31  C   UNL A   1      35.204  30.081  28.209  1.00  0.00     0.016 A 
ATOM     32  C   UNL A   1      36.085  32.340  28.156  1.00  0.00     0.016 A 
ATOM     33  C   UNL A   1      36.411  29.615  28.728  1.00  0.00     0.010 A 
ATOM     34  C   UNL A   1      37.296  31.871  28.677  1.00  0.00     0.010 A 
ATOM     35  C   UNL A   1      37.454  30.511  28.991  1.00  0.00    -0.014 A 
BRANCH  35  36
ATOM     36  C   UNL A   1      38.645  30.048  29.744  1.00  0.00     0.031 A 
ATOM     37  C   UNL A   1      38.859  30.559  31.142  1.00  0.00     0.074 A 
ATOM     38  C   UNL A   1      39.503  29.159  29.215  1.00  0.00     0.049 A 
ATOM     39  N   UNL A   1      39.816  30.282  31.991  1.00  0.00    -0.248 NA
ATOM     40  C   UNL A   1      37.858  31.510  31.652  1.00  0.00     0.031 C 
ATOM     41  C   UNL A   1      39.393  28.567  27.884  1.00  0.00     0.029 A 
ATOM     42  N   UNL A   1      40.641  28.597  29.742  1.00  0.00    -0.354 N 
ATOM     43  C   UNL A   1      39.528  31.016  33.133  1.00  0.00     0.074 A 
ATOM     44  C   UNL A   1      38.332  31.782  32.858  1.00  0.00     0.031 C 
ATOM     45  C   UNL A   1      40.422  27.721  27.699  1.00  0.00     0.029 A 
ATOM     46  C   UNL A   1      41.274  27.728  28.889  1.00  0.00     0.049 A 
ATOM     47  H   UNL A   1      40.970  28.799  30.648  1.00  0.00     0.167 HD
ATOM     48  C   UNL A   1      40.190  31.037  34.313  1.00  0.00     0.037 A 
ATOM     49  C   UNL A   1      42.413  27.027  29.050  1.00  0.00     0.037 A 
ATOM     50  C   UNL A   1      41.378  30.279  34.592  1.00  0.00     0.049 A 
ATOM     51  C   UNL A   1      43.176  27.126  30.348  1.00  0.00     0.074 A 
ATOM     52  C   UNL A   1      42.109  30.227  35.767  1.00  0.00     0.029 A 
ATOM     53  N   UNL A   1      42.014  29.445  33.686  1.00  0.00    -0.354 N 
ATOM     54  N   UNL A   1      42.879  27.797  31.434  1.00  0.00    -0.248 NA
ATOM     55  C   UNL A   1      44.434  26.368  30.440  1.00  0.00     0.031 C 
ATOM     56  C   UNL A   1      43.214  29.396  35.556  1.00  0.00     0.029 A 
ATOM     57  C   UNL A   1      43.144  28.892  34.267  1.00  0.00     0.049 A 
ATOM     58  H   UNL A   1      41.709  29.271  32.767  1.00  0.00     0.167 HD
ATOM     59  C   UNL A   1      43.893  27.523  32.343  1.00  0.00     0.074 A 
ATOM     60  C   UNL A   1      44.811  26.618  31.688  1.00  0.00     0.031 C 
ATOM     61  C   UNL A   1      44.045  27.981  33.610  1.00  0.00     0.037 A 
BRANCH  48  62
ATOM     62  C   UNL A   1      39.645  31.914  35.397  1.00  0.00     0.064 A 
ATOM     63  C   UNL A   1      40.115  33.226  35.555  1.00  0.00     0.173 A 
ATOM     64  C   UNL A   1      38.698  31.437  36.315  1.00  0.00     0.173 A 
ATOM     65  F   UNL A   1      41.022  33.726  34.703  1.00  0.00    -0.203 F 
ATOM     66  C   UNL A   1      39.662  34.026  36.600  1.00  0.00     0.198 A 
ATOM     67  C   UNL A   1      38.229  32.248  37.344  1.00  0.00     0.198 A 
ATOM     68  F   UNL A   1      38.206  30.195  36.193  1.00  0.00    -0.203 F 
ATOM     69  F   UNL A   1      40.143  35.269  36.747  1.00  0.00    -0.200 F 
ATOM     70  C   UNL A   1      38.718  33.538  37.492  1.00  0.00     0.200 A 
ATOM     71  F   UNL A   1      37.298  31.785  38.190  1.00  0.00    -0.200 F 
ATOM     72  F   UNL A   1      38.275  34.313  38.490  1.00  0.00    -0.200 F 
ENDBRANCH  48  62
BRANCH  49  73
ATOM     73  C   UNL A   1      42.903  26.152  27.953  1.00  0.00     0.064 A 
ATOM     74  C   UNL A   1      43.770  26.639  26.965  1.00  0.00     0.173 A 
ATOM     75  C   UNL A   1      42.517  24.807  27.878  1.00  0.00     0.173 A 
ATOM     76  F   UNL A   1      44.173  27.917  26.996  1.00  0.00    -0.203 F 
ATOM     77  C   UNL A   1      44.222  25.817  25.936  1.00  0.00     0.198 A 
ATOM     78  C   UNL A   1      42.987  23.979  26.862  1.00  0.00     0.198 A 
ATOM     79  F   UNL A   1      41.710  24.289  28.816  1.00  0.00    -0.203 F 
ATOM     80  F   UNL A   1      45.031  26.312  24.989  1.00  0.00    -0.200 F 
ATOM     81  C   UNL A   1      43.834  24.486  25.887  1.00  0.00     0.200 A 
ATOM     82  F   UNL A   1      42.631  22.687  26.834  1.00  0.00    -0.200 F 
ATOM     83  F   UNL A   1      44.281  23.691  24.906  1.00  0.00    -0.200 F 
ENDBRANCH  49  73
BRANCH  61  84
ATOM     84  C   UNL A   1      45.230  27.502  34.397  1.00  0.00     0.064 A 
ATOM     85  C   UNL A   1      46.453  28.186  34.322  1.00  0.00     0.173 A 
ATOM     86  C   UNL A   1      45.183  26.317  35.143  1.00  0.00     0.173 A 
ATOM     87  F   UNL A   1      46.552  29.320  33.612  1.00  0.00    -0.203 F 
ATOM     88  C   UNL A   1      47.592  27.687  34.948  1.00  0.00     0.198 A 
ATOM     89  C   UNL A   1      46.318  25.835  35.790  1.00  0.00     0.198 A 
ATOM     90  F   UNL A   1      44.034  25.633  35.253  1.00  0.00    -0.203 F 
ATOM     91  F   UNL A   1      48.759  28.335  34.829  1.00  0.00    -0.200 F 
ATOM     92  C   UNL A   1      47.524  26.513  35.683  1.00  0.00     0.200 A 
ATOM     93  F   UNL A   1      46.247  24.710  36.515  1.00  0.00    -0.200 F 
ATOM     94  F   UNL A   1      48.620  26.034  36.287  1.00  0.00    -0.200 F 
ENDBRANCH  61  84
ENDBRANCH  35  36
ENDBRANCH  28  30
ENDBRANCH  27  28
ENDBRANCH  26  27
ENDBRANCH   1  26
TORSDOF 16
ENDMDL
MODEL 3
REMARK VINA RESULT:     -12.0      1.470      7.617
REMARK SMILES O=C(C[C@@H](NS(=O)(=O)c1ccc(Cl)cc1)c1ccc(F)cc1)OCCOC(=O)c1ccc(-c2c3nc(c(-c4c(F)c(F)c(F)c(F)c4F)c4ccc([nH]4)c(-c4c(F)c(F)c(F)c(F)c4F)c4nc(c(-c5c(F)c(F)c(F)c(F)c5F)c5ccc2[nH]5)C=C4)C=C3)cc1
REMARK SMILES IDX 24 1 23 2 2 3 1 4 3 5 4 6 5 7 6 9 7 10 8 11 9 12 10 13 15 14
REMARK SMILES IDX 11 15 14 16 12 17 13 18 16 19 17 20 22 21 18 22 21 23 19 24
REMARK SMILES IDX 20 25 25 26 26 27 27 28 28 29 29 30 30 31 91 32 31 33 90 34
REMARK SMILES IDX 32 35 33 36 34 37 84 38 35 39 89 40 83 41 85 42 36 43 88 44
REMARK SMILES IDX 82 45 81 46 37 48 69 49 49 50 68 51 50 52 53 53 67 54 86 55
REMARK SMILES IDX 51 56 52 57 66 59 87 60 54 61 38 62 39 63 47 64 40 65 41 66
REMARK SMILES IDX 45 67 48 68 42 69 43 70 46 71 44 72 70 73 71 74 79 75 72 76
REMARK SMILES IDX 73 77 77 78 80 79 74 80 75 81 78 82 76 83 55 84 56 85 64 86
REMARK SMILES IDX 57 87 58 88 62 89 65 90 59 91 60 92 63 93 61 94
REMARK H PARENT 5 8 85 47 53 58
REMARK Flexibility Score: inf
ROOT
ATOM      1  C   UNL A   1      31.834  28.251  27.048  1.00  0.00     0.274 C 
ENDROOT
BRANCH   1   2
ATOM      2  O   UNL A   1      30.756  27.324  26.773  1.00  0.00    -0.462 OA
BRANCH   2   3
ATOM      3  C   UNL A   1      30.909  26.136  26.132  1.00  0.00     0.307 C 
ATOM      4  O   UNL A   1      31.541  25.217  26.640  1.00  0.00    -0.252 OA
BRANCH   3   5
ATOM      5  C   UNL A   1      30.340  26.016  24.751  1.00  0.00     0.147 C 
BRANCH   5   6
ATOM      6  C   UNL A   1      31.024  26.883  23.685  1.00  0.00     0.111 C 
BRANCH   6   7
ATOM      7  N   UNL A   1      31.484  26.044  22.551  1.00  0.00    -0.203 NA
ATOM      8  H   UNL A   1      31.031  26.403  21.710  1.00  0.00     0.142 HD
BRANCH   7   9
ATOM      9  S   UNL A   1      33.141  25.950  22.219  1.00  0.00     0.241 S 
ATOM     10  O   UNL A   1      33.278  25.450  20.871  1.00  0.00    -0.207 OA
ATOM     11  O   UNL A   1      33.676  27.233  22.616  1.00  0.00    -0.207 OA
BRANCH   9  12
ATOM     12  C   UNL A   1      33.773  24.750  23.352  1.00  0.00     0.082 A 
ATOM     13  C   UNL A   1      34.360  25.190  24.542  1.00  0.00     0.023 A 
ATOM     14  C   UNL A   1      33.746  23.391  23.024  1.00  0.00     0.023 A 
ATOM     15  C   UNL A   1      34.964  24.266  25.392  1.00  0.00     0.022 A 
ATOM     16  C   UNL A   1      34.364  22.472  23.875  1.00  0.00     0.022 A 
ATOM     17  C   UNL A   1      34.980  22.915  25.048  1.00  0.00     0.041 A 
ATOM     18  Cl  UNL A   1      35.782  21.786  26.067  1.00  0.00    -0.084 Cl
ENDBRANCH   9  12
ENDBRANCH   7   9
ENDBRANCH   6   7
BRANCH   6  19
ATOM     19  C   UNL A   1      30.013  27.943  23.236  1.00  0.00    -0.029 A 
ATOM     20  C   UNL A   1      28.632  27.796  23.493  1.00  0.00     0.008 A 
ATOM     21  C   UNL A   1      30.439  29.075  22.524  1.00  0.00     0.008 A 
ATOM     22  C   UNL A   1      27.713  28.761  23.080  1.00  0.00     0.039 A 
ATOM     23  C   UNL A   1      29.512  30.030  22.090  1.00  0.00     0.039 A 
ATOM     24  C   UNL A   1      28.162  29.868  22.377  1.00  0.00     0.123 A 
ATOM     25  F   UNL A   1      27.278  30.781  21.958  1.00  0.00    -0.207 F 
ENDBRANCH   6  19
ENDBRANCH   5   6
ENDBRANCH   3   5
ENDBRANCH   2   3
ENDBRANCH   1   2
BRANCH   1  26
ATOM     26  C   UNL A   1      31.778  29.513  26.186  1.00  0.00     0.275 C 
BRANCH  26  27
ATOM     27  O   UNL A   1      33.090  30.096  26.070  1.00  0.00    -0.458 OA
BRANCH  27  28
ATOM     28  C   UNL A   1      33.351  31.104  26.937  1.00  0.00     0.338 C 
ATOM     29  O   UNL A   1      32.600  32.014  27.242  1.00  0.00    -0.246 OA
BRANCH  28  30
ATOM     30  C   UNL A   1      34.631  30.838  27.636  1.00  0.00     0.060 A 
ATOM     31  C   UNL A   1      34.954  29.501  27.899  1.00  0.00     0.016 A 
ATOM     32  C   UNL A   1      35.516  31.859  28.002  1.00  0.00     0.016 A 
ATOM     33  C   UNL A   1      36.143  29.182  28.556  1.00  0.00     0.010 A 
ATOM     34  C   UNL A   1      36.708  31.538  28.660  1.00  0.00     0.010 A 
ATOM     35  C   UNL A   1      37.013  30.201  28.964  1.00  0.00    -0.014 A 
BRANCH  35  36
ATOM     36  C   UNL A   1      38.156  29.874  29.851  1.00  0.00     0.031 A 
ATOM     37  C   UNL A   1      39.224  28.947  29.340  1.00  0.00     0.074 A 
ATOM     38  C   UNL A   1      38.269  30.419  31.075  1.00  0.00     0.049 A 
ATOM     39  N   UNL A   1      40.317  28.534  29.929  1.00  0.00    -0.248 NA
ATOM     40  C   UNL A   1      39.035  28.416  27.980  1.00  0.00     0.031 C 
ATOM     41  C   UNL A   1      37.318  31.351  31.676  1.00  0.00     0.029 A 
ATOM     42  N   UNL A   1      39.241  30.263  32.033  1.00  0.00    -0.354 N 
ATOM     43  C   UNL A   1      40.946  27.704  29.011  1.00  0.00     0.074 A 
ATOM     44  C   UNL A   1      40.096  27.638  27.842  1.00  0.00     0.031 C 
ATOM     45  C   UNL A   1      37.756  31.688  32.901  1.00  0.00     0.029 A 
ATOM     46  C   UNL A   1      39.005  30.978  33.180  1.00  0.00     0.049 A 
ATOM     47  H   UNL A   1      40.033  29.692  31.906  1.00  0.00     0.167 HD
ATOM     48  C   UNL A   1      42.135  27.067  29.125  1.00  0.00     0.037 A 
ATOM     49  C   UNL A   1      39.714  31.046  34.324  1.00  0.00     0.037 A 
ATOM     50  C   UNL A   1      42.984  27.129  30.283  1.00  0.00     0.049 A 
ATOM     51  C   UNL A   1      40.999  30.265  34.455  1.00  0.00     0.074 A 
ATOM     52  C   UNL A   1      44.214  26.527  30.480  1.00  0.00     0.029 A 
ATOM     53  N   UNL A   1      42.688  27.829  31.442  1.00  0.00    -0.354 N 
ATOM     54  N   UNL A   1      41.602  29.509  33.570  1.00  0.00    -0.248 NA
ATOM     55  C   UNL A   1      41.700  30.350  35.746  1.00  0.00     0.031 C 
ATOM     56  C   UNL A   1      44.642  26.825  31.777  1.00  0.00     0.029 A 
ATOM     57  C   UNL A   1      43.702  27.653  32.369  1.00  0.00     0.049 A 
ATOM     58  H   UNL A   1      41.878  28.369  31.585  1.00  0.00     0.167 HD
ATOM     59  C   UNL A   1      42.762  29.052  34.185  1.00  0.00     0.074 A 
ATOM     60  C   UNL A   1      42.784  29.620  35.515  1.00  0.00     0.031 C 
ATOM     61  C   UNL A   1      43.721  28.234  33.686  1.00  0.00     0.037 A 
BRANCH  48  62
ATOM     62  C   UNL A   1      42.591  26.241  27.962  1.00  0.00     0.064 A 
ATOM     63  C   UNL A   1      42.202  24.899  27.846  1.00  0.00     0.173 A 
ATOM     64  C   UNL A   1      43.460  26.763  26.992  1.00  0.00     0.173 A 
ATOM     65  F   UNL A   1      41.374  24.355  28.750  1.00  0.00    -0.203 F 
ATOM     66  C   UNL A   1      42.675  24.105  26.805  1.00  0.00     0.198 A 
ATOM     67  C   UNL A   1      43.911  25.973  25.938  1.00  0.00     0.198 A 
ATOM     68  F   UNL A   1      43.846  28.046  27.052  1.00  0.00    -0.203 F 
ATOM     69  F   UNL A   1      42.309  22.818  26.727  1.00  0.00    -0.200 F 
ATOM     70  C   UNL A   1      43.526  24.643  25.851  1.00  0.00     0.200 A 
ATOM     71  F   UNL A   1      44.714  26.500  25.003  1.00  0.00    -0.200 F 
ATOM     72  F   UNL A   1      43.971  23.881  24.843  1.00  0.00    -0.200 F 
ENDBRANCH  48  62
BRANCH  49  73
ATOM     73  C   UNL A   1      39.233  31.897  35.443  1.00  0.00     0.064 A 
ATOM     74  C   UNL A   1      39.571  33.255  35.522  1.00  0.00     0.173 A 
ATOM     75  C   UNL A   1      38.418  31.366  36.451  1.00  0.00     0.173 A 
ATOM     76  F   UNL A   1      40.345  33.811  34.579  1.00  0.00    -0.203 F 
ATOM     77  C   UNL A   1      39.123  34.047  36.577  1.00  0.00     0.198 A 
ATOM     78  C   UNL A   1      37.950  32.164  37.493  1.00  0.00     0.198 A 
ATOM     79  F   UNL A   1      38.046  30.079  36.403  1.00  0.00    -0.203 F 
ATOM     80  F   UNL A   1      39.480  35.337  36.643  1.00  0.00    -0.200 F 
ATOM     81  C   UNL A   1      38.309  33.503  37.559  1.00  0.00     0.200 A 
ATOM     82  F   UNL A   1      37.142  31.641  38.425  1.00  0.00    -0.200 F 
ATOM     83  F   UNL A   1      37.864  34.269  38.564  1.00  0.00    -0.200 F 
ENDBRANCH  49  73
BRANCH  61  84
ATOM     84  C   UNL A   1      44.899  27.914  34.560  1.00  0.00     0.064 A 
ATOM     85  C   UNL A   1      44.861  26.806  35.422  1.00  0.00     0.173 A 
ATOM     86  C   UNL A   1      46.019  28.754  34.617  1.00  0.00     0.173 A 
ATOM     87  F   UNL A   1      43.808  25.977  35.413  1.00  0.00    -0.203 F 
ATOM     88  C   UNL A   1      45.894  26.566  36.324  1.00  0.00     0.198 A 
ATOM     89  C   UNL A   1      47.063  28.495  35.502  1.00  0.00     0.198 A 
ATOM     90  F   UNL A   1      46.106  29.819  33.805  1.00  0.00    -0.203 F 
ATOM     91  F   UNL A   1      45.818  25.525  37.166  1.00  0.00    -0.200 F 
ATOM     92  C   UNL A   1      46.994  27.409  36.363  1.00  0.00     0.200 A 
ATOM     93  F   UNL A   1      48.134  29.300  35.527  1.00  0.00    -0.200 F 
ATOM     94  F   UNL A   1      47.989  27.176  37.230  1.00  0.00    -0.200 F 
ENDBRANCH  61  84
ENDBRANCH  35  36
ENDBRANCH  28  30
ENDBRANCH  27  28
ENDBRANCH  26  27
ENDBRANCH   1  26
TORSDOF 16
ENDMDL
