MODEL 1
REMARK VINA RESULT:     -11.7      0.000      0.000
REMARK SMILES COCC[C@H](NC(=O)c1ccc(C)cc1F)C(=O)OCCOC(=O)c1ccc(-c2c3nc(c(-c4c(F)c(F)c(F)c(F)c4F)c4ccc([nH]4)c(-c4c(F)c(F)c(F)c(F)c4F)c4nc(c(-c5c(F)c(F)c(F)c(F)c5F)c5ccc2[nH]5)C=C4)C=C3)cc1
REMARK SMILES IDX 20 1 19 2 17 3 18 4 5 5 4 6 3 7 2 8 1 9 6 10 7 11 8 13 9 14
REMARK SMILES IDX 10 15 15 16 11 17 14 18 16 19 12 20 13 21 21 22 22 23 23 24
REMARK SMILES IDX 24 25 25 26 26 27 87 28 27 29 86 30 28 31 29 32 30 33 80 34
REMARK SMILES IDX 31 35 85 36 79 37 81 38 32 39 84 40 78 41 77 42 33 44 65 45
REMARK SMILES IDX 45 46 64 47 46 48 49 49 63 50 82 51 47 52 48 53 62 55 83 56
REMARK SMILES IDX 50 57 34 58 35 59 43 60 36 61 37 62 41 63 44 64 38 65 39 66
REMARK SMILES IDX 42 67 40 68 66 69 67 70 75 71 68 72 69 73 73 74 76 75 70 76
REMARK SMILES IDX 71 77 74 78 72 79 51 80 52 81 60 82 53 83 54 84 58 85 61 86
REMARK SMILES IDX 55 87 56 88 59 89 57 90
REMARK H PARENT 6 12 81 43 49 54
REMARK Flexibility Score: inf
ROOT
ATOM      1  C   UNL A   1      37.478  22.351  25.245  1.00  0.00     0.274 C 
ENDROOT
BRANCH   1   2
ATOM      2  O   UNL A   1      36.085  22.557  24.956  1.00  0.00    -0.461 OA
BRANCH   2   3
ATOM      3  C   UNL A   1      35.821  22.972  23.678  1.00  0.00     0.328 C 
ATOM      4  O   UNL A   1      36.641  22.940  22.766  1.00  0.00    -0.250 OA
BRANCH   3   5
ATOM      5  C   UNL A   1      34.336  23.353  23.471  1.00  0.00     0.194 C 
BRANCH   5   6
ATOM      6  C   UNL A   1      34.166  24.883  23.366  1.00  0.00     0.065 C 
BRANCH   6   7
ATOM      7  C   UNL A   1      33.224  25.307  22.230  1.00  0.00     0.162 C 
BRANCH   7   8
ATOM      8  O   UNL A   1      33.786  26.473  21.608  1.00  0.00    -0.385 OA
ATOM      9  C   UNL A   1      33.545  27.682  22.328  1.00  0.00     0.194 C 
ENDBRANCH   7   8
ENDBRANCH   6   7
ENDBRANCH   5   6
BRANCH   5  10
ATOM     10  N   UNL A   1      33.429  22.811  24.486  1.00  0.00    -0.338 N 
ATOM     11  C   UNL A   1      32.292  22.169  24.071  1.00  0.00     0.254 C 
ATOM     12  H   UNL A   1      33.633  22.905  25.444  1.00  0.00     0.164 HD
ATOM     13  O   UNL A   1      31.260  22.748  23.768  1.00  0.00    -0.269 OA
BRANCH  11  14
ATOM     14  C   UNL A   1      32.427  20.721  24.032  1.00  0.00     0.075 A 
ATOM     15  C   UNL A   1      32.727  20.020  25.205  1.00  0.00     0.017 A 
ATOM     16  C   UNL A   1      32.277  20.050  22.844  1.00  0.00     0.136 A 
ATOM     17  C   UNL A   1      32.968  18.659  25.171  1.00  0.00     0.004 A 
ATOM     18  C   UNL A   1      32.503  18.685  22.822  1.00  0.00     0.043 A 
ATOM     19  F   UNL A   1      31.959  20.666  21.696  1.00  0.00    -0.206 F 
ATOM     20  C   UNL A   1      32.905  17.973  23.968  1.00  0.00    -0.048 A 
ATOM     21  C   UNL A   1      33.263  16.514  24.035  1.00  0.00     0.044 C 
ENDBRANCH  11  14
ENDBRANCH   5  10
ENDBRANCH   3   5
ENDBRANCH   2   3
ENDBRANCH   1   2
BRANCH   1  22
ATOM     22  C   UNL A   1      38.087  23.536  25.996  1.00  0.00     0.275 C 
BRANCH  22  23
ATOM     23  O   UNL A   1      39.251  23.341  26.825  1.00  0.00    -0.458 OA
BRANCH  23  24
ATOM     24  C   UNL A   1      40.350  24.140  26.844  1.00  0.00     0.338 C 
ATOM     25  O   UNL A   1      41.502  23.836  26.654  1.00  0.00    -0.246 OA
BRANCH  24  26
ATOM     26  C   UNL A   1      39.886  25.460  27.356  1.00  0.00     0.060 A 
ATOM     27  C   UNL A   1      40.321  26.628  26.717  1.00  0.00     0.016 A 
ATOM     28  C   UNL A   1      39.207  25.552  28.576  1.00  0.00     0.016 A 
ATOM     29  C   UNL A   1      40.276  27.849  27.407  1.00  0.00     0.010 A 
ATOM     30  C   UNL A   1      39.172  26.767  29.259  1.00  0.00     0.010 A 
ATOM     31  C   UNL A   1      39.828  27.887  28.738  1.00  0.00    -0.014 A 
BRANCH  31  32
ATOM     32  C   UNL A   1      39.949  29.083  29.599  1.00  0.00     0.031 A 
ATOM     33  C   UNL A   1      38.989  30.177  29.333  1.00  0.00     0.074 A 
ATOM     34  C   UNL A   1      40.865  29.323  30.584  1.00  0.00     0.049 A 
ATOM     35  N   UNL A   1      39.239  31.439  29.484  1.00  0.00    -0.248 NA
ATOM     36  C   UNL A   1      37.675  29.907  28.757  1.00  0.00     0.031 C 
ATOM     37  C   UNL A   1      40.752  30.362  31.607  1.00  0.00     0.029 A 
ATOM     38  N   UNL A   1      42.138  28.815  30.842  1.00  0.00    -0.354 N 
ATOM     39  C   UNL A   1      38.009  32.056  29.491  1.00  0.00     0.074 A 
ATOM     40  C   UNL A   1      37.163  31.139  28.768  1.00  0.00     0.031 C 
ATOM     41  C   UNL A   1      41.958  30.594  32.147  1.00  0.00     0.029 A 
ATOM     42  C   UNL A   1      42.936  29.767  31.468  1.00  0.00     0.049 A 
ATOM     43  H   UNL A   1      42.433  27.904  30.612  1.00  0.00     0.167 HD
ATOM     44  C   UNL A   1      37.787  33.077  30.376  1.00  0.00     0.037 A 
ATOM     45  C   UNL A   1      44.189  30.118  31.048  1.00  0.00     0.037 A 
ATOM     46  C   UNL A   1      39.046  33.595  30.956  1.00  0.00     0.049 A 
ATOM     47  C   UNL A   1      44.218  31.561  30.579  1.00  0.00     0.074 A 
ATOM     48  C   UNL A   1      39.587  33.647  32.233  1.00  0.00     0.029 A 
ATOM     49  N   UNL A   1      40.089  33.967  30.110  1.00  0.00    -0.354 N 
ATOM     50  N   UNL A   1      43.220  32.372  30.774  1.00  0.00    -0.248 NA
ATOM     51  C   UNL A   1      45.264  32.181  29.762  1.00  0.00     0.031 C 
ATOM     52  C   UNL A   1      40.943  34.067  32.145  1.00  0.00     0.029 A 
ATOM     53  C   UNL A   1      41.250  34.237  30.811  1.00  0.00     0.049 A 
ATOM     54  H   UNL A   1      40.008  34.031  29.131  1.00  0.00     0.167 HD
ATOM     55  C   UNL A   1      43.419  33.530  30.088  1.00  0.00     0.074 A 
ATOM     56  C   UNL A   1      44.709  33.367  29.453  1.00  0.00     0.031 C 
ATOM     57  C   UNL A   1      42.486  34.521  30.093  1.00  0.00     0.037 A 
BRANCH  44  58
ATOM     58  C   UNL A   1      36.404  33.338  30.995  1.00  0.00     0.064 A 
ATOM     59  C   UNL A   1      35.417  34.054  30.282  1.00  0.00     0.173 A 
ATOM     60  C   UNL A   1      36.018  33.024  32.316  1.00  0.00     0.173 A 
ATOM     61  F   UNL A   1      35.522  34.276  28.967  1.00  0.00    -0.203 F 
ATOM     62  C   UNL A   1      34.257  34.559  30.884  1.00  0.00     0.198 A 
ATOM     63  C   UNL A   1      34.873  33.546  32.929  1.00  0.00     0.198 A 
ATOM     64  F   UNL A   1      36.681  32.143  33.065  1.00  0.00    -0.203 F 
ATOM     65  F   UNL A   1      33.389  35.273  30.154  1.00  0.00    -0.200 F 
ATOM     66  C   UNL A   1      34.004  34.338  32.219  1.00  0.00     0.200 A 
ATOM     67  F   UNL A   1      34.625  33.263  34.216  1.00  0.00    -0.200 F 
ATOM     68  F   UNL A   1      32.910  34.842  32.804  1.00  0.00    -0.200 F 
ENDBRANCH  44  58
BRANCH  45  69
ATOM     69  C   UNL A   1      45.119  29.032  30.621  1.00  0.00     0.064 A 
ATOM     70  C   UNL A   1      45.888  28.387  31.615  1.00  0.00     0.173 A 
ATOM     71  C   UNL A   1      45.236  28.519  29.323  1.00  0.00     0.173 A 
ATOM     72  F   UNL A   1      45.866  28.839  32.879  1.00  0.00    -0.203 F 
ATOM     73  C   UNL A   1      46.654  27.251  31.345  1.00  0.00     0.198 A 
ATOM     74  C   UNL A   1      46.038  27.405  29.044  1.00  0.00     0.198 A 
ATOM     75  F   UNL A   1      44.509  29.031  28.321  1.00  0.00    -0.203 F 
ATOM     76  F   UNL A   1      47.288  26.616  32.341  1.00  0.00    -0.200 F 
ATOM     77  C   UNL A   1      46.720  26.753  30.059  1.00  0.00     0.200 A 
ATOM     78  F   UNL A   1      46.090  26.915  27.797  1.00  0.00    -0.200 F 
ATOM     79  F   UNL A   1      47.396  25.622  29.806  1.00  0.00    -0.200 F 
ENDBRANCH  45  69
BRANCH  57  80
ATOM     80  C   UNL A   1      42.721  35.873  29.506  1.00  0.00     0.064 A 
ATOM     81  C   UNL A   1      42.238  36.220  28.233  1.00  0.00     0.173 A 
ATOM     82  C   UNL A   1      43.601  36.785  30.117  1.00  0.00     0.173 A 
ATOM     83  F   UNL A   1      41.432  35.391  27.552  1.00  0.00    -0.203 F 
ATOM     84  C   UNL A   1      42.612  37.409  27.612  1.00  0.00     0.198 A 
ATOM     85  C   UNL A   1      44.013  37.948  29.472  1.00  0.00     0.198 A 
ATOM     86  F   UNL A   1      44.076  36.569  31.352  1.00  0.00    -0.203 F 
ATOM     87  F   UNL A   1      42.113  37.714  26.406  1.00  0.00    -0.200 F 
ATOM     88  C   UNL A   1      43.517  38.260  28.220  1.00  0.00     0.200 A 
ATOM     89  F   UNL A   1      44.904  38.755  30.064  1.00  0.00    -0.200 F 
ATOM     90  F   UNL A   1      43.917  39.377  27.598  1.00  0.00    -0.200 F 
ENDBRANCH  57  80
ENDBRANCH  31  32
ENDBRANCH  24  26
ENDBRANCH  23  24
ENDBRANCH  22  23
ENDBRANCH   1  22
TORSDOF 16
ENDMDL
MODEL 2
REMARK VINA RESULT:     -11.5      6.140     12.332
REMARK SMILES COCC[C@H](NC(=O)c1ccc(C)cc1F)C(=O)OCCOC(=O)c1ccc(-c2c3nc(c(-c4c(F)c(F)c(F)c(F)c4F)c4ccc([nH]4)c(-c4c(F)c(F)c(F)c(F)c4F)c4nc(c(-c5c(F)c(F)c(F)c(F)c5F)c5ccc2[nH]5)C=C4)C=C3)cc1
REMARK SMILES IDX 20 1 19 2 17 3 18 4 5 5 4 6 3 7 2 8 1 9 6 10 7 11 8 13 9 14
REMARK SMILES IDX 10 15 15 16 11 17 14 18 16 19 12 20 13 21 21 22 22 23 23 24
REMARK SMILES IDX 24 25 25 26 26 27 87 28 27 29 86 30 28 31 29 32 30 33 80 34
REMARK SMILES IDX 31 35 85 36 79 37 81 38 32 39 84 40 78 41 77 42 33 44 65 45
REMARK SMILES IDX 45 46 64 47 46 48 49 49 63 50 82 51 47 52 48 53 62 55 83 56
REMARK SMILES IDX 50 57 34 58 35 59 43 60 36 61 37 62 41 63 44 64 38 65 39 66
REMARK SMILES IDX 42 67 40 68 66 69 67 70 75 71 68 72 69 73 73 74 76 75 70 76
REMARK SMILES IDX 71 77 74 78 72 79 51 80 52 81 60 82 53 83 54 84 58 85 61 86
REMARK SMILES IDX 55 87 56 88 59 89 57 90
REMARK H PARENT 6 12 81 43 49 54
REMARK Flexibility Score: inf
ROOT
ATOM      1  C   UNL A   1      34.067  32.426  28.171  1.00  0.00     0.274 C 
ENDROOT
BRANCH   1   2
ATOM      2  O   UNL A   1      34.016  32.917  29.522  1.00  0.00    -0.461 OA
BRANCH   2   3
ATOM      3  C   UNL A   1      34.490  34.191  29.686  1.00  0.00     0.328 C 
ATOM      4  O   UNL A   1      35.147  34.789  28.840  1.00  0.00    -0.250 OA
BRANCH   3   5
ATOM      5  C   UNL A   1      33.990  34.848  30.993  1.00  0.00     0.194 C 
BRANCH   5   6
ATOM      6  C   UNL A   1      32.862  35.862  30.707  1.00  0.00     0.065 C 
BRANCH   6   7
ATOM      7  C   UNL A   1      32.987  37.150  31.533  1.00  0.00     0.162 C 
BRANCH   7   8
ATOM      8  O   UNL A   1      32.467  36.881  32.844  1.00  0.00    -0.385 OA
ATOM      9  C   UNL A   1      31.181  36.264  32.838  1.00  0.00     0.194 C 
ENDBRANCH   7   8
ENDBRANCH   6   7
ENDBRANCH   5   6
BRANCH   5  10
ATOM     10  N   UNL A   1      35.045  35.477  31.792  1.00  0.00    -0.338 N 
ATOM     11  C   UNL A   1      35.455  34.852  32.941  1.00  0.00     0.254 C 
ATOM     12  H   UNL A   1      35.450  36.328  31.509  1.00  0.00     0.164 HD
ATOM     13  O   UNL A   1      34.879  34.958  34.012  1.00  0.00    -0.269 OA
BRANCH  11  14
ATOM     14  C   UNL A   1      36.656  34.050  32.764  1.00  0.00     0.075 A 
ATOM     15  C   UNL A   1      37.501  34.295  31.677  1.00  0.00     0.017 A 
ATOM     16  C   UNL A   1      36.948  33.047  33.655  1.00  0.00     0.136 A 
ATOM     17  C   UNL A   1      38.587  33.476  31.428  1.00  0.00     0.004 A 
ATOM     18  C   UNL A   1      38.047  32.242  33.409  1.00  0.00     0.043 A 
ATOM     19  F   UNL A   1      36.191  32.788  34.731  1.00  0.00    -0.206 F 
ATOM     20  C   UNL A   1      38.854  32.404  32.266  1.00  0.00    -0.048 A 
ATOM     21  C   UNL A   1      40.009  31.534  31.858  1.00  0.00     0.044 C 
ENDBRANCH  11  14
ENDBRANCH   5  10
ENDBRANCH   3   5
ENDBRANCH   2   3
ENDBRANCH   1   2
BRANCH   1  22
ATOM     22  C   UNL A   1      34.945  31.181  28.049  1.00  0.00     0.275 C 
BRANCH  22  23
ATOM     23  O   UNL A   1      36.228  31.137  28.709  1.00  0.00    -0.458 OA
BRANCH  23  24
ATOM     24  C   UNL A   1      36.489  30.513  29.887  1.00  0.00     0.338 C 
ATOM     25  O   UNL A   1      36.011  30.731  30.973  1.00  0.00    -0.246 OA
BRANCH  24  26
ATOM     26  C   UNL A   1      37.652  29.619  29.626  1.00  0.00     0.060 A 
ATOM     27  C   UNL A   1      37.909  28.563  30.510  1.00  0.00     0.016 A 
ATOM     28  C   UNL A   1      38.597  29.948  28.649  1.00  0.00     0.016 A 
ATOM     29  C   UNL A   1      39.193  27.999  30.555  1.00  0.00     0.010 A 
ATOM     30  C   UNL A   1      39.873  29.389  28.704  1.00  0.00     0.010 A 
ATOM     31  C   UNL A   1      40.216  28.516  29.742  1.00  0.00    -0.014 A 
BRANCH  31  32
ATOM     32  C   UNL A   1      41.635  28.127  29.881  1.00  0.00     0.031 A 
ATOM     33  C   UNL A   1      42.019  26.834  29.272  1.00  0.00     0.074 A 
ATOM     34  C   UNL A   1      42.631  28.792  30.539  1.00  0.00     0.049 A 
ATOM     35  N   UNL A   1      42.932  26.037  29.731  1.00  0.00    -0.248 NA
ATOM     36  C   UNL A   1      41.294  26.292  28.127  1.00  0.00     0.031 C 
ATOM     37  C   UNL A   1      44.063  28.537  30.382  1.00  0.00     0.029 A 
ATOM     38  N   UNL A   1      42.626  29.735  31.566  1.00  0.00    -0.354 N 
ATOM     39  C   UNL A   1      43.214  25.174  28.698  1.00  0.00     0.074 A 
ATOM     40  C   UNL A   1      42.016  25.194  27.898  1.00  0.00     0.031 C 
ATOM     41  C   UNL A   1      44.728  29.053  31.427  1.00  0.00     0.029 A 
ATOM     42  C   UNL A   1      43.768  29.618  32.354  1.00  0.00     0.049 A 
ATOM     43  H   UNL A   1      41.911  30.396  31.715  1.00  0.00     0.167 HD
ATOM     44  C   UNL A   1      44.519  24.820  28.472  1.00  0.00     0.037 A 
ATOM     45  C   UNL A   1      43.754  29.519  33.718  1.00  0.00     0.037 A 
ATOM     46  C   UNL A   1      45.394  25.157  29.615  1.00  0.00     0.049 A 
ATOM     47  C   UNL A   1      44.272  28.166  34.168  1.00  0.00     0.074 A 
ATOM     48  C   UNL A   1      46.474  26.009  29.804  1.00  0.00     0.029 A 
ATOM     49  N   UNL A   1      45.042  24.735  30.896  1.00  0.00    -0.354 N 
ATOM     50  N   UNL A   1      44.841  27.335  33.344  1.00  0.00    -0.248 NA
ATOM     51  C   UNL A   1      44.095  27.572  35.495  1.00  0.00     0.031 C 
ATOM     52  C   UNL A   1      46.772  26.077  31.193  1.00  0.00     0.029 A 
ATOM     53  C   UNL A   1      45.853  25.297  31.865  1.00  0.00     0.049 A 
ATOM     54  H   UNL A   1      44.306  24.112  31.087  1.00  0.00     0.167 HD
ATOM     55  C   UNL A   1      45.029  26.131  33.951  1.00  0.00     0.074 A 
ATOM     56  C   UNL A   1      44.535  26.316  35.299  1.00  0.00     0.031 C 
ATOM     57  C   UNL A   1      45.564  25.078  33.275  1.00  0.00     0.037 A 
BRANCH  44  58
ATOM     58  C   UNL A   1      45.052  24.522  27.060  1.00  0.00     0.064 A 
ATOM     59  C   UNL A   1      44.924  23.233  26.498  1.00  0.00     0.173 A 
ATOM     60  C   UNL A   1      45.800  25.409  26.256  1.00  0.00     0.173 A 
ATOM     61  F   UNL A   1      44.099  22.318  27.017  1.00  0.00    -0.203 F 
ATOM     62  C   UNL A   1      45.623  22.828  25.352  1.00  0.00     0.198 A 
ATOM     63  C   UNL A   1      46.520  25.003  25.126  1.00  0.00     0.198 A 
ATOM     64  F   UNL A   1      45.822  26.724  26.471  1.00  0.00    -0.203 F 
ATOM     65  F   UNL A   1      45.489  21.572  24.904  1.00  0.00    -0.200 F 
ATOM     66  C   UNL A   1      46.452  23.703  24.688  1.00  0.00     0.200 A 
ATOM     67  F   UNL A   1      47.273  25.895  24.468  1.00  0.00    -0.200 F 
ATOM     68  F   UNL A   1      47.143  23.312  23.610  1.00  0.00    -0.200 F 
ENDBRANCH  44  58
BRANCH  45  69
ATOM     69  C   UNL A   1      42.828  30.408  34.480  1.00  0.00     0.064 A 
ATOM     70  C   UNL A   1      43.211  31.753  34.676  1.00  0.00     0.173 A 
ATOM     71  C   UNL A   1      41.556  30.055  34.946  1.00  0.00     0.173 A 
ATOM     72  F   UNL A   1      44.430  32.167  34.295  1.00  0.00    -0.203 F 
ATOM     73  C   UNL A   1      42.344  32.703  35.221  1.00  0.00     0.198 A 
ATOM     74  C   UNL A   1      40.701  30.999  35.532  1.00  0.00     0.198 A 
ATOM     75  F   UNL A   1      41.083  28.816  34.762  1.00  0.00    -0.203 F 
ATOM     76  F   UNL A   1      42.718  33.989  35.296  1.00  0.00    -0.200 F 
ATOM     77  C   UNL A   1      41.083  32.327  35.641  1.00  0.00     0.200 A 
ATOM     78  F   UNL A   1      39.473  30.634  35.925  1.00  0.00    -0.200 F 
ATOM     79  F   UNL A   1      40.221  33.246  36.099  1.00  0.00    -0.200 F 
ENDBRANCH  45  69
BRANCH  57  80
ATOM     80  C   UNL A   1      45.950  23.793  33.931  1.00  0.00     0.064 A 
ATOM     81  C   UNL A   1      45.064  22.707  34.007  1.00  0.00     0.173 A 
ATOM     82  C   UNL A   1      47.142  23.687  34.671  1.00  0.00     0.173 A 
ATOM     83  F   UNL A   1      43.880  22.736  33.373  1.00  0.00    -0.203 F 
ATOM     84  C   UNL A   1      45.355  21.582  34.774  1.00  0.00     0.198 A 
ATOM     85  C   UNL A   1      47.407  22.585  35.478  1.00  0.00     0.198 A 
ATOM     86  F   UNL A   1      48.075  24.650  34.625  1.00  0.00    -0.203 F 
ATOM     87  F   UNL A   1      44.492  20.556  34.804  1.00  0.00    -0.200 F 
ATOM     88  C   UNL A   1      46.514  21.531  35.528  1.00  0.00     0.200 A 
ATOM     89  F   UNL A   1      48.524  22.556  36.218  1.00  0.00    -0.200 F 
ATOM     90  F   UNL A   1      46.767  20.471  36.308  1.00  0.00    -0.200 F 
ENDBRANCH  57  80
ENDBRANCH  31  32
ENDBRANCH  24  26
ENDBRANCH  23  24
ENDBRANCH  22  23
ENDBRANCH   1  22
TORSDOF 16
ENDMDL
MODEL 3
REMARK VINA RESULT:     -11.5      4.961      7.032
REMARK SMILES COCC[C@H](NC(=O)c1ccc(C)cc1F)C(=O)OCCOC(=O)c1ccc(-c2c3nc(c(-c4c(F)c(F)c(F)c(F)c4F)c4ccc([nH]4)c(-c4c(F)c(F)c(F)c(F)c4F)c4nc(c(-c5c(F)c(F)c(F)c(F)c5F)c5ccc2[nH]5)C=C4)C=C3)cc1
REMARK SMILES IDX 20 1 19 2 17 3 18 4 5 5 4 6 3 7 2 8 1 9 6 10 7 11 8 13 9 14
REMARK SMILES IDX 10 15 15 16 11 17 14 18 16 19 12 20 13 21 21 22 22 23 23 24
REMARK SMILES IDX 24 25 25 26 26 27 87 28 27 29 86 30 28 31 29 32 30 33 80 34
REMARK SMILES IDX 31 35 85 36 79 37 81 38 32 39 84 40 78 41 77 42 33 44 65 45
REMARK SMILES IDX 45 46 64 47 46 48 49 49 63 50 82 51 47 52 48 53 62 55 83 56
REMARK SMILES IDX 50 57 34 58 35 59 43 60 36 61 37 62 41 63 44 64 38 65 39 66
REMARK SMILES IDX 42 67 40 68 66 69 67 70 75 71 68 72 69 73 73 74 76 75 70 76
REMARK SMILES IDX 71 77 74 78 72 79 51 80 52 81 60 82 53 83 54 84 58 85 61 86
REMARK SMILES IDX 55 87 56 88 59 89 57 90
REMARK H PARENT 6 12 81 43 49 54
REMARK Flexibility Score: inf
ROOT
ATOM      1  C   UNL A   1      45.232  26.941  27.037  1.00  0.00     0.274 C 
ENDROOT
BRANCH   1   2
ATOM      2  O   UNL A   1      44.590  25.712  27.417  1.00  0.00    -0.461 OA
BRANCH   2   3
ATOM      3  C   UNL A   1      45.447  24.700  27.760  1.00  0.00     0.328 C 
ATOM      4  O   UNL A   1      46.422  24.849  28.490  1.00  0.00    -0.250 OA
BRANCH   3   5
ATOM      5  C   UNL A   1      44.975  23.321  27.245  1.00  0.00     0.194 C 
BRANCH   5   6
ATOM      6  C   UNL A   1      44.374  23.434  25.829  1.00  0.00     0.065 C 
BRANCH   6   7
ATOM      7  C   UNL A   1      44.318  22.090  25.089  1.00  0.00     0.162 C 
BRANCH   7   8
ATOM      8  O   UNL A   1      43.040  21.494  25.359  1.00  0.00    -0.385 OA
ATOM      9  C   UNL A   1      43.114  20.122  25.745  1.00  0.00     0.194 C 
ENDBRANCH   7   8
ENDBRANCH   6   7
ENDBRANCH   5   6
BRANCH   5  10
ATOM     10  N   UNL A   1      44.039  22.633  28.139  1.00  0.00    -0.338 N 
ATOM     11  C   UNL A   1      43.232  23.390  28.948  1.00  0.00     0.254 C 
ATOM     12  H   UNL A   1      43.991  21.650  28.158  1.00  0.00     0.164 HD
ATOM     13  O   UNL A   1      43.588  23.847  30.023  1.00  0.00    -0.269 OA
BRANCH  11  14
ATOM     14  C   UNL A   1      41.898  23.594  28.404  1.00  0.00     0.075 A 
ATOM     15  C   UNL A   1      41.188  22.507  27.881  1.00  0.00     0.017 A 
ATOM     16  C   UNL A   1      41.347  24.851  28.391  1.00  0.00     0.136 A 
ATOM     17  C   UNL A   1      39.967  22.696  27.261  1.00  0.00     0.004 A 
ATOM     18  C   UNL A   1      40.116  25.028  27.784  1.00  0.00     0.043 A 
ATOM     19  F   UNL A   1      41.969  25.922  28.906  1.00  0.00    -0.206 F 
ATOM     20  C   UNL A   1      39.428  23.969  27.161  1.00  0.00    -0.048 A 
ATOM     21  C   UNL A   1      38.137  24.069  26.398  1.00  0.00     0.044 C 
ENDBRANCH  11  14
ENDBRANCH   5  10
ENDBRANCH   3   5
ENDBRANCH   2   3
ENDBRANCH   1   2
BRANCH   1  22
ATOM     22  C   UNL A   1      44.678  27.493  25.723  1.00  0.00     0.275 C 
BRANCH  22  23
ATOM     23  O   UNL A   1      43.458  28.263  25.725  1.00  0.00    -0.458 OA
BRANCH  23  24
ATOM     24  C   UNL A   1      42.211  27.768  25.943  1.00  0.00     0.338 C 
ATOM     25  O   UNL A   1      41.679  26.820  25.420  1.00  0.00    -0.246 OA
BRANCH  24  26
ATOM     26  C   UNL A   1      41.528  28.755  26.825  1.00  0.00     0.060 A 
ATOM     27  C   UNL A   1      42.289  29.474  27.757  1.00  0.00     0.016 A 
ATOM     28  C   UNL A   1      40.132  28.814  26.880  1.00  0.00     0.016 A 
ATOM     29  C   UNL A   1      41.652  30.056  28.864  1.00  0.00     0.010 A 
ATOM     30  C   UNL A   1      39.506  29.387  27.986  1.00  0.00     0.010 A 
ATOM     31  C   UNL A   1      40.269  29.886  29.047  1.00  0.00    -0.014 A 
BRANCH  31  32
ATOM     32  C   UNL A   1      39.563  30.280  30.285  1.00  0.00     0.031 A 
ATOM     33  C   UNL A   1      38.972  31.637  30.295  1.00  0.00     0.074 A 
ATOM     34  C   UNL A   1      39.422  29.563  31.439  1.00  0.00     0.049 A 
ATOM     35  N   UNL A   1      38.863  32.393  31.341  1.00  0.00    -0.248 NA
ATOM     36  C   UNL A   1      38.551  32.288  29.058  1.00  0.00     0.031 C 
ATOM     37  C   UNL A   1      38.461  29.854  32.502  1.00  0.00     0.029 A 
ATOM     38  N   UNL A   1      40.150  28.514  32.001  1.00  0.00    -0.354 N 
ATOM     39  C   UNL A   1      37.955  33.366  30.994  1.00  0.00     0.074 A 
ATOM     40  C   UNL A   1      38.039  33.415  29.555  1.00  0.00     0.031 C 
ATOM     41  C   UNL A   1      38.841  29.239  33.632  1.00  0.00     0.029 A 
ATOM     42  C   UNL A   1      40.100  28.563  33.391  1.00  0.00     0.049 A 
ATOM     43  H   UNL A   1      40.635  27.830  31.484  1.00  0.00     0.167 HD
ATOM     44  C   UNL A   1      37.024  33.762  31.918  1.00  0.00     0.037 A 
ATOM     45  C   UNL A   1      41.199  28.514  34.203  1.00  0.00     0.037 A 
ATOM     46  C   UNL A   1      37.373  33.317  33.285  1.00  0.00     0.049 A 
ATOM     47  C   UNL A   1      41.373  29.818  34.958  1.00  0.00     0.074 A 
ATOM     48  C   UNL A   1      36.792  32.466  34.216  1.00  0.00     0.029 A 
ATOM     49  N   UNL A   1      38.641  33.593  33.794  1.00  0.00    -0.354 N 
ATOM     50  N   UNL A   1      40.456  30.742  34.963  1.00  0.00    -0.248 NA
ATOM     51  C   UNL A   1      42.589  30.263  35.644  1.00  0.00     0.031 C 
ATOM     52  C   UNL A   1      37.708  32.253  35.283  1.00  0.00     0.029 A 
ATOM     53  C   UNL A   1      38.868  32.941  34.993  1.00  0.00     0.049 A 
ATOM     54  H   UNL A   1      39.295  34.181  33.353  1.00  0.00     0.167 HD
ATOM     55  C   UNL A   1      40.939  31.875  35.540  1.00  0.00     0.074 A 
ATOM     56  C   UNL A   1      42.288  31.539  35.944  1.00  0.00     0.031 C 
ATOM     57  C   UNL A   1      40.182  33.003  35.619  1.00  0.00     0.037 A 
BRANCH  44  58
ATOM     58  C   UNL A   1      35.613  34.218  31.514  1.00  0.00     0.064 A 
ATOM     59  C   UNL A   1      34.963  33.650  30.396  1.00  0.00     0.173 A 
ATOM     60  C   UNL A   1      34.890  35.282  32.096  1.00  0.00     0.173 A 
ATOM     61  F   UNL A   1      35.397  32.518  29.830  1.00  0.00    -0.203 F 
ATOM     62  C   UNL A   1      33.814  34.206  29.817  1.00  0.00     0.198 A 
ATOM     63  C   UNL A   1      33.758  35.857  31.508  1.00  0.00     0.198 A 
ATOM     64  F   UNL A   1      35.192  35.780  33.295  1.00  0.00    -0.203 F 
ATOM     65  F   UNL A   1      33.281  33.638  28.727  1.00  0.00    -0.200 F 
ATOM     66  C   UNL A   1      33.233  35.334  30.351  1.00  0.00     0.200 A 
ATOM     67  F   UNL A   1      33.181  36.920  32.086  1.00  0.00    -0.200 F 
ATOM     68  F   UNL A   1      32.152  35.885  29.785  1.00  0.00    -0.200 F 
ENDBRANCH  44  58
BRANCH  45  69
ATOM     69  C   UNL A   1      42.276  27.534  33.873  1.00  0.00     0.064 A 
ATOM     70  C   UNL A   1      42.348  26.346  34.633  1.00  0.00     0.173 A 
ATOM     71  C   UNL A   1      43.177  27.639  32.807  1.00  0.00     0.173 A 
ATOM     72  F   UNL A   1      41.547  26.180  35.698  1.00  0.00    -0.203 F 
ATOM     73  C   UNL A   1      43.203  25.295  34.294  1.00  0.00     0.198 A 
ATOM     74  C   UNL A   1      44.066  26.602  32.492  1.00  0.00     0.198 A 
ATOM     75  F   UNL A   1      43.154  28.706  31.998  1.00  0.00    -0.203 F 
ATOM     76  F   UNL A   1      43.165  24.148  34.987  1.00  0.00    -0.200 F 
ATOM     77  C   UNL A   1      44.057  25.420  33.216  1.00  0.00     0.200 A 
ATOM     78  F   UNL A   1      44.883  26.720  31.437  1.00  0.00    -0.200 F 
ATOM     79  F   UNL A   1      44.829  24.389  32.842  1.00  0.00    -0.200 F 
ENDBRANCH  45  69
BRANCH  57  80
ATOM     80  C   UNL A   1      40.592  34.215  36.388  1.00  0.00     0.064 A 
ATOM     81  C   UNL A   1      41.432  35.194  35.833  1.00  0.00     0.173 A 
ATOM     82  C   UNL A   1      40.314  34.329  37.763  1.00  0.00     0.173 A 
ATOM     83  F   UNL A   1      41.791  35.142  34.541  1.00  0.00    -0.203 F 
ATOM     84  C   UNL A   1      41.961  36.224  36.607  1.00  0.00     0.198 A 
ATOM     85  C   UNL A   1      40.885  35.329  38.545  1.00  0.00     0.198 A 
ATOM     86  F   UNL A   1      39.483  33.473  38.376  1.00  0.00    -0.203 F 
ATOM     87  F   UNL A   1      42.742  37.151  36.035  1.00  0.00    -0.200 F 
ATOM     88  C   UNL A   1      41.707  36.278  37.965  1.00  0.00     0.200 A 
ATOM     89  F   UNL A   1      40.646  35.360  39.863  1.00  0.00    -0.200 F 
ATOM     90  F   UNL A   1      42.259  37.239  38.718  1.00  0.00    -0.200 F 
ENDBRANCH  57  80
ENDBRANCH  31  32
ENDBRANCH  24  26
ENDBRANCH  23  24
ENDBRANCH  22  23
ENDBRANCH   1  22
TORSDOF 16
ENDMDL
