MODEL 1
REMARK VINA RESULT:     -13.4      0.000      0.000
REMARK SMILES CCc1ccc(-c2cc(Cl)cc3c2O[C@H](C(F)(F)F)C(C(=O)OCCOC(=O)c2ccc(-c4c5nc(c(-c6c(F)c(F)c(F)c(F)c6F)c6ccc([nH]6)c(-c6c(F)c(F)c(F)c(F)c6F)c6nc(c(-c7c(F)c(F)c(F)c(F)c7F)c7ccc4[nH]7)C=C6)C=C5)cc2)=C3)cc1
REMARK SMILES IDX 24 1 23 2 21 3 22 4 20 5 7 6 8 7 13 8 9 9 12 10 14 11 10 12
REMARK SMILES IDX 11 13 92 14 15 15 6 16 3 17 4 18 94 19 5 20 93 21 2 22 1 23
REMARK SMILES IDX 16 24 17 25 18 26 19 27 25 28 26 29 27 30 28 31 29 32 30 33
REMARK SMILES IDX 91 34 31 35 90 36 32 37 33 38 34 39 84 40 35 41 89 42 83 43
REMARK SMILES IDX 85 44 36 45 88 46 82 47 81 48 37 50 69 51 49 52 68 53 50 54
REMARK SMILES IDX 53 55 67 56 86 57 51 58 52 59 66 61 87 62 54 63 38 64 39 65
REMARK SMILES IDX 47 66 40 67 41 68 45 69 48 70 42 71 43 72 46 73 44 74 70 75
REMARK SMILES IDX 71 76 79 77 72 78 73 79 77 80 80 81 74 82 75 83 78 84 76 85
REMARK SMILES IDX 55 86 56 87 64 88 57 89 58 90 62 91 65 92 59 93 60 94 63 95
REMARK SMILES IDX 61 96
REMARK H PARENT 85 49 53 60
REMARK Flexibility Score: inf
ROOT
ATOM      1  C   UNL A   1      31.112  29.091  24.528  1.00  0.00     0.275 C 
ENDROOT
BRANCH   1   2
ATOM      2  O   UNL A   1      30.828  27.902  25.313  1.00  0.00    -0.459 OA
BRANCH   2   3
ATOM      3  C   UNL A   1      30.646  26.804  24.532  1.00  0.00     0.338 C 
ATOM      4  O   UNL A   1      29.556  26.445  24.098  1.00  0.00    -0.246 OA
BRANCH   3   5
ATOM      5  C   UNL A   1      31.896  26.094  24.157  1.00  0.00     0.087 C 
ATOM      6  C   UNL A   1      32.253  22.058  24.553  1.00  0.00     0.026 A 
ATOM      7  C   UNL A   1      31.248  21.845  25.532  1.00  0.00     0.033 A 
ATOM      8  C   UNL A   1      32.558  23.414  24.360  1.00  0.00     0.135 A 
ATOM      9  C   UNL A   1      30.748  22.858  26.362  1.00  0.00     0.042 A 
ATOM     10  C   UNL A   1      32.279  24.345  25.396  1.00  0.00     0.019 A 
ATOM     11  O   UNL A   1      32.876  23.988  23.129  1.00  0.00    -0.475 OA
ATOM     12  Cl  UNL A   1      29.319  22.748  27.303  1.00  0.00    -0.084 Cl
ATOM     13  C   UNL A   1      31.373  24.072  26.398  1.00  0.00     0.032 A 
ATOM     14  C   UNL A   1      32.651  25.760  25.217  1.00  0.00     0.027 C 
ATOM     15  C   UNL A   1      32.124  25.290  22.891  1.00  0.00     0.316 C 
BRANCH   6  16
ATOM     16  C   UNL A   1      32.891  20.797  24.014  1.00  0.00    -0.015 A 
ATOM     17  C   UNL A   1      33.588  17.969  23.952  1.00  0.00    -0.048 A 
ATOM     18  C   UNL A   1      32.527  18.495  23.201  1.00  0.00     0.004 A 
ATOM     19  C   UNL A   1      34.385  18.895  24.624  1.00  0.00     0.004 A 
ATOM     20  C   UNL A   1      32.221  19.881  23.193  1.00  0.00     0.009 A 
ATOM     21  C   UNL A   1      34.032  20.273  24.666  1.00  0.00     0.009 A 
BRANCH  17  22
ATOM     22  C   UNL A   1      33.811  16.463  23.942  1.00  0.00     0.032 C 
ATOM     23  C   UNL A   1      33.426  15.637  25.170  1.00  0.00     0.009 C 
ENDBRANCH  17  22
ENDBRANCH   6  16
BRANCH  15  24
ATOM     24  C   UNL A   1      32.917  26.229  21.972  1.00  0.00     0.430 C 
ATOM     25  F   UNL A   1      34.214  26.326  22.356  1.00  0.00    -0.167 F 
ATOM     26  F   UNL A   1      32.896  25.830  20.684  1.00  0.00    -0.167 F 
ATOM     27  F   UNL A   1      32.404  27.488  22.006  1.00  0.00    -0.167 F 
ENDBRANCH  15  24
ENDBRANCH   3   5
ENDBRANCH   2   3
ENDBRANCH   1   2
BRANCH   1  28
ATOM     28  C   UNL A   1      32.493  29.697  24.805  1.00  0.00     0.275 C 
BRANCH  28  29
ATOM     29  O   UNL A   1      32.839  29.594  26.199  1.00  0.00    -0.458 OA
BRANCH  29  30
ATOM     30  C   UNL A   1      33.039  30.792  26.805  1.00  0.00     0.338 C 
ATOM     31  O   UNL A   1      32.237  31.703  26.875  1.00  0.00    -0.246 OA
BRANCH  30  32
ATOM     32  C   UNL A   1      34.331  30.810  27.540  1.00  0.00     0.060 A 
ATOM     33  C   UNL A   1      34.742  29.594  28.072  1.00  0.00     0.016 A 
ATOM     34  C   UNL A   1      35.143  31.936  27.730  1.00  0.00     0.016 A 
ATOM     35  C   UNL A   1      35.970  29.507  28.726  1.00  0.00     0.010 A 
ATOM     36  C   UNL A   1      36.397  31.826  28.390  1.00  0.00     0.010 A 
ATOM     37  C   UNL A   1      36.853  30.592  28.867  1.00  0.00    -0.014 A 
BRANCH  37  38
ATOM     38  C   UNL A   1      38.191  30.318  29.520  1.00  0.00     0.031 A 
ATOM     39  C   UNL A   1      38.421  30.752  30.939  1.00  0.00     0.074 A 
ATOM     40  C   UNL A   1      39.122  29.490  28.986  1.00  0.00     0.049 A 
ATOM     41  N   UNL A   1      39.429  30.478  31.730  1.00  0.00    -0.248 NA
ATOM     42  C   UNL A   1      37.386  31.599  31.550  1.00  0.00     0.031 C 
ATOM     43  C   UNL A   1      39.050  28.930  27.654  1.00  0.00     0.029 A 
ATOM     44  N   UNL A   1      40.250  28.884  29.508  1.00  0.00    -0.354 N 
ATOM     45  C   UNL A   1      39.150  31.114  32.925  1.00  0.00     0.074 A 
ATOM     46  C   UNL A   1      37.866  31.764  32.773  1.00  0.00     0.031 C 
ATOM     47  C   UNL A   1      39.920  27.918  27.525  1.00  0.00     0.029 A 
ATOM     48  C   UNL A   1      40.797  27.911  28.689  1.00  0.00     0.049 A 
ATOM     49  H   UNL A   1      40.632  29.125  30.383  1.00  0.00     0.167 HD
ATOM     50  C   UNL A   1      39.913  31.184  34.040  1.00  0.00     0.037 A 
ATOM     51  C   UNL A   1      41.909  27.149  28.806  1.00  0.00     0.037 A 
ATOM     52  C   UNL A   1      41.222  30.611  34.189  1.00  0.00     0.049 A 
ATOM     53  C   UNL A   1      42.830  27.412  29.970  1.00  0.00     0.074 A 
ATOM     54  C   UNL A   1      42.078  30.705  35.271  1.00  0.00     0.029 A 
ATOM     55  N   UNL A   1      41.878  29.861  33.226  1.00  0.00    -0.354 N 
ATOM     56  N   UNL A   1      42.613  28.123  31.047  1.00  0.00    -0.248 NA
ATOM     57  C   UNL A   1      44.183  26.834  29.901  1.00  0.00     0.031 C 
ATOM     58  C   UNL A   1      43.271  30.053  34.947  1.00  0.00     0.029 A 
ATOM     59  C   UNL A   1      43.136  29.500  33.686  1.00  0.00     0.049 A 
ATOM     60  H   UNL A   1      41.506  29.621  32.347  1.00  0.00     0.167 HD
ATOM     61  C   UNL A   1      43.795  28.088  31.773  1.00  0.00     0.074 A 
ATOM     62  C   UNL A   1      44.719  27.253  31.039  1.00  0.00     0.031 C 
ATOM     63  C   UNL A   1      44.081  28.706  32.944  1.00  0.00     0.037 A 
BRANCH  50  64
ATOM     64  C   UNL A   1      39.364  32.000  35.166  1.00  0.00     0.064 A 
ATOM     65  C   UNL A   1      39.626  33.372  35.271  1.00  0.00     0.173 A 
ATOM     66  C   UNL A   1      38.579  31.391  36.155  1.00  0.00     0.173 A 
ATOM     67  F   UNL A   1      40.399  33.983  34.361  1.00  0.00    -0.203 F 
ATOM     68  C   UNL A   1      39.134  34.106  36.344  1.00  0.00     0.198 A 
ATOM     69  C   UNL A   1      38.070  32.133  37.214  1.00  0.00     0.198 A 
ATOM     70  F   UNL A   1      38.315  30.078  36.096  1.00  0.00    -0.203 F 
ATOM     71  F   UNL A   1      39.434  35.407  36.458  1.00  0.00    -0.200 F 
ATOM     72  C   UNL A   1      38.353  33.487  37.311  1.00  0.00     0.200 A 
ATOM     73  F   UNL A   1      37.315  31.535  38.146  1.00  0.00    -0.200 F 
ATOM     74  F   UNL A   1      37.884  34.196  38.348  1.00  0.00    -0.200 F 
ENDBRANCH  50  64
BRANCH  51  75
ATOM     75  C   UNL A   1      42.325  26.175  27.742  1.00  0.00     0.064 A 
ATOM     76  C   UNL A   1      43.190  26.553  26.699  1.00  0.00     0.173 A 
ATOM     77  C   UNL A   1      41.794  24.875  27.683  1.00  0.00     0.173 A 
ATOM     78  F   UNL A   1      43.689  27.797  26.659  1.00  0.00    -0.203 F 
ATOM     79  C   UNL A   1      43.494  25.679  25.651  1.00  0.00     0.198 A 
ATOM     80  C   UNL A   1      42.143  23.986  26.667  1.00  0.00     0.198 A 
ATOM     81  F   UNL A   1      40.919  24.460  28.610  1.00  0.00    -0.203 F 
ATOM     82  F   UNL A   1      44.257  26.097  24.632  1.00  0.00    -0.200 F 
ATOM     83  C   UNL A   1      42.981  24.391  25.643  1.00  0.00     0.200 A 
ATOM     84  F   UNL A   1      41.647  22.741  26.673  1.00  0.00    -0.200 F 
ATOM     85  F   UNL A   1      43.273  23.553  24.640  1.00  0.00    -0.200 F 
ENDBRANCH  51  75
BRANCH  63  86
ATOM     86  C   UNL A   1      45.457  28.518  33.512  1.00  0.00     0.064 A 
ATOM     87  C   UNL A   1      46.490  29.433  33.255  1.00  0.00     0.173 A 
ATOM     88  C   UNL A   1      45.734  27.441  34.367  1.00  0.00     0.173 A 
ATOM     89  F   UNL A   1      46.285  30.467  32.425  1.00  0.00    -0.203 F 
ATOM     90  C   UNL A   1      47.749  29.271  33.827  1.00  0.00     0.198 A 
ATOM     91  C   UNL A   1      46.984  27.299  34.961  1.00  0.00     0.198 A 
ATOM     92  F   UNL A   1      44.782  26.535  34.641  1.00  0.00    -0.203 F 
ATOM     93  F   UNL A   1      48.731  30.136  33.539  1.00  0.00    -0.200 F 
ATOM     94  C   UNL A   1      47.991  28.211  34.690  1.00  0.00     0.200 A 
ATOM     95  F   UNL A   1      47.212  26.281  35.804  1.00  0.00    -0.200 F 
ATOM     96  F   UNL A   1      49.198  28.067  35.254  1.00  0.00    -0.200 F 
ENDBRANCH  63  86
ENDBRANCH  37  38
ENDBRANCH  30  32
ENDBRANCH  29  30
ENDBRANCH  28  29
ENDBRANCH   1  28
TORSDOF 14
ENDMDL
MODEL 2
REMARK VINA RESULT:     -13.3      0.284      1.955
REMARK SMILES CCc1ccc(-c2cc(Cl)cc3c2O[C@H](C(F)(F)F)C(C(=O)OCCOC(=O)c2ccc(-c4c5nc(c(-c6c(F)c(F)c(F)c(F)c6F)c6ccc([nH]6)c(-c6c(F)c(F)c(F)c(F)c6F)c6nc(c(-c7c(F)c(F)c(F)c(F)c7F)c7ccc4[nH]7)C=C6)C=C5)cc2)=C3)cc1
REMARK SMILES IDX 24 1 23 2 21 3 22 4 20 5 7 6 8 7 13 8 9 9 12 10 14 11 10 12
REMARK SMILES IDX 11 13 92 14 15 15 6 16 3 17 4 18 94 19 5 20 93 21 2 22 1 23
REMARK SMILES IDX 16 24 17 25 18 26 19 27 25 28 26 29 27 30 28 31 29 32 30 33
REMARK SMILES IDX 91 34 31 35 90 36 32 37 33 38 34 39 84 40 35 41 89 42 83 43
REMARK SMILES IDX 85 44 36 45 88 46 82 47 81 48 37 50 69 51 49 52 68 53 50 54
REMARK SMILES IDX 53 55 67 56 86 57 51 58 52 59 66 61 87 62 54 63 38 64 39 65
REMARK SMILES IDX 47 66 40 67 41 68 45 69 48 70 42 71 43 72 46 73 44 74 70 75
REMARK SMILES IDX 71 76 79 77 72 78 73 79 77 80 80 81 74 82 75 83 78 84 76 85
REMARK SMILES IDX 55 86 56 87 64 88 57 89 58 90 62 91 65 92 59 93 60 94 63 95
REMARK SMILES IDX 61 96
REMARK H PARENT 85 49 53 60
REMARK Flexibility Score: inf
ROOT
ATOM      1  C   UNL A   1      31.634  28.911  24.224  1.00  0.00     0.275 C 
ENDROOT
BRANCH   1   2
ATOM      2  O   UNL A   1      30.977  27.963  25.106  1.00  0.00    -0.459 OA
BRANCH   2   3
ATOM      3  C   UNL A   1      30.749  26.769  24.497  1.00  0.00     0.338 C 
ATOM      4  O   UNL A   1      29.632  26.339  24.231  1.00  0.00    -0.246 OA
BRANCH   3   5
ATOM      5  C   UNL A   1      31.975  26.037  24.086  1.00  0.00     0.087 C 
ATOM      6  C   UNL A   1      32.304  22.006  24.552  1.00  0.00     0.026 A 
ATOM      7  C   UNL A   1      31.338  21.825  25.576  1.00  0.00     0.033 A 
ATOM      8  C   UNL A   1      32.616  23.355  24.319  1.00  0.00     0.135 A 
ATOM      9  C   UNL A   1      30.883  22.861  26.404  1.00  0.00     0.042 A 
ATOM     10  C   UNL A   1      32.389  24.310  25.345  1.00  0.00     0.019 A 
ATOM     11  O   UNL A   1      32.889  23.899  23.063  1.00  0.00    -0.475 OA
ATOM     12  Cl  UNL A   1      29.494  22.787  27.405  1.00  0.00    -0.084 Cl
ATOM     13  C   UNL A   1      31.523  24.068  26.389  1.00  0.00     0.032 A 
ATOM     14  C   UNL A   1      32.769  25.716  25.121  1.00  0.00     0.027 C 
ATOM     15  C   UNL A   1      32.141  25.205  22.829  1.00  0.00     0.316 C 
BRANCH   6  16
ATOM     16  C   UNL A   1      32.905  20.727  24.014  1.00  0.00    -0.015 A 
ATOM     17  C   UNL A   1      33.485  17.873  23.930  1.00  0.00    -0.048 A 
ATOM     18  C   UNL A   1      32.471  18.455  23.154  1.00  0.00     0.004 A 
ATOM     19  C   UNL A   1      34.297  18.755  24.642  1.00  0.00     0.004 A 
ATOM     20  C   UNL A   1      32.224  19.852  23.158  1.00  0.00     0.009 A 
ATOM     21  C   UNL A   1      34.001  20.146  24.694  1.00  0.00     0.009 A 
BRANCH  17  22
ATOM     22  C   UNL A   1      33.644  16.359  23.903  1.00  0.00     0.032 C 
ATOM     23  C   UNL A   1      33.072  15.522  25.048  1.00  0.00     0.009 C 
ENDBRANCH  17  22
ENDBRANCH   6  16
BRANCH  15  24
ATOM     24  C   UNL A   1      32.906  26.115  21.859  1.00  0.00     0.430 C 
ATOM     25  F   UNL A   1      32.967  25.581  20.614  1.00  0.00    -0.167 F 
ATOM     26  F   UNL A   1      32.353  27.341  21.756  1.00  0.00    -0.167 F 
ATOM     27  F   UNL A   1      34.190  26.293  22.271  1.00  0.00    -0.167 F 
ENDBRANCH  15  24
ENDBRANCH   3   5
ENDBRANCH   2   3
ENDBRANCH   1   2
BRANCH   1  28
ATOM     28  C   UNL A   1      32.911  29.521  24.815  1.00  0.00     0.275 C 
BRANCH  28  29
ATOM     29  O   UNL A   1      32.882  29.500  26.255  1.00  0.00    -0.458 OA
BRANCH  29  30
ATOM     30  C   UNL A   1      33.071  30.717  26.826  1.00  0.00     0.338 C 
ATOM     31  O   UNL A   1      32.257  31.618  26.879  1.00  0.00    -0.246 OA
BRANCH  30  32
ATOM     32  C   UNL A   1      34.371  30.773  27.546  1.00  0.00     0.060 A 
ATOM     33  C   UNL A   1      34.820  29.571  28.079  1.00  0.00     0.016 A 
ATOM     34  C   UNL A   1      35.154  31.922  27.721  1.00  0.00     0.016 A 
ATOM     35  C   UNL A   1      36.058  29.520  28.720  1.00  0.00     0.010 A 
ATOM     36  C   UNL A   1      36.418  31.848  28.367  1.00  0.00     0.010 A 
ATOM     37  C   UNL A   1      36.912  30.629  28.845  1.00  0.00    -0.014 A 
BRANCH  37  38
ATOM     38  C   UNL A   1      38.265  30.394  29.484  1.00  0.00     0.031 A 
ATOM     39  C   UNL A   1      38.496  30.835  30.901  1.00  0.00     0.074 A 
ATOM     40  C   UNL A   1      39.214  29.594  28.941  1.00  0.00     0.049 A 
ATOM     41  N   UNL A   1      39.519  30.591  31.682  1.00  0.00    -0.248 NA
ATOM     42  C   UNL A   1      37.443  31.651  31.523  1.00  0.00     0.031 C 
ATOM     43  C   UNL A   1      39.144  29.032  27.610  1.00  0.00     0.029 A 
ATOM     44  N   UNL A   1      40.364  29.021  29.451  1.00  0.00    -0.354 N 
ATOM     45  C   UNL A   1      39.235  31.218  32.880  1.00  0.00     0.074 A 
ATOM     46  C   UNL A   1      37.930  31.830  32.741  1.00  0.00     0.031 C 
ATOM     47  C   UNL A   1      40.042  28.046  27.471  1.00  0.00     0.029 A 
ATOM     48  C   UNL A   1      40.931  28.064  28.626  1.00  0.00     0.049 A 
ATOM     49  H   UNL A   1      40.747  29.273  30.322  1.00  0.00     0.167 HD
ATOM     50  C   UNL A   1      40.006  31.311  33.986  1.00  0.00     0.037 A 
ATOM     51  C   UNL A   1      42.066  27.336  28.731  1.00  0.00     0.037 A 
ATOM     52  C   UNL A   1      41.333  30.776  34.122  1.00  0.00     0.049 A 
ATOM     53  C   UNL A   1      42.990  27.625  29.886  1.00  0.00     0.074 A 
ATOM     54  C   UNL A   1      42.198  30.895  35.195  1.00  0.00     0.029 A 
ATOM     55  N   UNL A   1      42.001  30.046  33.152  1.00  0.00    -0.354 N 
ATOM     56  N   UNL A   1      42.764  28.330  30.965  1.00  0.00    -0.248 NA
ATOM     57  C   UNL A   1      44.359  27.087  29.802  1.00  0.00     0.031 C 
ATOM     58  C   UNL A   1      43.406  30.278  34.859  1.00  0.00     0.029 A 
ATOM     59  C   UNL A   1      43.274  29.721  33.599  1.00  0.00     0.049 A 
ATOM     60  H   UNL A   1      41.628  29.794  32.277  1.00  0.00     0.167 HD
ATOM     61  C   UNL A   1      43.954  28.329  31.679  1.00  0.00     0.074 A 
ATOM     62  C   UNL A   1      44.895  27.521  30.934  1.00  0.00     0.031 C 
ATOM     63  C   UNL A   1      44.234  28.955  32.846  1.00  0.00     0.037 A 
BRANCH  50  64
ATOM     64  C   UNL A   1      39.446  32.110  35.118  1.00  0.00     0.064 A 
ATOM     65  C   UNL A   1      38.694  31.509  36.136  1.00  0.00     0.173 A 
ATOM     66  C   UNL A   1      39.657  33.495  35.171  1.00  0.00     0.173 A 
ATOM     67  F   UNL A   1      38.445  30.192  36.103  1.00  0.00    -0.203 F 
ATOM     68  C   UNL A   1      38.153  32.276  37.162  1.00  0.00     0.198 A 
ATOM     69  C   UNL A   1      39.134  34.254  36.211  1.00  0.00     0.198 A 
ATOM     70  F   UNL A   1      40.363  34.108  34.209  1.00  0.00    -0.203 F 
ATOM     71  F   UNL A   1      37.394  31.695  38.102  1.00  0.00    -0.200 F 
ATOM     72  C   UNL A   1      38.377  33.645  37.201  1.00  0.00     0.200 A 
ATOM     73  F   UNL A   1      39.353  35.575  36.248  1.00  0.00    -0.200 F 
ATOM     74  F   UNL A   1      37.851  34.383  38.189  1.00  0.00    -0.200 F 
ENDBRANCH  50  64
BRANCH  51  75
ATOM     75  C   UNL A   1      42.499  26.374  27.662  1.00  0.00     0.064 A 
ATOM     76  C   UNL A   1      42.076  25.032  27.668  1.00  0.00     0.173 A 
ATOM     77  C   UNL A   1      43.419  26.742  26.667  1.00  0.00     0.173 A 
ATOM     78  F   UNL A   1      41.243  24.595  28.624  1.00  0.00    -0.203 F 
ATOM     79  C   UNL A   1      42.562  24.111  26.735  1.00  0.00     0.198 A 
ATOM     80  C   UNL A   1      43.859  25.835  25.703  1.00  0.00     0.198 A 
ATOM     81  F   UNL A   1      43.910  27.989  26.629  1.00  0.00    -0.203 F 
ATOM     82  F   UNL A   1      42.202  22.822  26.818  1.00  0.00    -0.200 F 
ATOM     83  C   UNL A   1      43.442  24.516  25.745  1.00  0.00     0.200 A 
ATOM     84  F   UNL A   1      44.705  26.241  24.745  1.00  0.00    -0.200 F 
ATOM     85  F   UNL A   1      43.907  23.635  24.850  1.00  0.00    -0.200 F 
ENDBRANCH  51  75
BRANCH  63  86
ATOM     86  C   UNL A   1      45.621  28.808  33.401  1.00  0.00     0.064 A 
ATOM     87  C   UNL A   1      45.973  27.726  34.222  1.00  0.00     0.173 A 
ATOM     88  C   UNL A   1      46.623  29.729  33.066  1.00  0.00     0.173 A 
ATOM     89  F   UNL A   1      45.046  26.830  34.593  1.00  0.00    -0.203 F 
ATOM     90  C   UNL A   1      47.275  27.577  34.692  1.00  0.00     0.198 A 
ATOM     91  C   UNL A   1      47.931  29.561  33.511  1.00  0.00     0.198 A 
ATOM     92  F   UNL A   1      46.338  30.784  32.287  1.00  0.00    -0.203 F 
ATOM     93  F   UNL A   1      47.581  26.556  35.504  1.00  0.00    -0.200 F 
ATOM     94  C   UNL A   1      48.256  28.488  34.325  1.00  0.00     0.200 A 
ATOM     95  F   UNL A   1      48.879  30.436  33.146  1.00  0.00    -0.200 F 
ATOM     96  F   UNL A   1      49.513  28.333  34.763  1.00  0.00    -0.200 F 
ENDBRANCH  63  86
ENDBRANCH  37  38
ENDBRANCH  30  32
ENDBRANCH  29  30
ENDBRANCH  28  29
ENDBRANCH   1  28
TORSDOF 14
ENDMDL
MODEL 3
REMARK VINA RESULT:     -13.2      2.608      7.814
REMARK SMILES CCc1ccc(-c2cc(Cl)cc3c2O[C@H](C(F)(F)F)C(C(=O)OCCOC(=O)c2ccc(-c4c5nc(c(-c6c(F)c(F)c(F)c(F)c6F)c6ccc([nH]6)c(-c6c(F)c(F)c(F)c(F)c6F)c6nc(c(-c7c(F)c(F)c(F)c(F)c7F)c7ccc4[nH]7)C=C6)C=C5)cc2)=C3)cc1
REMARK SMILES IDX 24 1 23 2 21 3 22 4 20 5 7 6 8 7 13 8 9 9 12 10 14 11 10 12
REMARK SMILES IDX 11 13 92 14 15 15 6 16 3 17 4 18 94 19 5 20 93 21 2 22 1 23
REMARK SMILES IDX 16 24 17 25 18 26 19 27 25 28 26 29 27 30 28 31 29 32 30 33
REMARK SMILES IDX 91 34 31 35 90 36 32 37 33 38 34 39 84 40 35 41 89 42 83 43
REMARK SMILES IDX 85 44 36 45 88 46 82 47 81 48 37 50 69 51 49 52 68 53 50 54
REMARK SMILES IDX 53 55 67 56 86 57 51 58 52 59 66 61 87 62 54 63 38 64 39 65
REMARK SMILES IDX 47 66 40 67 41 68 45 69 48 70 42 71 43 72 46 73 44 74 70 75
REMARK SMILES IDX 71 76 79 77 72 78 73 79 77 80 80 81 74 82 75 83 78 84 76 85
REMARK SMILES IDX 55 86 56 87 64 88 57 89 58 90 62 91 65 92 59 93 60 94 63 95
REMARK SMILES IDX 61 96
REMARK H PARENT 85 49 53 60
REMARK Flexibility Score: inf
ROOT
ATOM      1  C   UNL A   1      31.630  32.678  26.588  1.00  0.00     0.275 C 
ENDROOT
BRANCH   1   2
ATOM      2  O   UNL A   1      31.405  31.356  27.144  1.00  0.00    -0.459 OA
BRANCH   2   3
ATOM      3  C   UNL A   1      31.810  30.369  26.301  1.00  0.00     0.338 C 
ATOM      4  O   UNL A   1      31.528  30.330  25.108  1.00  0.00    -0.246 OA
BRANCH   3   5
ATOM      5  C   UNL A   1      32.711  29.359  26.914  1.00  0.00     0.087 C 
ATOM      6  C   UNL A   1      33.196  25.665  25.272  1.00  0.00     0.026 A 
ATOM      7  C   UNL A   1      31.988  25.596  24.530  1.00  0.00     0.033 A 
ATOM      8  C   UNL A   1      33.233  26.745  26.168  1.00  0.00     0.135 A 
ATOM      9  C   UNL A   1      30.869  26.398  24.795  1.00  0.00     0.042 A 
ATOM     10  C   UNL A   1      32.014  27.317  26.620  1.00  0.00     0.019 A 
ATOM     11  O   UNL A   1      34.374  27.493  26.461  1.00  0.00    -0.475 OA
ATOM     12  Cl  UNL A   1      29.533  26.607  23.742  1.00  0.00    -0.084 Cl
ATOM     13  C   UNL A   1      30.830  27.147  25.937  1.00  0.00     0.032 A 
ATOM     14  C   UNL A   1      32.052  28.414  27.604  1.00  0.00     0.027 C 
ATOM     15  C   UNL A   1      34.101  28.991  26.433  1.00  0.00     0.316 C 
BRANCH   6  16
ATOM     16  C   UNL A   1      34.138  24.502  25.060  1.00  0.00    -0.015 A 
ATOM     17  C   UNL A   1      34.967  21.709  24.993  1.00  0.00    -0.048 A 
ATOM     18  C   UNL A   1      34.566  22.399  23.840  1.00  0.00     0.004 A 
ATOM     19  C   UNL A   1      35.084  22.470  26.156  1.00  0.00     0.004 A 
ATOM     20  C   UNL A   1      34.212  23.773  23.866  1.00  0.00     0.009 A 
ATOM     21  C   UNL A   1      34.662  23.829  26.189  1.00  0.00     0.009 A 
BRANCH  17  22
ATOM     22  C   UNL A   1      35.278  20.223  24.882  1.00  0.00     0.032 C 
ATOM     23  C   UNL A   1      34.139  19.230  24.646  1.00  0.00     0.009 C 
ENDBRANCH  17  22
ENDBRANCH   6  16
BRANCH  15  24
ATOM     24  C   UNL A   1      35.051  29.745  27.374  1.00  0.00     0.430 C 
ATOM     25  F   UNL A   1      35.335  29.019  28.483  1.00  0.00    -0.167 F 
ATOM     26  F   UNL A   1      36.218  30.067  26.780  1.00  0.00    -0.167 F 
ATOM     27  F   UNL A   1      34.488  30.907  27.800  1.00  0.00    -0.167 F 
ENDBRANCH  15  24
ENDBRANCH   3   5
ENDBRANCH   2   3
ENDBRANCH   1   2
BRANCH   1  28
ATOM     28  C   UNL A   1      32.729  33.471  27.306  1.00  0.00     0.275 C 
BRANCH  28  29
ATOM     29  O   UNL A   1      32.173  34.349  28.304  1.00  0.00    -0.458 OA
BRANCH  29  30
ATOM     30  C   UNL A   1      33.023  35.325  28.711  1.00  0.00     0.338 C 
ATOM     31  O   UNL A   1      32.799  36.521  28.706  1.00  0.00    -0.246 OA
BRANCH  30  32
ATOM     32  C   UNL A   1      34.241  34.745  29.337  1.00  0.00     0.060 A 
ATOM     33  C   UNL A   1      34.086  34.267  30.632  1.00  0.00     0.016 A 
ATOM     34  C   UNL A   1      35.500  34.650  28.730  1.00  0.00     0.016 A 
ATOM     35  C   UNL A   1      35.161  33.653  31.274  1.00  0.00     0.010 A 
ATOM     36  C   UNL A   1      36.581  34.012  29.395  1.00  0.00     0.010 A 
ATOM     37  C   UNL A   1      36.417  33.463  30.672  1.00  0.00    -0.014 A 
BRANCH  37  38
ATOM     38  C   UNL A   1      37.457  32.695  31.463  1.00  0.00     0.031 A 
ATOM     39  C   UNL A   1      38.173  31.545  30.815  1.00  0.00     0.074 A 
ATOM     40  C   UNL A   1      37.959  33.128  32.644  1.00  0.00     0.049 A 
ATOM     41  N   UNL A   1      39.199  30.862  31.257  1.00  0.00    -0.248 NA
ATOM     42  C   UNL A   1      37.676  31.108  29.502  1.00  0.00     0.031 C 
ATOM     43  C   UNL A   1      37.435  34.250  33.393  1.00  0.00     0.029 A 
ATOM     44  N   UNL A   1      39.071  32.765  33.381  1.00  0.00    -0.354 N 
ATOM     45  C   UNL A   1      39.471  29.920  30.282  1.00  0.00     0.074 A 
ATOM     46  C   UNL A   1      38.524  30.135  29.208  1.00  0.00     0.031 C 
ATOM     47  C   UNL A   1      38.312  34.635  34.332  1.00  0.00     0.029 A 
ATOM     48  C   UNL A   1      39.363  33.630  34.423  1.00  0.00     0.049 A 
ATOM     49  H   UNL A   1      39.607  31.963  33.184  1.00  0.00     0.167 HD
ATOM     50  C   UNL A   1      40.400  28.939  30.294  1.00  0.00     0.037 A 
ATOM     51  C   UNL A   1      40.308  33.595  35.391  1.00  0.00     0.037 A 
ATOM     52  C   UNL A   1      41.300  28.660  31.379  1.00  0.00     0.049 A 
ATOM     53  C   UNL A   1      41.189  32.375  35.478  1.00  0.00     0.074 A 
ATOM     54  C   UNL A   1      42.222  27.633  31.483  1.00  0.00     0.029 A 
ATOM     55  N   UNL A   1      41.379  29.386  32.556  1.00  0.00    -0.354 N 
ATOM     56  N   UNL A   1      41.350  31.411  34.608  1.00  0.00    -0.248 NA
ATOM     57  C   UNL A   1      41.961  32.191  36.719  1.00  0.00     0.031 C 
ATOM     58  C   UNL A   1      42.826  27.709  32.741  1.00  0.00     0.029 A 
ATOM     59  C   UNL A   1      42.325  28.819  33.399  1.00  0.00     0.049 A 
ATOM     60  H   UNL A   1      40.844  30.186  32.764  1.00  0.00     0.167 HD
ATOM     61  C   UNL A   1      42.226  30.509  35.193  1.00  0.00     0.074 A 
ATOM     62  C   UNL A   1      42.598  31.053  36.480  1.00  0.00     0.031 C 
ATOM     63  C   UNL A   1      42.670  29.328  34.700  1.00  0.00     0.037 A 
BRANCH  50  64
ATOM     64  C   UNL A   1      40.418  28.031  29.108  1.00  0.00     0.064 A 
ATOM     65  C   UNL A   1      41.174  28.332  27.967  1.00  0.00     0.173 A 
ATOM     66  C   UNL A   1      39.657  26.853  29.113  1.00  0.00     0.173 A 
ATOM     67  F   UNL A   1      41.891  29.464  27.912  1.00  0.00    -0.203 F 
ATOM     68  C   UNL A   1      41.151  27.490  26.861  1.00  0.00     0.198 A 
ATOM     69  C   UNL A   1      39.655  26.004  28.014  1.00  0.00     0.198 A 
ATOM     70  F   UNL A   1      38.911  26.536  30.182  1.00  0.00    -0.203 F 
ATOM     71  F   UNL A   1      41.841  27.816  25.758  1.00  0.00    -0.200 F 
ATOM     72  C   UNL A   1      40.396  26.326  26.887  1.00  0.00     0.200 A 
ATOM     73  F   UNL A   1      38.927  24.879  28.041  1.00  0.00    -0.200 F 
ATOM     74  F   UNL A   1      40.371  25.518  25.817  1.00  0.00    -0.200 F 
ENDBRANCH  50  64
BRANCH  51  75
ATOM     75  C   UNL A   1      40.397  34.647  36.458  1.00  0.00     0.064 A 
ATOM     76  C   UNL A   1      41.409  35.624  36.442  1.00  0.00     0.173 A 
ATOM     77  C   UNL A   1      39.537  34.647  37.569  1.00  0.00     0.173 A 
ATOM     78  F   UNL A   1      42.302  35.648  35.442  1.00  0.00    -0.203 F 
ATOM     79  C   UNL A   1      41.557  36.538  37.490  1.00  0.00     0.198 A 
ATOM     80  C   UNL A   1      39.650  35.595  38.585  1.00  0.00     0.198 A 
ATOM     81  F   UNL A   1      38.581  33.713  37.682  1.00  0.00    -0.203 F 
ATOM     82  F   UNL A   1      42.580  37.403  37.483  1.00  0.00    -0.200 F 
ATOM     83  C   UNL A   1      40.668  36.532  38.553  1.00  0.00     0.200 A 
ATOM     84  F   UNL A   1      38.781  35.584  39.605  1.00  0.00    -0.200 F 
ATOM     85  F   UNL A   1      40.808  37.409  39.557  1.00  0.00    -0.200 F 
ENDBRANCH  51  75
BRANCH  63  86
ATOM     86  C   UNL A   1      43.607  28.525  35.555  1.00  0.00     0.064 A 
ATOM     87  C   UNL A   1      44.998  28.695  35.481  1.00  0.00     0.173 A 
ATOM     88  C   UNL A   1      43.108  27.612  36.495  1.00  0.00     0.173 A 
ATOM     89  F   UNL A   1      45.528  29.537  34.582  1.00  0.00    -0.203 F 
ATOM     90  C   UNL A   1      45.853  27.976  36.313  1.00  0.00     0.198 A 
ATOM     91  C   UNL A   1      43.962  26.918  37.346  1.00  0.00     0.198 A 
ATOM     92  F   UNL A   1      41.785  27.409  36.603  1.00  0.00    -0.203 F 
ATOM     93  F   UNL A   1      47.179  28.128  36.200  1.00  0.00    -0.200 F 
ATOM     94  C   UNL A   1      45.333  27.098  37.253  1.00  0.00     0.200 A 
ATOM     95  F   UNL A   1      43.457  26.079  38.262  1.00  0.00    -0.200 F 
ATOM     96  F   UNL A   1      46.156  26.420  38.065  1.00  0.00    -0.200 F 
ENDBRANCH  63  86
ENDBRANCH  37  38
ENDBRANCH  30  32
ENDBRANCH  29  30
ENDBRANCH  28  29
ENDBRANCH   1  28
TORSDOF 14
ENDMDL
