MODEL 1
REMARK VINA RESULT:     -12.5      0.000      0.000
REMARK SMILES O=C(OCCOC(=O)c1cccc(Oc2ncc([N+](=O)[O-])cc2Br)c1)c1ccc(-c2c3nc(c(-c4c(F)c(F)c(F)c(F)c4F)c4ccc([nH]4)c(-c4c(F)c(F)c(F)c(F)c4F)c4nc(c(-c5c(F)c(F)c(F)c(F)c5F)c5ccc2[nH]5)C=C4)C=C3)cc1
REMARK SMILES IDX 5 1 4 2 3 3 2 4 1 5 26 6 27 7 88 8 28 9 87 10 29 11 30 12
REMARK SMILES IDX 31 13 81 14 32 15 86 16 80 17 82 18 33 19 85 20 79 21 78 22
REMARK SMILES IDX 34 24 66 25 46 26 65 27 47 28 50 29 64 30 83 31 48 32 49 33
REMARK SMILES IDX 63 35 84 36 51 37 35 38 36 39 44 40 37 41 38 42 42 43 45 44
REMARK SMILES IDX 39 45 40 46 43 47 41 48 67 49 68 50 76 51 69 52 70 53 74 54
REMARK SMILES IDX 77 55 71 56 72 57 75 58 73 59 52 60 53 61 61 62 54 63 55 64
REMARK SMILES IDX 59 65 62 66 56 67 57 68 60 69 58 70 6 71 7 72 8 73 9 74
REMARK SMILES IDX 10 75 25 76 11 77 13 78 12 79 14 80 15 81 16 82 23 83 17 84
REMARK SMILES IDX 22 85 24 86 18 87 19 88 20 89 21 90
REMARK H PARENT 82 23 50 34
REMARK Flexibility Score: inf
ROOT
ATOM      1  C   UNL A   1      31.777  28.795  26.422  1.00  0.00     0.275 C 
ENDROOT
BRANCH   1   2
ATOM      2  C   UNL A   1      32.411  30.057  25.827  1.00  0.00     0.275 C 
BRANCH   2   3
ATOM      3  O   UNL A   1      32.275  31.238  26.638  1.00  0.00    -0.458 OA
BRANCH   3   4
ATOM      4  C   UNL A   1      33.182  31.954  27.341  1.00  0.00     0.338 C 
ATOM      5  O   UNL A   1      32.960  33.152  27.521  1.00  0.00    -0.246 OA
BRANCH   4   6
ATOM      6  C   UNL A   1      34.486  31.420  27.861  1.00  0.00     0.060 A 
ATOM      7  C   UNL A   1      34.776  30.089  28.171  1.00  0.00     0.016 A 
ATOM      8  C   UNL A   1      35.521  32.364  28.038  1.00  0.00     0.016 A 
ATOM      9  C   UNL A   1      36.041  29.706  28.624  1.00  0.00     0.010 A 
ATOM     10  C   UNL A   1      36.791  31.990  28.488  1.00  0.00     0.010 A 
ATOM     11  C   UNL A   1      37.045  30.656  28.812  1.00  0.00    -0.014 A 
BRANCH  11  12
ATOM     12  C   UNL A   1      38.269  30.249  29.532  1.00  0.00     0.031 A 
ATOM     13  C   UNL A   1      38.432  30.676  30.950  1.00  0.00     0.074 A 
ATOM     14  C   UNL A   1      39.204  29.482  28.951  1.00  0.00     0.049 A 
ATOM     15  N   UNL A   1      39.356  30.339  31.807  1.00  0.00    -0.248 NA
ATOM     16  C   UNL A   1      37.441  31.633  31.461  1.00  0.00     0.031 C 
ATOM     17  C   UNL A   1      39.191  29.116  27.547  1.00  0.00     0.029 A 
ATOM     18  N   UNL A   1      40.345  28.895  29.444  1.00  0.00    -0.354 N 
ATOM     19  C   UNL A   1      39.074  31.061  32.952  1.00  0.00     0.074 A 
ATOM     20  C   UNL A   1      37.911  31.875  32.672  1.00  0.00     0.031 C 
ATOM     21  C   UNL A   1      40.276  28.375  27.290  1.00  0.00     0.029 A 
ATOM     22  C   UNL A   1      41.009  28.130  28.515  1.00  0.00     0.049 A 
ATOM     23  H   UNL A   1      40.656  29.013  30.371  1.00  0.00     0.167 HD
ATOM     24  C   UNL A   1      39.737  31.043  34.130  1.00  0.00     0.037 A 
ATOM     25  C   UNL A   1      42.061  27.298  28.635  1.00  0.00     0.037 A 
ATOM     26  C   UNL A   1      40.914  30.254  34.371  1.00  0.00     0.049 A 
ATOM     27  C   UNL A   1      42.730  27.226  29.975  1.00  0.00     0.074 A 
ATOM     28  C   UNL A   1      41.669  30.162  35.525  1.00  0.00     0.029 A 
ATOM     29  N   UNL A   1      41.522  29.432  33.429  1.00  0.00    -0.354 N 
ATOM     30  N   UNL A   1      42.417  27.859  31.079  1.00  0.00    -0.248 NA
ATOM     31  C   UNL A   1      43.904  26.354  30.086  1.00  0.00     0.031 C 
ATOM     32  C   UNL A   1      42.763  29.327  35.265  1.00  0.00     0.029 A 
ATOM     33  C   UNL A   1      42.651  28.839  33.971  1.00  0.00     0.049 A 
ATOM     34  H   UNL A   1      41.197  29.291  32.510  1.00  0.00     0.167 HD
ATOM     35  C   UNL A   1      43.356  27.469  32.018  1.00  0.00     0.074 A 
ATOM     36  C   UNL A   1      44.220  26.504  31.364  1.00  0.00     0.031 C 
ATOM     37  C   UNL A   1      43.503  27.891  33.297  1.00  0.00     0.037 A 
BRANCH  24  38
ATOM     38  C   UNL A   1      39.220  31.963  35.193  1.00  0.00     0.064 A 
ATOM     39  C   UNL A   1      39.583  33.319  35.239  1.00  0.00     0.173 A 
ATOM     40  C   UNL A   1      38.416  31.462  36.225  1.00  0.00     0.173 A 
ATOM     41  F   UNL A   1      40.382  33.838  34.293  1.00  0.00    -0.203 F 
ATOM     42  C   UNL A   1      39.199  34.125  36.306  1.00  0.00     0.198 A 
ATOM     43  C   UNL A   1      38.004  32.281  37.272  1.00  0.00     0.198 A 
ATOM     44  F   UNL A   1      38.053  30.171  36.235  1.00  0.00    -0.203 F 
ATOM     45  F   UNL A   1      39.632  35.392  36.375  1.00  0.00    -0.200 F 
ATOM     46  C   UNL A   1      38.408  33.607  37.320  1.00  0.00     0.200 A 
ATOM     47  F   UNL A   1      37.236  31.780  38.249  1.00  0.00    -0.200 F 
ATOM     48  F   UNL A   1      38.051  34.380  38.355  1.00  0.00    -0.200 F 
ENDBRANCH  24  38
BRANCH  25  49
ATOM     49  C   UNL A   1      42.488  26.416  27.507  1.00  0.00     0.064 A 
ATOM     50  C   UNL A   1      43.538  26.806  26.655  1.00  0.00     0.173 A 
ATOM     51  C   UNL A   1      41.888  25.175  27.250  1.00  0.00     0.173 A 
ATOM     52  F   UNL A   1      44.146  27.987  26.840  1.00  0.00    -0.203 F 
ATOM     53  C   UNL A   1      43.955  26.001  25.595  1.00  0.00     0.198 A 
ATOM     54  C   UNL A   1      42.333  24.352  26.215  1.00  0.00     0.198 A 
ATOM     55  F   UNL A   1      40.875  24.748  28.020  1.00  0.00    -0.203 F 
ATOM     56  F   UNL A   1      44.929  26.424  24.777  1.00  0.00    -0.200 F 
ATOM     57  C   UNL A   1      43.360  24.770  25.383  1.00  0.00     0.200 A 
ATOM     58  F   UNL A   1      41.768  23.152  26.023  1.00  0.00    -0.200 F 
ATOM     59  F   UNL A   1      43.775  23.987  24.377  1.00  0.00    -0.200 F 
ENDBRANCH  25  49
BRANCH  37  60
ATOM     60  C   UNL A   1      44.631  27.282  34.073  1.00  0.00     0.064 A 
ATOM     61  C   UNL A   1      45.904  27.871  34.112  1.00  0.00     0.173 A 
ATOM     62  C   UNL A   1      44.431  26.091  34.784  1.00  0.00     0.173 A 
ATOM     63  F   UNL A   1      46.149  29.000  33.430  1.00  0.00    -0.203 F 
ATOM     64  C   UNL A   1      46.948  27.265  34.805  1.00  0.00     0.198 A 
ATOM     65  C   UNL A   1      45.468  25.509  35.507  1.00  0.00     0.198 A 
ATOM     66  F   UNL A   1      43.231  25.492  34.779  1.00  0.00    -0.203 F 
ATOM     67  F   UNL A   1      48.174  27.807  34.772  1.00  0.00    -0.200 F 
ATOM     68  C   UNL A   1      46.727  26.090  35.507  1.00  0.00     0.200 A 
ATOM     69  F   UNL A   1      45.249  24.381  36.196  1.00  0.00    -0.200 F 
ATOM     70  F   UNL A   1      47.733  25.508  36.173  1.00  0.00    -0.200 F 
ENDBRANCH  37  60
ENDBRANCH  11  12
ENDBRANCH   4   6
ENDBRANCH   3   4
ENDBRANCH   2   3
ENDBRANCH   1   2
BRANCH   1  71
ATOM     71  O   UNL A   1      31.381  27.827  25.438  1.00  0.00    -0.458 OA
BRANCH  71  72
ATOM     72  C   UNL A   1      31.430  26.536  25.854  1.00  0.00     0.338 C 
ATOM     73  O   UNL A   1      30.607  25.966  26.557  1.00  0.00    -0.246 OA
BRANCH  72  74
ATOM     74  C   UNL A   1      32.608  25.855  25.281  1.00  0.00     0.063 A 
ATOM     75  C   UNL A   1      32.868  25.980  23.914  1.00  0.00     0.016 A 
ATOM     76  C   UNL A   1      33.386  25.010  26.075  1.00  0.00     0.062 A 
ATOM     77  C   UNL A   1      33.926  25.270  23.350  1.00  0.00     0.005 A 
ATOM     78  C   UNL A   1      34.320  24.159  25.478  1.00  0.00     0.130 A 
ATOM     79  C   UNL A   1      34.632  24.343  24.125  1.00  0.00     0.047 A 
BRANCH  78  80
ATOM     80  O   UNL A   1      34.930  23.074  26.087  1.00  0.00    -0.438 OA
BRANCH  80  81
ATOM     81  C   UNL A   1      34.495  21.802  25.797  1.00  0.00     0.234 A 
ATOM     82  N   UNL A   1      33.210  21.578  26.157  1.00  0.00    -0.214 NA
ATOM     83  C   UNL A   1      35.263  20.819  25.177  1.00  0.00     0.087 A 
ATOM     84  C   UNL A   1      32.599  20.460  25.711  1.00  0.00     0.200 A 
ATOM     85  C   UNL A   1      34.610  19.683  24.684  1.00  0.00     0.108 A 
ATOM     86  Br  UNL A   1      37.140  20.949  24.956  1.00  0.00    -0.045 Br
ATOM     87  C   UNL A   1      33.245  19.528  24.929  1.00  0.00     0.288 A 
BRANCH  87  88
ATOM     88  N   UNL A   1      32.480  18.433  24.357  1.00  0.00     0.064 N 
ATOM     89  O   UNL A   1      31.994  17.605  25.138  1.00  0.00    -0.258 OA
ATOM     90  O   UNL A   1      32.343  18.414  23.128  1.00  0.00    -0.258 OA
ENDBRANCH  87  88
ENDBRANCH  80  81
ENDBRANCH  78  80
ENDBRANCH  72  74
ENDBRANCH  71  72
ENDBRANCH   1  71
TORSDOF 14
ENDMDL
MODEL 2
REMARK VINA RESULT:     -12.3      1.554      2.425
REMARK SMILES O=C(OCCOC(=O)c1cccc(Oc2ncc([N+](=O)[O-])cc2Br)c1)c1ccc(-c2c3nc(c(-c4c(F)c(F)c(F)c(F)c4F)c4ccc([nH]4)c(-c4c(F)c(F)c(F)c(F)c4F)c4nc(c(-c5c(F)c(F)c(F)c(F)c5F)c5ccc2[nH]5)C=C4)C=C3)cc1
REMARK SMILES IDX 5 1 4 2 3 3 2 4 1 5 26 6 27 7 88 8 28 9 87 10 29 11 30 12
REMARK SMILES IDX 31 13 81 14 32 15 86 16 80 17 82 18 33 19 85 20 79 21 78 22
REMARK SMILES IDX 34 24 66 25 46 26 65 27 47 28 50 29 64 30 83 31 48 32 49 33
REMARK SMILES IDX 63 35 84 36 51 37 35 38 36 39 44 40 37 41 38 42 42 43 45 44
REMARK SMILES IDX 39 45 40 46 43 47 41 48 67 49 68 50 76 51 69 52 70 53 74 54
REMARK SMILES IDX 77 55 71 56 72 57 75 58 73 59 52 60 53 61 61 62 54 63 55 64
REMARK SMILES IDX 59 65 62 66 56 67 57 68 60 69 58 70 6 71 7 72 8 73 9 74
REMARK SMILES IDX 10 75 25 76 11 77 13 78 12 79 14 80 15 81 16 82 23 83 17 84
REMARK SMILES IDX 22 85 24 86 18 87 19 88 20 89 21 90
REMARK H PARENT 82 23 50 34
REMARK Flexibility Score: inf
ROOT
ATOM      1  C   UNL A   1      31.793  29.436  26.962  1.00  0.00     0.275 C 
ENDROOT
BRANCH   1   2
ATOM      2  C   UNL A   1      32.153  30.787  26.331  1.00  0.00     0.275 C 
BRANCH   2   3
ATOM      3  O   UNL A   1      32.344  31.858  27.273  1.00  0.00    -0.458 OA
BRANCH   3   4
ATOM      4  C   UNL A   1      33.452  32.535  27.651  1.00  0.00     0.338 C 
ATOM      5  O   UNL A   1      33.460  33.758  27.509  1.00  0.00    -0.246 OA
BRANCH   4   6
ATOM      6  C   UNL A   1      34.715  31.903  28.166  1.00  0.00     0.060 A 
ATOM      7  C   UNL A   1      34.887  30.566  28.532  1.00  0.00     0.016 A 
ATOM      8  C   UNL A   1      35.838  32.752  28.272  1.00  0.00     0.016 A 
ATOM      9  C   UNL A   1      36.123  30.086  28.973  1.00  0.00     0.010 A 
ATOM     10  C   UNL A   1      37.080  32.279  28.710  1.00  0.00     0.010 A 
ATOM     11  C   UNL A   1      37.216  30.944  29.091  1.00  0.00    -0.014 A 
BRANCH  11  12
ATOM     12  C   UNL A   1      38.416  30.455  29.801  1.00  0.00     0.031 A 
ATOM     13  C   UNL A   1      38.602  30.844  31.228  1.00  0.00     0.074 A 
ATOM     14  C   UNL A   1      39.307  29.651  29.203  1.00  0.00     0.049 A 
ATOM     15  N   UNL A   1      39.507  30.439  32.077  1.00  0.00    -0.248 NA
ATOM     16  C   UNL A   1      37.665  31.842  31.760  1.00  0.00     0.031 C 
ATOM     17  C   UNL A   1      39.275  29.316  27.792  1.00  0.00     0.029 A 
ATOM     18  N   UNL A   1      40.415  28.993  29.683  1.00  0.00    -0.354 N 
ATOM     19  C   UNL A   1      39.265  31.151  33.236  1.00  0.00     0.074 A 
ATOM     20  C   UNL A   1      38.148  32.033  32.975  1.00  0.00     0.031 C 
ATOM     21  C   UNL A   1      40.317  28.521  27.519  1.00  0.00     0.029 A 
ATOM     22  C   UNL A   1      41.036  28.212  28.738  1.00  0.00     0.049 A 
ATOM     23  H   UNL A   1      40.732  29.074  30.612  1.00  0.00     0.167 HD
ATOM     24  C   UNL A   1      39.926  31.072  34.413  1.00  0.00     0.037 A 
ATOM     25  C   UNL A   1      42.041  27.321  28.839  1.00  0.00     0.037 A 
ATOM     26  C   UNL A   1      41.058  30.216  34.636  1.00  0.00     0.049 A 
ATOM     27  C   UNL A   1      42.705  27.184  30.176  1.00  0.00     0.074 A 
ATOM     28  C   UNL A   1      41.808  30.059  35.787  1.00  0.00     0.029 A 
ATOM     29  N   UNL A   1      41.620  29.381  33.676  1.00  0.00    -0.354 N 
ATOM     30  N   UNL A   1      42.428  27.811  31.293  1.00  0.00    -0.248 NA
ATOM     31  C   UNL A   1      43.829  26.247  30.268  1.00  0.00     0.031 C 
ATOM     32  C   UNL A   1      42.853  29.170  35.508  1.00  0.00     0.029 A 
ATOM     33  C   UNL A   1      42.715  28.716  34.205  1.00  0.00     0.049 A 
ATOM     34  H   UNL A   1      41.288  29.277  32.755  1.00  0.00     0.167 HD
ATOM     35  C   UNL A   1      43.344  27.351  32.223  1.00  0.00     0.074 A 
ATOM     36  C   UNL A   1      44.154  26.353  31.548  1.00  0.00     0.031 C 
ATOM     37  C   UNL A   1      43.514  27.737  33.510  1.00  0.00     0.037 A 
BRANCH  24  38
ATOM     38  C   UNL A   1      39.460  31.997  35.495  1.00  0.00     0.064 A 
ATOM     39  C   UNL A   1      39.995  33.286  35.648  1.00  0.00     0.173 A 
ATOM     40  C   UNL A   1      38.524  31.557  36.441  1.00  0.00     0.173 A 
ATOM     41  F   UNL A   1      40.923  33.741  34.790  1.00  0.00    -0.203 F 
ATOM     42  C   UNL A   1      39.646  34.080  36.737  1.00  0.00     0.198 A 
ATOM     43  C   UNL A   1      38.150  32.369  37.508  1.00  0.00     0.198 A 
ATOM     44  F   UNL A   1      37.993  30.329  36.347  1.00  0.00    -0.203 F 
ATOM     45  F   UNL A   1      40.238  35.271  36.912  1.00  0.00    -0.200 F 
ATOM     46  C   UNL A   1      38.722  33.623  37.663  1.00  0.00     0.200 A 
ATOM     47  F   UNL A   1      37.254  31.926  38.400  1.00  0.00    -0.200 F 
ATOM     48  F   UNL A   1      38.398  34.381  38.719  1.00  0.00    -0.200 F 
ENDBRANCH  24  38
BRANCH  25  49
ATOM     49  C   UNL A   1      42.419  26.440  27.692  1.00  0.00     0.064 A 
ATOM     50  C   UNL A   1      41.731  25.235  27.463  1.00  0.00     0.173 A 
ATOM     51  C   UNL A   1      43.446  26.768  26.795  1.00  0.00     0.173 A 
ATOM     52  F   UNL A   1      40.746  24.858  28.291  1.00  0.00    -0.203 F 
ATOM     53  C   UNL A   1      42.065  24.395  26.399  1.00  0.00     0.198 A 
ATOM     54  C   UNL A   1      43.751  25.949  25.708  1.00  0.00     0.198 A 
ATOM     55  F   UNL A   1      44.147  27.900  26.963  1.00  0.00    -0.203 F 
ATOM     56  F   UNL A   1      41.418  23.233  26.236  1.00  0.00    -0.200 F 
ATOM     57  C   UNL A   1      43.066  24.759  25.516  1.00  0.00     0.200 A 
ATOM     58  F   UNL A   1      44.709  26.311  24.844  1.00  0.00    -0.200 F 
ATOM     59  F   UNL A   1      43.372  23.963  24.482  1.00  0.00    -0.200 F 
ENDBRANCH  25  49
BRANCH  37  60
ATOM     60  C   UNL A   1      44.607  27.052  34.272  1.00  0.00     0.064 A 
ATOM     61  C   UNL A   1      44.384  25.857  34.972  1.00  0.00     0.173 A 
ATOM     62  C   UNL A   1      45.895  27.603  34.299  1.00  0.00     0.173 A 
ATOM     63  F   UNL A   1      43.162  25.302  34.992  1.00  0.00    -0.203 F 
ATOM     64  C   UNL A   1      45.404  25.260  35.707  1.00  0.00     0.198 A 
ATOM     65  C   UNL A   1      46.922  26.983  35.003  1.00  0.00     0.198 A 
ATOM     66  F   UNL A   1      46.159  28.743  33.642  1.00  0.00    -0.203 F 
ATOM     67  F   UNL A   1      45.152  24.158  36.426  1.00  0.00    -0.200 F 
ATOM     68  C   UNL A   1      46.673  25.820  35.716  1.00  0.00     0.200 A 
ATOM     69  F   UNL A   1      48.150  27.518  34.999  1.00  0.00    -0.200 F 
ATOM     70  F   UNL A   1      47.654  25.245  36.423  1.00  0.00    -0.200 F 
ENDBRANCH  37  60
ENDBRANCH  11  12
ENDBRANCH   4   6
ENDBRANCH   3   4
ENDBRANCH   2   3
ENDBRANCH   1   2
BRANCH   1  71
ATOM     71  O   UNL A   1      32.753  28.401  26.699  1.00  0.00    -0.458 OA
BRANCH  71  72
ATOM     72  C   UNL A   1      32.225  27.231  26.258  1.00  0.00     0.338 C 
ATOM     73  O   UNL A   1      31.364  26.564  26.816  1.00  0.00    -0.246 OA
BRANCH  72  74
ATOM     74  C   UNL A   1      32.785  26.879  24.938  1.00  0.00     0.063 A 
ATOM     75  C   UNL A   1      32.872  27.863  23.951  1.00  0.00     0.016 A 
ATOM     76  C   UNL A   1      33.122  25.555  24.649  1.00  0.00     0.062 A 
ATOM     77  C   UNL A   1      33.318  27.520  22.677  1.00  0.00     0.005 A 
ATOM     78  C   UNL A   1      33.385  25.176  23.329  1.00  0.00     0.130 A 
ATOM     79  C   UNL A   1      33.547  26.176  22.361  1.00  0.00     0.047 A 
BRANCH  78  80
ATOM     80  O   UNL A   1      33.429  23.875  22.855  1.00  0.00    -0.438 OA
BRANCH  80  81
ATOM     81  C   UNL A   1      34.381  23.009  23.338  1.00  0.00     0.234 A 
ATOM     82  N   UNL A   1      35.618  23.235  22.836  1.00  0.00    -0.214 NA
ATOM     83  C   UNL A   1      34.142  22.001  24.269  1.00  0.00     0.087 A 
ATOM     84  C   UNL A   1      36.671  22.615  23.409  1.00  0.00     0.200 A 
ATOM     85  C   UNL A   1      35.243  21.395  24.884  1.00  0.00     0.108 A 
ATOM     86  Br  UNL A   1      32.405  21.419  24.751  1.00  0.00    -0.045 Br
ATOM     87  C   UNL A   1      36.529  21.742  24.466  1.00  0.00     0.288 A 
BRANCH  87  88
ATOM     88  N   UNL A   1      37.717  21.238  25.131  1.00  0.00     0.064 N 
ATOM     89  O   UNL A   1      38.287  21.989  25.934  1.00  0.00    -0.258 OA
ATOM     90  O   UNL A   1      38.068  20.080  24.872  1.00  0.00    -0.258 OA
ENDBRANCH  87  88
ENDBRANCH  80  81
ENDBRANCH  78  80
ENDBRANCH  72  74
ENDBRANCH  71  72
ENDBRANCH   1  71
TORSDOF 14
ENDMDL
MODEL 3
REMARK VINA RESULT:     -12.3      4.346      9.979
REMARK SMILES O=C(OCCOC(=O)c1cccc(Oc2ncc([N+](=O)[O-])cc2Br)c1)c1ccc(-c2c3nc(c(-c4c(F)c(F)c(F)c(F)c4F)c4ccc([nH]4)c(-c4c(F)c(F)c(F)c(F)c4F)c4nc(c(-c5c(F)c(F)c(F)c(F)c5F)c5ccc2[nH]5)C=C4)C=C3)cc1
REMARK SMILES IDX 5 1 4 2 3 3 2 4 1 5 26 6 27 7 88 8 28 9 87 10 29 11 30 12
REMARK SMILES IDX 31 13 81 14 32 15 86 16 80 17 82 18 33 19 85 20 79 21 78 22
REMARK SMILES IDX 34 24 66 25 46 26 65 27 47 28 50 29 64 30 83 31 48 32 49 33
REMARK SMILES IDX 63 35 84 36 51 37 35 38 36 39 44 40 37 41 38 42 42 43 45 44
REMARK SMILES IDX 39 45 40 46 43 47 41 48 67 49 68 50 76 51 69 52 70 53 74 54
REMARK SMILES IDX 77 55 71 56 72 57 75 58 73 59 52 60 53 61 61 62 54 63 55 64
REMARK SMILES IDX 59 65 62 66 56 67 57 68 60 69 58 70 6 71 7 72 8 73 9 74
REMARK SMILES IDX 10 75 25 76 11 77 13 78 12 79 14 80 15 81 16 82 23 83 17 84
REMARK SMILES IDX 22 85 24 86 18 87 19 88 20 89 21 90
REMARK H PARENT 82 23 50 34
REMARK Flexibility Score: inf
ROOT
ATOM      1  C   UNL A   1      36.699  22.204  24.039  1.00  0.00     0.275 C 
ENDROOT
BRANCH   1   2
ATOM      2  C   UNL A   1      37.345  20.897  24.515  1.00  0.00     0.275 C 
BRANCH   2   3
ATOM      3  O   UNL A   1      37.991  20.980  25.799  1.00  0.00    -0.458 OA
BRANCH   3   4
ATOM      4  C   UNL A   1      39.259  21.295  26.147  1.00  0.00     0.338 C 
ATOM      5  O   UNL A   1      40.105  20.401  26.125  1.00  0.00    -0.246 OA
BRANCH   4   6
ATOM      6  C   UNL A   1      39.709  22.644  26.635  1.00  0.00     0.060 A 
ATOM      7  C   UNL A   1      39.208  23.884  26.232  1.00  0.00     0.016 A 
ATOM      8  C   UNL A   1      40.731  22.645  27.609  1.00  0.00     0.016 A 
ATOM      9  C   UNL A   1      39.689  25.076  26.778  1.00  0.00     0.010 A 
ATOM     10  C   UNL A   1      41.216  23.834  28.164  1.00  0.00     0.010 A 
ATOM     11  C   UNL A   1      40.713  25.059  27.725  1.00  0.00    -0.014 A 
BRANCH  11  12
ATOM     12  C   UNL A   1      41.362  26.339  28.077  1.00  0.00     0.031 A 
ATOM     13  C   UNL A   1      42.722  26.617  27.536  1.00  0.00     0.074 A 
ATOM     14  C   UNL A   1      40.742  27.256  28.835  1.00  0.00     0.049 A 
ATOM     15  N   UNL A   1      43.427  27.712  27.612  1.00  0.00    -0.248 NA
ATOM     16  C   UNL A   1      43.388  25.505  26.843  1.00  0.00     0.031 C 
ATOM     17  C   UNL A   1      39.473  27.029  29.502  1.00  0.00     0.029 A 
ATOM     18  N   UNL A   1      41.090  28.537  29.194  1.00  0.00    -0.354 N 
ATOM     19  C   UNL A   1      44.631  27.415  27.000  1.00  0.00     0.074 A 
ATOM     20  C   UNL A   1      44.572  26.031  26.582  1.00  0.00     0.031 C 
ATOM     21  C   UNL A   1      39.154  28.130  30.194  1.00  0.00     0.029 A 
ATOM     22  C   UNL A   1      40.133  29.169  29.950  1.00  0.00     0.049 A 
ATOM     23  H   UNL A   1      41.941  28.958  28.934  1.00  0.00     0.167 HD
ATOM     24  C   UNL A   1      45.690  28.233  26.810  1.00  0.00     0.037 A 
ATOM     25  C   UNL A   1      40.029  30.445  30.371  1.00  0.00     0.037 A 
ATOM     26  C   UNL A   1      45.740  29.594  27.269  1.00  0.00     0.049 A 
ATOM     27  C   UNL A   1      41.178  31.360  30.074  1.00  0.00     0.074 A 
ATOM     28  C   UNL A   1      46.764  30.513  27.136  1.00  0.00     0.029 A 
ATOM     29  N   UNL A   1      44.722  30.229  27.972  1.00  0.00    -0.354 N 
ATOM     30  N   UNL A   1      42.289  31.095  29.431  1.00  0.00    -0.248 NA
ATOM     31  C   UNL A   1      41.080  32.735  30.575  1.00  0.00     0.031 C 
ATOM     32  C   UNL A   1      46.388  31.685  27.803  1.00  0.00     0.029 A 
ATOM     33  C   UNL A   1      45.099  31.524  28.291  1.00  0.00     0.049 A 
ATOM     34  H   UNL A   1      43.858  29.819  28.208  1.00  0.00     0.167 HD
ATOM     35  C   UNL A   1      43.028  32.265  29.453  1.00  0.00     0.074 A 
ATOM     36  C   UNL A   1      42.214  33.257  30.130  1.00  0.00     0.031 C 
ATOM     37  C   UNL A   1      44.276  32.490  28.977  1.00  0.00     0.037 A 
BRANCH  24  38
ATOM     38  C   UNL A   1      46.883  27.624  26.140  1.00  0.00     0.064 A 
ATOM     39  C   UNL A   1      47.942  27.068  26.876  1.00  0.00     0.173 A 
ATOM     40  C   UNL A   1      47.005  27.670  24.745  1.00  0.00     0.173 A 
ATOM     41  F   UNL A   1      47.890  27.034  28.218  1.00  0.00    -0.203 F 
ATOM     42  C   UNL A   1      49.100  26.627  26.241  1.00  0.00     0.198 A 
ATOM     43  C   UNL A   1      48.149  27.193  24.111  1.00  0.00     0.198 A 
ATOM     44  F   UNL A   1      46.028  28.203  23.997  1.00  0.00    -0.203 F 
ATOM     45  F   UNL A   1      50.134  26.184  26.970  1.00  0.00    -0.200 F 
ATOM     46  C   UNL A   1      49.201  26.687  24.860  1.00  0.00     0.200 A 
ATOM     47  F   UNL A   1      48.244  27.249  22.776  1.00  0.00    -0.200 F 
ATOM     48  F   UNL A   1      50.321  26.275  24.250  1.00  0.00    -0.200 F 
ENDBRANCH  24  38
BRANCH  25  49
ATOM     49  C   UNL A   1      38.784  30.950  31.025  1.00  0.00     0.064 A 
ATOM     50  C   UNL A   1      38.658  30.933  32.426  1.00  0.00     0.173 A 
ATOM     51  C   UNL A   1      37.704  31.467  30.295  1.00  0.00     0.173 A 
ATOM     52  F   UNL A   1      39.650  30.440  33.181  1.00  0.00    -0.203 F 
ATOM     53  C   UNL A   1      37.506  31.399  33.061  1.00  0.00     0.198 A 
ATOM     54  C   UNL A   1      36.570  31.971  30.932  1.00  0.00     0.198 A 
ATOM     55  F   UNL A   1      37.757  31.503  28.954  1.00  0.00    -0.203 F 
ATOM     56  F   UNL A   1      37.403  31.328  34.396  1.00  0.00    -0.200 F 
ATOM     57  C   UNL A   1      36.468  31.928  32.314  1.00  0.00     0.200 A 
ATOM     58  F   UNL A   1      35.573  32.499  30.208  1.00  0.00    -0.200 F 
ATOM     59  F   UNL A   1      35.370  32.394  32.925  1.00  0.00    -0.200 F 
ENDBRANCH  25  49
BRANCH  37  60
ATOM     60  C   UNL A   1      44.817  33.875  29.156  1.00  0.00     0.064 A 
ATOM     61  C   UNL A   1      45.560  34.239  30.290  1.00  0.00     0.173 A 
ATOM     62  C   UNL A   1      44.586  34.851  28.177  1.00  0.00     0.173 A 
ATOM     63  F   UNL A   1      45.790  33.344  31.263  1.00  0.00    -0.203 F 
ATOM     64  C   UNL A   1      46.017  35.542  30.455  1.00  0.00     0.198 A 
ATOM     65  C   UNL A   1      45.077  36.144  28.328  1.00  0.00     0.198 A 
ATOM     66  F   UNL A   1      43.884  34.551  27.074  1.00  0.00    -0.203 F 
ATOM     67  F   UNL A   1      46.664  35.886  31.577  1.00  0.00    -0.200 F 
ATOM     68  C   UNL A   1      45.781  36.491  29.471  1.00  0.00     0.200 A 
ATOM     69  F   UNL A   1      44.860  37.055  27.371  1.00  0.00    -0.200 F 
ATOM     70  F   UNL A   1      46.221  37.746  29.631  1.00  0.00    -0.200 F 
ENDBRANCH  37  60
ENDBRANCH  11  12
ENDBRANCH   4   6
ENDBRANCH   3   4
ENDBRANCH   2   3
ENDBRANCH   1   2
BRANCH   1  71
ATOM     71  O   UNL A   1      35.315  22.331  24.404  1.00  0.00    -0.458 OA
BRANCH  71  72
ATOM     72  C   UNL A   1      35.030  23.391  25.201  1.00  0.00     0.338 C 
ATOM     73  O   UNL A   1      35.793  24.297  25.510  1.00  0.00    -0.246 OA
BRANCH  72  74
ATOM     74  C   UNL A   1      33.613  23.358  25.614  1.00  0.00     0.063 A 
ATOM     75  C   UNL A   1      32.857  22.211  25.362  1.00  0.00     0.016 A 
ATOM     76  C   UNL A   1      33.011  24.498  26.152  1.00  0.00     0.062 A 
ATOM     77  C   UNL A   1      31.499  22.203  25.669  1.00  0.00     0.005 A 
ATOM     78  C   UNL A   1      31.621  24.555  26.282  1.00  0.00     0.130 A 
ATOM     79  C   UNL A   1      30.878  23.380  26.103  1.00  0.00     0.047 A 
BRANCH  78  80
ATOM     80  O   UNL A   1      30.876  25.702  26.503  1.00  0.00    -0.438 OA
BRANCH  80  81
ATOM     81  C   UNL A   1      30.846  26.686  25.543  1.00  0.00     0.234 A 
ATOM     82  N   UNL A   1      30.040  26.392  24.496  1.00  0.00    -0.214 NA
ATOM     83  C   UNL A   1      31.544  27.889  25.614  1.00  0.00     0.087 A 
ATOM     84  C   UNL A   1      29.741  27.370  23.616  1.00  0.00     0.200 A 
ATOM     85  C   UNL A   1      31.196  28.908  24.720  1.00  0.00     0.108 A 
ATOM     86  Br  UNL A   1      32.930  28.217  26.863  1.00  0.00    -0.045 Br
ATOM     87  C   UNL A   1      30.248  28.646  23.730  1.00  0.00     0.288 A 
BRANCH  87  88
ATOM     88  N   UNL A   1      29.758  29.684  22.839  1.00  0.00     0.064 N 
ATOM     89  O   UNL A   1      29.958  29.538  21.626  1.00  0.00    -0.258 OA
ATOM     90  O   UNL A   1      29.149  30.632  23.349  1.00  0.00    -0.258 OA
ENDBRANCH  87  88
ENDBRANCH  80  81
ENDBRANCH  78  80
ENDBRANCH  72  74
ENDBRANCH  71  72
ENDBRANCH   1  71
TORSDOF 14
ENDMDL
