MODEL 1
REMARK VINA RESULT:     -13.2      0.000      0.000
REMARK SMILES CC(C)(C(=O)OCCOC(=O)c1ccc(-c2c3nc(c(-c4c(F)c(F)c(F)c(F)c4F)c4ccc([nH]4)c(-c4c(F)c(F)c(F)c(F)c4F)c4nc(c(-c5c(F)c(F)c(F)c(F)c5F)c5ccc2[nH]5)C=C4)C=C3)cc1)N1C(=O)/C(=C/c2ccc(C=O)cc2)SC1=S
REMARK SMILES IDX 7 1 6 2 4 3 5 4 2 5 1 6 3 7 75 8 76 9 89 10 77 11 78 12
REMARK SMILES IDX 88 13 90 14 79 15 80 16 81 17 87 18 82 19 86 20 83 21 84 22
REMARK SMILES IDX 85 23 8 24 9 25 10 26 11 27 12 28 13 29 74 30 14 31 73 32
REMARK SMILES IDX 15 33 16 34 17 35 67 36 18 37 72 38 66 39 68 40 19 41 71 42
REMARK SMILES IDX 65 43 64 44 20 46 52 47 32 48 51 49 33 50 36 51 50 52 69 53
REMARK SMILES IDX 34 54 35 55 49 57 70 58 37 59 21 60 22 61 30 62 23 63 24 64
REMARK SMILES IDX 28 65 31 66 25 67 26 68 29 69 27 70 53 71 54 72 62 73 55 74
REMARK SMILES IDX 56 75 60 76 63 77 57 78 58 79 61 80 59 81 38 82 39 83 47 84
REMARK SMILES IDX 40 85 41 86 45 87 48 88 42 89 43 90 46 91 44 92
REMARK H PARENT 68 45 36 56
REMARK Flexibility Score: inf
ROOT
ATOM      1  C   UNL A   1      31.461  29.940  25.110  1.00  0.00     0.274 C 
ENDROOT
BRANCH   1   2
ATOM      2  O   UNL A   1      31.323  28.533  25.401  1.00  0.00    -0.460 OA
BRANCH   2   3
ATOM      3  C   UNL A   1      31.988  27.675  24.577  1.00  0.00     0.332 C 
ATOM      4  O   UNL A   1      33.210  27.665  24.466  1.00  0.00    -0.249 OA
BRANCH   3   5
ATOM      5  C   UNL A   1      31.030  26.776  23.744  1.00  0.00     0.141 C 
ATOM      6  C   UNL A   1      29.661  26.663  24.448  1.00  0.00     0.048 C 
ATOM      7  C   UNL A   1      30.731  27.499  22.409  1.00  0.00     0.048 C 
BRANCH   5   8
ATOM      8  N   UNL A   1      31.739  25.445  23.509  1.00  0.00    -0.276 N 
ATOM      9  C   UNL A   1      31.672  24.473  24.522  1.00  0.00     0.267 C 
ATOM     10  C   UNL A   1      32.347  25.005  22.339  1.00  0.00     0.149 C 
ATOM     11  O   UNL A   1      31.159  24.587  25.628  1.00  0.00    -0.268 OA
ATOM     12  C   UNL A   1      32.308  23.194  24.106  1.00  0.00     0.081 C 
ATOM     13  S   UNL A   1      32.989  23.387  22.550  1.00  0.00    -0.054 SA
ATOM     14  S   UNL A   1      32.578  25.706  20.845  1.00  0.00    -0.052 S 
ATOM     15  C   UNL A   1      32.279  22.070  24.848  1.00  0.00     0.029 C 
BRANCH  15  16
ATOM     16  C   UNL A   1      32.882  20.783  24.452  1.00  0.00    -0.024 A 
ATOM     17  C   UNL A   1      34.101  20.359  24.996  1.00  0.00     0.009 A 
ATOM     18  C   UNL A   1      32.223  19.938  23.547  1.00  0.00     0.009 A 
ATOM     19  C   UNL A   1      34.570  19.063  24.735  1.00  0.00     0.012 A 
ATOM     20  C   UNL A   1      32.641  18.626  23.354  1.00  0.00     0.012 A 
ATOM     21  C   UNL A   1      33.796  18.182  23.980  1.00  0.00     0.014 A 
BRANCH  21  22
ATOM     22  C   UNL A   1      34.127  16.753  23.850  1.00  0.00     0.260 C 
ATOM     23  O   UNL A   1      34.225  16.195  22.769  1.00  0.00    -0.298 OA
ENDBRANCH  21  22
ENDBRANCH  15  16
ENDBRANCH   5   8
ENDBRANCH   3   5
ENDBRANCH   2   3
ENDBRANCH   1   2
BRANCH   1  24
ATOM     24  C   UNL A   1      31.574  30.797  26.375  1.00  0.00     0.275 C 
BRANCH  24  25
ATOM     25  O   UNL A   1      32.770  30.506  27.126  1.00  0.00    -0.458 OA
BRANCH  25  26
ATOM     26  C   UNL A   1      33.506  31.591  27.459  1.00  0.00     0.338 C 
ATOM     27  O   UNL A   1      33.102  32.729  27.618  1.00  0.00    -0.246 OA
BRANCH  26  28
ATOM     28  C   UNL A   1      34.906  31.218  27.717  1.00  0.00     0.060 A 
ATOM     29  C   UNL A   1      35.199  29.866  27.885  1.00  0.00     0.016 A 
ATOM     30  C   UNL A   1      35.871  32.183  28.007  1.00  0.00     0.016 A 
ATOM     31  C   UNL A   1      36.411  29.473  28.442  1.00  0.00     0.010 A 
ATOM     32  C   UNL A   1      37.116  31.780  28.516  1.00  0.00     0.010 A 
ATOM     33  C   UNL A   1      37.372  30.425  28.798  1.00  0.00    -0.014 A 
BRANCH  33  34
ATOM     34  C   UNL A   1      38.562  29.983  29.583  1.00  0.00     0.031 A 
ATOM     35  C   UNL A   1      38.649  30.343  31.045  1.00  0.00     0.074 A 
ATOM     36  C   UNL A   1      39.507  29.207  29.013  1.00  0.00     0.049 A 
ATOM     37  N   UNL A   1      39.601  30.090  31.907  1.00  0.00    -0.248 NA
ATOM     38  C   UNL A   1      37.527  31.112  31.611  1.00  0.00     0.031 C 
ATOM     39  C   UNL A   1      39.494  28.784  27.613  1.00  0.00     0.029 A 
ATOM     40  N   UNL A   1      40.636  28.606  29.524  1.00  0.00    -0.354 N 
ATOM     41  C   UNL A   1      39.246  30.763  33.072  1.00  0.00     0.074 A 
ATOM     42  C   UNL A   1      37.970  31.395  32.827  1.00  0.00     0.031 C 
ATOM     43  C   UNL A   1      40.518  27.946  27.393  1.00  0.00     0.029 A 
ATOM     44  C   UNL A   1      41.301  27.801  28.620  1.00  0.00     0.049 A 
ATOM     45  H   UNL A   1      40.941  28.739  30.451  1.00  0.00     0.167 HD
ATOM     46  C   UNL A   1      39.949  30.863  34.225  1.00  0.00     0.037 A 
ATOM     47  C   UNL A   1      42.396  27.018  28.776  1.00  0.00     0.037 A 
ATOM     48  C   UNL A   1      41.165  30.137  34.477  1.00  0.00     0.049 A 
ATOM     49  C   UNL A   1      43.035  26.996  30.150  1.00  0.00     0.074 A 
ATOM     50  C   UNL A   1      41.961  30.143  35.608  1.00  0.00     0.029 A 
ATOM     51  N   UNL A   1      41.744  29.246  33.582  1.00  0.00    -0.354 N 
ATOM     52  N   UNL A   1      42.681  27.641  31.242  1.00  0.00    -0.248 NA
ATOM     53  C   UNL A   1      44.220  26.147  30.323  1.00  0.00     0.031 C 
ATOM     54  C   UNL A   1      43.040  29.279  35.385  1.00  0.00     0.029 A 
ATOM     55  C   UNL A   1      42.887  28.697  34.135  1.00  0.00     0.049 A 
ATOM     56  H   UNL A   1      41.392  29.037  32.688  1.00  0.00     0.167 HD
ATOM     57  C   UNL A   1      43.586  27.261  32.225  1.00  0.00     0.074 A 
ATOM     58  C   UNL A   1      44.465  26.283  31.618  1.00  0.00     0.031 C 
ATOM     59  C   UNL A   1      43.716  27.702  33.502  1.00  0.00     0.037 A 
BRANCH  46  60
ATOM     60  C   UNL A   1      39.473  31.848  35.256  1.00  0.00     0.064 A 
ATOM     61  C   UNL A   1      39.873  33.190  35.273  1.00  0.00     0.173 A 
ATOM     62  C   UNL A   1      38.575  31.423  36.251  1.00  0.00     0.173 A 
ATOM     63  F   UNL A   1      40.740  33.649  34.357  1.00  0.00    -0.203 F 
ATOM     64  C   UNL A   1      39.417  34.062  36.262  1.00  0.00     0.198 A 
ATOM     65  C   UNL A   1      38.098  32.302  37.219  1.00  0.00     0.198 A 
ATOM     66  F   UNL A   1      38.154  30.149  36.282  1.00  0.00    -0.203 F 
ATOM     67  F   UNL A   1      39.853  35.330  36.289  1.00  0.00    -0.200 F 
ATOM     68  C   UNL A   1      38.526  33.620  37.230  1.00  0.00     0.200 A 
ATOM     69  F   UNL A   1      37.228  31.873  38.144  1.00  0.00    -0.200 F 
ATOM     70  F   UNL A   1      38.088  34.460  38.177  1.00  0.00    -0.200 F 
ENDBRANCH  46  60
BRANCH  47  71
ATOM     71  C   UNL A   1      42.888  26.145  27.648  1.00  0.00     0.064 A 
ATOM     72  C   UNL A   1      42.324  24.886  27.373  1.00  0.00     0.173 A 
ATOM     73  C   UNL A   1      43.890  26.567  26.760  1.00  0.00     0.173 A 
ATOM     74  F   UNL A   1      41.422  24.350  28.196  1.00  0.00    -0.203 F 
ATOM     75  C   UNL A   1      42.683  24.124  26.263  1.00  0.00     0.198 A 
ATOM     76  C   UNL A   1      44.233  25.820  25.627  1.00  0.00     0.198 A 
ATOM     77  F   UNL A   1      44.516  27.736  26.959  1.00  0.00    -0.203 F 
ATOM     78  F   UNL A   1      42.107  22.931  26.056  1.00  0.00    -0.200 F 
ATOM     79  C   UNL A   1      43.623  24.603  25.375  1.00  0.00     0.200 A 
ATOM     80  F   UNL A   1      45.142  26.296  24.765  1.00  0.00    -0.200 F 
ATOM     81  F   UNL A   1      43.942  23.893  24.284  1.00  0.00    -0.200 F 
ENDBRANCH  47  71
BRANCH  59  82
ATOM     82  C   UNL A   1      44.843  27.129  34.315  1.00  0.00     0.064 A 
ATOM     83  C   UNL A   1      46.110  27.732  34.331  1.00  0.00     0.173 A 
ATOM     84  C   UNL A   1      44.642  26.004  35.129  1.00  0.00     0.173 A 
ATOM     85  F   UNL A   1      46.352  28.815  33.576  1.00  0.00    -0.203 F 
ATOM     86  C   UNL A   1      47.145  27.207  35.099  1.00  0.00     0.198 A 
ATOM     87  C   UNL A   1      45.671  25.501  35.922  1.00  0.00     0.198 A 
ATOM     88  F   UNL A   1      43.443  25.403  35.172  1.00  0.00    -0.203 F 
ATOM     89  F   UNL A   1      48.360  27.771  35.057  1.00  0.00    -0.200 F 
ATOM     90  C   UNL A   1      46.924  26.096  35.897  1.00  0.00     0.200 A 
ATOM     91  F   UNL A   1      45.450  24.442  36.712  1.00  0.00    -0.200 F 
ATOM     92  F   UNL A   1      47.919  25.598  36.643  1.00  0.00    -0.200 F 
ENDBRANCH  59  82
ENDBRANCH  33  34
ENDBRANCH  26  28
ENDBRANCH  25  26
ENDBRANCH  24  25
ENDBRANCH   1  24
TORSDOF 14
ENDMDL
MODEL 2
REMARK VINA RESULT:     -13.1      3.984     10.089
REMARK SMILES CC(C)(C(=O)OCCOC(=O)c1ccc(-c2c3nc(c(-c4c(F)c(F)c(F)c(F)c4F)c4ccc([nH]4)c(-c4c(F)c(F)c(F)c(F)c4F)c4nc(c(-c5c(F)c(F)c(F)c(F)c5F)c5ccc2[nH]5)C=C4)C=C3)cc1)N1C(=O)/C(=C/c2ccc(C=O)cc2)SC1=S
REMARK SMILES IDX 7 1 6 2 4 3 5 4 2 5 1 6 3 7 75 8 76 9 89 10 77 11 78 12
REMARK SMILES IDX 88 13 90 14 79 15 80 16 81 17 87 18 82 19 86 20 83 21 84 22
REMARK SMILES IDX 85 23 8 24 9 25 10 26 11 27 12 28 13 29 74 30 14 31 73 32
REMARK SMILES IDX 15 33 16 34 17 35 67 36 18 37 72 38 66 39 68 40 19 41 71 42
REMARK SMILES IDX 65 43 64 44 20 46 52 47 32 48 51 49 33 50 36 51 50 52 69 53
REMARK SMILES IDX 34 54 35 55 49 57 70 58 37 59 21 60 22 61 30 62 23 63 24 64
REMARK SMILES IDX 28 65 31 66 25 67 26 68 29 69 27 70 53 71 54 72 62 73 55 74
REMARK SMILES IDX 56 75 60 76 63 77 57 78 58 79 61 80 59 81 38 82 39 83 47 84
REMARK SMILES IDX 40 85 41 86 45 87 48 88 42 89 43 90 46 91 44 92
REMARK H PARENT 68 45 36 56
REMARK Flexibility Score: inf
ROOT
ATOM      1  C   UNL A   1      35.610  21.420  26.026  1.00  0.00     0.274 C 
ENDROOT
BRANCH   1   2
ATOM      2  O   UNL A   1      34.260  21.191  25.571  1.00  0.00    -0.460 OA
BRANCH   2   3
ATOM      3  C   UNL A   1      33.270  21.804  26.277  1.00  0.00     0.332 C 
ATOM      4  O   UNL A   1      33.175  21.733  27.499  1.00  0.00    -0.249 OA
BRANCH   3   5
ATOM      5  C   UNL A   1      32.240  22.530  25.365  1.00  0.00     0.141 C 
ATOM      6  C   UNL A   1      32.190  21.854  23.978  1.00  0.00     0.048 C 
ATOM      7  C   UNL A   1      30.828  22.311  25.962  1.00  0.00     0.048 C 
BRANCH   5   8
ATOM      8  N   UNL A   1      32.611  24.011  25.341  1.00  0.00    -0.276 N 
ATOM      9  C   UNL A   1      32.033  24.852  26.307  1.00  0.00     0.267 C 
ATOM     10  C   UNL A   1      33.573  24.629  24.552  1.00  0.00     0.149 C 
ATOM     11  O   UNL A   1      31.194  24.552  27.148  1.00  0.00    -0.268 OA
ATOM     12  C   UNL A   1      32.574  26.236  26.231  1.00  0.00     0.081 C 
ATOM     13  S   UNL A   1      33.659  26.342  24.915  1.00  0.00    -0.054 SA
ATOM     14  S   UNL A   1      34.604  24.068  23.368  1.00  0.00    -0.052 S 
ATOM     15  C   UNL A   1      32.269  27.205  27.115  1.00  0.00     0.029 C 
BRANCH  15  16
ATOM     16  C   UNL A   1      32.805  28.579  27.078  1.00  0.00    -0.024 A 
ATOM     17  C   UNL A   1      31.974  29.672  26.802  1.00  0.00     0.009 A 
ATOM     18  C   UNL A   1      34.159  28.822  27.357  1.00  0.00     0.009 A 
ATOM     19  C   UNL A   1      32.467  30.978  26.936  1.00  0.00     0.012 A 
ATOM     20  C   UNL A   1      34.628  30.113  27.573  1.00  0.00     0.012 A 
ATOM     21  C   UNL A   1      33.767  31.187  27.397  1.00  0.00     0.014 A 
BRANCH  21  22
ATOM     22  C   UNL A   1      34.271  32.521  27.762  1.00  0.00     0.260 C 
ATOM     23  O   UNL A   1      33.559  33.382  28.255  1.00  0.00    -0.298 OA
ENDBRANCH  21  22
ENDBRANCH  15  16
ENDBRANCH   5   8
ENDBRANCH   3   5
ENDBRANCH   2   3
ENDBRANCH   1   2
BRANCH   1  24
ATOM     24  C   UNL A   1      36.660  20.815  25.089  1.00  0.00     0.275 C 
BRANCH  24  25
ATOM     25  O   UNL A   1      37.825  21.655  24.958  1.00  0.00    -0.458 OA
BRANCH  25  26
ATOM     26  C   UNL A   1      38.863  21.310  25.753  1.00  0.00     0.338 C 
ATOM     27  O   UNL A   1      39.464  20.250  25.755  1.00  0.00    -0.246 OA
BRANCH  26  28
ATOM     28  C   UNL A   1      39.277  22.442  26.598  1.00  0.00     0.060 A 
ATOM     29  C   UNL A   1      38.636  23.665  26.408  1.00  0.00     0.016 A 
ATOM     30  C   UNL A   1      40.416  22.368  27.400  1.00  0.00     0.016 A 
ATOM     31  C   UNL A   1      39.182  24.834  26.927  1.00  0.00     0.010 A 
ATOM     32  C   UNL A   1      40.934  23.542  27.971  1.00  0.00     0.010 A 
ATOM     33  C   UNL A   1      40.357  24.794  27.686  1.00  0.00    -0.014 A 
BRANCH  33  34
ATOM     34  C   UNL A   1      41.024  26.081  28.041  1.00  0.00     0.031 A 
ATOM     35  C   UNL A   1      42.350  26.418  27.406  1.00  0.00     0.074 A 
ATOM     36  C   UNL A   1      40.413  26.964  28.858  1.00  0.00     0.049 A 
ATOM     37  N   UNL A   1      43.117  27.462  27.591  1.00  0.00    -0.248 NA
ATOM     38  C   UNL A   1      42.901  25.440  26.452  1.00  0.00     0.031 C 
ATOM     39  C   UNL A   1      39.117  26.738  29.496  1.00  0.00     0.029 A 
ATOM     40  N   UNL A   1      40.763  28.231  29.270  1.00  0.00    -0.354 N 
ATOM     41  C   UNL A   1      44.281  27.209  26.872  1.00  0.00     0.074 A 
ATOM     42  C   UNL A   1      44.103  25.939  26.208  1.00  0.00     0.031 C 
ATOM     43  C   UNL A   1      38.751  27.845  30.162  1.00  0.00     0.029 A 
ATOM     44  C   UNL A   1      39.804  28.853  30.046  1.00  0.00     0.049 A 
ATOM     45  H   UNL A   1      41.619  28.654  29.033  1.00  0.00     0.167 HD
ATOM     46  C   UNL A   1      45.404  27.964  26.809  1.00  0.00     0.037 A 
ATOM     47  C   UNL A   1      39.771  30.100  30.574  1.00  0.00     0.037 A 
ATOM     48  C   UNL A   1      45.512  29.274  27.395  1.00  0.00     0.049 A 
ATOM     49  C   UNL A   1      40.965  30.994  30.302  1.00  0.00     0.074 A 
ATOM     50  C   UNL A   1      46.589  30.142  27.388  1.00  0.00     0.029 A 
ATOM     51  N   UNL A   1      44.483  29.914  28.073  1.00  0.00    -0.354 N 
ATOM     52  N   UNL A   1      42.058  30.734  29.616  1.00  0.00    -0.248 NA
ATOM     53  C   UNL A   1      40.931  32.346  30.871  1.00  0.00     0.031 C 
ATOM     54  C   UNL A   1      46.221  31.296  28.090  1.00  0.00     0.029 A 
ATOM     55  C   UNL A   1      44.899  31.166  28.489  1.00  0.00     0.049 A 
ATOM     56  H   UNL A   1      43.589  29.534  28.233  1.00  0.00     0.167 HD
ATOM     57  C   UNL A   1      42.824  31.892  29.659  1.00  0.00     0.074 A 
ATOM     58  C   UNL A   1      42.044  32.873  30.384  1.00  0.00     0.031 C 
ATOM     59  C   UNL A   1      44.075  32.123  29.185  1.00  0.00     0.037 A 
BRANCH  46  60
ATOM     60  C   UNL A   1      46.621  27.363  26.164  1.00  0.00     0.064 A 
ATOM     61  C   UNL A   1      47.507  26.516  26.843  1.00  0.00     0.173 A 
ATOM     62  C   UNL A   1      46.892  27.642  24.813  1.00  0.00     0.173 A 
ATOM     63  F   UNL A   1      47.306  26.227  28.138  1.00  0.00    -0.203 F 
ATOM     64  C   UNL A   1      48.633  25.997  26.205  1.00  0.00     0.198 A 
ATOM     65  C   UNL A   1      48.001  27.098  24.170  1.00  0.00     0.198 A 
ATOM     66  F   UNL A   1      46.076  28.443  24.111  1.00  0.00    -0.203 F 
ATOM     67  F   UNL A   1      49.495  25.230  26.889  1.00  0.00    -0.200 F 
ATOM     68  C   UNL A   1      48.876  26.282  24.869  1.00  0.00     0.200 A 
ATOM     69  F   UNL A   1      48.224  27.367  22.876  1.00  0.00    -0.200 F 
ATOM     70  F   UNL A   1      49.958  25.780  24.258  1.00  0.00    -0.200 F 
ENDBRANCH  46  60
BRANCH  47  71
ATOM     71  C   UNL A   1      38.555  30.591  31.319  1.00  0.00     0.064 A 
ATOM     72  C   UNL A   1      38.506  30.649  32.724  1.00  0.00     0.173 A 
ATOM     73  C   UNL A   1      37.423  31.087  30.654  1.00  0.00     0.173 A 
ATOM     74  F   UNL A   1      39.491  30.132  33.460  1.00  0.00    -0.203 F 
ATOM     75  C   UNL A   1      37.440  31.214  33.420  1.00  0.00     0.198 A 
ATOM     76  C   UNL A   1      36.362  31.683  31.347  1.00  0.00     0.198 A 
ATOM     77  F   UNL A   1      37.354  31.041  29.315  1.00  0.00    -0.203 F 
ATOM     78  F   UNL A   1      37.455  31.239  34.760  1.00  0.00    -0.200 F 
ATOM     79  C   UNL A   1      36.375  31.753  32.729  1.00  0.00     0.200 A 
ATOM     80  F   UNL A   1      35.335  32.211  30.667  1.00  0.00    -0.200 F 
ATOM     81  F   UNL A   1      35.366  32.334  33.393  1.00  0.00    -0.200 F 
ENDBRANCH  47  71
BRANCH  59  82
ATOM     82  C   UNL A   1      44.665  33.483  29.437  1.00  0.00     0.064 A 
ATOM     83  C   UNL A   1      45.393  33.756  30.605  1.00  0.00     0.173 A 
ATOM     84  C   UNL A   1      44.553  34.503  28.480  1.00  0.00     0.173 A 
ATOM     85  F   UNL A   1      45.535  32.811  31.549  1.00  0.00    -0.203 F 
ATOM     86  C   UNL A   1      45.950  35.012  30.826  1.00  0.00     0.198 A 
ATOM     87  C   UNL A   1      45.141  35.748  28.690  1.00  0.00     0.198 A 
ATOM     88  F   UNL A   1      43.890  34.288  27.333  1.00  0.00    -0.203 F 
ATOM     89  F   UNL A   1      46.597  35.263  31.973  1.00  0.00    -0.200 F 
ATOM     90  C   UNL A   1      45.830  36.004  29.866  1.00  0.00     0.200 A 
ATOM     91  F   UNL A   1      45.045  36.699  27.751  1.00  0.00    -0.200 F 
ATOM     92  F   UNL A   1      46.376  37.209  30.076  1.00  0.00    -0.200 F 
ENDBRANCH  59  82
ENDBRANCH  33  34
ENDBRANCH  26  28
ENDBRANCH  25  26
ENDBRANCH  24  25
ENDBRANCH   1  24
TORSDOF 14
ENDMDL
MODEL 3
REMARK VINA RESULT:     -13.0      4.205     10.078
REMARK SMILES CC(C)(C(=O)OCCOC(=O)c1ccc(-c2c3nc(c(-c4c(F)c(F)c(F)c(F)c4F)c4ccc([nH]4)c(-c4c(F)c(F)c(F)c(F)c4F)c4nc(c(-c5c(F)c(F)c(F)c(F)c5F)c5ccc2[nH]5)C=C4)C=C3)cc1)N1C(=O)/C(=C/c2ccc(C=O)cc2)SC1=S
REMARK SMILES IDX 7 1 6 2 4 3 5 4 2 5 1 6 3 7 75 8 76 9 89 10 77 11 78 12
REMARK SMILES IDX 88 13 90 14 79 15 80 16 81 17 87 18 82 19 86 20 83 21 84 22
REMARK SMILES IDX 85 23 8 24 9 25 10 26 11 27 12 28 13 29 74 30 14 31 73 32
REMARK SMILES IDX 15 33 16 34 17 35 67 36 18 37 72 38 66 39 68 40 19 41 71 42
REMARK SMILES IDX 65 43 64 44 20 46 52 47 32 48 51 49 33 50 36 51 50 52 69 53
REMARK SMILES IDX 34 54 35 55 49 57 70 58 37 59 21 60 22 61 30 62 23 63 24 64
REMARK SMILES IDX 28 65 31 66 25 67 26 68 29 69 27 70 53 71 54 72 62 73 55 74
REMARK SMILES IDX 56 75 60 76 63 77 57 78 58 79 61 80 59 81 38 82 39 83 47 84
REMARK SMILES IDX 40 85 41 86 45 87 48 88 42 89 43 90 46 91 44 92
REMARK H PARENT 68 45 36 56
REMARK Flexibility Score: inf
ROOT
ATOM      1  C   UNL A   1      35.861  21.393  25.492  1.00  0.00     0.274 C 
ENDROOT
BRANCH   1   2
ATOM      2  O   UNL A   1      34.870  21.479  24.446  1.00  0.00    -0.460 OA
BRANCH   2   3
ATOM      3  C   UNL A   1      34.190  22.655  24.351  1.00  0.00     0.332 C 
ATOM      4  O   UNL A   1      34.700  23.745  24.590  1.00  0.00    -0.249 OA
BRANCH   3   5
ATOM      5  C   UNL A   1      32.691  22.457  23.987  1.00  0.00     0.141 C 
ATOM      6  C   UNL A   1      32.559  21.948  22.536  1.00  0.00     0.048 C 
ATOM      7  C   UNL A   1      32.130  21.309  24.861  1.00  0.00     0.048 C 
BRANCH   5   8
ATOM      8  N   UNL A   1      31.971  23.773  24.270  1.00  0.00    -0.276 N 
ATOM      9  C   UNL A   1      31.908  24.726  23.238  1.00  0.00     0.267 C 
ATOM     10  C   UNL A   1      31.236  24.110  25.400  1.00  0.00     0.149 C 
ATOM     11  O   UNL A   1      32.428  24.660  22.132  1.00  0.00    -0.268 OA
ATOM     12  C   UNL A   1      31.082  25.903  23.622  1.00  0.00     0.081 C 
ATOM     13  S   UNL A   1      30.567  25.723  25.242  1.00  0.00    -0.054 SA
ATOM     14  S   UNL A   1      30.900  23.303  26.819  1.00  0.00    -0.052 S 
ATOM     15  C   UNL A   1      30.770  26.903  22.775  1.00  0.00     0.029 C 
BRANCH  15  16
ATOM     16  C   UNL A   1      29.937  28.071  23.119  1.00  0.00    -0.024 A 
ATOM     17  C   UNL A   1      30.512  29.246  23.617  1.00  0.00     0.009 A 
ATOM     18  C   UNL A   1      28.549  28.038  22.919  1.00  0.00     0.009 A 
ATOM     19  C   UNL A   1      29.725  30.396  23.779  1.00  0.00     0.012 A 
ATOM     20  C   UNL A   1      27.784  29.196  22.998  1.00  0.00     0.012 A 
ATOM     21  C   UNL A   1      28.385  30.382  23.393  1.00  0.00     0.014 A 
BRANCH  21  22
ATOM     22  C   UNL A   1      27.566  31.605  23.336  1.00  0.00     0.260 C 
ATOM     23  O   UNL A   1      27.903  32.594  22.706  1.00  0.00    -0.298 OA
ENDBRANCH  21  22
ENDBRANCH  15  16
ENDBRANCH   5   8
ENDBRANCH   3   5
ENDBRANCH   2   3
ENDBRANCH   1   2
BRANCH   1  24
ATOM     24  C   UNL A   1      37.129  20.658  25.044  1.00  0.00     0.275 C 
BRANCH  24  25
ATOM     25  O   UNL A   1      38.283  21.524  25.024  1.00  0.00    -0.458 OA
BRANCH  25  26
ATOM     26  C   UNL A   1      39.232  21.221  25.938  1.00  0.00     0.338 C 
ATOM     27  O   UNL A   1      39.810  20.156  26.069  1.00  0.00    -0.246 OA
BRANCH  26  28
ATOM     28  C   UNL A   1      39.585  22.403  26.741  1.00  0.00     0.060 A 
ATOM     29  C   UNL A   1      38.936  23.602  26.454  1.00  0.00     0.016 A 
ATOM     30  C   UNL A   1      40.682  22.391  27.603  1.00  0.00     0.016 A 
ATOM     31  C   UNL A   1      39.437  24.806  26.938  1.00  0.00     0.010 A 
ATOM     32  C   UNL A   1      41.152  23.602  28.136  1.00  0.00     0.010 A 
ATOM     33  C   UNL A   1      40.571  24.827  27.756  1.00  0.00    -0.014 A 
BRANCH  33  34
ATOM     34  C   UNL A   1      41.199  26.143  28.076  1.00  0.00     0.031 A 
ATOM     35  C   UNL A   1      42.514  26.502  27.432  1.00  0.00     0.074 A 
ATOM     36  C   UNL A   1      40.561  27.030  28.868  1.00  0.00     0.049 A 
ATOM     37  N   UNL A   1      43.250  27.573  27.588  1.00  0.00    -0.248 NA
ATOM     38  C   UNL A   1      43.096  25.515  26.506  1.00  0.00     0.031 C 
ATOM     39  C   UNL A   1      39.272  26.782  29.512  1.00  0.00     0.029 A 
ATOM     40  N   UNL A   1      40.872  28.317  29.246  1.00  0.00    -0.354 N 
ATOM     41  C   UNL A   1      44.422  27.335  26.877  1.00  0.00     0.074 A 
ATOM     42  C   UNL A   1      44.283  26.042  26.247  1.00  0.00     0.031 C 
ATOM     43  C   UNL A   1      38.873  27.895  30.147  1.00  0.00     0.029 A 
ATOM     44  C   UNL A   1      39.895  28.931  30.004  1.00  0.00     0.049 A 
ATOM     45  H   UNL A   1      41.716  28.759  28.997  1.00  0.00     0.167 HD
ATOM     46  C   UNL A   1      45.521  28.121  26.793  1.00  0.00     0.037 A 
ATOM     47  C   UNL A   1      39.824  30.190  30.498  1.00  0.00     0.037 A 
ATOM     48  C   UNL A   1      45.590  29.450  27.344  1.00  0.00     0.049 A 
ATOM     49  C   UNL A   1      40.991  31.112  30.202  1.00  0.00     0.074 A 
ATOM     50  C   UNL A   1      46.640  30.349  27.313  1.00  0.00     0.029 A 
ATOM     51  N   UNL A   1      44.542  30.077  28.003  1.00  0.00    -0.354 N 
ATOM     52  N   UNL A   1      42.092  30.866  29.523  1.00  0.00    -0.248 NA
ATOM     53  C   UNL A   1      40.916  32.478  30.734  1.00  0.00     0.031 C 
ATOM     54  C   UNL A   1      46.238  31.510  27.982  1.00  0.00     0.029 A 
ATOM     55  C   UNL A   1      44.920  31.352  28.385  1.00  0.00     0.049 A 
ATOM     56  H   UNL A   1      43.660  29.675  28.173  1.00  0.00     0.167 HD
ATOM     57  C   UNL A   1      42.823  32.047  29.534  1.00  0.00     0.074 A 
ATOM     58  C   UNL A   1      42.014  33.024  30.232  1.00  0.00     0.031 C 
ATOM     59  C   UNL A   1      44.067  32.303  29.054  1.00  0.00     0.037 A 
BRANCH  46  60
ATOM     60  C   UNL A   1      46.756  27.540  26.165  1.00  0.00     0.064 A 
ATOM     61  C   UNL A   1      47.015  27.598  24.789  1.00  0.00     0.173 A 
ATOM     62  C   UNL A   1      47.716  26.916  26.982  1.00  0.00     0.173 A 
ATOM     63  F   UNL A   1      46.128  28.169  23.959  1.00  0.00    -0.203 F 
ATOM     64  C   UNL A   1      48.168  27.028  24.251  1.00  0.00     0.198 A 
ATOM     65  C   UNL A   1      48.881  26.374  26.446  1.00  0.00     0.198 A 
ATOM     66  F   UNL A   1      47.524  26.834  28.308  1.00  0.00    -0.203 F 
ATOM     67  F   UNL A   1      48.370  27.050  22.925  1.00  0.00    -0.200 F 
ATOM     68  C   UNL A   1      49.103  26.423  25.079  1.00  0.00     0.200 A 
ATOM     69  F   UNL A   1      49.786  25.801  27.252  1.00  0.00    -0.200 F 
ATOM     70  F   UNL A   1      50.212  25.878  24.560  1.00  0.00    -0.200 F 
ENDBRANCH  46  60
BRANCH  47  71
ATOM     71  C   UNL A   1      38.593  30.665  31.229  1.00  0.00     0.064 A 
ATOM     72  C   UNL A   1      38.514  30.684  32.634  1.00  0.00     0.173 A 
ATOM     73  C   UNL A   1      37.477  31.183  30.553  1.00  0.00     0.173 A 
ATOM     74  F   UNL A   1      39.480  30.144  33.376  1.00  0.00    -0.203 F 
ATOM     75  C   UNL A   1      37.434  31.234  33.322  1.00  0.00     0.198 A 
ATOM     76  C   UNL A   1      36.403  31.763  31.238  1.00  0.00     0.198 A 
ATOM     77  F   UNL A   1      37.439  31.174  29.213  1.00  0.00    -0.203 F 
ATOM     78  F   UNL A   1      37.419  31.222  34.662  1.00  0.00    -0.200 F 
ATOM     79  C   UNL A   1      36.386  31.795  32.623  1.00  0.00     0.200 A 
ATOM     80  F   UNL A   1      35.393  32.314  30.551  1.00  0.00    -0.200 F 
ATOM     81  F   UNL A   1      35.365  32.361  33.279  1.00  0.00    -0.200 F 
ENDBRANCH  47  71
BRANCH  59  82
ATOM     82  C   UNL A   1      44.616  33.685  29.269  1.00  0.00     0.064 A 
ATOM     83  C   UNL A   1      44.416  34.704  28.325  1.00  0.00     0.173 A 
ATOM     84  C   UNL A   1      45.298  34.011  30.452  1.00  0.00     0.173 A 
ATOM     85  F   UNL A   1      43.764  34.446  27.180  1.00  0.00    -0.203 F 
ATOM     86  C   UNL A   1      44.913  35.986  28.538  1.00  0.00     0.198 A 
ATOM     87  C   UNL A   1      45.765  35.304  30.675  1.00  0.00     0.198 A 
ATOM     88  F   UNL A   1      45.495  33.082  31.399  1.00  0.00    -0.203 F 
ATOM     89  F   UNL A   1      44.753  36.929  27.598  1.00  0.00    -0.200 F 
ATOM     90  C   UNL A   1      45.581  36.287  29.714  1.00  0.00     0.200 A 
ATOM     91  F   UNL A   1      46.389  35.600  31.823  1.00  0.00    -0.200 F 
ATOM     92  F   UNL A   1      46.051  37.525  29.921  1.00  0.00    -0.200 F 
ENDBRANCH  59  82
ENDBRANCH  33  34
ENDBRANCH  26  28
ENDBRANCH  25  26
ENDBRANCH  24  25
ENDBRANCH   1  24
TORSDOF 14
ENDMDL
