MODEL 1
REMARK VINA RESULT:     -12.2      0.000      0.000
REMARK SMILES Cc1ccccc1[C@@H](Cc1ncnn1C(C)C)C(=O)OCCOC(=O)c1ccc(-c2c3nc(c(-c4c(F)c(F)c(F)c(F)c4F)c4ccc([nH]4)c(-c4c(F)c(F)c(F)c(F)c4F)c4nc(c(-c5c(F)c(F)c(F)c(F)c5F)c5ccc2[nH]5)C=C4)C=C3)cc1
REMARK SMILES IDX 21 1 20 2 18 3 19 4 8 5 7 6 1 7 2 8 3 9 4 10 6 11 5 12 9 13
REMARK SMILES IDX 10 14 11 15 14 16 12 17 13 18 15 19 16 20 17 21 22 22 23 23
REMARK SMILES IDX 24 24 25 25 26 26 27 27 88 28 28 29 87 30 29 31 30 32 31 33
REMARK SMILES IDX 81 34 32 35 86 36 80 37 82 38 33 39 85 40 79 41 78 42 34 44
REMARK SMILES IDX 66 45 46 46 65 47 47 48 50 49 64 50 83 51 48 52 49 53 63 55
REMARK SMILES IDX 84 56 51 57 35 58 36 59 44 60 37 61 38 62 42 63 45 64 39 65
REMARK SMILES IDX 40 66 43 67 41 68 67 69 68 70 76 71 69 72 70 73 74 74 77 75
REMARK SMILES IDX 71 76 72 77 75 78 73 79 52 80 53 81 61 82 54 83 55 84 59 85
REMARK SMILES IDX 62 86 56 87 57 88 60 89 58 90
REMARK H PARENT 82 43 50 54
REMARK Flexibility Score: inf
ROOT
ATOM      1  C   UNL A   1      32.137  29.022  26.191  1.00  0.00     0.274 C 
ENDROOT
BRANCH   1   2
ATOM      2  O   UNL A   1      31.624  29.579  24.984  1.00  0.00    -0.462 OA
BRANCH   2   3
ATOM      3  C   UNL A   1      32.186  28.976  23.912  1.00  0.00     0.314 C 
ATOM      4  O   UNL A   1      33.349  29.206  23.606  1.00  0.00    -0.252 OA
BRANCH   3   5
ATOM      5  C   UNL A   1      31.335  27.909  23.254  1.00  0.00     0.137 C 
BRANCH   5   6
ATOM      6  C   UNL A   1      30.004  28.457  22.746  1.00  0.00    -0.030 A 
ATOM      7  C   UNL A   1      28.406  26.704  23.875  1.00  0.00     0.044 C 
ATOM      8  C   UNL A   1      28.718  27.999  23.165  1.00  0.00    -0.047 A 
ATOM      9  C   UNL A   1      27.603  28.840  22.977  1.00  0.00     0.004 A 
ATOM     10  C   UNL A   1      27.730  30.074  22.349  1.00  0.00     0.000 A 
ATOM     11  C   UNL A   1      30.082  29.653  22.016  1.00  0.00     0.005 A 
ATOM     12  C   UNL A   1      28.962  30.463  21.843  1.00  0.00     0.000 A 
ENDBRANCH   5   6
BRANCH   5  13
ATOM     13  C   UNL A   1      32.278  27.065  22.356  1.00  0.00     0.097 C 
BRANCH  13  14
ATOM     14  C   UNL A   1      32.640  25.635  22.767  1.00  0.00     0.128 A 
ATOM     15  N   UNL A   1      33.608  25.011  22.120  1.00  0.00    -0.220 NA
ATOM     16  N   UNL A   1      32.191  24.768  23.801  1.00  0.00    -0.248 N 
ATOM     17  C   UNL A   1      33.675  23.797  22.709  1.00  0.00     0.246 A 
ATOM     18  N   UNL A   1      32.752  23.551  23.623  1.00  0.00    -0.159 NA
BRANCH  16  19
ATOM     19  C   UNL A   1      31.464  24.890  25.069  1.00  0.00     0.103 C 
ATOM     20  C   UNL A   1      30.906  23.584  25.561  1.00  0.00     0.033 C 
ATOM     21  C   UNL A   1      32.299  25.279  26.300  1.00  0.00     0.033 C 
ENDBRANCH  16  19
ENDBRANCH  13  14
ENDBRANCH   5  13
ENDBRANCH   3   5
ENDBRANCH   2   3
ENDBRANCH   1   2
BRANCH   1  22
ATOM     22  C   UNL A   1      32.520  30.107  27.180  1.00  0.00     0.275 C 
BRANCH  22  23
ATOM     23  O   UNL A   1      33.893  30.630  27.161  1.00  0.00    -0.458 OA
BRANCH  23  24
ATOM     24  C   UNL A   1      34.867  30.917  28.065  1.00  0.00     0.338 C 
ATOM     25  O   UNL A   1      34.690  31.833  28.876  1.00  0.00    -0.246 OA
BRANCH  24  26
ATOM     26  C   UNL A   1      36.152  30.163  28.143  1.00  0.00     0.060 A 
ATOM     27  C   UNL A   1      37.156  30.174  27.139  1.00  0.00     0.016 A 
ATOM     28  C   UNL A   1      36.435  29.463  29.276  1.00  0.00     0.016 A 
ATOM     29  C   UNL A   1      38.473  29.621  27.341  1.00  0.00     0.010 A 
ATOM     30  C   UNL A   1      37.760  29.148  29.549  1.00  0.00     0.010 A 
ATOM     31  C   UNL A   1      38.832  29.128  28.595  1.00  0.00    -0.014 A 
BRANCH  31  32
ATOM     32  C   UNL A   1      40.045  28.271  29.024  1.00  0.00     0.031 A 
ATOM     33  C   UNL A   1      40.277  26.695  28.898  1.00  0.00     0.074 A 
ATOM     34  C   UNL A   1      41.068  29.189  29.111  1.00  0.00     0.049 A 
ATOM     35  N   UNL A   1      41.416  26.099  29.161  1.00  0.00    -0.248 NA
ATOM     36  C   UNL A   1      39.357  25.639  28.411  1.00  0.00     0.031 C 
ATOM     37  C   UNL A   1      42.462  29.224  28.657  1.00  0.00     0.029 A 
ATOM     38  N   UNL A   1      40.896  30.533  29.512  1.00  0.00    -0.354 N 
ATOM     39  C   UNL A   1      41.527  24.916  28.363  1.00  0.00     0.074 A 
ATOM     40  C   UNL A   1      40.160  24.617  28.039  1.00  0.00     0.031 C 
ATOM     41  C   UNL A   1      43.020  30.414  28.974  1.00  0.00     0.029 A 
ATOM     42  C   UNL A   1      42.113  31.113  29.848  1.00  0.00     0.049 A 
ATOM     43  H   UNL A   1      40.029  30.997  29.548  1.00  0.00     0.167 HD
ATOM     44  C   UNL A   1      42.771  24.509  27.871  1.00  0.00     0.037 A 
ATOM     45  C   UNL A   1      42.229  31.335  31.187  1.00  0.00     0.037 A 
ATOM     46  C   UNL A   1      43.818  25.399  28.408  1.00  0.00     0.049 A 
ATOM     47  C   UNL A   1      42.937  30.125  31.812  1.00  0.00     0.074 A 
ATOM     48  C   UNL A   1      44.802  26.224  27.889  1.00  0.00     0.029 A 
ATOM     49  N   UNL A   1      43.772  25.691  29.748  1.00  0.00    -0.354 N 
ATOM     50  N   UNL A   1      43.612  29.218  31.141  1.00  0.00    -0.248 NA
ATOM     51  C   UNL A   1      42.893  29.817  33.231  1.00  0.00     0.031 C 
ATOM     52  C   UNL A   1      45.238  27.102  28.939  1.00  0.00     0.029 A 
ATOM     53  C   UNL A   1      44.605  26.724  30.109  1.00  0.00     0.049 A 
ATOM     54  H   UNL A   1      43.201  25.208  30.388  1.00  0.00     0.167 HD
ATOM     55  C   UNL A   1      43.981  28.186  31.956  1.00  0.00     0.074 A 
ATOM     56  C   UNL A   1      43.513  28.625  33.264  1.00  0.00     0.031 C 
ATOM     57  C   UNL A   1      44.607  27.037  31.526  1.00  0.00     0.037 A 
BRANCH  44  58
ATOM     58  C   UNL A   1      43.176  23.560  26.674  1.00  0.00     0.064 A 
ATOM     59  C   UNL A   1      42.977  22.150  26.802  1.00  0.00     0.173 A 
ATOM     60  C   UNL A   1      43.899  23.907  25.511  1.00  0.00     0.173 A 
ATOM     61  F   UNL A   1      42.253  21.646  27.811  1.00  0.00    -0.203 F 
ATOM     62  C   UNL A   1      43.508  21.192  25.916  1.00  0.00     0.198 A 
ATOM     63  C   UNL A   1      44.399  22.940  24.595  1.00  0.00     0.198 A 
ATOM     64  F   UNL A   1      44.168  25.187  25.226  1.00  0.00    -0.203 F 
ATOM     65  F   UNL A   1      43.332  19.882  26.158  1.00  0.00    -0.200 F 
ATOM     66  C   UNL A   1      44.218  21.586  24.807  1.00  0.00     0.200 A 
ATOM     67  F   UNL A   1      45.075  23.331  23.502  1.00  0.00    -0.200 F 
ATOM     68  F   UNL A   1      44.709  20.674  23.953  1.00  0.00    -0.200 F 
ENDBRANCH  44  58
BRANCH  45  69
ATOM     69  C   UNL A   1      40.952  32.076  31.612  1.00  0.00     0.064 A 
ATOM     70  C   UNL A   1      40.767  33.357  31.016  1.00  0.00     0.173 A 
ATOM     71  C   UNL A   1      39.774  31.397  31.982  1.00  0.00     0.173 A 
ATOM     72  F   UNL A   1      41.836  34.049  30.584  1.00  0.00    -0.203 F 
ATOM     73  C   UNL A   1      39.504  33.830  30.640  1.00  0.00     0.198 A 
ATOM     74  C   UNL A   1      38.505  31.899  31.635  1.00  0.00     0.198 A 
ATOM     75  F   UNL A   1      39.839  30.167  32.508  1.00  0.00    -0.203 F 
ATOM     76  F   UNL A   1      39.399  34.927  29.874  1.00  0.00    -0.200 F 
ATOM     77  C   UNL A   1      38.376  33.088  30.929  1.00  0.00     0.200 A 
ATOM     78  F   UNL A   1      37.407  31.165  31.876  1.00  0.00    -0.200 F 
ATOM     79  F   UNL A   1      37.178  33.477  30.462  1.00  0.00    -0.200 F 
ENDBRANCH  45  69
BRANCH  57  80
ATOM     80  C   UNL A   1      45.136  25.972  32.471  1.00  0.00     0.064 A 
ATOM     81  C   UNL A   1      46.480  25.594  32.452  1.00  0.00     0.173 A 
ATOM     82  C   UNL A   1      44.327  25.237  33.379  1.00  0.00     0.173 A 
ATOM     83  F   UNL A   1      47.289  25.987  31.458  1.00  0.00    -0.203 F 
ATOM     84  C   UNL A   1      47.025  24.766  33.429  1.00  0.00     0.198 A 
ATOM     85  C   UNL A   1      44.861  24.372  34.327  1.00  0.00     0.198 A 
ATOM     86  F   UNL A   1      42.990  25.294  33.385  1.00  0.00    -0.203 F 
ATOM     87  F   UNL A   1      48.344  24.543  33.435  1.00  0.00    -0.200 F 
ATOM     88  C   UNL A   1      46.221  24.179  34.386  1.00  0.00     0.200 A 
ATOM     89  F   UNL A   1      44.046  23.739  35.182  1.00  0.00    -0.200 F 
ATOM     90  F   UNL A   1      46.748  23.400  35.336  1.00  0.00    -0.200 F 
ENDBRANCH  57  80
ENDBRANCH  31  32
ENDBRANCH  24  26
ENDBRANCH  23  24
ENDBRANCH  22  23
ENDBRANCH   1  22
TORSDOF 15
ENDMDL
MODEL 2
REMARK VINA RESULT:     -12.2      2.388      4.241
REMARK SMILES Cc1ccccc1[C@@H](Cc1ncnn1C(C)C)C(=O)OCCOC(=O)c1ccc(-c2c3nc(c(-c4c(F)c(F)c(F)c(F)c4F)c4ccc([nH]4)c(-c4c(F)c(F)c(F)c(F)c4F)c4nc(c(-c5c(F)c(F)c(F)c(F)c5F)c5ccc2[nH]5)C=C4)C=C3)cc1
REMARK SMILES IDX 21 1 20 2 18 3 19 4 8 5 7 6 1 7 2 8 3 9 4 10 6 11 5 12 9 13
REMARK SMILES IDX 10 14 11 15 14 16 12 17 13 18 15 19 16 20 17 21 22 22 23 23
REMARK SMILES IDX 24 24 25 25 26 26 27 27 88 28 28 29 87 30 29 31 30 32 31 33
REMARK SMILES IDX 81 34 32 35 86 36 80 37 82 38 33 39 85 40 79 41 78 42 34 44
REMARK SMILES IDX 66 45 46 46 65 47 47 48 50 49 64 50 83 51 48 52 49 53 63 55
REMARK SMILES IDX 84 56 51 57 35 58 36 59 44 60 37 61 38 62 42 63 45 64 39 65
REMARK SMILES IDX 40 66 43 67 41 68 67 69 68 70 76 71 69 72 70 73 74 74 77 75
REMARK SMILES IDX 71 76 72 77 75 78 73 79 52 80 53 81 61 82 54 83 55 84 59 85
REMARK SMILES IDX 62 86 56 87 57 88 60 89 58 90
REMARK H PARENT 82 43 50 54
REMARK Flexibility Score: inf
ROOT
ATOM      1  C   UNL A   1      32.002  28.207  27.631  1.00  0.00     0.274 C 
ENDROOT
BRANCH   1   2
ATOM      2  O   UNL A   1      31.609  27.110  26.811  1.00  0.00    -0.462 OA
BRANCH   2   3
ATOM      3  C   UNL A   1      32.678  26.609  26.152  1.00  0.00     0.314 C 
ATOM      4  O   UNL A   1      33.805  27.034  26.376  1.00  0.00    -0.252 OA
BRANCH   3   5
ATOM      5  C   UNL A   1      32.388  25.408  25.275  1.00  0.00     0.137 C 
BRANCH   5   6
ATOM      6  C   UNL A   1      32.940  24.111  25.861  1.00  0.00    -0.030 A 
ATOM      7  C   UNL A   1      35.255  24.078  24.620  1.00  0.00     0.044 C 
ATOM      8  C   UNL A   1      34.272  23.631  25.675  1.00  0.00    -0.047 A 
ATOM      9  C   UNL A   1      34.790  22.692  26.589  1.00  0.00     0.004 A 
ATOM     10  C   UNL A   1      34.010  22.193  27.626  1.00  0.00     0.000 A 
ATOM     11  C   UNL A   1      32.145  23.507  26.846  1.00  0.00     0.005 A 
ATOM     12  C   UNL A   1      32.682  22.578  27.733  1.00  0.00     0.000 A 
ENDBRANCH   5   6
BRANCH   5  13
ATOM     13  C   UNL A   1      30.918  25.538  24.795  1.00  0.00     0.097 C 
BRANCH  13  14
ATOM     14  C   UNL A   1      30.541  26.627  23.787  1.00  0.00     0.128 A 
ATOM     15  N   UNL A   1      29.528  27.428  24.062  1.00  0.00    -0.220 NA
ATOM     16  N   UNL A   1      31.102  27.059  22.553  1.00  0.00    -0.248 N 
ATOM     17  C   UNL A   1      29.455  28.254  22.995  1.00  0.00     0.246 A 
ATOM     18  N   UNL A   1      30.282  27.981  22.001  1.00  0.00    -0.159 NA
BRANCH  16  19
ATOM     19  C   UNL A   1      32.378  26.920  21.843  1.00  0.00     0.103 C 
ATOM     20  C   UNL A   1      33.541  27.505  22.593  1.00  0.00     0.033 C 
ATOM     21  C   UNL A   1      32.903  25.487  21.656  1.00  0.00     0.033 C 
ENDBRANCH  16  19
ENDBRANCH  13  14
ENDBRANCH   5  13
ENDBRANCH   3   5
ENDBRANCH   2   3
ENDBRANCH   1   2
BRANCH   1  22
ATOM     22  C   UNL A   1      31.788  29.531  26.922  1.00  0.00     0.275 C 
BRANCH  22  23
ATOM     23  O   UNL A   1      32.950  30.395  26.672  1.00  0.00    -0.458 OA
BRANCH  23  24
ATOM     24  C   UNL A   1      33.714  31.272  27.377  1.00  0.00     0.338 C 
ATOM     25  O   UNL A   1      33.268  32.399  27.626  1.00  0.00    -0.246 OA
BRANCH  24  26
ATOM     26  C   UNL A   1      35.075  30.939  27.886  1.00  0.00     0.060 A 
ATOM     27  C   UNL A   1      36.143  31.867  28.001  1.00  0.00     0.016 A 
ATOM     28  C   UNL A   1      35.315  29.679  28.343  1.00  0.00     0.016 A 
ATOM     29  C   UNL A   1      37.368  31.569  28.702  1.00  0.00     0.010 A 
ATOM     30  C   UNL A   1      36.382  29.478  29.210  1.00  0.00     0.010 A 
ATOM     31  C   UNL A   1      37.501  30.359  29.382  1.00  0.00    -0.014 A 
BRANCH  31  32
ATOM     32  C   UNL A   1      38.753  29.681  29.985  1.00  0.00     0.031 A 
ATOM     33  C   UNL A   1      39.452  28.298  29.598  1.00  0.00     0.074 A 
ATOM     34  C   UNL A   1      39.411  30.722  30.603  1.00  0.00     0.049 A 
ATOM     35  N   UNL A   1      40.604  27.898  30.083  1.00  0.00    -0.248 NA
ATOM     36  C   UNL A   1      39.033  27.269  28.616  1.00  0.00     0.031 C 
ATOM     37  C   UNL A   1      40.804  31.176  30.652  1.00  0.00     0.029 A 
ATOM     38  N   UNL A   1      38.762  31.820  31.211  1.00  0.00    -0.354 N 
ATOM     39  C   UNL A   1      41.254  27.055  29.126  1.00  0.00     0.074 A 
ATOM     40  C   UNL A   1      40.163  26.591  28.313  1.00  0.00     0.031 C 
ATOM     41  C   UNL A   1      40.895  32.307  31.388  1.00  0.00     0.029 A 
ATOM     42  C   UNL A   1      39.630  32.512  32.047  1.00  0.00     0.049 A 
ATOM     43  H   UNL A   1      37.821  32.064  31.062  1.00  0.00     0.167 HD
ATOM     44  C   UNL A   1      42.646  27.078  28.993  1.00  0.00     0.037 A 
ATOM     45  C   UNL A   1      39.324  32.345  33.364  1.00  0.00     0.037 A 
ATOM     46  C   UNL A   1      43.215  27.963  30.026  1.00  0.00     0.049 A 
ATOM     47  C   UNL A   1      40.160  31.177  33.904  1.00  0.00     0.074 A 
ATOM     48  C   UNL A   1      44.021  29.089  30.055  1.00  0.00     0.029 A 
ATOM     49  N   UNL A   1      42.740  27.828  31.306  1.00  0.00    -0.354 N 
ATOM     50  N   UNL A   1      41.218  30.670  33.310  1.00  0.00    -0.248 NA
ATOM     51  C   UNL A   1      39.838  30.459  35.125  1.00  0.00     0.031 C 
ATOM     52  C   UNL A   1      43.898  29.685  31.356  1.00  0.00     0.029 A 
ATOM     53  C   UNL A   1      43.117  28.855  32.138  1.00  0.00     0.049 A 
ATOM     54  H   UNL A   1      42.184  27.070  31.600  1.00  0.00     0.167 HD
ATOM     55  C   UNL A   1      41.641  29.540  33.952  1.00  0.00     0.074 A 
ATOM     56  C   UNL A   1      40.742  29.465  35.096  1.00  0.00     0.031 C 
ATOM     57  C   UNL A   1      42.659  28.726  33.510  1.00  0.00     0.037 A 
BRANCH  44  58
ATOM     58  C   UNL A   1      43.603  26.632  27.818  1.00  0.00     0.064 A 
ATOM     59  C   UNL A   1      44.301  25.388  27.917  1.00  0.00     0.173 A 
ATOM     60  C   UNL A   1      44.018  27.404  26.710  1.00  0.00     0.173 A 
ATOM     61  F   UNL A   1      43.988  24.498  28.870  1.00  0.00    -0.203 F 
ATOM     62  C   UNL A   1      45.348  24.996  27.061  1.00  0.00     0.198 A 
ATOM     63  C   UNL A   1      45.048  26.989  25.821  1.00  0.00     0.198 A 
ATOM     64  F   UNL A   1      43.463  28.595  26.456  1.00  0.00    -0.203 F 
ATOM     65  F   UNL A   1      45.997  23.840  27.278  1.00  0.00    -0.200 F 
ATOM     66  C   UNL A   1      45.723  25.795  26.007  1.00  0.00     0.200 A 
ATOM     67  F   UNL A   1      45.397  27.763  24.780  1.00  0.00    -0.200 F 
ATOM     68  F   UNL A   1      46.709  25.415  25.180  1.00  0.00    -0.200 F 
ENDBRANCH  44  58
BRANCH  45  69
ATOM     69  C   UNL A   1      37.824  32.647  33.499  1.00  0.00     0.064 A 
ATOM     70  C   UNL A   1      37.476  34.029  33.454  1.00  0.00     0.173 A 
ATOM     71  C   UNL A   1      36.831  31.751  33.052  1.00  0.00     0.173 A 
ATOM     72  F   UNL A   1      38.384  34.953  33.811  1.00  0.00    -0.203 F 
ATOM     73  C   UNL A   1      36.310  34.485  32.828  1.00  0.00     0.198 A 
ATOM     74  C   UNL A   1      35.642  32.219  32.459  1.00  0.00     0.198 A 
ATOM     75  F   UNL A   1      37.077  30.435  33.011  1.00  0.00    -0.203 F 
ATOM     76  F   UNL A   1      36.140  35.797  32.602  1.00  0.00    -0.200 F 
ATOM     77  C   UNL A   1      35.406  33.579  32.309  1.00  0.00     0.200 A 
ATOM     78  F   UNL A   1      34.778  31.347  31.916  1.00  0.00    -0.200 F 
ATOM     79  F   UNL A   1      34.351  34.013  31.601  1.00  0.00    -0.200 F 
ENDBRANCH  45  69
BRANCH  57  80
ATOM     80  C   UNL A   1      43.206  27.561  34.317  1.00  0.00     0.064 A 
ATOM     81  C   UNL A   1      42.415  26.447  34.603  1.00  0.00     0.173 A 
ATOM     82  C   UNL A   1      44.504  27.530  34.896  1.00  0.00     0.173 A 
ATOM     83  F   UNL A   1      41.094  26.467  34.376  1.00  0.00    -0.203 F 
ATOM     84  C   UNL A   1      42.947  25.293  35.171  1.00  0.00     0.198 A 
ATOM     85  C   UNL A   1      45.024  26.396  35.506  1.00  0.00     0.198 A 
ATOM     86  F   UNL A   1      45.321  28.589  34.925  1.00  0.00    -0.203 F 
ATOM     87  F   UNL A   1      42.170  24.212  35.302  1.00  0.00    -0.200 F 
ATOM     88  C   UNL A   1      44.261  25.256  35.595  1.00  0.00     0.200 A 
ATOM     89  F   UNL A   1      46.272  26.419  35.997  1.00  0.00    -0.200 F 
ATOM     90  F   UNL A   1      44.777  24.141  36.122  1.00  0.00    -0.200 F 
ENDBRANCH  57  80
ENDBRANCH  31  32
ENDBRANCH  24  26
ENDBRANCH  23  24
ENDBRANCH  22  23
ENDBRANCH   1  22
TORSDOF 15
ENDMDL
MODEL 3
REMARK VINA RESULT:     -12.2      5.770     10.899
REMARK SMILES Cc1ccccc1[C@@H](Cc1ncnn1C(C)C)C(=O)OCCOC(=O)c1ccc(-c2c3nc(c(-c4c(F)c(F)c(F)c(F)c4F)c4ccc([nH]4)c(-c4c(F)c(F)c(F)c(F)c4F)c4nc(c(-c5c(F)c(F)c(F)c(F)c5F)c5ccc2[nH]5)C=C4)C=C3)cc1
REMARK SMILES IDX 21 1 20 2 18 3 19 4 8 5 7 6 1 7 2 8 3 9 4 10 6 11 5 12 9 13
REMARK SMILES IDX 10 14 11 15 14 16 12 17 13 18 15 19 16 20 17 21 22 22 23 23
REMARK SMILES IDX 24 24 25 25 26 26 27 27 88 28 28 29 87 30 29 31 30 32 31 33
REMARK SMILES IDX 81 34 32 35 86 36 80 37 82 38 33 39 85 40 79 41 78 42 34 44
REMARK SMILES IDX 66 45 46 46 65 47 47 48 50 49 64 50 83 51 48 52 49 53 63 55
REMARK SMILES IDX 84 56 51 57 35 58 36 59 44 60 37 61 38 62 42 63 45 64 39 65
REMARK SMILES IDX 40 66 43 67 41 68 67 69 68 70 76 71 69 72 70 73 74 74 77 75
REMARK SMILES IDX 71 76 72 77 75 78 73 79 52 80 53 81 61 82 54 83 55 84 59 85
REMARK SMILES IDX 62 86 56 87 57 88 60 89 58 90
REMARK H PARENT 82 43 50 54
REMARK Flexibility Score: inf
ROOT
ATOM      1  C   UNL A   1      46.069  27.889  26.387  1.00  0.00     0.274 C 
ENDROOT
BRANCH   1   2
ATOM      2  O   UNL A   1      44.883  27.302  25.857  1.00  0.00    -0.462 OA
BRANCH   2   3
ATOM      3  C   UNL A   1      44.120  26.802  26.855  1.00  0.00     0.314 C 
ATOM      4  O   UNL A   1      44.354  27.087  28.023  1.00  0.00    -0.252 OA
BRANCH   3   5
ATOM      5  C   UNL A   1      42.898  26.027  26.404  1.00  0.00     0.137 C 
BRANCH   5   6
ATOM      6  C   UNL A   1      41.600  26.789  26.657  1.00  0.00    -0.030 A 
ATOM      7  C   UNL A   1      40.700  25.364  28.672  1.00  0.00     0.044 C 
ATOM      8  C   UNL A   1      40.727  26.571  27.765  1.00  0.00    -0.047 A 
ATOM      9  C   UNL A   1      39.824  27.590  28.130  1.00  0.00     0.004 A 
ATOM     10  C   UNL A   1      39.739  28.770  27.401  1.00  0.00     0.000 A 
ATOM     11  C   UNL A   1      41.412  27.939  25.876  1.00  0.00     0.005 A 
ATOM     12  C   UNL A   1      40.510  28.928  26.258  1.00  0.00     0.000 A 
ENDBRANCH   5   6
BRANCH   5  13
ATOM     13  C   UNL A   1      43.237  25.407  25.022  1.00  0.00     0.097 C 
BRANCH  13  14
ATOM     14  C   UNL A   1      43.590  23.920  24.923  1.00  0.00     0.128 A 
ATOM     15  N   UNL A   1      44.641  23.562  24.208  1.00  0.00    -0.220 NA
ATOM     16  N   UNL A   1      43.055  22.742  25.513  1.00  0.00    -0.248 N 
ATOM     17  C   UNL A   1      44.677  22.216  24.318  1.00  0.00     0.246 A 
ATOM     18  N   UNL A   1      43.666  21.666  24.969  1.00  0.00    -0.159 NA
BRANCH  16  19
ATOM     19  C   UNL A   1      42.190  22.404  26.648  1.00  0.00     0.103 C 
ATOM     20  C   UNL A   1      40.725  22.507  26.329  1.00  0.00     0.033 C 
ATOM     21  C   UNL A   1      42.233  20.945  27.129  1.00  0.00     0.033 C 
ENDBRANCH  16  19
ENDBRANCH  13  14
ENDBRANCH   5  13
ENDBRANCH   3   5
ENDBRANCH   2   3
ENDBRANCH   1   2
BRANCH   1  22
ATOM     22  C   UNL A   1      46.633  28.937  25.447  1.00  0.00     0.275 C 
BRANCH  22  23
ATOM     23  O   UNL A   1      46.150  30.320  25.557  1.00  0.00    -0.458 OA
BRANCH  23  24
ATOM     24  C   UNL A   1      46.001  31.253  26.535  1.00  0.00     0.338 C 
ATOM     25  O   UNL A   1      46.884  32.105  26.699  1.00  0.00    -0.246 OA
BRANCH  24  26
ATOM     26  C   UNL A   1      44.806  31.316  27.424  1.00  0.00     0.060 A 
ATOM     27  C   UNL A   1      43.706  30.420  27.362  1.00  0.00     0.016 A 
ATOM     28  C   UNL A   1      44.774  32.247  28.418  1.00  0.00     0.016 A 
ATOM     29  C   UNL A   1      42.679  30.369  28.374  1.00  0.00     0.010 A 
ATOM     30  C   UNL A   1      43.926  32.038  29.497  1.00  0.00     0.010 A 
ATOM     31  C   UNL A   1      42.793  31.159  29.517  1.00  0.00    -0.014 A 
BRANCH  31  32
ATOM     32  C   UNL A   1      41.753  31.491  30.612  1.00  0.00     0.031 A 
ATOM     33  C   UNL A   1      40.785  32.754  30.750  1.00  0.00     0.074 A 
ATOM     34  C   UNL A   1      41.499  30.267  31.191  1.00  0.00     0.049 A 
ATOM     35  N   UNL A   1      39.833  32.853  31.648  1.00  0.00    -0.248 NA
ATOM     36  C   UNL A   1      40.691  33.972  29.909  1.00  0.00     0.031 C 
ATOM     37  C   UNL A   1      40.285  29.551  31.594  1.00  0.00     0.029 A 
ATOM     38  N   UNL A   1      42.459  29.241  31.329  1.00  0.00    -0.354 N 
ATOM     39  C   UNL A   1      38.783  33.680  31.136  1.00  0.00     0.074 A 
ATOM     40  C   UNL A   1      39.447  34.454  30.124  1.00  0.00     0.031 C 
ATOM     41  C   UNL A   1      40.609  28.333  32.083  1.00  0.00     0.029 A 
ATOM     42  C   UNL A   1      42.040  28.285  32.247  1.00  0.00     0.049 A 
ATOM     43  H   UNL A   1      43.313  29.206  30.841  1.00  0.00     0.167 HD
ATOM     44  C   UNL A   1      37.449  33.408  31.456  1.00  0.00     0.037 A 
ATOM     45  C   UNL A   1      42.763  28.322  33.401  1.00  0.00     0.037 A 
ATOM     46  C   UNL A   1      37.401  32.295  32.422  1.00  0.00     0.049 A 
ATOM     47  C   UNL A   1      42.020  29.221  34.400  1.00  0.00     0.074 A 
ATOM     48  C   UNL A   1      36.814  31.041  32.486  1.00  0.00     0.029 A 
ATOM     49  N   UNL A   1      38.272  32.339  33.482  1.00  0.00    -0.354 N 
ATOM     50  N   UNL A   1      40.764  29.592  34.289  1.00  0.00    -0.248 NA
ATOM     51  C   UNL A   1      42.650  29.810  35.569  1.00  0.00     0.031 C 
ATOM     52  C   UNL A   1      37.464  30.305  33.534  1.00  0.00     0.029 A 
ATOM     53  C   UNL A   1      38.350  31.152  34.172  1.00  0.00     0.049 A 
ATOM     54  H   UNL A   1      38.788  33.141  33.725  1.00  0.00     0.167 HD
ATOM     55  C   UNL A   1      40.445  30.518  35.242  1.00  0.00     0.074 A 
ATOM     56  C   UNL A   1      41.669  30.605  36.028  1.00  0.00     0.031 C 
ATOM     57  C   UNL A   1      39.238  31.174  35.320  1.00  0.00     0.037 A 
BRANCH  44  58
ATOM     58  C   UNL A   1      36.090  33.821  30.763  1.00  0.00     0.064 A 
ATOM     59  C   UNL A   1      35.999  33.803  29.336  1.00  0.00     0.173 A 
ATOM     60  C   UNL A   1      34.955  34.397  31.376  1.00  0.00     0.173 A 
ATOM     61  F   UNL A   1      36.958  33.231  28.593  1.00  0.00    -0.203 F 
ATOM     62  C   UNL A   1      34.937  34.367  28.602  1.00  0.00     0.198 A 
ATOM     63  C   UNL A   1      33.864  34.930  30.634  1.00  0.00     0.198 A 
ATOM     64  F   UNL A   1      34.865  34.488  32.708  1.00  0.00    -0.203 F 
ATOM     65  F   UNL A   1      34.974  34.368  27.260  1.00  0.00    -0.200 F 
ATOM     66  C   UNL A   1      33.864  34.930  29.251  1.00  0.00     0.200 A 
ATOM     67  F   UNL A   1      32.807  35.461  31.272  1.00  0.00    -0.200 F 
ATOM     68  F   UNL A   1      32.844  35.452  28.553  1.00  0.00    -0.200 F 
ENDBRANCH  44  58
BRANCH  45  69
ATOM     69  C   UNL A   1      44.241  28.300  32.984  1.00  0.00     0.064 A 
ATOM     70  C   UNL A   1      44.695  27.069  32.426  1.00  0.00     0.173 A 
ATOM     71  C   UNL A   1      44.920  29.456  32.550  1.00  0.00     0.173 A 
ATOM     72  F   UNL A   1      44.067  25.924  32.745  1.00  0.00    -0.203 F 
ATOM     73  C   UNL A   1      45.617  27.022  31.374  1.00  0.00     0.198 A 
ATOM     74  C   UNL A   1      45.876  29.395  31.518  1.00  0.00     0.198 A 
ATOM     75  F   UNL A   1      44.538  30.665  32.981  1.00  0.00    -0.203 F 
ATOM     76  F   UNL A   1      45.836  25.868  30.726  1.00  0.00    -0.200 F 
ATOM     77  C   UNL A   1      46.188  28.189  30.904  1.00  0.00     0.200 A 
ATOM     78  F   UNL A   1      46.405  30.527  31.029  1.00  0.00    -0.200 F 
ATOM     79  F   UNL A   1      46.976  28.161  29.818  1.00  0.00    -0.200 F 
ENDBRANCH  45  69
BRANCH  57  80
ATOM     80  C   UNL A   1      38.858  32.088  36.473  1.00  0.00     0.064 A 
ATOM     81  C   UNL A   1      38.020  31.646  37.498  1.00  0.00     0.173 A 
ATOM     82  C   UNL A   1      39.247  33.451  36.573  1.00  0.00     0.173 A 
ATOM     83  F   UNL A   1      37.346  30.492  37.385  1.00  0.00    -0.203 F 
ATOM     84  C   UNL A   1      37.813  32.394  38.653  1.00  0.00     0.198 A 
ATOM     85  C   UNL A   1      39.003  34.218  37.705  1.00  0.00     0.198 A 
ATOM     86  F   UNL A   1      39.857  34.116  35.584  1.00  0.00    -0.203 F 
ATOM     87  F   UNL A   1      37.106  31.863  39.657  1.00  0.00    -0.200 F 
ATOM     88  C   UNL A   1      38.330  33.669  38.771  1.00  0.00     0.200 A 
ATOM     89  F   UNL A   1      39.432  35.488  37.753  1.00  0.00    -0.200 F 
ATOM     90  F   UNL A   1      38.148  34.379  39.889  1.00  0.00    -0.200 F 
ENDBRANCH  57  80
ENDBRANCH  31  32
ENDBRANCH  24  26
ENDBRANCH  23  24
ENDBRANCH  22  23
ENDBRANCH   1  22
TORSDOF 15
ENDMDL
