MODEL 1
REMARK VINA RESULT:     -11.5      0.000      0.000
REMARK SMILES CC(C)C[C@@H]([NH2+][C@H]1CCOC2(CCOCC2)C1)C(=O)OCCOC(=O)c1ccc(-c2c3nc(c(-c4c(F)c(F)c(F)c(F)c4F)c4ccc([nH]4)c(-c4c(F)c(F)c(F)c(F)c4F)c4nc(c(-c5c(F)c(F)c(F)c(F)c5F)c5ccc2[nH]5)C=C4)C=C3)cc1
REMARK SMILES IDX 21 1 20 2 18 3 19 4 5 5 4 6 2 7 1 8 3 9 6 10 7 13 8 14 17 15
REMARK SMILES IDX 9 16 11 17 10 18 12 19 16 20 13 21 15 22 14 23 22 24 23 25
REMARK SMILES IDX 24 26 25 27 26 28 27 29 88 30 28 31 87 32 29 33 30 34 31 35
REMARK SMILES IDX 81 36 32 37 86 38 80 39 82 40 33 41 85 42 79 43 78 44 34 46
REMARK SMILES IDX 66 47 46 48 65 49 47 50 50 51 64 52 83 53 48 54 49 55 63 57
REMARK SMILES IDX 84 58 51 59 35 60 36 61 44 62 37 63 38 64 42 65 45 66 39 67
REMARK SMILES IDX 40 68 43 69 41 70 67 71 68 72 76 73 69 74 70 75 74 76 77 77
REMARK SMILES IDX 71 78 72 79 75 80 73 81 52 82 53 83 61 84 54 85 55 86 59 87
REMARK SMILES IDX 62 88 56 89 57 90 60 91 58 92
REMARK H PARENT 6 11 6 12 82 45 50 56
REMARK Flexibility Score: inf
ROOT
ATOM      1  C   UNL A   1      33.301  29.221  24.582  1.00  0.00     0.274 C 
ENDROOT
BRANCH   1   2
ATOM      2  O   UNL A   1      33.123  29.321  23.156  1.00  0.00    -0.458 OA
BRANCH   2   3
ATOM      3  C   UNL A   1      33.490  28.220  22.450  1.00  0.00     0.364 C 
ATOM      4  O   UNL A   1      34.403  28.206  21.626  1.00  0.00    -0.245 OA
BRANCH   3   5
ATOM      5  C   UNL A   1      32.660  26.957  22.774  1.00  0.00     0.293 C 
BRANCH   5   6
ATOM      6  C   UNL A   1      31.246  26.970  22.165  1.00  0.00     0.080 C 
BRANCH   6   7
ATOM      7  C   UNL A   1      30.094  27.211  23.171  1.00  0.00    -0.011 C 
ATOM      8  C   UNL A   1      30.467  26.859  24.615  1.00  0.00     0.007 C 
ATOM      9  C   UNL A   1      29.655  28.678  23.113  1.00  0.00     0.007 C 
ENDBRANCH   6   7
ENDBRANCH   5   6
BRANCH   5  10
ATOM     10  N   UNL A   1      33.405  25.707  22.465  1.00  0.00    -0.332 N 
ATOM     11  H   UNL A   1      34.402  25.868  22.616  1.00  0.00     0.347 HD
ATOM     12  H   UNL A   1      33.222  25.457  21.493  1.00  0.00     0.347 HD
BRANCH  10  13
ATOM     13  C   UNL A   1      32.964  24.590  23.323  1.00  0.00     0.188 C 
ATOM     14  C   UNL A   1      33.023  23.243  22.600  1.00  0.00     0.093 C 
ATOM     15  C   UNL A   1      33.848  24.512  24.570  1.00  0.00     0.100 C 
ATOM     16  C   UNL A   1      32.578  22.146  23.561  1.00  0.00     0.167 C 
ATOM     17  C   UNL A   1      33.403  23.364  25.497  1.00  0.00     0.078 C 
ATOM     18  O   UNL A   1      33.361  22.131  24.753  1.00  0.00    -0.374 OA
ATOM     19  C   UNL A   1      32.052  23.663  26.180  1.00  0.00     0.064 C 
ATOM     20  C   UNL A   1      34.468  23.174  26.594  1.00  0.00     0.064 C 
ATOM     21  C   UNL A   1      31.731  22.626  27.247  1.00  0.00     0.163 C 
ATOM     22  C   UNL A   1      34.011  22.161  27.638  1.00  0.00     0.163 C 
ATOM     23  O   UNL A   1      32.772  22.566  28.219  1.00  0.00    -0.381 OA
ENDBRANCH  10  13
ENDBRANCH   5  10
ENDBRANCH   3   5
ENDBRANCH   2   3
ENDBRANCH   1   2
BRANCH   1  24
ATOM     24  C   UNL A   1      32.268  30.039  25.368  1.00  0.00     0.275 C 
BRANCH  24  25
ATOM     25  O   UNL A   1      32.585  30.143  26.772  1.00  0.00    -0.458 OA
BRANCH  25  26
ATOM     26  C   UNL A   1      33.205  31.290  27.133  1.00  0.00     0.338 C 
ATOM     27  O   UNL A   1      32.749  32.420  27.094  1.00  0.00    -0.246 OA
BRANCH  26  28
ATOM     28  C   UNL A   1      34.508  30.999  27.754  1.00  0.00     0.060 A 
ATOM     29  C   UNL A   1      34.748  29.684  28.159  1.00  0.00     0.016 A 
ATOM     30  C   UNL A   1      35.434  32.003  28.042  1.00  0.00     0.016 A 
ATOM     31  C   UNL A   1      35.909  29.354  28.847  1.00  0.00     0.010 A 
ATOM     32  C   UNL A   1      36.599  31.676  28.747  1.00  0.00     0.010 A 
ATOM     33  C   UNL A   1      36.837  30.352  29.161  1.00  0.00    -0.014 A 
BRANCH  33  34
ATOM     34  C   UNL A   1      38.018  29.999  29.983  1.00  0.00     0.031 A 
ATOM     35  C   UNL A   1      39.075  29.095  29.420  1.00  0.00     0.074 A 
ATOM     36  C   UNL A   1      38.169  30.541  31.204  1.00  0.00     0.049 A 
ATOM     37  N   UNL A   1      40.155  28.626  29.994  1.00  0.00    -0.248 NA
ATOM     38  C   UNL A   1      38.898  28.666  28.025  1.00  0.00     0.031 C 
ATOM     39  C   UNL A   1      37.242  31.484  31.828  1.00  0.00     0.029 A 
ATOM     40  N   UNL A   1      39.163  30.379  32.136  1.00  0.00    -0.354 N 
ATOM     41  C   UNL A   1      40.775  27.833  29.038  1.00  0.00     0.074 A 
ATOM     42  C   UNL A   1      39.950  27.878  27.849  1.00  0.00     0.031 C 
ATOM     43  C   UNL A   1      37.709  31.816  33.043  1.00  0.00     0.029 A 
ATOM     44  C   UNL A   1      38.944  31.078  33.297  1.00  0.00     0.049 A 
ATOM     45  H   UNL A   1      39.956  29.815  31.987  1.00  0.00     0.167 HD
ATOM     46  C   UNL A   1      41.930  27.134  29.145  1.00  0.00     0.037 A 
ATOM     47  C   UNL A   1      39.647  31.095  34.446  1.00  0.00     0.037 A 
ATOM     48  C   UNL A   1      42.756  27.104  30.325  1.00  0.00     0.049 A 
ATOM     49  C   UNL A   1      40.893  30.260  34.559  1.00  0.00     0.074 A 
ATOM     50  C   UNL A   1      43.942  26.422  30.531  1.00  0.00     0.029 A 
ATOM     51  N   UNL A   1      42.480  27.791  31.497  1.00  0.00    -0.354 N 
ATOM     52  N   UNL A   1      41.460  29.493  33.660  1.00  0.00    -0.248 NA
ATOM     53  C   UNL A   1      41.592  30.286  35.852  1.00  0.00     0.031 C 
ATOM     54  C   UNL A   1      44.368  26.670  31.841  1.00  0.00     0.029 A 
ATOM     55  C   UNL A   1      43.466  27.536  32.438  1.00  0.00     0.049 A 
ATOM     56  H   UNL A   1      41.699  28.373  31.640  1.00  0.00     0.167 HD
ATOM     57  C   UNL A   1      42.584  28.957  34.270  1.00  0.00     0.074 A 
ATOM     58  C   UNL A   1      42.633  29.500  35.611  1.00  0.00     0.031 C 
ATOM     59  C   UNL A   1      43.494  28.087  33.767  1.00  0.00     0.037 A 
BRANCH  46  60
ATOM     60  C   UNL A   1      42.355  26.316  27.965  1.00  0.00     0.064 A 
ATOM     61  C   UNL A   1      41.853  25.026  27.742  1.00  0.00     0.173 A 
ATOM     62  C   UNL A   1      43.249  26.846  27.023  1.00  0.00     0.173 A 
ATOM     63  F   UNL A   1      41.008  24.470  28.624  1.00  0.00    -0.203 F 
ATOM     64  C   UNL A   1      42.241  24.290  26.626  1.00  0.00     0.198 A 
ATOM     65  C   UNL A   1      43.619  26.116  25.896  1.00  0.00     0.198 A 
ATOM     66  F   UNL A   1      43.757  28.076  27.190  1.00  0.00    -0.203 F 
ATOM     67  F   UNL A   1      41.774  23.047  26.449  1.00  0.00    -0.200 F 
ATOM     68  C   UNL A   1      43.118  24.838  25.701  1.00  0.00     0.200 A 
ATOM     69  F   UNL A   1      44.461  26.650  25.000  1.00  0.00    -0.200 F 
ATOM     70  F   UNL A   1      43.485  24.130  24.624  1.00  0.00    -0.200 F 
ENDBRANCH  46  60
BRANCH  47  71
ATOM     71  C   UNL A   1      39.170  31.909  35.593  1.00  0.00     0.064 A 
ATOM     72  C   UNL A   1      38.337  31.357  36.574  1.00  0.00     0.173 A 
ATOM     73  C   UNL A   1      39.530  33.258  35.721  1.00  0.00     0.173 A 
ATOM     74  F   UNL A   1      37.946  30.079  36.479  1.00  0.00    -0.203 F 
ATOM     75  C   UNL A   1      37.871  32.130  37.636  1.00  0.00     0.198 A 
ATOM     76  C   UNL A   1      39.083  34.023  36.797  1.00  0.00     0.198 A 
ATOM     77  F   UNL A   1      40.322  33.833  34.804  1.00  0.00    -0.203 F 
ATOM     78  F   UNL A   1      37.041  31.590  38.540  1.00  0.00    -0.200 F 
ATOM     79  C   UNL A   1      38.248  33.459  37.750  1.00  0.00     0.200 A 
ATOM     80  F   UNL A   1      39.458  35.304  36.907  1.00  0.00    -0.200 F 
ATOM     81  F   UNL A   1      37.801  34.200  38.773  1.00  0.00    -0.200 F 
ENDBRANCH  47  71
BRANCH  59  82
ATOM     82  C   UNL A   1      44.627  27.690  34.665  1.00  0.00     0.064 A 
ATOM     83  C   UNL A   1      44.551  26.546  35.473  1.00  0.00     0.173 A 
ATOM     84  C   UNL A   1      45.810  28.442  34.695  1.00  0.00     0.173 A 
ATOM     85  F   UNL A   1      43.433  25.805  35.491  1.00  0.00    -0.203 F 
ATOM     86  C   UNL A   1      45.613  26.182  36.298  1.00  0.00     0.198 A 
ATOM     87  C   UNL A   1      46.878  28.062  35.502  1.00  0.00     0.198 A 
ATOM     88  F   UNL A   1      45.932  29.542  33.935  1.00  0.00    -0.203 F 
ATOM     89  F   UNL A   1      45.503  25.110  37.094  1.00  0.00    -0.200 F 
ATOM     90  C   UNL A   1      46.777  26.938  36.307  1.00  0.00     0.200 A 
ATOM     91  F   UNL A   1      48.006  28.787  35.505  1.00  0.00    -0.200 F 
ATOM     92  F   UNL A   1      47.799  26.585  37.100  1.00  0.00    -0.200 F 
ENDBRANCH  59  82
ENDBRANCH  33  34
ENDBRANCH  26  28
ENDBRANCH  25  26
ENDBRANCH  24  25
ENDBRANCH   1  24
TORSDOF 15
ENDMDL
MODEL 2
REMARK VINA RESULT:     -11.3      1.288      2.225
REMARK SMILES CC(C)C[C@@H]([NH2+][C@H]1CCOC2(CCOCC2)C1)C(=O)OCCOC(=O)c1ccc(-c2c3nc(c(-c4c(F)c(F)c(F)c(F)c4F)c4ccc([nH]4)c(-c4c(F)c(F)c(F)c(F)c4F)c4nc(c(-c5c(F)c(F)c(F)c(F)c5F)c5ccc2[nH]5)C=C4)C=C3)cc1
REMARK SMILES IDX 21 1 20 2 18 3 19 4 5 5 4 6 2 7 1 8 3 9 6 10 7 13 8 14 17 15
REMARK SMILES IDX 9 16 11 17 10 18 12 19 16 20 13 21 15 22 14 23 22 24 23 25
REMARK SMILES IDX 24 26 25 27 26 28 27 29 88 30 28 31 87 32 29 33 30 34 31 35
REMARK SMILES IDX 81 36 32 37 86 38 80 39 82 40 33 41 85 42 79 43 78 44 34 46
REMARK SMILES IDX 66 47 46 48 65 49 47 50 50 51 64 52 83 53 48 54 49 55 63 57
REMARK SMILES IDX 84 58 51 59 35 60 36 61 44 62 37 63 38 64 42 65 45 66 39 67
REMARK SMILES IDX 40 68 43 69 41 70 67 71 68 72 76 73 69 74 70 75 74 76 77 77
REMARK SMILES IDX 71 78 72 79 75 80 73 81 52 82 53 83 61 84 54 85 55 86 59 87
REMARK SMILES IDX 62 88 56 89 57 90 60 91 58 92
REMARK H PARENT 6 11 6 12 82 45 50 56
REMARK Flexibility Score: inf
ROOT
ATOM      1  C   UNL A   1      31.538  29.039  27.291  1.00  0.00     0.274 C 
ENDROOT
BRANCH   1   2
ATOM      2  O   UNL A   1      32.278  28.016  26.597  1.00  0.00    -0.458 OA
BRANCH   2   3
ATOM      3  C   UNL A   1      31.530  26.988  26.118  1.00  0.00     0.364 C 
ATOM      4  O   UNL A   1      30.905  26.203  26.830  1.00  0.00    -0.245 OA
BRANCH   3   5
ATOM      5  C   UNL A   1      31.515  26.883  24.576  1.00  0.00     0.293 C 
BRANCH   5   6
ATOM      6  C   UNL A   1      30.748  28.024  23.884  1.00  0.00     0.080 C 
BRANCH   6   7
ATOM      7  C   UNL A   1      29.449  27.602  23.154  1.00  0.00    -0.011 C 
ATOM      8  C   UNL A   1      28.684  26.487  23.876  1.00  0.00     0.007 C 
ATOM      9  C   UNL A   1      28.528  28.816  22.995  1.00  0.00     0.007 C 
ENDBRANCH   6   7
ENDBRANCH   5   6
BRANCH   5  10
ATOM     10  N   UNL A   1      32.881  26.690  24.018  1.00  0.00    -0.332 N 
ATOM     11  H   UNL A   1      33.562  27.094  24.662  1.00  0.00     0.347 HD
ATOM     12  H   UNL A   1      32.925  27.151  23.110  1.00  0.00     0.347 HD
BRANCH  10  13
ATOM     13  C   UNL A   1      33.189  25.259  23.830  1.00  0.00     0.188 C 
ATOM     14  C   UNL A   1      33.000  24.810  22.380  1.00  0.00     0.093 C 
ATOM     15  C   UNL A   1      34.636  24.979  24.241  1.00  0.00     0.100 C 
ATOM     16  C   UNL A   1      33.362  23.334  22.267  1.00  0.00     0.167 C 
ATOM     17  C   UNL A   1      34.986  23.487  24.071  1.00  0.00     0.078 C 
ATOM     18  O   UNL A   1      34.688  23.073  22.723  1.00  0.00    -0.374 OA
ATOM     19  C   UNL A   1      34.266  22.603  25.111  1.00  0.00     0.064 C 
ATOM     20  C   UNL A   1      36.505  23.311  24.255  1.00  0.00     0.064 C 
ATOM     21  C   UNL A   1      34.780  21.171  25.068  1.00  0.00     0.163 C 
ATOM     22  C   UNL A   1      36.893  21.838  24.258  1.00  0.00     0.163 C 
ATOM     23  O   UNL A   1      36.189  21.137  25.283  1.00  0.00    -0.381 OA
ENDBRANCH  10  13
ENDBRANCH   5  10
ENDBRANCH   3   5
ENDBRANCH   2   3
ENDBRANCH   1   2
BRANCH   1  24
ATOM     24  C   UNL A   1      31.730  30.431  26.676  1.00  0.00     0.275 C 
BRANCH  24  25
ATOM     25  O   UNL A   1      33.118  30.766  26.465  1.00  0.00    -0.458 OA
BRANCH  25  26
ATOM     26  C   UNL A   1      33.588  31.766  27.246  1.00  0.00     0.338 C 
ATOM     27  O   UNL A   1      33.017  32.802  27.543  1.00  0.00    -0.246 OA
BRANCH  26  28
ATOM     28  C   UNL A   1      34.873  31.385  27.855  1.00  0.00     0.060 A 
ATOM     29  C   UNL A   1      34.990  30.084  28.348  1.00  0.00     0.016 A 
ATOM     30  C   UNL A   1      35.905  32.305  28.047  1.00  0.00     0.016 A 
ATOM     31  C   UNL A   1      36.133  29.684  29.031  1.00  0.00     0.010 A 
ATOM     32  C   UNL A   1      37.053  31.909  28.745  1.00  0.00     0.010 A 
ATOM     33  C   UNL A   1      37.167  30.600  29.249  1.00  0.00    -0.014 A 
BRANCH  33  34
ATOM     34  C   UNL A   1      38.331  30.184  30.066  1.00  0.00     0.031 A 
ATOM     35  C   UNL A   1      39.345  29.238  29.493  1.00  0.00     0.074 A 
ATOM     36  C   UNL A   1      38.507  30.705  31.293  1.00  0.00     0.049 A 
ATOM     37  N   UNL A   1      40.402  28.714  30.060  1.00  0.00    -0.248 NA
ATOM     38  C   UNL A   1      39.148  28.832  28.093  1.00  0.00     0.031 C 
ATOM     39  C   UNL A   1      37.626  31.684  31.927  1.00  0.00     0.029 A 
ATOM     40  N   UNL A   1      39.493  30.489  32.222  1.00  0.00    -0.354 N 
ATOM     41  C   UNL A   1      40.985  27.904  29.096  1.00  0.00     0.074 A 
ATOM     42  C   UNL A   1      40.162  27.998  27.908  1.00  0.00     0.031 C 
ATOM     43  C   UNL A   1      38.108  31.982  33.145  1.00  0.00     0.029 A 
ATOM     44  C   UNL A   1      39.308  31.185  33.390  1.00  0.00     0.049 A 
ATOM     45  H   UNL A   1      40.260  29.890  32.066  1.00  0.00     0.167 HD
ATOM     46  C   UNL A   1      42.106  27.151  29.195  1.00  0.00     0.037 A 
ATOM     47  C   UNL A   1      40.011  31.158  34.538  1.00  0.00     0.037 A 
ATOM     48  C   UNL A   1      42.931  27.070  30.373  1.00  0.00     0.049 A 
ATOM     49  C   UNL A   1      41.217  30.265  34.641  1.00  0.00     0.074 A 
ATOM     50  C   UNL A   1      44.084  26.332  30.571  1.00  0.00     0.029 A 
ATOM     51  N   UNL A   1      42.687  27.757  31.552  1.00  0.00    -0.354 N 
ATOM     52  N   UNL A   1      41.748  29.482  33.734  1.00  0.00    -0.248 NA
ATOM     53  C   UNL A   1      41.918  30.245  35.934  1.00  0.00     0.031 C 
ATOM     54  C   UNL A   1      44.522  26.547  31.883  1.00  0.00     0.029 A 
ATOM     55  C   UNL A   1      43.661  27.447  32.489  1.00  0.00     0.049 A 
ATOM     56  H   UNL A   1      41.934  28.373  31.703  1.00  0.00     0.167 HD
ATOM     57  C   UNL A   1      42.847  28.888  34.337  1.00  0.00     0.074 A 
ATOM     58  C   UNL A   1      42.921  29.415  35.684  1.00  0.00     0.031 C 
ATOM     59  C   UNL A   1      43.715  27.983  33.824  1.00  0.00     0.037 A 
BRANCH  46  60
ATOM     60  C   UNL A   1      42.492  26.326  28.005  1.00  0.00     0.064 A 
ATOM     61  C   UNL A   1      41.952  25.051  27.786  1.00  0.00     0.173 A 
ATOM     62  C   UNL A   1      43.387  26.836  27.052  1.00  0.00     0.173 A 
ATOM     63  F   UNL A   1      41.105  24.514  28.677  1.00  0.00    -0.203 F 
ATOM     64  C   UNL A   1      42.305  24.309  26.661  1.00  0.00     0.198 A 
ATOM     65  C   UNL A   1      43.720  26.100  25.918  1.00  0.00     0.198 A 
ATOM     66  F   UNL A   1      43.930  28.051  27.216  1.00  0.00    -0.203 F 
ATOM     67  F   UNL A   1      41.802  23.080  26.487  1.00  0.00    -0.200 F 
ATOM     68  C   UNL A   1      43.183  24.837  25.726  1.00  0.00     0.200 A 
ATOM     69  F   UNL A   1      44.564  26.615  25.012  1.00  0.00    -0.200 F 
ATOM     70  F   UNL A   1      43.516  24.124  24.641  1.00  0.00    -0.200 F 
ENDBRANCH  46  60
BRANCH  47  71
ATOM     71  C   UNL A   1      39.573  31.981  35.694  1.00  0.00     0.064 A 
ATOM     72  C   UNL A   1      40.128  33.245  35.934  1.00  0.00     0.173 A 
ATOM     73  C   UNL A   1      38.601  31.512  36.588  1.00  0.00     0.173 A 
ATOM     74  F   UNL A   1      41.080  33.723  35.120  1.00  0.00    -0.203 F 
ATOM     75  C   UNL A   1      39.733  34.005  37.033  1.00  0.00     0.198 A 
ATOM     76  C   UNL A   1      38.189  32.283  37.673  1.00  0.00     0.198 A 
ATOM     77  F   UNL A   1      38.044  30.305  36.404  1.00  0.00    -0.203 F 
ATOM     78  F   UNL A   1      40.308  35.193  37.264  1.00  0.00    -0.200 F 
ATOM     79  C   UNL A   1      38.760  33.526  37.898  1.00  0.00     0.200 A 
ATOM     80  F   UNL A   1      37.242  31.820  38.501  1.00  0.00    -0.200 F 
ATOM     81  F   UNL A   1      38.381  34.259  38.953  1.00  0.00    -0.200 F 
ENDBRANCH  47  71
BRANCH  59  82
ATOM     82  C   UNL A   1      44.829  27.524  34.717  1.00  0.00     0.064 A 
ATOM     83  C   UNL A   1      46.044  28.222  34.787  1.00  0.00     0.173 A 
ATOM     84  C   UNL A   1      44.669  26.395  35.532  1.00  0.00     0.173 A 
ATOM     85  F   UNL A   1      46.249  29.298  34.012  1.00  0.00    -0.203 F 
ATOM     86  C   UNL A   1      47.068  27.791  35.625  1.00  0.00     0.198 A 
ATOM     87  C   UNL A   1      45.686  25.980  36.387  1.00  0.00     0.198 A 
ATOM     88  F   UNL A   1      43.523  25.697  35.504  1.00  0.00    -0.203 F 
ATOM     89  F   UNL A   1      48.236  28.447  35.645  1.00  0.00    -0.200 F 
ATOM     90  C   UNL A   1      46.886  26.674  36.429  1.00  0.00     0.200 A 
ATOM     91  F   UNL A   1      45.506  24.906  37.169  1.00  0.00    -0.200 F 
ATOM     92  F   UNL A   1      47.872  26.261  37.237  1.00  0.00    -0.200 F 
ENDBRANCH  59  82
ENDBRANCH  33  34
ENDBRANCH  26  28
ENDBRANCH  25  26
ENDBRANCH  24  25
ENDBRANCH   1  24
TORSDOF 15
ENDMDL
MODEL 3
REMARK VINA RESULT:     -11.2      1.234      2.264
REMARK SMILES CC(C)C[C@@H]([NH2+][C@H]1CCOC2(CCOCC2)C1)C(=O)OCCOC(=O)c1ccc(-c2c3nc(c(-c4c(F)c(F)c(F)c(F)c4F)c4ccc([nH]4)c(-c4c(F)c(F)c(F)c(F)c4F)c4nc(c(-c5c(F)c(F)c(F)c(F)c5F)c5ccc2[nH]5)C=C4)C=C3)cc1
REMARK SMILES IDX 21 1 20 2 18 3 19 4 5 5 4 6 2 7 1 8 3 9 6 10 7 13 8 14 17 15
REMARK SMILES IDX 9 16 11 17 10 18 12 19 16 20 13 21 15 22 14 23 22 24 23 25
REMARK SMILES IDX 24 26 25 27 26 28 27 29 88 30 28 31 87 32 29 33 30 34 31 35
REMARK SMILES IDX 81 36 32 37 86 38 80 39 82 40 33 41 85 42 79 43 78 44 34 46
REMARK SMILES IDX 66 47 46 48 65 49 47 50 50 51 64 52 83 53 48 54 49 55 63 57
REMARK SMILES IDX 84 58 51 59 35 60 36 61 44 62 37 63 38 64 42 65 45 66 39 67
REMARK SMILES IDX 40 68 43 69 41 70 67 71 68 72 76 73 69 74 70 75 74 76 77 77
REMARK SMILES IDX 71 78 72 79 75 80 73 81 52 82 53 83 61 84 54 85 55 86 59 87
REMARK SMILES IDX 62 88 56 89 57 90 60 91 58 92
REMARK H PARENT 6 11 6 12 82 45 50 56
REMARK Flexibility Score: inf
ROOT
ATOM      1  C   UNL A   1      31.717  28.706  27.145  1.00  0.00     0.274 C 
ENDROOT
BRANCH   1   2
ATOM      2  O   UNL A   1      32.324  27.501  26.638  1.00  0.00    -0.458 OA
BRANCH   2   3
ATOM      3  C   UNL A   1      31.453  26.568  26.174  1.00  0.00     0.364 C 
ATOM      4  O   UNL A   1      30.445  26.208  26.781  1.00  0.00    -0.245 OA
BRANCH   3   5
ATOM      5  C   UNL A   1      31.828  25.984  24.793  1.00  0.00     0.293 C 
BRANCH   5   6
ATOM      6  C   UNL A   1      33.076  26.630  24.165  1.00  0.00     0.080 C 
BRANCH   6   7
ATOM      7  C   UNL A   1      32.844  27.334  22.805  1.00  0.00    -0.011 C 
ATOM      8  C   UNL A   1      34.023  28.210  22.368  1.00  0.00     0.007 C 
ATOM      9  C   UNL A   1      32.571  26.286  21.721  1.00  0.00     0.007 C 
ENDBRANCH   6   7
ENDBRANCH   5   6
BRANCH   5  10
ATOM     10  N   UNL A   1      31.904  24.498  24.819  1.00  0.00    -0.332 N 
ATOM     11  H   UNL A   1      31.950  24.151  23.860  1.00  0.00     0.347 HD
ATOM     12  H   UNL A   1      31.074  24.143  25.294  1.00  0.00     0.347 HD
BRANCH  10  13
ATOM     13  C   UNL A   1      33.096  24.033  25.555  1.00  0.00     0.188 C 
ATOM     14  C   UNL A   1      32.730  23.193  26.780  1.00  0.00     0.093 C 
ATOM     15  C   UNL A   1      33.980  23.189  24.634  1.00  0.00     0.100 C 
ATOM     16  C   UNL A   1      34.012  22.732  27.465  1.00  0.00     0.167 C 
ATOM     17  C   UNL A   1      35.244  22.700  25.368  1.00  0.00     0.078 C 
ATOM     18  O   UNL A   1      34.863  22.012  26.576  1.00  0.00    -0.374 OA
ATOM     19  C   UNL A   1      36.228  23.853  25.656  1.00  0.00     0.064 C 
ATOM     20  C   UNL A   1      35.959  21.662  24.483  1.00  0.00     0.064 C 
ATOM     21  C   UNL A   1      37.554  23.327  26.186  1.00  0.00     0.163 C 
ATOM     22  C   UNL A   1      37.301  21.258  25.082  1.00  0.00     0.163 C 
ATOM     23  O   UNL A   1      38.132  22.403  25.267  1.00  0.00    -0.381 OA
ENDBRANCH  10  13
ENDBRANCH   5  10
ENDBRANCH   3   5
ENDBRANCH   2   3
ENDBRANCH   1   2
BRANCH   1  24
ATOM     24  C   UNL A   1      31.895  29.903  26.202  1.00  0.00     0.275 C 
BRANCH  24  25
ATOM     25  O   UNL A   1      33.263  30.354  26.120  1.00  0.00    -0.458 OA
BRANCH  25  26
ATOM     26  C   UNL A   1      33.600  31.316  27.010  1.00  0.00     0.338 C 
ATOM     27  O   UNL A   1      32.918  32.261  27.370  1.00  0.00    -0.246 OA
BRANCH  26  28
ATOM     28  C   UNL A   1      34.890  31.002  27.646  1.00  0.00     0.060 A 
ATOM     29  C   UNL A   1      35.117  29.675  28.018  1.00  0.00     0.016 A 
ATOM     30  C   UNL A   1      35.814  31.994  27.980  1.00  0.00     0.016 A 
ATOM     31  C   UNL A   1      36.264  29.322  28.719  1.00  0.00     0.010 A 
ATOM     32  C   UNL A   1      36.965  31.642  28.697  1.00  0.00     0.010 A 
ATOM     33  C   UNL A   1      37.190  30.306  29.077  1.00  0.00    -0.014 A 
BRANCH  33  34
ATOM     34  C   UNL A   1      38.354  29.925  29.911  1.00  0.00     0.031 A 
ATOM     35  C   UNL A   1      39.399  29.003  29.355  1.00  0.00     0.074 A 
ATOM     36  C   UNL A   1      38.502  30.457  31.137  1.00  0.00     0.049 A 
ATOM     37  N   UNL A   1      40.462  28.510  29.939  1.00  0.00    -0.248 NA
ATOM     38  C   UNL A   1      39.230  28.586  27.955  1.00  0.00     0.031 C 
ATOM     39  C   UNL A   1      37.587  31.415  31.756  1.00  0.00     0.029 A 
ATOM     40  N   UNL A   1      39.481  30.271  32.079  1.00  0.00    -0.354 N 
ATOM     41  C   UNL A   1      41.078  27.710  28.985  1.00  0.00     0.074 A 
ATOM     42  C   UNL A   1      40.268  27.778  27.787  1.00  0.00     0.031 C 
ATOM     43  C   UNL A   1      38.046  31.732  32.978  1.00  0.00     0.029 A 
ATOM     44  C   UNL A   1      39.263  30.967  33.242  1.00  0.00     0.049 A 
ATOM     45  H   UNL A   1      40.265  29.692  31.936  1.00  0.00     0.167 HD
ATOM     46  C   UNL A   1      42.217  26.987  29.102  1.00  0.00     0.037 A 
ATOM     47  C   UNL A   1      39.953  30.965  34.399  1.00  0.00     0.037 A 
ATOM     48  C   UNL A   1      43.029  26.934  30.291  1.00  0.00     0.049 A 
ATOM     49  C   UNL A   1      41.180  30.104  34.521  1.00  0.00     0.074 A 
ATOM     50  C   UNL A   1      44.199  26.228  30.506  1.00  0.00     0.029 A 
ATOM     51  N   UNL A   1      42.753  27.620  31.463  1.00  0.00    -0.354 N 
ATOM     52  N   UNL A   1      41.742  29.331  33.624  1.00  0.00    -0.248 NA
ATOM     53  C   UNL A   1      41.865  30.109  35.822  1.00  0.00     0.031 C 
ATOM     54  C   UNL A   1      44.614  26.460  31.823  1.00  0.00     0.029 A 
ATOM     55  C   UNL A   1      43.723  27.341  32.414  1.00  0.00     0.049 A 
ATOM     56  H   UNL A   1      41.983  28.217  31.601  1.00  0.00     0.167 HD
ATOM     57  C   UNL A   1      42.849  28.769  34.244  1.00  0.00     0.074 A 
ATOM     58  C   UNL A   1      42.892  29.304  35.589  1.00  0.00     0.031 C 
ATOM     59  C   UNL A   1      43.747  27.884  33.746  1.00  0.00     0.037 A 
BRANCH  46  60
ATOM     60  C   UNL A   1      42.640  26.167  27.922  1.00  0.00     0.064 A 
ATOM     61  C   UNL A   1      43.459  26.694  26.913  1.00  0.00     0.173 A 
ATOM     62  C   UNL A   1      42.251  24.823  27.820  1.00  0.00     0.173 A 
ATOM     63  F   UNL A   1      43.844  27.978  26.959  1.00  0.00    -0.203 F 
ATOM     64  C   UNL A   1      43.862  25.908  25.837  1.00  0.00     0.198 A 
ATOM     65  C   UNL A   1      42.673  24.034  26.753  1.00  0.00     0.198 A 
ATOM     66  F   UNL A   1      41.468  24.272  28.760  1.00  0.00    -0.203 F 
ATOM     67  F   UNL A   1      44.617  26.440  24.867  1.00  0.00    -0.200 F 
ATOM     68  C   UNL A   1      43.474  24.578  25.761  1.00  0.00     0.200 A 
ATOM     69  F   UNL A   1      42.303  22.747  26.685  1.00  0.00    -0.200 F 
ATOM     70  F   UNL A   1      43.869  23.822  24.727  1.00  0.00    -0.200 F 
ENDBRANCH  46  60
BRANCH  47  71
ATOM     71  C   UNL A   1      39.479  31.781  35.544  1.00  0.00     0.064 A 
ATOM     72  C   UNL A   1      38.510  31.292  36.430  1.00  0.00     0.173 A 
ATOM     73  C   UNL A   1      39.978  33.073  35.767  1.00  0.00     0.173 A 
ATOM     74  F   UNL A   1      37.985  30.073  36.241  1.00  0.00    -0.203 F 
ATOM     75  C   UNL A   1      38.049  32.070  37.491  1.00  0.00     0.198 A 
ATOM     76  C   UNL A   1      39.534  33.840  36.842  1.00  0.00     0.198 A 
ATOM     77  F   UNL A   1      40.903  33.587  34.943  1.00  0.00    -0.203 F 
ATOM     78  F   UNL A   1      37.092  31.595  38.300  1.00  0.00    -0.200 F 
ATOM     79  C   UNL A   1      38.565  33.340  37.699  1.00  0.00     0.200 A 
ATOM     80  F   UNL A   1      40.043  35.063  37.044  1.00  0.00    -0.200 F 
ATOM     81  F   UNL A   1      38.122  34.086  38.720  1.00  0.00    -0.200 F 
ENDBRANCH  47  71
BRANCH  59  82
ATOM     82  C   UNL A   1      44.861  27.459  34.655  1.00  0.00     0.064 A 
ATOM     83  C   UNL A   1      44.748  26.320  35.466  1.00  0.00     0.173 A 
ATOM     84  C   UNL A   1      46.063  28.179  34.694  1.00  0.00     0.173 A 
ATOM     85  F   UNL A   1      43.611  25.608  35.475  1.00  0.00    -0.203 F 
ATOM     86  C   UNL A   1      45.793  25.930  36.300  1.00  0.00     0.198 A 
ATOM     87  C   UNL A   1      47.114  27.774  35.511  1.00  0.00     0.198 A 
ATOM     88  F   UNL A   1      46.220  29.274  33.933  1.00  0.00    -0.203 F 
ATOM     89  F   UNL A   1      45.648  24.863  37.097  1.00  0.00    -0.200 F 
ATOM     90  C   UNL A   1      46.976  26.654  36.318  1.00  0.00     0.200 A 
ATOM     91  F   UNL A   1      48.260  28.469  35.522  1.00  0.00    -0.200 F 
ATOM     92  F   UNL A   1      47.981  26.277  37.120  1.00  0.00    -0.200 F 
ENDBRANCH  59  82
ENDBRANCH  33  34
ENDBRANCH  26  28
ENDBRANCH  25  26
ENDBRANCH  24  25
ENDBRANCH   1  24
TORSDOF 15
ENDMDL
