MODEL 1
REMARK VINA RESULT:     -12.2      0.000      0.000
REMARK SMILES CCn1nc(C)c(Br)c1C[C@H](C(=O)OCCOC(=O)c1ccc(-c2c3nc(c(-c4c(F)c(F)c(F)c(F)c4F)c4ccc([nH]4)c(-c4c(F)c(F)c(F)c(F)c4F)c4nc(c(-c5c(F)c(F)c(F)c(F)c5F)c5ccc2[nH]5)C=C4)C=C3)cc1)c1ccc(F)cc1
REMARK SMILES IDX 15 1 14 2 12 3 13 4 11 5 10 6 9 7 3 8 4 9 5 10 7 11 6 12
REMARK SMILES IDX 8 13 2 14 1 15 83 16 84 17 89 18 85 19 88 20 86 21 87 22
REMARK SMILES IDX 16 23 17 24 18 25 19 26 20 27 21 28 82 29 22 30 81 31 23 32
REMARK SMILES IDX 24 33 25 34 75 35 26 36 80 37 74 38 76 39 27 40 79 41 73 42
REMARK SMILES IDX 72 43 28 45 60 46 40 47 59 48 41 49 44 50 58 51 77 52 42 53
REMARK SMILES IDX 43 54 57 56 78 57 45 58 29 59 30 60 38 61 31 62 32 63 36 64
REMARK SMILES IDX 39 65 33 66 34 67 37 68 35 69 61 70 62 71 70 72 63 73 64 74
REMARK SMILES IDX 68 75 71 76 65 77 66 78 69 79 67 80 46 81 47 82 55 83 48 84
REMARK SMILES IDX 49 85 53 86 56 87 50 88 51 89 54 90 52 91
REMARK H PARENT 76 44 44 55
REMARK Flexibility Score: inf
ROOT
ATOM      1  C   UNL A   1      36.674  22.127  23.992  1.00  0.00     0.274 C 
ENDROOT
BRANCH   1   2
ATOM      2  O   UNL A   1      35.429  22.733  24.400  1.00  0.00    -0.462 OA
BRANCH   2   3
ATOM      3  C   UNL A   1      34.406  22.718  23.508  1.00  0.00     0.313 C 
ATOM      4  O   UNL A   1      34.465  23.217  22.388  1.00  0.00    -0.252 OA
BRANCH   3   5
ATOM      5  C   UNL A   1      33.162  21.994  24.021  1.00  0.00     0.135 C 
BRANCH   5   6
ATOM      6  C   UNL A   1      31.849  22.643  23.491  1.00  0.00     0.077 C 
BRANCH   6   7
ATOM      7  C   UNL A   1      31.447  24.017  24.008  1.00  0.00     0.054 A 
ATOM      8  N   UNL A   1      30.949  24.252  25.282  1.00  0.00    -0.268 N 
ATOM      9  N   UNL A   1      30.703  25.553  25.536  1.00  0.00    -0.177 NA
ATOM     10  C   UNL A   1      30.964  26.182  24.392  1.00  0.00     0.074 A 
ATOM     11  C   UNL A   1      31.458  25.278  23.432  1.00  0.00     0.062 A 
ATOM     12  C   UNL A   1      30.701  27.639  24.284  1.00  0.00     0.070 C 
ATOM     13  Br  UNL A   1      31.977  25.837  21.723  1.00  0.00    -0.047 Br
BRANCH   8  14
ATOM     14  C   UNL A   1      30.679  23.326  26.371  1.00  0.00     0.141 C 
ATOM     15  C   UNL A   1      31.915  23.011  27.207  1.00  0.00     0.029 C 
ENDBRANCH   8  14
ENDBRANCH   6   7
ENDBRANCH   5   6
BRANCH   5  16
ATOM     16  C   UNL A   1      33.134  20.470  24.033  1.00  0.00    -0.033 A 
ATOM     17  C   UNL A   1      34.007  19.669  24.784  1.00  0.00     0.007 A 
ATOM     18  C   UNL A   1      32.281  19.840  23.105  1.00  0.00     0.007 A 
ATOM     19  C   UNL A   1      34.126  18.306  24.509  1.00  0.00     0.039 A 
ATOM     20  C   UNL A   1      32.399  18.480  22.835  1.00  0.00     0.039 A 
ATOM     21  C   UNL A   1      33.342  17.731  23.520  1.00  0.00     0.123 A 
ATOM     22  F   UNL A   1      33.511  16.439  23.213  1.00  0.00    -0.207 F 
ENDBRANCH   5  16
ENDBRANCH   3   5
ENDBRANCH   2   3
ENDBRANCH   1   2
BRANCH   1  23
ATOM     23  C   UNL A   1      37.290  21.450  25.212  1.00  0.00     0.275 C 
BRANCH  23  24
ATOM     24  O   UNL A   1      37.963  22.330  26.131  1.00  0.00    -0.458 OA
BRANCH  24  25
ATOM     25  C   UNL A   1      39.281  22.125  26.342  1.00  0.00     0.338 C 
ATOM     26  O   UNL A   1      39.892  21.091  26.123  1.00  0.00    -0.246 OA
BRANCH  25  27
ATOM     27  C   UNL A   1      39.912  23.342  26.885  1.00  0.00     0.060 A 
ATOM     28  C   UNL A   1      39.408  24.594  26.500  1.00  0.00     0.016 A 
ATOM     29  C   UNL A   1      41.020  23.248  27.734  1.00  0.00     0.016 A 
ATOM     30  C   UNL A   1      40.022  25.753  26.943  1.00  0.00     0.010 A 
ATOM     31  C   UNL A   1      41.612  24.400  28.207  1.00  0.00     0.010 A 
ATOM     32  C   UNL A   1      41.107  25.648  27.817  1.00  0.00    -0.014 A 
BRANCH  32  33
ATOM     33  C   UNL A   1      41.463  26.813  28.629  1.00  0.00     0.031 A 
ATOM     34  C   UNL A   1      42.706  27.498  28.128  1.00  0.00     0.074 A 
ATOM     35  C   UNL A   1      40.572  27.343  29.495  1.00  0.00     0.049 A 
ATOM     36  N   UNL A   1      43.704  27.966  28.804  1.00  0.00    -0.248 NA
ATOM     37  C   UNL A   1      42.921  27.566  26.662  1.00  0.00     0.031 C 
ATOM     38  C   UNL A   1      39.226  26.822  29.769  1.00  0.00     0.029 A 
ATOM     39  N   UNL A   1      40.581  28.524  30.179  1.00  0.00    -0.354 N 
ATOM     40  C   UNL A   1      44.556  28.561  27.865  1.00  0.00     0.074 A 
ATOM     41  C   UNL A   1      44.124  28.128  26.572  1.00  0.00     0.031 C 
ATOM     42  C   UNL A   1      38.474  27.793  30.329  1.00  0.00     0.029 A 
ATOM     43  C   UNL A   1      39.312  28.954  30.564  1.00  0.00     0.049 A 
ATOM     44  H   UNL A   1      41.404  29.025  30.380  1.00  0.00     0.167 HD
ATOM     45  C   UNL A   1      45.336  29.620  28.215  1.00  0.00     0.037 A 
ATOM     46  C   UNL A   1      38.959  30.198  30.973  1.00  0.00     0.037 A 
ATOM     47  C   UNL A   1      45.521  29.658  29.638  1.00  0.00     0.049 A 
ATOM     48  C   UNL A   1      40.195  30.916  31.353  1.00  0.00     0.074 A 
ATOM     49  C   UNL A   1      46.282  28.983  30.565  1.00  0.00     0.029 A 
ATOM     50  N   UNL A   1      44.502  30.276  30.306  1.00  0.00    -0.354 N 
ATOM     51  N   UNL A   1      40.927  30.594  32.381  1.00  0.00    -0.248 NA
ATOM     52  C   UNL A   1      40.828  31.811  30.389  1.00  0.00     0.031 C 
ATOM     53  C   UNL A   1      45.589  29.102  31.806  1.00  0.00     0.029 A 
ATOM     54  C   UNL A   1      44.450  29.881  31.613  1.00  0.00     0.049 A 
ATOM     55  H   UNL A   1      43.884  30.924  29.897  1.00  0.00     0.167 HD
ATOM     56  C   UNL A   1      42.215  30.882  31.983  1.00  0.00     0.074 A 
ATOM     57  C   UNL A   1      42.080  31.789  30.850  1.00  0.00     0.031 C 
ATOM     58  C   UNL A   1      43.252  30.096  32.386  1.00  0.00     0.037 A 
BRANCH  45  59
ATOM     59  C   UNL A   1      45.443  30.896  27.389  1.00  0.00     0.064 A 
ATOM     60  C   UNL A   1      46.726  31.345  27.003  1.00  0.00     0.173 A 
ATOM     61  C   UNL A   1      44.412  31.854  27.267  1.00  0.00     0.173 A 
ATOM     62  F   UNL A   1      47.787  30.529  27.082  1.00  0.00    -0.203 F 
ATOM     63  C   UNL A   1      46.965  32.669  26.620  1.00  0.00     0.198 A 
ATOM     64  C   UNL A   1      44.648  33.162  26.841  1.00  0.00     0.198 A 
ATOM     65  F   UNL A   1      43.156  31.615  27.658  1.00  0.00    -0.203 F 
ATOM     66  F   UNL A   1      48.219  33.080  26.386  1.00  0.00    -0.200 F 
ATOM     67  C   UNL A   1      45.927  33.579  26.550  1.00  0.00     0.200 A 
ATOM     68  F   UNL A   1      43.630  34.034  26.802  1.00  0.00    -0.200 F 
ATOM     69  F   UNL A   1      46.162  34.863  26.250  1.00  0.00    -0.200 F 
ENDBRANCH  45  59
BRANCH  46  70
ATOM     70  C   UNL A   1      37.660  30.901  30.822  1.00  0.00     0.064 A 
ATOM     71  C   UNL A   1      36.872  31.214  31.943  1.00  0.00     0.173 A 
ATOM     72  C   UNL A   1      37.298  31.521  29.612  1.00  0.00     0.173 A 
ATOM     73  F   UNL A   1      37.170  30.696  33.144  1.00  0.00    -0.203 F 
ATOM     74  C   UNL A   1      35.808  32.119  31.864  1.00  0.00     0.198 A 
ATOM     75  C   UNL A   1      36.230  32.417  29.532  1.00  0.00     0.198 A 
ATOM     76  F   UNL A   1      38.030  31.345  28.503  1.00  0.00    -0.203 F 
ATOM     77  F   UNL A   1      35.121  32.444  32.969  1.00  0.00    -0.200 F 
ATOM     78  C   UNL A   1      35.495  32.728  30.660  1.00  0.00     0.200 A 
ATOM     79  F   UNL A   1      35.960  33.025  28.367  1.00  0.00    -0.200 F 
ATOM     80  F   UNL A   1      34.519  33.645  30.596  1.00  0.00    -0.200 F 
ENDBRANCH  46  70
BRANCH  58  81
ATOM     81  C   UNL A   1      43.055  29.281  33.623  1.00  0.00     0.064 A 
ATOM     82  C   UNL A   1      42.589  27.957  33.636  1.00  0.00     0.173 A 
ATOM     83  C   UNL A   1      43.430  29.854  34.844  1.00  0.00     0.173 A 
ATOM     84  F   UNL A   1      42.288  27.320  32.499  1.00  0.00    -0.203 F 
ATOM     85  C   UNL A   1      42.465  27.254  34.833  1.00  0.00     0.198 A 
ATOM     86  C   UNL A   1      43.342  29.137  36.031  1.00  0.00     0.198 A 
ATOM     87  F   UNL A   1      43.920  31.103  34.877  1.00  0.00    -0.203 F 
ATOM     88  F   UNL A   1      41.994  25.998  34.828  1.00  0.00    -0.200 F 
ATOM     89  C   UNL A   1      42.848  27.843  36.027  1.00  0.00     0.200 A 
ATOM     90  F   UNL A   1      43.755  29.698  37.176  1.00  0.00    -0.200 F 
ATOM     91  F   UNL A   1      42.761  27.156  37.175  1.00  0.00    -0.200 F 
ENDBRANCH  58  81
ENDBRANCH  32  33
ENDBRANCH  25  27
ENDBRANCH  24  25
ENDBRANCH  23  24
ENDBRANCH   1  23
TORSDOF 15
ENDMDL
MODEL 2
REMARK VINA RESULT:     -12.1      3.234      8.043
REMARK SMILES CCn1nc(C)c(Br)c1C[C@H](C(=O)OCCOC(=O)c1ccc(-c2c3nc(c(-c4c(F)c(F)c(F)c(F)c4F)c4ccc([nH]4)c(-c4c(F)c(F)c(F)c(F)c4F)c4nc(c(-c5c(F)c(F)c(F)c(F)c5F)c5ccc2[nH]5)C=C4)C=C3)cc1)c1ccc(F)cc1
REMARK SMILES IDX 15 1 14 2 12 3 13 4 11 5 10 6 9 7 3 8 4 9 5 10 7 11 6 12
REMARK SMILES IDX 8 13 2 14 1 15 83 16 84 17 89 18 85 19 88 20 86 21 87 22
REMARK SMILES IDX 16 23 17 24 18 25 19 26 20 27 21 28 82 29 22 30 81 31 23 32
REMARK SMILES IDX 24 33 25 34 75 35 26 36 80 37 74 38 76 39 27 40 79 41 73 42
REMARK SMILES IDX 72 43 28 45 60 46 40 47 59 48 41 49 44 50 58 51 77 52 42 53
REMARK SMILES IDX 43 54 57 56 78 57 45 58 29 59 30 60 38 61 31 62 32 63 36 64
REMARK SMILES IDX 39 65 33 66 34 67 37 68 35 69 61 70 62 71 70 72 63 73 64 74
REMARK SMILES IDX 68 75 71 76 65 77 66 78 69 79 67 80 46 81 47 82 55 83 48 84
REMARK SMILES IDX 49 85 53 86 56 87 50 88 51 89 54 90 52 91
REMARK H PARENT 76 44 44 55
REMARK Flexibility Score: inf
ROOT
ATOM      1  C   UNL A   1      32.415  29.648  25.418  1.00  0.00     0.274 C 
ENDROOT
BRANCH   1   2
ATOM      2  O   UNL A   1      33.746  29.314  24.972  1.00  0.00    -0.462 OA
BRANCH   2   3
ATOM      3  C   UNL A   1      33.858  28.588  23.832  1.00  0.00     0.313 C 
ATOM      4  O   UNL A   1      34.546  28.921  22.871  1.00  0.00    -0.252 OA
BRANCH   3   5
ATOM      5  C   UNL A   1      33.056  27.288  23.856  1.00  0.00     0.135 C 
BRANCH   5   6
ATOM      6  C   UNL A   1      32.006  27.228  22.707  1.00  0.00     0.077 C 
BRANCH   6   7
ATOM      7  C   UNL A   1      30.528  27.324  23.057  1.00  0.00     0.054 A 
ATOM      8  N   UNL A   1      29.831  26.353  23.761  1.00  0.00    -0.268 N 
ATOM      9  N   UNL A   1      28.542  26.671  23.995  1.00  0.00    -0.177 NA
ATOM     10  C   UNL A   1      28.357  27.832  23.368  1.00  0.00     0.074 A 
ATOM     11  C   UNL A   1      29.564  28.288  22.804  1.00  0.00     0.062 A 
ATOM     12  C   UNL A   1      27.000  28.435  23.335  1.00  0.00     0.070 C 
ATOM     13  Br  UNL A   1      29.675  29.919  21.892  1.00  0.00    -0.047 Br
BRANCH   8  14
ATOM     14  C   UNL A   1      30.281  25.076  24.296  1.00  0.00     0.141 C 
ATOM     15  C   UNL A   1      30.458  24.008  23.223  1.00  0.00     0.029 C 
ENDBRANCH   8  14
ENDBRANCH   6   7
ENDBRANCH   5   6
BRANCH   5  16
ATOM     16  C   UNL A   1      33.778  25.967  24.100  1.00  0.00    -0.033 A 
ATOM     17  C   UNL A   1      34.017  25.002  23.112  1.00  0.00     0.007 A 
ATOM     18  C   UNL A   1      34.075  25.640  25.439  1.00  0.00     0.007 A 
ATOM     19  C   UNL A   1      34.396  23.707  23.467  1.00  0.00     0.039 A 
ATOM     20  C   UNL A   1      34.458  24.349  25.791  1.00  0.00     0.039 A 
ATOM     21  C   UNL A   1      34.586  23.386  24.803  1.00  0.00     0.123 A 
ATOM     22  F   UNL A   1      34.883  22.126  25.143  1.00  0.00    -0.207 F 
ENDBRANCH   5  16
ENDBRANCH   3   5
ENDBRANCH   2   3
ENDBRANCH   1   2
BRANCH   1  23
ATOM     23  C   UNL A   1      32.526  30.294  26.794  1.00  0.00     0.275 C 
BRANCH  23  24
ATOM     24  O   UNL A   1      33.804  30.148  27.442  1.00  0.00    -0.458 OA
BRANCH  24  25
ATOM     25  C   UNL A   1      34.421  31.271  27.868  1.00  0.00     0.338 C 
ATOM     26  O   UNL A   1      33.962  32.401  27.832  1.00  0.00    -0.246 OA
BRANCH  25  27
ATOM     27  C   UNL A   1      35.759  30.954  28.400  1.00  0.00     0.060 A 
ATOM     28  C   UNL A   1      36.076  29.616  28.680  1.00  0.00     0.016 A 
ATOM     29  C   UNL A   1      36.680  31.976  28.661  1.00  0.00     0.016 A 
ATOM     30  C   UNL A   1      37.301  29.297  29.241  1.00  0.00     0.010 A 
ATOM     31  C   UNL A   1      37.914  31.659  29.186  1.00  0.00     0.010 A 
ATOM     32  C   UNL A   1      38.224  30.321  29.466  1.00  0.00    -0.014 A 
BRANCH  32  33
ATOM     33  C   UNL A   1      39.636  29.964  29.620  1.00  0.00     0.031 A 
ATOM     34  C   UNL A   1      40.077  29.992  31.057  1.00  0.00     0.074 A 
ATOM     35  C   UNL A   1      40.309  29.379  28.605  1.00  0.00     0.049 A 
ATOM     36  N   UNL A   1      41.169  30.465  31.563  1.00  0.00    -0.248 NA
ATOM     37  C   UNL A   1      39.117  29.532  32.090  1.00  0.00     0.031 C 
ATOM     38  C   UNL A   1      39.768  29.089  27.269  1.00  0.00     0.029 A 
ATOM     39  N   UNL A   1      41.528  28.765  28.574  1.00  0.00    -0.354 N 
ATOM     40  C   UNL A   1      41.114  30.177  32.932  1.00  0.00     0.074 A 
ATOM     41  C   UNL A   1      39.771  29.776  33.223  1.00  0.00     0.031 C 
ATOM     42  C   UNL A   1      40.529  28.149  26.671  1.00  0.00     0.029 A 
ATOM     43  C   UNL A   1      41.670  27.862  27.522  1.00  0.00     0.049 A 
ATOM     44  H   UNL A   1      42.237  28.943  29.232  1.00  0.00     0.167 HD
ATOM     45  C   UNL A   1      42.257  29.973  33.642  1.00  0.00     0.037 A 
ATOM     46  C   UNL A   1      42.612  26.895  27.396  1.00  0.00     0.037 A 
ATOM     47  C   UNL A   1      43.377  30.569  32.969  1.00  0.00     0.049 A 
ATOM     48  C   UNL A   1      43.714  27.214  28.329  1.00  0.00     0.074 A 
ATOM     49  C   UNL A   1      43.884  31.837  32.802  1.00  0.00     0.029 A 
ATOM     50  N   UNL A   1      43.918  29.773  31.999  1.00  0.00    -0.354 N 
ATOM     51  N   UNL A   1      44.500  28.244  28.189  1.00  0.00    -0.248 NA
ATOM     52  C   UNL A   1      43.754  26.569  29.639  1.00  0.00     0.031 C 
ATOM     53  C   UNL A   1      44.643  31.803  31.595  1.00  0.00     0.029 A 
ATOM     54  C   UNL A   1      44.616  30.508  31.082  1.00  0.00     0.049 A 
ATOM     55  H   UNL A   1      43.819  28.795  31.965  1.00  0.00     0.167 HD
ATOM     56  C   UNL A   1      44.789  28.626  29.482  1.00  0.00     0.074 A 
ATOM     57  C   UNL A   1      44.471  27.471  30.312  1.00  0.00     0.031 C 
ATOM     58  C   UNL A   1      44.933  29.945  29.794  1.00  0.00     0.037 A 
BRANCH  45  59
ATOM     59  C   UNL A   1      42.463  28.798  34.589  1.00  0.00     0.064 A 
ATOM     60  C   UNL A   1      43.069  29.038  35.841  1.00  0.00     0.173 A 
ATOM     61  C   UNL A   1      42.420  27.441  34.195  1.00  0.00     0.173 A 
ATOM     62  F   UNL A   1      43.177  30.286  36.320  1.00  0.00    -0.203 F 
ATOM     63  C   UNL A   1      43.664  28.014  36.588  1.00  0.00     0.198 A 
ATOM     64  C   UNL A   1      42.976  26.417  34.964  1.00  0.00     0.198 A 
ATOM     65  F   UNL A   1      41.946  27.050  33.008  1.00  0.00    -0.203 F 
ATOM     66  F   UNL A   1      44.339  28.310  37.707  1.00  0.00    -0.200 F 
ATOM     67  C   UNL A   1      43.627  26.707  36.142  1.00  0.00     0.200 A 
ATOM     68  F   UNL A   1      42.946  25.159  34.502  1.00  0.00    -0.200 F 
ATOM     69  F   UNL A   1      44.253  25.735  36.818  1.00  0.00    -0.200 F 
ENDBRANCH  45  59
BRANCH  46  70
ATOM     70  C   UNL A   1      42.520  25.579  26.715  1.00  0.00     0.064 A 
ATOM     71  C   UNL A   1      43.338  25.276  25.612  1.00  0.00     0.173 A 
ATOM     72  C   UNL A   1      41.830  24.499  27.296  1.00  0.00     0.173 A 
ATOM     73  F   UNL A   1      44.059  26.240  25.022  1.00  0.00    -0.203 F 
ATOM     74  C   UNL A   1      43.482  23.966  25.142  1.00  0.00     0.198 A 
ATOM     75  C   UNL A   1      41.967  23.193  26.821  1.00  0.00     0.198 A 
ATOM     76  F   UNL A   1      41.083  24.672  28.396  1.00  0.00    -0.203 F 
ATOM     77  F   UNL A   1      44.323  23.706  24.131  1.00  0.00    -0.200 F 
ATOM     78  C   UNL A   1      42.805  22.924  25.755  1.00  0.00     0.200 A 
ATOM     79  F   UNL A   1      41.333  22.190  27.444  1.00  0.00    -0.200 F 
ATOM     80  F   UNL A   1      42.994  21.660  25.349  1.00  0.00    -0.200 F 
ENDBRANCH  46  70
BRANCH  58  81
ATOM     81  C   UNL A   1      45.279  30.879  28.681  1.00  0.00     0.064 A 
ATOM     82  C   UNL A   1      44.338  31.576  27.907  1.00  0.00     0.173 A 
ATOM     83  C   UNL A   1      46.635  31.132  28.443  1.00  0.00     0.173 A 
ATOM     84  F   UNL A   1      43.026  31.444  28.132  1.00  0.00    -0.203 F 
ATOM     85  C   UNL A   1      44.745  32.457  26.907  1.00  0.00     0.198 A 
ATOM     86  C   UNL A   1      47.038  32.040  27.472  1.00  0.00     0.198 A 
ATOM     87  F   UNL A   1      47.572  30.521  29.185  1.00  0.00    -0.203 F 
ATOM     88  F   UNL A   1      43.831  33.095  26.161  1.00  0.00    -0.200 F 
ATOM     89  C   UNL A   1      46.093  32.693  26.696  1.00  0.00     0.200 A 
ATOM     90  F   UNL A   1      48.342  32.295  27.303  1.00  0.00    -0.200 F 
ATOM     91  F   UNL A   1      46.486  33.565  25.757  1.00  0.00    -0.200 F 
ENDBRANCH  58  81
ENDBRANCH  32  33
ENDBRANCH  25  27
ENDBRANCH  24  25
ENDBRANCH  23  24
ENDBRANCH   1  23
TORSDOF 15
ENDMDL
MODEL 3
REMARK VINA RESULT:     -11.8      1.833      3.342
REMARK SMILES CCn1nc(C)c(Br)c1C[C@H](C(=O)OCCOC(=O)c1ccc(-c2c3nc(c(-c4c(F)c(F)c(F)c(F)c4F)c4ccc([nH]4)c(-c4c(F)c(F)c(F)c(F)c4F)c4nc(c(-c5c(F)c(F)c(F)c(F)c5F)c5ccc2[nH]5)C=C4)C=C3)cc1)c1ccc(F)cc1
REMARK SMILES IDX 15 1 14 2 12 3 13 4 11 5 10 6 9 7 3 8 4 9 5 10 7 11 6 12
REMARK SMILES IDX 8 13 2 14 1 15 83 16 84 17 89 18 85 19 88 20 86 21 87 22
REMARK SMILES IDX 16 23 17 24 18 25 19 26 20 27 21 28 82 29 22 30 81 31 23 32
REMARK SMILES IDX 24 33 25 34 75 35 26 36 80 37 74 38 76 39 27 40 79 41 73 42
REMARK SMILES IDX 72 43 28 45 60 46 40 47 59 48 41 49 44 50 58 51 77 52 42 53
REMARK SMILES IDX 43 54 57 56 78 57 45 58 29 59 30 60 38 61 31 62 32 63 36 64
REMARK SMILES IDX 39 65 33 66 34 67 37 68 35 69 61 70 62 71 70 72 63 73 64 74
REMARK SMILES IDX 68 75 71 76 65 77 66 78 69 79 67 80 46 81 47 82 55 83 48 84
REMARK SMILES IDX 49 85 53 86 56 87 50 88 51 89 54 90 52 91
REMARK H PARENT 76 44 44 55
REMARK Flexibility Score: inf
ROOT
ATOM      1  C   UNL A   1      36.978  23.551  24.273  1.00  0.00     0.274 C 
ENDROOT
BRANCH   1   2
ATOM      2  O   UNL A   1      35.592  23.879  24.505  1.00  0.00    -0.462 OA
BRANCH   2   3
ATOM      3  C   UNL A   1      34.770  23.915  23.426  1.00  0.00     0.313 C 
ATOM      4  O   UNL A   1      34.944  23.251  22.409  1.00  0.00    -0.252 OA
BRANCH   3   5
ATOM      5  C   UNL A   1      33.578  24.855  23.601  1.00  0.00     0.135 C 
BRANCH   5   6
ATOM      6  C   UNL A   1      32.301  24.098  24.071  1.00  0.00     0.077 C 
BRANCH   6   7
ATOM      7  C   UNL A   1      32.421  22.635  24.477  1.00  0.00     0.054 A 
ATOM      8  N   UNL A   1      32.721  22.209  25.763  1.00  0.00    -0.268 N 
ATOM      9  N   UNL A   1      32.731  20.867  25.901  1.00  0.00    -0.177 NA
ATOM     10  C   UNL A   1      32.515  20.395  24.674  1.00  0.00     0.074 A 
ATOM     11  C   UNL A   1      32.285  21.450  23.771  1.00  0.00     0.062 A 
ATOM     12  C   UNL A   1      32.561  18.930  24.439  1.00  0.00     0.070 C 
ATOM     13  Br  UNL A   1      31.896  21.140  21.967  1.00  0.00    -0.047 Br
BRANCH   8  14
ATOM     14  C   UNL A   1      32.998  22.977  26.968  1.00  0.00     0.141 C 
ATOM     15  C   UNL A   1      34.205  22.458  27.742  1.00  0.00     0.029 C 
ENDBRANCH   8  14
ENDBRANCH   6   7
ENDBRANCH   5   6
BRANCH   5  16
ATOM     16  C   UNL A   1      33.782  26.203  24.285  1.00  0.00    -0.033 A 
ATOM     17  C   UNL A   1      33.822  26.386  25.674  1.00  0.00     0.007 A 
ATOM     18  C   UNL A   1      33.766  27.346  23.460  1.00  0.00     0.007 A 
ATOM     19  C   UNL A   1      33.699  27.664  26.221  1.00  0.00     0.039 A 
ATOM     20  C   UNL A   1      33.647  28.620  24.008  1.00  0.00     0.039 A 
ATOM     21  C   UNL A   1      33.585  28.764  25.384  1.00  0.00     0.123 A 
ATOM     22  F   UNL A   1      33.398  29.979  25.914  1.00  0.00    -0.207 F 
ENDBRANCH   5  16
ENDBRANCH   3   5
ENDBRANCH   2   3
ENDBRANCH   1   2
BRANCH   1  23
ATOM     23  C   UNL A   1      37.275  22.232  24.979  1.00  0.00     0.275 C 
BRANCH  23  24
ATOM     24  O   UNL A   1      37.863  22.353  26.288  1.00  0.00    -0.458 OA
BRANCH  24  25
ATOM     25  C   UNL A   1      39.189  22.120  26.401  1.00  0.00     0.338 C 
ATOM     26  O   UNL A   1      39.763  21.080  26.121  1.00  0.00    -0.246 OA
BRANCH  25  27
ATOM     27  C   UNL A   1      39.880  23.315  26.920  1.00  0.00     0.060 A 
ATOM     28  C   UNL A   1      39.450  24.581  26.496  1.00  0.00     0.016 A 
ATOM     29  C   UNL A   1      40.972  23.184  27.785  1.00  0.00     0.016 A 
ATOM     30  C   UNL A   1      40.121  25.717  26.916  1.00  0.00     0.010 A 
ATOM     31  C   UNL A   1      41.621  24.314  28.234  1.00  0.00     0.010 A 
ATOM     32  C   UNL A   1      41.189  25.576  27.805  1.00  0.00    -0.014 A 
BRANCH  32  33
ATOM     33  C   UNL A   1      41.600  26.742  28.590  1.00  0.00     0.031 A 
ATOM     34  C   UNL A   1      42.894  27.332  28.099  1.00  0.00     0.074 A 
ATOM     35  C   UNL A   1      40.725  27.353  29.419  1.00  0.00     0.049 A 
ATOM     36  N   UNL A   1      43.904  27.759  28.784  1.00  0.00    -0.248 NA
ATOM     37  C   UNL A   1      43.145  27.342  26.637  1.00  0.00     0.031 C 
ATOM     38  C   UNL A   1      39.343  26.925  29.676  1.00  0.00     0.029 A 
ATOM     39  N   UNL A   1      40.793  28.552  30.068  1.00  0.00    -0.354 N 
ATOM     40  C   UNL A   1      44.813  28.270  27.849  1.00  0.00     0.074 A 
ATOM     41  C   UNL A   1      44.382  27.825  26.559  1.00  0.00     0.031 C 
ATOM     42  C   UNL A   1      38.641  27.958  30.189  1.00  0.00     0.029 A 
ATOM     43  C   UNL A   1      39.546  29.072  30.409  1.00  0.00     0.049 A 
ATOM     44  H   UNL A   1      41.641  29.006  30.273  1.00  0.00     0.167 HD
ATOM     45  C   UNL A   1      45.650  29.289  28.185  1.00  0.00     0.037 A 
ATOM     46  C   UNL A   1      39.263  30.347  30.773  1.00  0.00     0.037 A 
ATOM     47  C   UNL A   1      45.806  29.359  29.611  1.00  0.00     0.049 A 
ATOM     48  C   UNL A   1      40.532  30.998  31.160  1.00  0.00     0.074 A 
ATOM     49  C   UNL A   1      46.502  28.668  30.576  1.00  0.00     0.029 A 
ATOM     50  N   UNL A   1      44.813  30.060  30.236  1.00  0.00    -0.354 N 
ATOM     51  N   UNL A   1      41.220  30.664  32.215  1.00  0.00    -0.248 NA
ATOM     52  C   UNL A   1      41.242  31.822  30.186  1.00  0.00     0.031 C 
ATOM     53  C   UNL A   1      45.790  28.868  31.796  1.00  0.00     0.029 A 
ATOM     54  C   UNL A   1      44.707  29.710  31.552  1.00  0.00     0.049 A 
ATOM     55  H   UNL A   1      44.246  30.732  29.794  1.00  0.00     0.167 HD
ATOM     56  C   UNL A   1      42.532  30.859  31.839  1.00  0.00     0.074 A 
ATOM     57  C   UNL A   1      42.479  31.736  30.677  1.00  0.00     0.031 C 
ATOM     58  C   UNL A   1      43.509  30.022  32.290  1.00  0.00     0.037 A 
BRANCH  45  59
ATOM     59  C   UNL A   1      45.855  30.529  27.326  1.00  0.00     0.064 A 
ATOM     60  C   UNL A   1      47.169  31.014  27.143  1.00  0.00     0.173 A 
ATOM     61  C   UNL A   1      44.828  31.436  26.978  1.00  0.00     0.173 A 
ATOM     62  F   UNL A   1      48.228  30.249  27.445  1.00  0.00    -0.203 F 
ATOM     63  C   UNL A   1      47.425  32.329  26.737  1.00  0.00     0.198 A 
ATOM     64  C   UNL A   1      45.090  32.733  26.532  1.00  0.00     0.198 A 
ATOM     65  F   UNL A   1      43.533  31.162  27.159  1.00  0.00    -0.203 F 
ATOM     66  F   UNL A   1      48.686  32.782  26.701  1.00  0.00    -0.200 F 
ATOM     67  C   UNL A   1      46.385  33.190  26.444  1.00  0.00     0.200 A 
ATOM     68  F   UNL A   1      44.064  33.557  26.273  1.00  0.00    -0.200 F 
ATOM     69  F   UNL A   1      46.624  34.468  26.121  1.00  0.00    -0.200 F 
ENDBRANCH  45  59
BRANCH  46  70
ATOM     70  C   UNL A   1      38.014  31.125  30.571  1.00  0.00     0.064 A 
ATOM     71  C   UNL A   1      37.480  31.315  29.285  1.00  0.00     0.173 A 
ATOM     72  C   UNL A   1      37.178  31.462  31.651  1.00  0.00     0.173 A 
ATOM     73  F   UNL A   1      38.196  30.985  28.200  1.00  0.00    -0.203 F 
ATOM     74  C   UNL A   1      36.174  31.781  29.093  1.00  0.00     0.198 A 
ATOM     75  C   UNL A   1      35.879  31.936  31.459  1.00  0.00     0.198 A 
ATOM     76  F   UNL A   1      37.568  31.249  32.916  1.00  0.00    -0.203 F 
ATOM     77  F   UNL A   1      35.676  31.886  27.853  1.00  0.00    -0.200 F 
ATOM     78  C   UNL A   1      35.371  32.080  30.181  1.00  0.00     0.200 A 
ATOM     79  F   UNL A   1      35.100  32.189  32.521  1.00  0.00    -0.200 F 
ATOM     80  F   UNL A   1      34.099  32.463  30.002  1.00  0.00    -0.200 F 
ENDBRANCH  46  70
BRANCH  58  81
ATOM     81  C   UNL A   1      43.234  29.261  33.546  1.00  0.00     0.064 A 
ATOM     82  C   UNL A   1      42.694  27.965  33.587  1.00  0.00     0.173 A 
ATOM     83  C   UNL A   1      43.608  29.851  34.759  1.00  0.00     0.173 A 
ATOM     84  F   UNL A   1      42.387  27.309  32.462  1.00  0.00    -0.203 F 
ATOM     85  C   UNL A   1      42.499  27.309  34.800  1.00  0.00     0.198 A 
ATOM     86  C   UNL A   1      43.449  29.179  35.964  1.00  0.00     0.198 A 
ATOM     87  F   UNL A   1      44.167  31.071  34.767  1.00  0.00    -0.203 F 
ATOM     88  F   UNL A   1      41.959  26.082  34.822  1.00  0.00    -0.200 F 
ATOM     89  C   UNL A   1      42.884  27.914  35.986  1.00  0.00     0.200 A 
ATOM     90  F   UNL A   1      43.863  29.752  37.102  1.00  0.00    -0.200 F 
ATOM     91  F   UNL A   1      42.728  27.271  37.152  1.00  0.00    -0.200 F 
ENDBRANCH  58  81
ENDBRANCH  32  33
ENDBRANCH  25  27
ENDBRANCH  24  25
ENDBRANCH  23  24
ENDBRANCH   1  23
TORSDOF 15
ENDMDL
