MODEL 1
REMARK VINA RESULT:     -12.6      0.000      0.000
REMARK SMILES Cc1nn(CC(=O)OCCOC(=O)c2ccc(-c3c4nc(c(-c5c(F)c(F)c(F)c(F)c5F)c5ccc([nH]5)c(-c5c(F)c(F)c(F)c(F)c5F)c5nc(c(-c6c(F)c(F)c(F)c(F)c6F)c6ccc3[nH]6)C=C5)C=C4)cc2)c(C)c1NS(=O)(=O)c1cccc2cccnc12
REMARK SMILES IDX 9 1 8 2 6 3 7 4 5 5 4 6 1 7 2 8 3 9 79 10 77 11 78 12 80 13
REMARK SMILES IDX 81 15 82 16 83 17 84 18 85 19 93 20 86 21 88 22 92 23 87 24
REMARK SMILES IDX 89 25 91 26 90 27 10 28 11 29 12 30 13 31 14 32 15 33 76 34
REMARK SMILES IDX 16 35 75 36 17 37 18 38 19 39 69 40 20 41 74 42 68 43 70 44
REMARK SMILES IDX 21 45 73 46 67 47 66 48 22 50 54 51 34 52 53 53 35 54 38 55
REMARK SMILES IDX 52 56 71 57 36 58 37 59 51 61 72 62 39 63 23 64 24 65 32 66
REMARK SMILES IDX 25 67 26 68 30 69 33 70 27 71 28 72 31 73 29 74 55 75 56 76
REMARK SMILES IDX 64 77 57 78 58 79 62 80 65 81 59 82 60 83 63 84 61 85 40 86
REMARK SMILES IDX 41 87 49 88 42 89 43 90 47 91 50 92 44 93 45 94 48 95 46 96
REMARK H PARENT 80 14 70 49 38 60
REMARK Flexibility Score: inf
ROOT
ATOM      1  C   UNL A   1      40.591  21.611  26.313  1.00  0.00     0.274 C 
ENDROOT
BRANCH   1   2
ATOM      2  O   UNL A   1      39.265  21.277  25.823  1.00  0.00    -0.461 OA
BRANCH   2   3
ATOM      3  C   UNL A   1      38.337  22.270  25.776  1.00  0.00     0.327 C 
ATOM      4  O   UNL A   1      38.448  23.327  26.397  1.00  0.00    -0.250 OA
BRANCH   3   5
ATOM      5  C   UNL A   1      37.164  22.044  24.847  1.00  0.00     0.267 C 
BRANCH   5   6
ATOM      6  N   UNL A   1      35.870  22.424  25.372  1.00  0.00    -0.256 N 
ATOM      7  C   UNL A   1      33.430  22.105  27.877  1.00  0.00     0.071 C 
ATOM      8  C   UNL A   1      34.318  22.545  26.770  1.00  0.00     0.084 A 
ATOM      9  N   UNL A   1      35.318  21.738  26.386  1.00  0.00    -0.175 NA
ATOM     10  C   UNL A   1      34.214  23.692  25.909  1.00  0.00     0.093 A 
ATOM     11  C   UNL A   1      34.944  23.272  24.816  1.00  0.00     0.060 A 
ATOM     12  C   UNL A   1      34.817  23.471  23.360  1.00  0.00     0.069 C 
BRANCH  10  13
ATOM     13  N   UNL A   1      33.343  24.775  26.099  1.00  0.00    -0.276 N 
ATOM     14  H   UNL A   1      33.748  25.608  26.433  1.00  0.00     0.180 HD
BRANCH  13  15
ATOM     15  S   UNL A   1      31.662  24.811  25.814  1.00  0.00     0.264 S 
ATOM     16  O   UNL A   1      31.462  23.868  24.725  1.00  0.00    -0.201 OA
ATOM     17  O   UNL A   1      31.019  24.534  27.081  1.00  0.00    -0.201 OA
BRANCH  15  18
ATOM     18  C   UNL A   1      31.144  26.394  25.209  1.00  0.00     0.114 A 
ATOM     19  C   UNL A   1      30.210  26.408  24.154  1.00  0.00     0.024 A 
ATOM     20  C   UNL A   1      31.610  27.585  25.767  1.00  0.00     0.091 A 
ATOM     21  C   UNL A   1      29.848  27.602  23.543  1.00  0.00     0.002 A 
ATOM     22  C   UNL A   1      31.297  28.784  25.074  1.00  0.00     0.002 A 
ATOM     23  N   UNL A   1      32.318  27.639  26.909  1.00  0.00    -0.255 NA
ATOM     24  C   UNL A   1      30.435  28.784  23.969  1.00  0.00     0.010 A 
ATOM     25  C   UNL A   1      31.850  29.992  25.508  1.00  0.00     0.012 A 
ATOM     26  C   UNL A   1      32.689  28.844  27.387  1.00  0.00     0.112 A 
ATOM     27  C   UNL A   1      32.547  30.030  26.699  1.00  0.00     0.021 A 
ENDBRANCH  15  18
ENDBRANCH  13  15
ENDBRANCH  10  13
ENDBRANCH   5   6
ENDBRANCH   3   5
ENDBRANCH   2   3
ENDBRANCH   1   2
BRANCH   1  28
ATOM     28  C   UNL A   1      41.545  20.428  26.336  1.00  0.00     0.275 C 
BRANCH  28  29
ATOM     29  O   UNL A   1      42.851  20.916  26.574  1.00  0.00    -0.458 OA
BRANCH  29  30
ATOM     30  C   UNL A   1      43.586  20.893  25.442  1.00  0.00     0.338 C 
ATOM     31  O   UNL A   1      43.788  19.942  24.713  1.00  0.00    -0.246 OA
BRANCH  30  32
ATOM     32  C   UNL A   1      44.222  22.189  25.247  1.00  0.00     0.060 A 
ATOM     33  C   UNL A   1      45.203  22.490  26.197  1.00  0.00     0.016 A 
ATOM     34  C   UNL A   1      43.427  23.154  24.625  1.00  0.00     0.016 A 
ATOM     35  C   UNL A   1      45.141  23.720  26.786  1.00  0.00     0.010 A 
ATOM     36  C   UNL A   1      43.326  24.363  25.252  1.00  0.00     0.010 A 
ATOM     37  C   UNL A   1      44.113  24.575  26.384  1.00  0.00    -0.014 A 
BRANCH  37  38
ATOM     38  C   UNL A   1      43.885  25.739  27.193  1.00  0.00     0.031 A 
ATOM     39  C   UNL A   1      44.898  26.782  26.968  1.00  0.00     0.074 A 
ATOM     40  C   UNL A   1      42.794  25.839  27.971  1.00  0.00     0.049 A 
ATOM     41  N   UNL A   1      45.754  27.259  27.806  1.00  0.00    -0.248 NA
ATOM     42  C   UNL A   1      45.102  27.214  25.575  1.00  0.00     0.031 C 
ATOM     43  C   UNL A   1      41.615  24.968  28.005  1.00  0.00     0.029 A 
ATOM     44  N   UNL A   1      42.463  26.838  28.822  1.00  0.00    -0.354 N 
ATOM     45  C   UNL A   1      46.489  28.187  27.080  1.00  0.00     0.074 A 
ATOM     46  C   UNL A   1      46.195  27.961  25.693  1.00  0.00     0.031 C 
ATOM     47  C   UNL A   1      40.613  25.614  28.644  1.00  0.00     0.029 A 
ATOM     48  C   UNL A   1      41.120  26.879  29.150  1.00  0.00     0.049 A 
ATOM     49  H   UNL A   1      43.120  27.480  29.176  1.00  0.00     0.167 HD
ATOM     50  C   UNL A   1      47.062  29.256  27.691  1.00  0.00     0.037 A 
ATOM     51  C   UNL A   1      40.484  27.954  29.675  1.00  0.00     0.037 A 
ATOM     52  C   UNL A   1      47.230  29.023  29.102  1.00  0.00     0.049 A 
ATOM     53  C   UNL A   1      41.529  28.873  30.212  1.00  0.00     0.074 A 
ATOM     54  C   UNL A   1      47.923  28.088  29.846  1.00  0.00     0.029 A 
ATOM     55  N   UNL A   1      46.333  29.598  29.968  1.00  0.00    -0.354 N 
ATOM     56  N   UNL A   1      42.269  28.608  31.255  1.00  0.00    -0.248 NA
ATOM     57  C   UNL A   1      42.070  29.884  29.311  1.00  0.00     0.031 C 
ATOM     58  C   UNL A   1      47.101  27.826  30.981  1.00  0.00     0.029 A 
ATOM     59  C   UNL A   1      45.973  28.642  30.883  1.00  0.00     0.049 A 
ATOM     60  H   UNL A   1      46.007  30.527  29.938  1.00  0.00     0.167 HD
ATOM     61  C   UNL A   1      43.528  29.102  30.938  1.00  0.00     0.074 A 
ATOM     62  C   UNL A   1      43.324  29.950  29.768  1.00  0.00     0.031 C 
ATOM     63  C   UNL A   1      44.658  28.549  31.471  1.00  0.00     0.037 A 
BRANCH  50  64
ATOM     64  C   UNL A   1      47.097  30.630  27.072  1.00  0.00     0.064 A 
ATOM     65  C   UNL A   1      48.317  31.330  27.055  1.00  0.00     0.173 A 
ATOM     66  C   UNL A   1      45.950  31.399  26.763  1.00  0.00     0.173 A 
ATOM     67  F   UNL A   1      49.467  30.703  27.343  1.00  0.00    -0.203 F 
ATOM     68  C   UNL A   1      48.371  32.708  26.836  1.00  0.00     0.198 A 
ATOM     69  C   UNL A   1      46.016  32.761  26.486  1.00  0.00     0.198 A 
ATOM     70  F   UNL A   1      44.708  30.907  26.827  1.00  0.00    -0.203 F 
ATOM     71  F   UNL A   1      49.537  33.353  26.964  1.00  0.00    -0.200 F 
ATOM     72  C   UNL A   1      47.220  33.423  26.559  1.00  0.00     0.200 A 
ATOM     73  F   UNL A   1      44.885  33.435  26.232  1.00  0.00    -0.200 F 
ATOM     74  F   UNL A   1      47.262  34.753  26.413  1.00  0.00    -0.200 F 
ENDBRANCH  50  64
BRANCH  51  75
ATOM     75  C   UNL A   1      39.096  28.396  29.403  1.00  0.00     0.064 A 
ATOM     76  C   UNL A   1      38.178  28.571  30.448  1.00  0.00     0.173 A 
ATOM     77  C   UNL A   1      38.710  28.896  28.141  1.00  0.00     0.173 A 
ATOM     78  F   UNL A   1      38.487  28.171  31.690  1.00  0.00    -0.203 F 
ATOM     79  C   UNL A   1      36.954  29.219  30.248  1.00  0.00     0.198 A 
ATOM     80  C   UNL A   1      37.484  29.530  27.940  1.00  0.00     0.198 A 
ATOM     81  F   UNL A   1      39.552  28.867  27.099  1.00  0.00    -0.203 F 
ATOM     82  F   UNL A   1      36.127  29.420  31.284  1.00  0.00    -0.200 F 
ATOM     83  C   UNL A   1      36.611  29.701  28.996  1.00  0.00     0.200 A 
ATOM     84  F   UNL A   1      37.183  30.024  26.731  1.00  0.00    -0.200 F 
ATOM     85  F   UNL A   1      35.462  30.368  28.815  1.00  0.00    -0.200 F 
ENDBRANCH  51  75
BRANCH  63  86
ATOM     86  C   UNL A   1      44.488  27.567  32.595  1.00  0.00     0.064 A 
ATOM     87  C   UNL A   1      44.297  26.188  32.400  1.00  0.00     0.173 A 
ATOM     88  C   UNL A   1      44.676  28.013  33.909  1.00  0.00     0.173 A 
ATOM     89  F   UNL A   1      44.219  25.673  31.167  1.00  0.00    -0.203 F 
ATOM     90  C   UNL A   1      44.246  25.305  33.477  1.00  0.00     0.198 A 
ATOM     91  C   UNL A   1      44.663  27.124  34.981  1.00  0.00     0.198 A 
ATOM     92  F   UNL A   1      44.923  29.310  34.150  1.00  0.00    -0.203 F 
ATOM     93  F   UNL A   1      44.048  23.996  33.265  1.00  0.00    -0.200 F 
ATOM     94  C   UNL A   1      44.437  25.774  34.765  1.00  0.00     0.200 A 
ATOM     95  F   UNL A   1      44.899  27.573  36.221  1.00  0.00    -0.200 F 
ATOM     96  F   UNL A   1      44.431  24.920  35.799  1.00  0.00    -0.200 F 
ENDBRANCH  63  86
ENDBRANCH  37  38
ENDBRANCH  30  32
ENDBRANCH  29  30
ENDBRANCH  28  29
ENDBRANCH   1  28
TORSDOF 15
ENDMDL
MODEL 2
REMARK VINA RESULT:     -12.2      2.231      3.043
REMARK SMILES Cc1nn(CC(=O)OCCOC(=O)c2ccc(-c3c4nc(c(-c5c(F)c(F)c(F)c(F)c5F)c5ccc([nH]5)c(-c5c(F)c(F)c(F)c(F)c5F)c5nc(c(-c6c(F)c(F)c(F)c(F)c6F)c6ccc3[nH]6)C=C5)C=C4)cc2)c(C)c1NS(=O)(=O)c1cccc2cccnc12
REMARK SMILES IDX 9 1 8 2 6 3 7 4 5 5 4 6 1 7 2 8 3 9 79 10 77 11 78 12 80 13
REMARK SMILES IDX 81 15 82 16 83 17 84 18 85 19 93 20 86 21 88 22 92 23 87 24
REMARK SMILES IDX 89 25 91 26 90 27 10 28 11 29 12 30 13 31 14 32 15 33 76 34
REMARK SMILES IDX 16 35 75 36 17 37 18 38 19 39 69 40 20 41 74 42 68 43 70 44
REMARK SMILES IDX 21 45 73 46 67 47 66 48 22 50 54 51 34 52 53 53 35 54 38 55
REMARK SMILES IDX 52 56 71 57 36 58 37 59 51 61 72 62 39 63 23 64 24 65 32 66
REMARK SMILES IDX 25 67 26 68 30 69 33 70 27 71 28 72 31 73 29 74 55 75 56 76
REMARK SMILES IDX 64 77 57 78 58 79 62 80 65 81 59 82 60 83 63 84 61 85 40 86
REMARK SMILES IDX 41 87 49 88 42 89 43 90 47 91 50 92 44 93 45 94 48 95 46 96
REMARK H PARENT 80 14 70 49 38 60
REMARK Flexibility Score: inf
ROOT
ATOM      1  C   UNL A   1      37.726  21.468  25.693  1.00  0.00     0.274 C 
ENDROOT
BRANCH   1   2
ATOM      2  O   UNL A   1      37.556  21.749  24.278  1.00  0.00    -0.461 OA
BRANCH   2   3
ATOM      3  C   UNL A   1      36.845  22.856  23.932  1.00  0.00     0.327 C 
ATOM      4  O   UNL A   1      36.645  23.192  22.764  1.00  0.00    -0.250 OA
BRANCH   3   5
ATOM      5  C   UNL A   1      36.234  23.641  25.072  1.00  0.00     0.267 C 
BRANCH   5   6
ATOM      6  N   UNL A   1      34.796  23.536  25.200  1.00  0.00    -0.256 N 
ATOM      7  C   UNL A   1      31.954  21.519  25.638  1.00  0.00     0.071 C 
ATOM      8  C   UNL A   1      32.958  22.614  25.587  1.00  0.00     0.084 A 
ATOM      9  N   UNL A   1      34.191  22.338  25.140  1.00  0.00    -0.175 NA
ATOM     10  C   UNL A   1      32.795  24.022  25.832  1.00  0.00     0.093 A 
ATOM     11  C   UNL A   1      33.862  24.540  25.127  1.00  0.00     0.060 A 
ATOM     12  C   UNL A   1      34.067  25.764  24.329  1.00  0.00     0.069 C 
BRANCH  10  13
ATOM     13  N   UNL A   1      31.663  24.623  26.401  1.00  0.00    -0.276 N 
ATOM     14  H   UNL A   1      31.667  24.723  27.380  1.00  0.00     0.180 HD
BRANCH  13  15
ATOM     15  S   UNL A   1      30.280  25.201  25.586  1.00  0.00     0.264 S 
ATOM     16  O   UNL A   1      30.182  24.358  24.404  1.00  0.00    -0.201 OA
ATOM     17  O   UNL A   1      29.191  25.167  26.539  1.00  0.00    -0.201 OA
BRANCH  15  18
ATOM     18  C   UNL A   1      30.520  26.857  25.004  1.00  0.00     0.114 A 
ATOM     19  C   UNL A   1      29.907  27.207  23.783  1.00  0.00     0.024 A 
ATOM     20  C   UNL A   1      31.256  27.794  25.729  1.00  0.00     0.091 A 
ATOM     21  C   UNL A   1      30.147  28.444  23.199  1.00  0.00     0.002 A 
ATOM     22  C   UNL A   1      31.560  29.018  25.074  1.00  0.00     0.002 A 
ATOM     23  N   UNL A   1      31.670  27.591  26.992  1.00  0.00    -0.255 NA
ATOM     24  C   UNL A   1      31.018  29.327  23.820  1.00  0.00     0.010 A 
ATOM     25  C   UNL A   1      32.408  29.937  25.698  1.00  0.00     0.012 A 
ATOM     26  C   UNL A   1      32.342  28.577  27.621  1.00  0.00     0.112 A 
ATOM     27  C   UNL A   1      32.796  29.724  27.006  1.00  0.00     0.021 A 
ENDBRANCH  15  18
ENDBRANCH  13  15
ENDBRANCH  10  13
ENDBRANCH   5   6
ENDBRANCH   3   5
ENDBRANCH   2   3
ENDBRANCH   1   2
BRANCH   1  28
ATOM     28  C   UNL A   1      39.180  21.360  26.120  1.00  0.00     0.275 C 
BRANCH  28  29
ATOM     29  O   UNL A   1      39.738  22.660  26.128  1.00  0.00    -0.458 OA
BRANCH  29  30
ATOM     30  C   UNL A   1      40.679  22.772  27.089  1.00  0.00     0.338 C 
ATOM     31  O   UNL A   1      40.808  22.081  28.080  1.00  0.00    -0.246 OA
BRANCH  30  32
ATOM     32  C   UNL A   1      41.502  23.947  26.831  1.00  0.00     0.060 A 
ATOM     33  C   UNL A   1      42.486  24.175  27.796  1.00  0.00     0.016 A 
ATOM     34  C   UNL A   1      40.872  24.966  26.111  1.00  0.00     0.016 A 
ATOM     35  C   UNL A   1      42.585  25.443  28.295  1.00  0.00     0.010 A 
ATOM     36  C   UNL A   1      40.928  26.220  26.649  1.00  0.00     0.010 A 
ATOM     37  C   UNL A   1      41.704  26.402  27.794  1.00  0.00    -0.014 A 
BRANCH  37  38
ATOM     38  C   UNL A   1      41.621  27.643  28.512  1.00  0.00     0.031 A 
ATOM     39  C   UNL A   1      42.758  28.532  28.220  1.00  0.00     0.074 A 
ATOM     40  C   UNL A   1      40.550  27.937  29.268  1.00  0.00     0.049 A 
ATOM     41  N   UNL A   1      43.666  28.960  29.030  1.00  0.00    -0.248 NA
ATOM     42  C   UNL A   1      43.017  28.828  26.801  1.00  0.00     0.031 C 
ATOM     43  C   UNL A   1      39.271  27.225  29.353  1.00  0.00     0.029 A 
ATOM     44  N   UNL A   1      40.345  29.032  30.037  1.00  0.00    -0.354 N 
ATOM     45  C   UNL A   1      44.512  29.732  28.245  1.00  0.00     0.074 A 
ATOM     46  C   UNL A   1      44.195  29.439  26.876  1.00  0.00     0.031 C 
ATOM     47  C   UNL A   1      38.357  28.039  29.931  1.00  0.00     0.029 A 
ATOM     48  C   UNL A   1      39.017  29.265  30.346  1.00  0.00     0.049 A 
ATOM     49  H   UNL A   1      41.077  29.612  30.350  1.00  0.00     0.167 HD
ATOM     50  C   UNL A   1      45.213  30.763  28.780  1.00  0.00     0.037 A 
ATOM     51  C   UNL A   1      38.520  30.448  30.782  1.00  0.00     0.037 A 
ATOM     52  C   UNL A   1      45.349  30.619  30.207  1.00  0.00     0.049 A 
ATOM     53  C   UNL A   1      39.671  31.267  31.260  1.00  0.00     0.074 A 
ATOM     54  C   UNL A   1      45.918  29.664  31.027  1.00  0.00     0.029 A 
ATOM     55  N   UNL A   1      44.529  31.366  31.017  1.00  0.00    -0.354 N 
ATOM     56  N   UNL A   1      40.370  30.992  32.329  1.00  0.00    -0.248 NA
ATOM     57  C   UNL A   1      40.337  32.131  30.292  1.00  0.00     0.031 C 
ATOM     58  C   UNL A   1      45.066  29.594  32.168  1.00  0.00     0.029 A 
ATOM     59  C   UNL A   1      44.050  30.534  31.997  1.00  0.00     0.049 A 
ATOM     60  H   UNL A   1      44.322  32.323  30.914  1.00  0.00     0.167 HD
ATOM     61  C   UNL A   1      41.682  31.299  31.990  1.00  0.00     0.074 A 
ATOM     62  C   UNL A   1      41.588  32.075  30.757  1.00  0.00     0.031 C 
ATOM     63  C   UNL A   1      42.732  30.651  32.576  1.00  0.00     0.037 A 
BRANCH  50  64
ATOM     64  C   UNL A   1      45.422  32.072  28.061  1.00  0.00     0.064 A 
ATOM     65  C   UNL A   1      44.294  32.835  27.710  1.00  0.00     0.173 A 
ATOM     66  C   UNL A   1      46.636  32.465  27.450  1.00  0.00     0.173 A 
ATOM     67  F   UNL A   1      43.088  32.544  28.219  1.00  0.00    -0.203 F 
ATOM     68  C   UNL A   1      44.361  33.851  26.754  1.00  0.00     0.198 A 
ATOM     69  C   UNL A   1      46.710  33.518  26.544  1.00  0.00     0.198 A 
ATOM     70  F   UNL A   1      47.778  31.788  27.605  1.00  0.00    -0.203 F 
ATOM     71  F   UNL A   1      43.237  34.457  26.353  1.00  0.00    -0.200 F 
ATOM     72  C   UNL A   1      45.568  34.187  26.167  1.00  0.00     0.200 A 
ATOM     73  F   UNL A   1      47.889  33.817  25.979  1.00  0.00    -0.200 F 
ATOM     74  F   UNL A   1      45.623  35.116  25.205  1.00  0.00    -0.200 F 
ENDBRANCH  50  64
BRANCH  51  75
ATOM     75  C   UNL A   1      37.199  31.037  30.461  1.00  0.00     0.064 A 
ATOM     76  C   UNL A   1      36.321  31.434  31.480  1.00  0.00     0.173 A 
ATOM     77  C   UNL A   1      36.870  31.455  29.155  1.00  0.00     0.173 A 
ATOM     78  F   UNL A   1      36.588  31.123  32.757  1.00  0.00    -0.203 F 
ATOM     79  C   UNL A   1      35.191  32.213  31.212  1.00  0.00     0.198 A 
ATOM     80  C   UNL A   1      35.735  32.220  28.886  1.00  0.00     0.198 A 
ATOM     81  F   UNL A   1      37.691  31.212  28.123  1.00  0.00    -0.203 F 
ATOM     82  F   UNL A   1      34.407  32.623  32.219  1.00  0.00    -0.200 F 
ATOM     83  C   UNL A   1      34.902  32.608  29.916  1.00  0.00     0.200 A 
ATOM     84  F   UNL A   1      35.490  32.625  27.632  1.00  0.00    -0.200 F 
ATOM     85  F   UNL A   1      33.848  33.398  29.665  1.00  0.00    -0.200 F 
ENDBRANCH  51  75
BRANCH  63  86
ATOM     86  C   UNL A   1      42.438  29.786  33.768  1.00  0.00     0.064 A 
ATOM     87  C   UNL A   1      42.000  28.454  33.672  1.00  0.00     0.173 A 
ATOM     88  C   UNL A   1      42.756  30.271  35.043  1.00  0.00     0.173 A 
ATOM     89  F   UNL A   1      41.783  27.886  32.480  1.00  0.00    -0.203 F 
ATOM     90  C   UNL A   1      41.839  27.662  34.808  1.00  0.00     0.198 A 
ATOM     91  C   UNL A   1      42.630  29.466  36.172  1.00  0.00     0.198 A 
ATOM     92  F   UNL A   1      43.237  31.516  35.188  1.00  0.00    -0.203 F 
ATOM     93  F   UNL A   1      41.405  26.398  34.690  1.00  0.00    -0.200 F 
ATOM     94  C   UNL A   1      42.161  28.167  36.055  1.00  0.00     0.200 A 
ATOM     95  F   UNL A   1      42.992  29.941  37.372  1.00  0.00    -0.200 F 
ATOM     96  F   UNL A   1      42.048  27.393  37.144  1.00  0.00    -0.200 F 
ENDBRANCH  63  86
ENDBRANCH  37  38
ENDBRANCH  30  32
ENDBRANCH  29  30
ENDBRANCH  28  29
ENDBRANCH   1  28
TORSDOF 15
ENDMDL
MODEL 3
REMARK VINA RESULT:     -12.2      2.121      6.757
REMARK SMILES Cc1nn(CC(=O)OCCOC(=O)c2ccc(-c3c4nc(c(-c5c(F)c(F)c(F)c(F)c5F)c5ccc([nH]5)c(-c5c(F)c(F)c(F)c(F)c5F)c5nc(c(-c6c(F)c(F)c(F)c(F)c6F)c6ccc3[nH]6)C=C5)C=C4)cc2)c(C)c1NS(=O)(=O)c1cccc2cccnc12
REMARK SMILES IDX 9 1 8 2 6 3 7 4 5 5 4 6 1 7 2 8 3 9 79 10 77 11 78 12 80 13
REMARK SMILES IDX 81 15 82 16 83 17 84 18 85 19 93 20 86 21 88 22 92 23 87 24
REMARK SMILES IDX 89 25 91 26 90 27 10 28 11 29 12 30 13 31 14 32 15 33 76 34
REMARK SMILES IDX 16 35 75 36 17 37 18 38 19 39 69 40 20 41 74 42 68 43 70 44
REMARK SMILES IDX 21 45 73 46 67 47 66 48 22 50 54 51 34 52 53 53 35 54 38 55
REMARK SMILES IDX 52 56 71 57 36 58 37 59 51 61 72 62 39 63 23 64 24 65 32 66
REMARK SMILES IDX 25 67 26 68 30 69 33 70 27 71 28 72 31 73 29 74 55 75 56 76
REMARK SMILES IDX 64 77 57 78 58 79 62 80 65 81 59 82 60 83 63 84 61 85 40 86
REMARK SMILES IDX 41 87 49 88 42 89 43 90 47 91 50 92 44 93 45 94 48 95 46 96
REMARK H PARENT 80 14 70 49 38 60
REMARK Flexibility Score: inf
ROOT
ATOM      1  C   UNL A   1      37.855  22.939  25.605  1.00  0.00     0.274 C 
ENDROOT
BRANCH   1   2
ATOM      2  O   UNL A   1      36.579  23.282  25.002  1.00  0.00    -0.461 OA
BRANCH   2   3
ATOM      3  C   UNL A   1      35.447  22.882  25.642  1.00  0.00     0.327 C 
ATOM      4  O   UNL A   1      35.138  23.265  26.770  1.00  0.00    -0.250 OA
BRANCH   3   5
ATOM      5  C   UNL A   1      34.522  21.976  24.858  1.00  0.00     0.267 C 
BRANCH   5   6
ATOM      6  N   UNL A   1      33.120  22.333  24.896  1.00  0.00    -0.256 N 
ATOM      7  C   UNL A   1      30.064  22.341  26.625  1.00  0.00     0.071 C 
ATOM      8  C   UNL A   1      31.224  22.608  25.736  1.00  0.00     0.084 A 
ATOM      9  N   UNL A   1      32.317  21.840  25.851  1.00  0.00    -0.175 NA
ATOM     10  C   UNL A   1      31.342  23.517  24.628  1.00  0.00     0.093 A 
ATOM     11  C   UNL A   1      32.372  22.939  23.916  1.00  0.00     0.060 A 
ATOM     12  C   UNL A   1      32.671  22.793  22.479  1.00  0.00     0.069 C 
BRANCH  10  13
ATOM     13  N   UNL A   1      30.421  24.523  24.300  1.00  0.00    -0.276 N 
ATOM     14  H   UNL A   1      29.889  24.381  23.484  1.00  0.00     0.180 HD
BRANCH  13  15
ATOM     15  S   UNL A   1      30.117  25.966  25.158  1.00  0.00     0.264 S 
ATOM     16  O   UNL A   1      29.235  26.724  24.285  1.00  0.00    -0.201 OA
ATOM     17  O   UNL A   1      29.618  25.579  26.460  1.00  0.00    -0.201 OA
BRANCH  15  18
ATOM     18  C   UNL A   1      31.593  26.930  25.340  1.00  0.00     0.114 A 
ATOM     19  C   UNL A   1      31.940  27.339  26.644  1.00  0.00     0.024 A 
ATOM     20  C   UNL A   1      32.403  27.250  24.251  1.00  0.00     0.091 A 
ATOM     21  C   UNL A   1      33.011  28.198  26.856  1.00  0.00     0.002 A 
ATOM     22  C   UNL A   1      33.438  28.197  24.477  1.00  0.00     0.002 A 
ATOM     23  N   UNL A   1      32.250  26.707  23.031  1.00  0.00    -0.255 NA
ATOM     24  C   UNL A   1      33.725  28.670  25.764  1.00  0.00     0.010 A 
ATOM     25  C   UNL A   1      34.192  28.660  23.395  1.00  0.00     0.012 A 
ATOM     26  C   UNL A   1      33.111  27.053  22.052  1.00  0.00     0.112 A 
ATOM     27  C   UNL A   1      34.041  28.065  22.158  1.00  0.00     0.021 A 
ENDBRANCH  15  18
ENDBRANCH  13  15
ENDBRANCH  10  13
ENDBRANCH   5   6
ENDBRANCH   3   5
ENDBRANCH   2   3
ENDBRANCH   1   2
BRANCH   1  28
ATOM     28  C   UNL A   1      38.233  21.477  25.434  1.00  0.00     0.275 C 
BRANCH  28  29
ATOM     29  O   UNL A   1      39.090  21.112  26.499  1.00  0.00    -0.458 OA
BRANCH  29  30
ATOM     30  C   UNL A   1      40.114  20.355  26.054  1.00  0.00     0.338 C 
ATOM     31  O   UNL A   1      40.046  19.294  25.464  1.00  0.00    -0.246 OA
BRANCH  30  32
ATOM     32  C   UNL A   1      41.377  20.944  26.479  1.00  0.00     0.060 A 
ATOM     33  C   UNL A   1      41.633  20.815  27.846  1.00  0.00     0.016 A 
ATOM     34  C   UNL A   1      41.819  22.022  25.707  1.00  0.00     0.016 A 
ATOM     35  C   UNL A   1      42.024  21.940  28.514  1.00  0.00     0.010 A 
ATOM     36  C   UNL A   1      42.153  23.161  26.381  1.00  0.00     0.010 A 
ATOM     37  C   UNL A   1      42.144  23.118  27.775  1.00  0.00    -0.014 A 
BRANCH  37  38
ATOM     38  C   UNL A   1      42.279  24.339  28.519  1.00  0.00     0.031 A 
ATOM     39  C   UNL A   1      41.142  25.250  28.306  1.00  0.00     0.074 A 
ATOM     40  C   UNL A   1      43.300  24.521  29.372  1.00  0.00     0.049 A 
ATOM     41  N   UNL A   1      41.149  26.424  27.772  1.00  0.00    -0.248 NA
ATOM     42  C   UNL A   1      39.800  24.698  28.552  1.00  0.00     0.031 C 
ATOM     43  C   UNL A   1      44.283  23.540  29.842  1.00  0.00     0.029 A 
ATOM     44  N   UNL A   1      43.592  25.623  30.103  1.00  0.00    -0.354 N 
ATOM     45  C   UNL A   1      39.821  26.830  27.783  1.00  0.00     0.074 A 
ATOM     46  C   UNL A   1      39.030  25.665  28.064  1.00  0.00     0.031 C 
ATOM     47  C   UNL A   1      44.893  24.027  30.947  1.00  0.00     0.029 A 
ATOM     48  C   UNL A   1      44.421  25.381  31.184  1.00  0.00     0.049 A 
ATOM     49  H   UNL A   1      43.246  26.518  29.884  1.00  0.00     0.167 HD
ATOM     50  C   UNL A   1      39.494  28.146  27.842  1.00  0.00     0.037 A 
ATOM     51  C   UNL A   1      44.570  26.210  32.245  1.00  0.00     0.037 A 
ATOM     52  C   UNL A   1      40.585  28.976  27.402  1.00  0.00     0.049 A 
ATOM     53  C   UNL A   1      44.049  27.549  31.843  1.00  0.00     0.074 A 
ATOM     54  C   UNL A   1      41.289  29.092  26.218  1.00  0.00     0.029 A 
ATOM     55  N   UNL A   1      41.352  29.602  28.354  1.00  0.00    -0.354 N 
ATOM     56  N   UNL A   1      44.625  28.323  30.962  1.00  0.00    -0.248 NA
ATOM     57  C   UNL A   1      42.637  27.825  32.079  1.00  0.00     0.031 C 
ATOM     58  C   UNL A   1      42.633  29.365  26.606  1.00  0.00     0.029 A 
ATOM     59  C   UNL A   1      42.666  29.436  27.999  1.00  0.00     0.049 A 
ATOM     60  H   UNL A   1      41.019  30.082  29.148  1.00  0.00     0.167 HD
ATOM     61  C   UNL A   1      43.580  28.897  30.250  1.00  0.00     0.074 A 
ATOM     62  C   UNL A   1      42.382  28.620  31.037  1.00  0.00     0.031 C 
ATOM     63  C   UNL A   1      43.741  29.286  28.950  1.00  0.00     0.037 A 
BRANCH  50  64
ATOM     64  C   UNL A   1      38.341  28.666  28.663  1.00  0.00     0.064 A 
ATOM     65  C   UNL A   1      37.479  29.616  28.086  1.00  0.00     0.173 A 
ATOM     66  C   UNL A   1      38.214  28.500  30.062  1.00  0.00     0.173 A 
ATOM     67  F   UNL A   1      37.520  29.864  26.769  1.00  0.00    -0.203 F 
ATOM     68  C   UNL A   1      36.624  30.401  28.863  1.00  0.00     0.198 A 
ATOM     69  C   UNL A   1      37.317  29.242  30.824  1.00  0.00     0.198 A 
ATOM     70  F   UNL A   1      39.021  27.707  30.774  1.00  0.00    -0.203 F 
ATOM     71  F   UNL A   1      35.923  31.385  28.287  1.00  0.00    -0.200 F 
ATOM     72  C   UNL A   1      36.549  30.218  30.232  1.00  0.00     0.200 A 
ATOM     73  F   UNL A   1      37.272  29.055  32.151  1.00  0.00    -0.200 F 
ATOM     74  F   UNL A   1      35.778  31.012  30.985  1.00  0.00    -0.200 F 
ENDBRANCH  50  64
BRANCH  51  75
ATOM     75  C   UNL A   1      44.774  25.825  33.661  1.00  0.00     0.064 A 
ATOM     76  C   UNL A   1      43.686  25.487  34.479  1.00  0.00     0.173 A 
ATOM     77  C   UNL A   1      46.056  25.538  34.175  1.00  0.00     0.173 A 
ATOM     78  F   UNL A   1      42.432  25.679  34.045  1.00  0.00    -0.203 F 
ATOM     79  C   UNL A   1      43.867  24.886  35.729  1.00  0.00     0.198 A 
ATOM     80  C   UNL A   1      46.237  24.951  35.427  1.00  0.00     0.198 A 
ATOM     81  F   UNL A   1      47.157  25.731  33.436  1.00  0.00    -0.203 F 
ATOM     82  F   UNL A   1      42.802  24.523  36.458  1.00  0.00    -0.200 F 
ATOM     83  C   UNL A   1      45.142  24.614  36.200  1.00  0.00     0.200 A 
ATOM     84  F   UNL A   1      47.474  24.660  35.852  1.00  0.00    -0.200 F 
ATOM     85  F   UNL A   1      45.315  23.990  37.374  1.00  0.00    -0.200 F 
ENDBRANCH  51  75
BRANCH  63  86
ATOM     86  C   UNL A   1      45.139  29.308  28.400  1.00  0.00     0.064 A 
ATOM     87  C   UNL A   1      45.768  28.187  27.832  1.00  0.00     0.173 A 
ATOM     88  C   UNL A   1      45.804  30.537  28.306  1.00  0.00     0.173 A 
ATOM     89  F   UNL A   1      45.148  27.001  27.785  1.00  0.00    -0.203 F 
ATOM     90  C   UNL A   1      47.028  28.285  27.243  1.00  0.00     0.198 A 
ATOM     91  C   UNL A   1      47.045  30.640  27.684  1.00  0.00     0.198 A 
ATOM     92  F   UNL A   1      45.223  31.652  28.777  1.00  0.00    -0.203 F 
ATOM     93  F   UNL A   1      47.613  27.196  26.722  1.00  0.00    -0.200 F 
ATOM     94  C   UNL A   1      47.661  29.513  27.164  1.00  0.00     0.200 A 
ATOM     95  F   UNL A   1      47.631  31.839  27.563  1.00  0.00    -0.200 F 
ATOM     96  F   UNL A   1      48.853  29.617  26.560  1.00  0.00    -0.200 F 
ENDBRANCH  63  86
ENDBRANCH  37  38
ENDBRANCH  30  32
ENDBRANCH  29  30
ENDBRANCH  28  29
ENDBRANCH   1  28
TORSDOF 15
ENDMDL
