MODEL 1
REMARK VINA RESULT:     -11.7      0.000      0.000
REMARK SMILES O=C(NCc1ccsc1)NC[C@H]1CC[C@@H](C(=O)OCCOC(=O)c2ccc(-c3c4nc(c(-c5c(F)c(F)c(F)c(F)c5F)c5ccc([nH]5)c(-c5c(F)c(F)c(F)c(F)c5F)c5nc(c(-c6c(F)c(F)c(F)c(F)c6F)c6ccc3[nH]6)C=C5)C=C4)cc2)CC1
REMARK SMILES IDX 19 1 18 2 16 3 17 4 15 5 12 6 13 7 88 8 14 9 87 10 11 11
REMARK SMILES IDX 10 12 1 13 2 14 3 15 4 18 5 19 6 20 9 21 7 22 8 23 20 24
REMARK SMILES IDX 21 25 22 26 23 27 24 28 25 29 86 30 26 31 85 32 27 33 28 34
REMARK SMILES IDX 29 35 79 36 30 37 84 38 78 39 80 40 31 41 83 42 77 43 76 44
REMARK SMILES IDX 32 46 64 47 44 48 63 49 45 50 48 51 62 52 81 53 46 54 47 55
REMARK SMILES IDX 61 57 82 58 49 59 33 60 34 61 42 62 35 63 36 64 40 65 43 66
REMARK SMILES IDX 37 67 38 68 41 69 39 70 65 71 66 72 74 73 67 74 68 75 72 76
REMARK SMILES IDX 75 77 69 78 70 79 73 80 71 81 50 82 51 83 59 84 52 85 53 86
REMARK SMILES IDX 57 87 60 88 54 89 55 90 58 91 56 92
REMARK H PARENT 3 16 10 17 80 45 48 56
REMARK Flexibility Score: inf
ROOT
ATOM      1  C   UNL A   1      31.053  30.279  25.074  1.00  0.00     0.274 C 
ENDROOT
BRANCH   1   2
ATOM      2  O   UNL A   1      31.749  29.069  24.721  1.00  0.00    -0.462 OA
BRANCH   2   3
ATOM      3  C   UNL A   1      31.045  27.913  24.734  1.00  0.00     0.309 C 
ATOM      4  O   UNL A   1      30.344  27.509  23.812  1.00  0.00    -0.252 OA
BRANCH   3   5
ATOM      5  C   UNL A   1      31.164  27.161  26.058  1.00  0.00     0.099 C 
ATOM      6  C   UNL A   1      33.115  24.896  25.883  1.00  0.00     0.008 C 
ATOM      7  C   UNL A   1      33.563  26.367  25.899  1.00  0.00     0.006 C 
ATOM      8  C   UNL A   1      31.668  24.737  25.387  1.00  0.00     0.006 C 
ATOM      9  C   UNL A   1      32.574  27.277  26.622  1.00  0.00     0.015 C 
ATOM     10  C   UNL A   1      30.689  25.707  26.043  1.00  0.00     0.015 C 
BRANCH   6  11
ATOM     11  C   UNL A   1      34.150  24.040  25.110  1.00  0.00     0.121 C 
BRANCH  11  12
ATOM     12  N   UNL A   1      33.934  22.611  25.210  1.00  0.00    -0.338 N 
ATOM     13  O   UNL A   1      35.895  21.990  24.223  1.00  0.00    -0.249 OA
ATOM     14  C   UNL A   1      34.797  21.700  24.689  1.00  0.00     0.315 C 
ATOM     15  N   UNL A   1      34.389  20.409  24.671  1.00  0.00    -0.334 N 
ATOM     16  H   UNL A   1      35.087  19.758  24.435  1.00  0.00     0.165 HD
ATOM     17  H   UNL A   1      33.128  22.287  25.673  1.00  0.00     0.165 HD
BRANCH  15  18
ATOM     18  C   UNL A   1      33.091  19.838  24.946  1.00  0.00     0.154 C 
BRANCH  18  19
ATOM     19  C   UNL A   1      33.208  18.348  24.859  1.00  0.00    -0.018 A 
ATOM     20  C   UNL A   1      33.988  17.638  23.886  1.00  0.00     0.017 A 
ATOM     21  C   UNL A   1      32.582  17.462  25.718  1.00  0.00     0.070 A 
ATOM     22  C   UNL A   1      33.919  16.271  24.043  1.00  0.00     0.065 A 
ATOM     23  S   UNL A   1      32.918  15.827  25.352  1.00  0.00    -0.152 S 
ENDBRANCH  18  19
ENDBRANCH  15  18
ENDBRANCH  11  12
ENDBRANCH   6  11
ENDBRANCH   3   5
ENDBRANCH   2   3
ENDBRANCH   1   2
BRANCH   1  24
ATOM     24  C   UNL A   1      31.518  30.812  26.431  1.00  0.00     0.275 C 
BRANCH  24  25
ATOM     25  O   UNL A   1      32.950  30.933  26.479  1.00  0.00    -0.458 OA
BRANCH  25  26
ATOM     26  C   UNL A   1      33.411  31.953  27.238  1.00  0.00     0.338 C 
ATOM     27  O   UNL A   1      32.860  33.009  27.490  1.00  0.00    -0.246 OA
BRANCH  26  28
ATOM     28  C   UNL A   1      34.670  31.550  27.878  1.00  0.00     0.060 A 
ATOM     29  C   UNL A   1      34.759  30.252  28.388  1.00  0.00     0.016 A 
ATOM     30  C   UNL A   1      35.718  32.455  28.044  1.00  0.00     0.016 A 
ATOM     31  C   UNL A   1      35.900  29.846  29.069  1.00  0.00     0.010 A 
ATOM     32  C   UNL A   1      36.865  32.048  28.730  1.00  0.00     0.010 A 
ATOM     33  C   UNL A   1      36.956  30.746  29.255  1.00  0.00    -0.014 A 
BRANCH  33  34
ATOM     34  C   UNL A   1      38.133  30.335  30.051  1.00  0.00     0.031 A 
ATOM     35  C   UNL A   1      39.131  29.385  29.461  1.00  0.00     0.074 A 
ATOM     36  C   UNL A   1      38.311  30.832  31.287  1.00  0.00     0.049 A 
ATOM     37  N   UNL A   1      40.177  28.830  30.016  1.00  0.00    -0.248 NA
ATOM     38  C   UNL A   1      38.924  29.010  28.053  1.00  0.00     0.031 C 
ATOM     39  C   UNL A   1      37.435  31.805  31.939  1.00  0.00     0.029 A 
ATOM     40  N   UNL A   1      39.288  30.583  32.217  1.00  0.00    -0.354 N 
ATOM     41  C   UNL A   1      40.740  28.024  29.036  1.00  0.00     0.074 A 
ATOM     42  C   UNL A   1      39.915  28.153  27.854  1.00  0.00     0.031 C 
ATOM     43  C   UNL A   1      37.912  32.067  33.167  1.00  0.00     0.029 A 
ATOM     44  C   UNL A   1      39.098  31.248  33.402  1.00  0.00     0.049 A 
ATOM     45  H   UNL A   1      40.053  29.985  32.049  1.00  0.00     0.167 HD
ATOM     46  C   UNL A   1      41.848  27.249  29.121  1.00  0.00     0.037 A 
ATOM     47  C   UNL A   1      39.788  31.176  34.556  1.00  0.00     0.037 A 
ATOM     48  C   UNL A   1      42.668  27.137  30.298  1.00  0.00     0.049 A 
ATOM     49  C   UNL A   1      40.977  30.259  34.642  1.00  0.00     0.074 A 
ATOM     50  C   UNL A   1      43.813  26.383  30.485  1.00  0.00     0.029 A 
ATOM     51  N   UNL A   1      42.427  27.801  31.492  1.00  0.00    -0.354 N 
ATOM     52  N   UNL A   1      41.498  29.490  33.718  1.00  0.00    -0.248 NA
ATOM     53  C   UNL A   1      41.671  30.197  35.936  1.00  0.00     0.031 C 
ATOM     54  C   UNL A   1      44.243  26.561  31.805  1.00  0.00     0.029 A 
ATOM     55  C   UNL A   1      43.391  27.460  32.426  1.00  0.00     0.049 A 
ATOM     56  H   UNL A   1      41.681  28.424  31.652  1.00  0.00     0.167 HD
ATOM     57  C   UNL A   1      42.589  28.868  34.308  1.00  0.00     0.074 A 
ATOM     58  C   UNL A   1      42.663  29.360  35.668  1.00  0.00     0.031 C 
ATOM     59  C   UNL A   1      43.451  27.967  33.774  1.00  0.00     0.037 A 
BRANCH  46  60
ATOM     60  C   UNL A   1      42.215  26.438  27.915  1.00  0.00     0.064 A 
ATOM     61  C   UNL A   1      43.174  26.879  26.992  1.00  0.00     0.173 A 
ATOM     62  C   UNL A   1      41.615  25.189  27.695  1.00  0.00     0.173 A 
ATOM     63  F   UNL A   1      43.765  28.073  27.152  1.00  0.00    -0.203 F 
ATOM     64  C   UNL A   1      43.504  26.108  25.880  1.00  0.00     0.198 A 
ATOM     65  C   UNL A   1      41.964  24.410  26.594  1.00  0.00     0.198 A 
ATOM     66  F   UNL A   1      40.692  24.722  28.549  1.00  0.00    -0.203 F 
ATOM     67  F   UNL A   1      44.392  26.568  24.988  1.00  0.00    -0.200 F 
ATOM     68  C   UNL A   1      42.902  24.874  25.685  1.00  0.00     0.200 A 
ATOM     69  F   UNL A   1      41.390  23.214  26.412  1.00  0.00    -0.200 F 
ATOM     70  F   UNL A   1      43.224  24.133  24.615  1.00  0.00    -0.200 F 
ENDBRANCH  46  60
BRANCH  47  71
ATOM     71  C   UNL A   1      39.353  31.979  35.727  1.00  0.00     0.064 A 
ATOM     72  C   UNL A   1      39.910  33.238  35.985  1.00  0.00     0.173 A 
ATOM     73  C   UNL A   1      38.376  31.501  36.614  1.00  0.00     0.173 A 
ATOM     74  F   UNL A   1      40.867  33.725  35.181  1.00  0.00    -0.203 F 
ATOM     75  C   UNL A   1      39.515  33.986  37.092  1.00  0.00     0.198 A 
ATOM     76  C   UNL A   1      37.963  32.261  37.705  1.00  0.00     0.198 A 
ATOM     77  F   UNL A   1      37.817  30.300  36.412  1.00  0.00    -0.203 F 
ATOM     78  F   UNL A   1      40.092  35.169  37.340  1.00  0.00    -0.200 F 
ATOM     79  C   UNL A   1      38.536  33.500  37.947  1.00  0.00     0.200 A 
ATOM     80  F   UNL A   1      37.011  31.791  38.523  1.00  0.00    -0.200 F 
ATOM     81  F   UNL A   1      38.154  34.221  39.010  1.00  0.00    -0.200 F 
ENDBRANCH  47  71
BRANCH  59  82
ATOM     82  C   UNL A   1      44.564  27.482  34.653  1.00  0.00     0.064 A 
ATOM     83  C   UNL A   1      45.782  28.170  34.742  1.00  0.00     0.173 A 
ATOM     84  C   UNL A   1      44.394  26.336  35.445  1.00  0.00     0.173 A 
ATOM     85  F   UNL A   1      45.997  29.262  33.992  1.00  0.00    -0.203 F 
ATOM     86  C   UNL A   1      46.799  27.716  35.576  1.00  0.00     0.198 A 
ATOM     87  C   UNL A   1      45.404  25.900  36.297  1.00  0.00     0.198 A 
ATOM     88  F   UNL A   1      43.244  25.646  35.399  1.00  0.00    -0.203 F 
ATOM     89  F   UNL A   1      47.971  28.365  35.615  1.00  0.00    -0.200 F 
ATOM     90  C   UNL A   1      46.607  26.586  36.358  1.00  0.00     0.200 A 
ATOM     91  F   UNL A   1      45.212  24.814  37.059  1.00  0.00    -0.200 F 
ATOM     92  F   UNL A   1      47.585  26.154  37.165  1.00  0.00    -0.200 F 
ENDBRANCH  59  82
ENDBRANCH  33  34
ENDBRANCH  26  28
ENDBRANCH  25  26
ENDBRANCH  24  25
ENDBRANCH   1  24
TORSDOF 15
ENDMDL
MODEL 2
REMARK VINA RESULT:     -11.6      0.885      1.930
REMARK SMILES O=C(NCc1ccsc1)NC[C@H]1CC[C@@H](C(=O)OCCOC(=O)c2ccc(-c3c4nc(c(-c5c(F)c(F)c(F)c(F)c5F)c5ccc([nH]5)c(-c5c(F)c(F)c(F)c(F)c5F)c5nc(c(-c6c(F)c(F)c(F)c(F)c6F)c6ccc3[nH]6)C=C5)C=C4)cc2)CC1
REMARK SMILES IDX 19 1 18 2 16 3 17 4 15 5 12 6 13 7 88 8 14 9 87 10 11 11
REMARK SMILES IDX 10 12 1 13 2 14 3 15 4 18 5 19 6 20 9 21 7 22 8 23 20 24
REMARK SMILES IDX 21 25 22 26 23 27 24 28 25 29 86 30 26 31 85 32 27 33 28 34
REMARK SMILES IDX 29 35 79 36 30 37 84 38 78 39 80 40 31 41 83 42 77 43 76 44
REMARK SMILES IDX 32 46 64 47 44 48 63 49 45 50 48 51 62 52 81 53 46 54 47 55
REMARK SMILES IDX 61 57 82 58 49 59 33 60 34 61 42 62 35 63 36 64 40 65 43 66
REMARK SMILES IDX 37 67 38 68 41 69 39 70 65 71 66 72 74 73 67 74 68 75 72 76
REMARK SMILES IDX 75 77 69 78 70 79 73 80 71 81 50 82 51 83 59 84 52 85 53 86
REMARK SMILES IDX 57 87 60 88 54 89 55 90 58 91 56 92
REMARK H PARENT 3 16 10 17 80 45 48 56
REMARK Flexibility Score: inf
ROOT
ATOM      1  C   UNL A   1      31.267  29.838  24.630  1.00  0.00     0.274 C 
ENDROOT
BRANCH   1   2
ATOM      2  O   UNL A   1      31.248  28.399  24.631  1.00  0.00    -0.462 OA
BRANCH   2   3
ATOM      3  C   UNL A   1      31.741  27.763  23.541  1.00  0.00     0.309 C 
ATOM      4  O   UNL A   1      31.074  27.411  22.574  1.00  0.00    -0.252 OA
BRANCH   3   5
ATOM      5  C   UNL A   1      33.235  27.470  23.651  1.00  0.00     0.099 C 
ATOM      6  C   UNL A   1      33.778  25.060  25.344  1.00  0.00     0.008 C 
ATOM      7  C   UNL A   1      33.170  24.955  23.935  1.00  0.00     0.006 C 
ATOM      8  C   UNL A   1      33.528  26.437  25.980  1.00  0.00     0.006 C 
ATOM      9  C   UNL A   1      33.569  26.118  23.032  1.00  0.00     0.015 C 
ATOM     10  C   UNL A   1      33.841  27.606  25.049  1.00  0.00     0.015 C 
BRANCH   6  11
ATOM     11  C   UNL A   1      33.308  23.864  26.210  1.00  0.00     0.121 C 
BRANCH  11  12
ATOM     12  N   UNL A   1      33.417  22.576  25.557  1.00  0.00    -0.338 N 
ATOM     13  O   UNL A   1      31.201  22.047  25.672  1.00  0.00    -0.249 OA
ATOM     14  C   UNL A   1      32.359  21.738  25.406  1.00  0.00     0.315 C 
ATOM     15  N   UNL A   1      32.625  20.487  24.960  1.00  0.00    -0.334 N 
ATOM     16  H   UNL A   1      31.833  19.958  24.715  1.00  0.00     0.165 HD
ATOM     17  H   UNL A   1      34.295  22.297  25.208  1.00  0.00     0.165 HD
BRANCH  15  18
ATOM     18  C   UNL A   1      33.889  19.809  24.787  1.00  0.00     0.154 C 
BRANCH  18  19
ATOM     19  C   UNL A   1      33.630  18.335  24.774  1.00  0.00    -0.018 A 
ATOM     20  C   UNL A   1      34.199  17.406  23.839  1.00  0.00     0.017 A 
ATOM     21  C   UNL A   1      32.812  17.675  25.675  1.00  0.00     0.070 A 
ATOM     22  C   UNL A   1      33.792  16.109  24.064  1.00  0.00     0.065 A 
ATOM     23  S   UNL A   1      32.725  15.992  25.391  1.00  0.00    -0.152 S 
ENDBRANCH  18  19
ENDBRANCH  15  18
ENDBRANCH  11  12
ENDBRANCH   6  11
ENDBRANCH   3   5
ENDBRANCH   2   3
ENDBRANCH   1   2
BRANCH   1  24
ATOM     24  C   UNL A   1      31.531  30.391  26.032  1.00  0.00     0.275 C 
BRANCH  24  25
ATOM     25  O   UNL A   1      32.941  30.442  26.314  1.00  0.00    -0.458 OA
BRANCH  25  26
ATOM     26  C   UNL A   1      33.336  31.499  27.059  1.00  0.00     0.338 C 
ATOM     27  O   UNL A   1      32.719  32.521  27.298  1.00  0.00    -0.246 OA
BRANCH  26  28
ATOM     28  C   UNL A   1      34.618  31.185  27.703  1.00  0.00     0.060 A 
ATOM     29  C   UNL A   1      34.838  29.868  28.115  1.00  0.00     0.016 A 
ATOM     30  C   UNL A   1      35.556  32.183  27.969  1.00  0.00     0.016 A 
ATOM     31  C   UNL A   1      36.003  29.536  28.797  1.00  0.00     0.010 A 
ATOM     32  C   UNL A   1      36.727  31.850  28.655  1.00  0.00     0.010 A 
ATOM     33  C   UNL A   1      36.949  30.528  29.081  1.00  0.00    -0.014 A 
BRANCH  33  34
ATOM     34  C   UNL A   1      38.148  30.185  29.878  1.00  0.00     0.031 A 
ATOM     35  C   UNL A   1      39.174  29.252  29.309  1.00  0.00     0.074 A 
ATOM     36  C   UNL A   1      38.320  30.730  31.095  1.00  0.00     0.049 A 
ATOM     37  N   UNL A   1      40.243  28.753  29.872  1.00  0.00    -0.248 NA
ATOM     38  C   UNL A   1      38.966  28.823  27.917  1.00  0.00     0.031 C 
ATOM     39  C   UNL A   1      37.416  31.692  31.724  1.00  0.00     0.029 A 
ATOM     40  N   UNL A   1      39.314  30.546  32.022  1.00  0.00    -0.354 N 
ATOM     41  C   UNL A   1      40.825  27.935  28.913  1.00  0.00     0.074 A 
ATOM     42  C   UNL A   1      39.986  27.996  27.736  1.00  0.00     0.031 C 
ATOM     43  C   UNL A   1      37.894  32.012  32.938  1.00  0.00     0.029 A 
ATOM     44  C   UNL A   1      39.111  31.243  33.187  1.00  0.00     0.049 A 
ATOM     45  H   UNL A   1      40.097  29.970  31.867  1.00  0.00     0.167 HD
ATOM     46  C   UNL A   1      41.961  27.203  29.012  1.00  0.00     0.037 A 
ATOM     47  C   UNL A   1      39.813  31.233  34.335  1.00  0.00     0.037 A 
ATOM     48  C   UNL A   1      42.795  27.159  30.183  1.00  0.00     0.049 A 
ATOM     49  C   UNL A   1      41.035  30.363  34.439  1.00  0.00     0.074 A 
ATOM     50  C   UNL A   1      43.969  26.452  30.383  1.00  0.00     0.029 A 
ATOM     51  N   UNL A   1      42.542  27.854  31.357  1.00  0.00    -0.354 N 
ATOM     52  N   UNL A   1      41.575  29.582  33.536  1.00  0.00    -0.248 NA
ATOM     53  C   UNL A   1      41.743  30.368  35.728  1.00  0.00     0.031 C 
ATOM     54  C   UNL A   1      44.405  26.689  31.691  1.00  0.00     0.029 A 
ATOM     55  C   UNL A   1      43.527  27.578  32.292  1.00  0.00     0.049 A 
ATOM     56  H   UNL A   1      41.776  28.454  31.504  1.00  0.00     0.167 HD
ATOM     57  C   UNL A   1      42.692  29.018  34.135  1.00  0.00     0.074 A 
ATOM     58  C   UNL A   1      42.762  29.558  35.477  1.00  0.00     0.031 C 
ATOM     59  C   UNL A   1      43.581  28.132  33.621  1.00  0.00     0.037 A 
BRANCH  46  60
ATOM     60  C   UNL A   1      42.345  26.365  27.830  1.00  0.00     0.064 A 
ATOM     61  C   UNL A   1      43.268  26.815  26.875  1.00  0.00     0.173 A 
ATOM     62  C   UNL A   1      41.800  25.084  27.665  1.00  0.00     0.173 A 
ATOM     63  F   UNL A   1      43.806  28.040  26.980  1.00  0.00    -0.203 F 
ATOM     64  C   UNL A   1      43.615  26.020  25.785  1.00  0.00     0.198 A 
ATOM     65  C   UNL A   1      42.166  24.281  26.587  1.00  0.00     0.198 A 
ATOM     66  F   UNL A   1      40.914  24.606  28.552  1.00  0.00    -0.203 F 
ATOM     67  F   UNL A   1      44.467  26.486  24.861  1.00  0.00    -0.200 F 
ATOM     68  C   UNL A   1      43.068  24.753  25.645  1.00  0.00     0.200 A 
ATOM     69  F   UNL A   1      41.645  23.054  26.459  1.00  0.00    -0.200 F 
ATOM     70  F   UNL A   1      43.405  23.989  24.597  1.00  0.00    -0.200 F 
ENDBRANCH  46  60
BRANCH  47  71
ATOM     71  C   UNL A   1      39.362  32.060  35.484  1.00  0.00     0.064 A 
ATOM     72  C   UNL A   1      38.506  31.533  36.459  1.00  0.00     0.173 A 
ATOM     73  C   UNL A   1      39.772  33.394  35.624  1.00  0.00     0.173 A 
ATOM     74  F   UNL A   1      38.064  30.271  36.352  1.00  0.00    -0.203 F 
ATOM     75  C   UNL A   1      38.069  32.313  37.529  1.00  0.00     0.198 A 
ATOM     76  C   UNL A   1      39.356  34.165  36.707  1.00  0.00     0.198 A 
ATOM     77  F   UNL A   1      40.587  33.946  34.714  1.00  0.00    -0.203 F 
ATOM     78  F   UNL A   1      37.218  31.798  38.427  1.00  0.00    -0.200 F 
ATOM     79  C   UNL A   1      38.500  33.626  37.655  1.00  0.00     0.200 A 
ATOM     80  F   UNL A   1      39.782  35.429  36.830  1.00  0.00    -0.200 F 
ATOM     81  F   UNL A   1      38.082  34.374  38.686  1.00  0.00    -0.200 F 
ENDBRANCH  47  71
BRANCH  59  82
ATOM     82  C   UNL A   1      44.719  27.715  34.504  1.00  0.00     0.064 A 
ATOM     83  C   UNL A   1      44.633  26.585  35.329  1.00  0.00     0.173 A 
ATOM     84  C   UNL A   1      45.923  28.435  34.494  1.00  0.00     0.173 A 
ATOM     85  F   UNL A   1      43.495  25.875  35.384  1.00  0.00    -0.203 F 
ATOM     86  C   UNL A   1      45.704  26.202  36.130  1.00  0.00     0.198 A 
ATOM     87  C   UNL A   1      47.002  28.034  35.277  1.00  0.00     0.198 A 
ATOM     88  F   UNL A   1      46.057  29.521  33.718  1.00  0.00    -0.203 F 
ATOM     89  F   UNL A   1      45.587  25.143  36.942  1.00  0.00    -0.200 F 
ATOM     90  C   UNL A   1      46.889  26.922  36.098  1.00  0.00     0.200 A 
ATOM     91  F   UNL A   1      48.149  28.724  35.238  1.00  0.00    -0.200 F 
ATOM     92  F   UNL A   1      47.923  26.548  36.865  1.00  0.00    -0.200 F 
ENDBRANCH  59  82
ENDBRANCH  33  34
ENDBRANCH  26  28
ENDBRANCH  25  26
ENDBRANCH  24  25
ENDBRANCH   1  24
TORSDOF 15
ENDMDL
MODEL 3
REMARK VINA RESULT:     -11.6      3.356      4.898
REMARK SMILES O=C(NCc1ccsc1)NC[C@H]1CC[C@@H](C(=O)OCCOC(=O)c2ccc(-c3c4nc(c(-c5c(F)c(F)c(F)c(F)c5F)c5ccc([nH]5)c(-c5c(F)c(F)c(F)c(F)c5F)c5nc(c(-c6c(F)c(F)c(F)c(F)c6F)c6ccc3[nH]6)C=C5)C=C4)cc2)CC1
REMARK SMILES IDX 19 1 18 2 16 3 17 4 15 5 12 6 13 7 88 8 14 9 87 10 11 11
REMARK SMILES IDX 10 12 1 13 2 14 3 15 4 18 5 19 6 20 9 21 7 22 8 23 20 24
REMARK SMILES IDX 21 25 22 26 23 27 24 28 25 29 86 30 26 31 85 32 27 33 28 34
REMARK SMILES IDX 29 35 79 36 30 37 84 38 78 39 80 40 31 41 83 42 77 43 76 44
REMARK SMILES IDX 32 46 64 47 44 48 63 49 45 50 48 51 62 52 81 53 46 54 47 55
REMARK SMILES IDX 61 57 82 58 49 59 33 60 34 61 42 62 35 63 36 64 40 65 43 66
REMARK SMILES IDX 37 67 38 68 41 69 39 70 65 71 66 72 74 73 67 74 68 75 72 76
REMARK SMILES IDX 75 77 69 78 70 79 73 80 71 81 50 82 51 83 59 84 52 85 53 86
REMARK SMILES IDX 57 87 60 88 54 89 55 90 58 91 56 92
REMARK H PARENT 3 16 10 17 80 45 48 56
REMARK Flexibility Score: inf
ROOT
ATOM      1  C   UNL A   1      31.607  31.612  26.665  1.00  0.00     0.274 C 
ENDROOT
BRANCH   1   2
ATOM      2  O   UNL A   1      32.804  30.906  27.043  1.00  0.00    -0.462 OA
BRANCH   2   3
ATOM      3  C   UNL A   1      33.139  29.809  26.324  1.00  0.00     0.309 C 
ATOM      4  O   UNL A   1      33.345  29.800  25.114  1.00  0.00    -0.252 OA
BRANCH   3   5
ATOM      5  C   UNL A   1      33.187  28.538  27.168  1.00  0.00     0.099 C 
ATOM      6  C   UNL A   1      31.857  26.234  25.794  1.00  0.00     0.008 C 
ATOM      7  C   UNL A   1      33.214  26.792  25.334  1.00  0.00     0.006 C 
ATOM      8  C   UNL A   1      31.036  27.276  26.571  1.00  0.00     0.006 C 
ATOM      9  C   UNL A   1      33.995  27.452  26.467  1.00  0.00     0.015 C 
ATOM     10  C   UNL A   1      31.836  28.004  27.648  1.00  0.00     0.015 C 
BRANCH   6  11
ATOM     11  C   UNL A   1      31.111  25.606  24.589  1.00  0.00     0.121 C 
BRANCH  11  12
ATOM     12  N   UNL A   1      30.213  26.515  23.905  1.00  0.00    -0.338 N 
ATOM     13  O   UNL A   1      31.635  27.039  22.200  1.00  0.00    -0.249 OA
ATOM     14  C   UNL A   1      30.579  27.215  22.800  1.00  0.00     0.315 C 
ATOM     15  N   UNL A   1      29.725  28.174  22.371  1.00  0.00    -0.334 N 
ATOM     16  H   UNL A   1      29.939  28.555  21.490  1.00  0.00     0.165 HD
ATOM     17  H   UNL A   1      29.300  26.629  24.257  1.00  0.00     0.165 HD
BRANCH  15  18
ATOM     18  C   UNL A   1      28.549  28.726  23.004  1.00  0.00     0.154 C 
BRANCH  18  19
ATOM     19  C   UNL A   1      28.445  30.169  22.620  1.00  0.00    -0.018 A 
ATOM     20  C   UNL A   1      28.637  31.275  23.513  1.00  0.00     0.017 A 
ATOM     21  C   UNL A   1      28.160  30.621  21.343  1.00  0.00     0.070 A 
ATOM     22  C   UNL A   1      28.487  32.495  22.890  1.00  0.00     0.065 A 
ATOM     23  S   UNL A   1      28.113  32.326  21.233  1.00  0.00    -0.152 S 
ENDBRANCH  18  19
ENDBRANCH  15  18
ENDBRANCH  11  12
ENDBRANCH   6  11
ENDBRANCH   3   5
ENDBRANCH   2   3
ENDBRANCH   1   2
BRANCH   1  24
ATOM     24  C   UNL A   1      31.736  33.111  26.944  1.00  0.00     0.275 C 
BRANCH  24  25
ATOM     25  O   UNL A   1      33.094  33.467  27.260  1.00  0.00    -0.458 OA
BRANCH  25  26
ATOM     26  C   UNL A   1      33.238  34.267  28.341  1.00  0.00     0.338 C 
ATOM     27  O   UNL A   1      32.515  35.177  28.702  1.00  0.00    -0.246 OA
BRANCH  26  28
ATOM     28  C   UNL A   1      34.360  33.782  29.156  1.00  0.00     0.060 A 
ATOM     29  C   UNL A   1      35.633  34.293  28.888  1.00  0.00     0.016 A 
ATOM     30  C   UNL A   1      34.179  32.785  30.113  1.00  0.00     0.016 A 
ATOM     31  C   UNL A   1      36.737  33.812  29.579  1.00  0.00     0.010 A 
ATOM     32  C   UNL A   1      35.289  32.299  30.808  1.00  0.00     0.010 A 
ATOM     33  C   UNL A   1      36.574  32.803  30.535  1.00  0.00    -0.014 A 
BRANCH  33  34
ATOM     34  C   UNL A   1      37.763  32.236  31.209  1.00  0.00     0.031 A 
ATOM     35  C   UNL A   1      38.569  31.176  30.521  1.00  0.00     0.074 A 
ATOM     36  C   UNL A   1      38.125  32.691  32.421  1.00  0.00     0.049 A 
ATOM     37  N   UNL A   1      39.586  30.486  30.968  1.00  0.00    -0.248 NA
ATOM     38  C   UNL A   1      38.177  30.849  29.141  1.00  0.00     0.031 C 
ATOM     39  C   UNL A   1      37.449  33.757  33.159  1.00  0.00     0.029 A 
ATOM     40  N   UNL A   1      39.151  32.307  33.248  1.00  0.00    -0.354 N 
ATOM     41  C   UNL A   1      39.942  29.629  29.936  1.00  0.00     0.074 A 
ATOM     42  C   UNL A   1      39.027  29.877  28.843  1.00  0.00     0.031 C 
ATOM     43  C   UNL A   1      38.075  33.940  34.333  1.00  0.00     0.029 A 
ATOM     44  C   UNL A   1      39.165  32.975  34.446  1.00  0.00     0.049 A 
ATOM     45  H   UNL A   1      39.813  31.620  33.004  1.00  0.00     0.167 HD
ATOM     46  C   UNL A   1      40.945  28.719  29.909  1.00  0.00     0.037 A 
ATOM     47  C   UNL A   1      39.951  32.801  35.525  1.00  0.00     0.037 A 
ATOM     48  C   UNL A   1      41.857  28.489  30.997  1.00  0.00     0.049 A 
ATOM     49  C   UNL A   1      41.018  31.741  35.491  1.00  0.00     0.074 A 
ATOM     50  C   UNL A   1      42.911  27.594  31.067  1.00  0.00     0.029 A 
ATOM     51  N   UNL A   1      41.823  29.162  32.210  1.00  0.00    -0.354 N 
ATOM     52  N   UNL A   1      41.343  30.924  34.519  1.00  0.00    -0.248 NA
ATOM     53  C   UNL A   1      41.824  31.574  36.709  1.00  0.00     0.031 C 
ATOM     54  C   UNL A   1      43.490  27.698  32.337  1.00  0.00     0.029 A 
ATOM     55  C   UNL A   1      42.824  28.689  33.042  1.00  0.00     0.049 A 
ATOM     56  H   UNL A   1      41.182  29.871  32.444  1.00  0.00     0.167 HD
ATOM     57  C   UNL A   1      42.398  30.162  34.996  1.00  0.00     0.074 A 
ATOM     58  C   UNL A   1      42.670  30.622  36.342  1.00  0.00     0.031 C 
ATOM     59  C   UNL A   1      43.082  29.167  34.377  1.00  0.00     0.037 A 
BRANCH  46  60
ATOM     60  C   UNL A   1      41.084  27.884  28.671  1.00  0.00     0.064 A 
ATOM     61  C   UNL A   1      40.315  26.729  28.470  1.00  0.00     0.173 A 
ATOM     62  C   UNL A   1      41.983  28.260  27.663  1.00  0.00     0.173 A 
ATOM     63  F   UNL A   1      39.452  26.320  29.412  1.00  0.00    -0.203 F 
ATOM     64  C   UNL A   1      40.457  25.969  27.311  1.00  0.00     0.198 A 
ATOM     65  C   UNL A   1      42.105  27.511  26.495  1.00  0.00     0.198 A 
ATOM     66  F   UNL A   1      42.741  29.358  27.807  1.00  0.00    -0.203 F 
ATOM     67  F   UNL A   1      39.742  24.845  27.157  1.00  0.00    -0.200 F 
ATOM     68  C   UNL A   1      41.347  26.363  26.324  1.00  0.00     0.200 A 
ATOM     69  F   UNL A   1      42.959  27.899  25.538  1.00  0.00    -0.200 F 
ATOM     70  F   UNL A   1      41.480  25.631  25.209  1.00  0.00    -0.200 F 
ENDBRANCH  46  60
BRANCH  47  71
ATOM     71  C   UNL A   1      39.741  33.637  36.735  1.00  0.00     0.064 A 
ATOM     72  C   UNL A   1      40.375  34.879  36.872  1.00  0.00     0.173 A 
ATOM     73  C   UNL A   1      38.907  33.208  37.779  1.00  0.00     0.173 A 
ATOM     74  F   UNL A   1      41.203  35.318  35.913  1.00  0.00    -0.203 F 
ATOM     75  C   UNL A   1      40.191  35.657  38.014  1.00  0.00     0.198 A 
ATOM     76  C   UNL A   1      38.703  33.998  38.907  1.00  0.00     0.198 A 
ATOM     77  F   UNL A   1      38.282  32.025  37.696  1.00  0.00    -0.203 F 
ATOM     78  F   UNL A   1      40.840  36.822  38.139  1.00  0.00    -0.200 F 
ATOM     79  C   UNL A   1      39.349  35.219  39.027  1.00  0.00     0.200 A 
ATOM     80  F   UNL A   1      37.883  33.576  39.879  1.00  0.00    -0.200 F 
ATOM     81  F   UNL A   1      39.170  35.970  40.122  1.00  0.00    -0.200 F 
ENDBRANCH  47  71
BRANCH  59  82
ATOM     82  C   UNL A   1      44.206  28.533  35.140  1.00  0.00     0.064 A 
ATOM     83  C   UNL A   1      44.001  27.410  35.953  1.00  0.00     0.173 A 
ATOM     84  C   UNL A   1      45.512  29.033  35.023  1.00  0.00     0.173 A 
ATOM     85  F   UNL A   1      42.766  26.907  36.109  1.00  0.00    -0.203 F 
ATOM     86  C   UNL A   1      45.059  26.824  36.641  1.00  0.00     0.198 A 
ATOM     87  C   UNL A   1      46.572  28.428  35.692  1.00  0.00     0.198 A 
ATOM     88  F   UNL A   1      45.761  30.103  34.252  1.00  0.00    -0.203 F 
ATOM     89  F   UNL A   1      44.833  25.776  37.447  1.00  0.00    -0.200 F 
ATOM     90  C   UNL A   1      46.343  27.328  36.504  1.00  0.00     0.200 A 
ATOM     91  F   UNL A   1      47.814  28.910  35.550  1.00  0.00    -0.200 F 
ATOM     92  F   UNL A   1      47.362  26.758  37.162  1.00  0.00    -0.200 F 
ENDBRANCH  59  82
ENDBRANCH  33  34
ENDBRANCH  26  28
ENDBRANCH  25  26
ENDBRANCH  24  25
ENDBRANCH   1  24
TORSDOF 15
ENDMDL
