MODEL 1
REMARK VINA RESULT:     -11.2      0.000      0.000
REMARK SMILES Cc1cc(OCCc2nc(CC(=O)OCCOC(=O)c3ccc(-c4c5nc(c(-c6c(F)c(F)c(F)c(F)c6F)c6ccc([nH]6)c(-c6c(F)c(F)c(F)c(F)c6F)c6nc(c(-c7c(F)c(F)c(F)c(F)c7F)c7ccc4[nH]7)C=C6)C=C5)cc3)cs2)ccc1Cl
REMARK SMILES IDX 14 1 12 2 13 3 11 4 10 5 8 6 9 7 84 8 83 9 7 10 6 11 5 12
REMARK SMILES IDX 4 13 1 14 2 15 3 16 87 17 86 18 88 19 85 20 15 21 16 22
REMARK SMILES IDX 17 23 18 24 19 25 20 26 21 27 82 28 22 29 81 30 23 31 24 32
REMARK SMILES IDX 25 33 75 34 26 35 80 36 74 37 76 38 27 39 79 40 73 41 72 42
REMARK SMILES IDX 28 44 60 45 40 46 59 47 41 48 44 49 58 50 77 51 42 52 43 53
REMARK SMILES IDX 57 55 78 56 45 57 29 58 30 59 38 60 31 61 32 62 36 63 39 64
REMARK SMILES IDX 33 65 34 66 37 67 35 68 61 69 62 70 70 71 63 72 64 73 68 74
REMARK SMILES IDX 71 75 65 76 66 77 69 78 67 79 46 80 47 81 55 82 48 83 49 84
REMARK SMILES IDX 53 85 56 86 50 87 51 88 54 89 52 90
REMARK H PARENT 76 43 44 54
REMARK Flexibility Score: inf
ROOT
ATOM      1  O   UNL A   1      46.419  20.197  24.690  1.00  0.00    -0.462 OA
ENDROOT
BRANCH   1   2
ATOM      2  C   UNL A   1      45.762  19.016  24.830  1.00  0.00     0.312 C 
ATOM      3  O   UNL A   1      46.316  17.976  25.184  1.00  0.00    -0.252 OA
BRANCH   2   4
ATOM      4  C   UNL A   1      44.271  19.040  24.576  1.00  0.00     0.179 C 
BRANCH   4   5
ATOM      5  C   UNL A   1      43.300  19.164  25.710  1.00  0.00     0.063 A 
ATOM      6  C   UNL A   1      41.679  20.303  26.757  1.00  0.00     0.096 A 
ATOM      7  N   UNL A   1      42.516  20.314  25.740  1.00  0.00    -0.246 NA
ATOM      8  S   UNL A   1      41.708  18.864  27.691  1.00  0.00    -0.127 S 
ATOM      9  C   UNL A   1      42.927  18.233  26.660  1.00  0.00     0.091 A 
BRANCH   6  10
ATOM     10  C   UNL A   1      40.715  21.411  27.072  1.00  0.00     0.109 C 
BRANCH  10  11
ATOM     11  C   UNL A   1      39.657  21.656  25.992  1.00  0.00     0.237 C 
BRANCH  11  12
ATOM     12  O   UNL A   1      38.839  22.807  26.240  1.00  0.00    -0.493 OA
BRANCH  12  13
ATOM     13  C   UNL A   1      37.546  22.759  25.796  1.00  0.00     0.119 A 
ATOM     14  C   UNL A   1      34.555  24.990  25.233  1.00  0.00     0.046 C 
ATOM     15  C   UNL A   1      35.366  23.726  25.279  1.00  0.00    -0.029 A 
ATOM     16  C   UNL A   1      36.637  23.815  25.870  1.00  0.00     0.051 A 
ATOM     17  C   UNL A   1      34.994  22.517  24.676  1.00  0.00     0.044 A 
ATOM     18  C   UNL A   1      35.887  21.442  24.636  1.00  0.00     0.024 A 
ATOM     19  Cl  UNL A   1      33.441  22.266  23.973  1.00  0.00    -0.084 Cl
ATOM     20  C   UNL A   1      37.159  21.564  25.194  1.00  0.00     0.048 A 
ENDBRANCH  12  13
ENDBRANCH  11  12
ENDBRANCH  10  11
ENDBRANCH   6  10
ENDBRANCH   4   5
ENDBRANCH   2   4
ENDBRANCH   1   2
BRANCH   1  21
ATOM     21  C   UNL A   1      46.057  21.241  25.632  1.00  0.00     0.274 C 
BRANCH  21  22
ATOM     22  C   UNL A   1      45.475  22.460  24.913  1.00  0.00     0.275 C 
BRANCH  22  23
ATOM     23  O   UNL A   1      44.654  23.181  25.840  1.00  0.00    -0.458 OA
BRANCH  23  24
ATOM     24  C   UNL A   1      43.565  23.751  25.282  1.00  0.00     0.338 C 
ATOM     25  O   UNL A   1      42.962  23.414  24.282  1.00  0.00    -0.246 OA
BRANCH  24  26
ATOM     26  C   UNL A   1      43.045  24.700  26.269  1.00  0.00     0.060 A 
ATOM     27  C   UNL A   1      43.357  26.050  26.091  1.00  0.00     0.016 A 
ATOM     28  C   UNL A   1      42.264  24.273  27.337  1.00  0.00     0.016 A 
ATOM     29  C   UNL A   1      42.913  26.996  26.997  1.00  0.00     0.010 A 
ATOM     30  C   UNL A   1      41.809  25.223  28.248  1.00  0.00     0.010 A 
ATOM     31  C   UNL A   1      42.147  26.581  28.087  1.00  0.00    -0.014 A 
BRANCH  31  32
ATOM     32  C   UNL A   1      41.792  27.555  29.131  1.00  0.00     0.031 A 
ATOM     33  C   UNL A   1      42.633  27.609  30.366  1.00  0.00     0.074 A 
ATOM     34  C   UNL A   1      40.743  28.375  28.954  1.00  0.00     0.049 A 
ATOM     35  N   UNL A   1      42.416  28.232  31.492  1.00  0.00    -0.248 NA
ATOM     36  C   UNL A   1      43.890  26.843  30.329  1.00  0.00     0.031 C 
ATOM     37  C   UNL A   1      39.927  28.455  27.742  1.00  0.00     0.029 A 
ATOM     38  N   UNL A   1      40.179  29.289  29.803  1.00  0.00    -0.354 N 
ATOM     39  C   UNL A   1      43.487  27.903  32.311  1.00  0.00     0.074 A 
ATOM     40  C   UNL A   1      44.352  27.022  31.556  1.00  0.00     0.031 C 
ATOM     41  C   UNL A   1      38.952  29.359  27.933  1.00  0.00     0.029 A 
ATOM     42  C   UNL A   1      39.042  29.868  29.298  1.00  0.00     0.049 A 
ATOM     43  H   UNL A   1      40.550  29.508  30.688  1.00  0.00     0.167 HD
ATOM     44  C   UNL A   1      43.712  28.303  33.583  1.00  0.00     0.037 A 
ATOM     45  C   UNL A   1      38.154  30.681  29.898  1.00  0.00     0.037 A 
ATOM     46  C   UNL A   1      42.834  29.190  34.299  1.00  0.00     0.049 A 
ATOM     47  C   UNL A   1      38.389  31.055  31.337  1.00  0.00     0.074 A 
ATOM     48  C   UNL A   1      42.941  29.656  35.595  1.00  0.00     0.029 A 
ATOM     49  N   UNL A   1      41.678  29.747  33.765  1.00  0.00    -0.354 N 
ATOM     50  N   UNL A   1      39.375  30.710  32.132  1.00  0.00    -0.248 NA
ATOM     51  C   UNL A   1      37.386  31.921  31.966  1.00  0.00     0.031 C 
ATOM     52  C   UNL A   1      41.828  30.462  35.859  1.00  0.00     0.029 A 
ATOM     53  C   UNL A   1      41.055  30.542  34.710  1.00  0.00     0.049 A 
ATOM     54  H   UNL A   1      41.351  29.598  32.848  1.00  0.00     0.167 HD
ATOM     55  C   UNL A   1      39.126  31.335  33.346  1.00  0.00     0.074 A 
ATOM     56  C   UNL A   1      37.901  32.092  33.176  1.00  0.00     0.031 C 
ATOM     57  C   UNL A   1      39.839  31.288  34.498  1.00  0.00     0.037 A 
BRANCH  44  58
ATOM     58  C   UNL A   1      44.914  27.740  34.281  1.00  0.00     0.064 A 
ATOM     59  C   UNL A   1      46.157  28.394  34.267  1.00  0.00     0.173 A 
ATOM     60  C   UNL A   1      44.824  26.521  34.968  1.00  0.00     0.173 A 
ATOM     61  F   UNL A   1      46.304  29.551  33.604  1.00  0.00    -0.203 F 
ATOM     62  C   UNL A   1      47.268  27.834  34.892  1.00  0.00     0.198 A 
ATOM     63  C   UNL A   1      45.931  25.978  35.617  1.00  0.00     0.198 A 
ATOM     64  F   UNL A   1      43.663  25.852  35.009  1.00  0.00    -0.203 F 
ATOM     65  F   UNL A   1      48.458  28.447  34.816  1.00  0.00    -0.200 F 
ATOM     66  C   UNL A   1      47.153  26.629  35.570  1.00  0.00     0.200 A 
ATOM     67  F   UNL A   1      45.816  24.818  36.278  1.00  0.00    -0.200 F 
ATOM     68  F   UNL A   1      48.225  26.092  36.169  1.00  0.00    -0.200 F 
ENDBRANCH  44  58
BRANCH  45  69
ATOM     69  C   UNL A   1      36.957  31.156  29.157  1.00  0.00     0.064 A 
ATOM     70  C   UNL A   1      35.884  30.295  28.891  1.00  0.00     0.173 A 
ATOM     71  C   UNL A   1      36.859  32.479  28.698  1.00  0.00     0.173 A 
ATOM     72  F   UNL A   1      35.938  29.015  29.288  1.00  0.00    -0.203 F 
ATOM     73  C   UNL A   1      34.766  30.735  28.184  1.00  0.00     0.198 A 
ATOM     74  C   UNL A   1      35.729  32.925  28.018  1.00  0.00     0.198 A 
ATOM     75  F   UNL A   1      37.859  33.344  28.924  1.00  0.00    -0.203 F 
ATOM     76  F   UNL A   1      33.772  29.879  27.907  1.00  0.00    -0.200 F 
ATOM     77  C   UNL A   1      34.686  32.051  27.754  1.00  0.00     0.200 A 
ATOM     78  F   UNL A   1      35.651  34.201  27.616  1.00  0.00    -0.200 F 
ATOM     79  F   UNL A   1      33.609  32.474  27.079  1.00  0.00    -0.200 F 
ENDBRANCH  45  69
BRANCH  57  80
ATOM     80  C   UNL A   1      39.333  32.114  35.642  1.00  0.00     0.064 A 
ATOM     81  C   UNL A   1      38.430  31.596  36.581  1.00  0.00     0.173 A 
ATOM     82  C   UNL A   1      39.790  33.429  35.819  1.00  0.00     0.173 A 
ATOM     83  F   UNL A   1      37.954  30.350  36.444  1.00  0.00    -0.203 F 
ATOM     84  C   UNL A   1      37.980  32.376  37.643  1.00  0.00     0.198 A 
ATOM     85  C   UNL A   1      39.363  34.194  36.899  1.00  0.00     0.198 A 
ATOM     86  F   UNL A   1      40.659  33.965  34.951  1.00  0.00    -0.203 F 
ATOM     87  F   UNL A   1      37.080  31.880  38.502  1.00  0.00    -0.200 F 
ATOM     88  C   UNL A   1      38.453  33.670  37.806  1.00  0.00     0.200 A 
ATOM     89  F   UNL A   1      39.831  35.439  37.062  1.00  0.00    -0.200 F 
ATOM     90  F   UNL A   1      38.025  34.417  38.832  1.00  0.00    -0.200 F 
ENDBRANCH  57  80
ENDBRANCH  31  32
ENDBRANCH  24  26
ENDBRANCH  23  24
ENDBRANCH  22  23
ENDBRANCH  21  22
ENDBRANCH   1  21
TORSDOF 16
ENDMDL
MODEL 2
REMARK VINA RESULT:     -11.2      4.620      9.737
REMARK SMILES Cc1cc(OCCc2nc(CC(=O)OCCOC(=O)c3ccc(-c4c5nc(c(-c6c(F)c(F)c(F)c(F)c6F)c6ccc([nH]6)c(-c6c(F)c(F)c(F)c(F)c6F)c6nc(c(-c7c(F)c(F)c(F)c(F)c7F)c7ccc4[nH]7)C=C6)C=C5)cc3)cs2)ccc1Cl
REMARK SMILES IDX 14 1 12 2 13 3 11 4 10 5 8 6 9 7 84 8 83 9 7 10 6 11 5 12
REMARK SMILES IDX 4 13 1 14 2 15 3 16 87 17 86 18 88 19 85 20 15 21 16 22
REMARK SMILES IDX 17 23 18 24 19 25 20 26 21 27 82 28 22 29 81 30 23 31 24 32
REMARK SMILES IDX 25 33 75 34 26 35 80 36 74 37 76 38 27 39 79 40 73 41 72 42
REMARK SMILES IDX 28 44 60 45 40 46 59 47 41 48 44 49 58 50 77 51 42 52 43 53
REMARK SMILES IDX 57 55 78 56 45 57 29 58 30 59 38 60 31 61 32 62 36 63 39 64
REMARK SMILES IDX 33 65 34 66 37 67 35 68 61 69 62 70 70 71 63 72 64 73 68 74
REMARK SMILES IDX 71 75 65 76 66 77 69 78 67 79 46 80 47 81 55 82 48 83 49 84
REMARK SMILES IDX 53 85 56 86 50 87 51 88 54 89 52 90
REMARK H PARENT 76 43 44 54
REMARK Flexibility Score: inf
ROOT
ATOM      1  O   UNL A   1      33.039  30.701  27.188  1.00  0.00    -0.462 OA
ENDROOT
BRANCH   1   2
ATOM      2  C   UNL A   1      33.085  29.345  27.169  1.00  0.00     0.312 C 
ATOM      3  O   UNL A   1      34.136  28.706  27.218  1.00  0.00    -0.252 OA
BRANCH   2   4
ATOM      4  C   UNL A   1      31.755  28.625  27.134  1.00  0.00     0.179 C 
BRANCH   4   5
ATOM      5  C   UNL A   1      31.482  27.563  26.114  1.00  0.00     0.063 A 
ATOM      6  C   UNL A   1      31.591  26.835  23.998  1.00  0.00     0.096 A 
ATOM      7  N   UNL A   1      31.846  27.847  24.801  1.00  0.00    -0.246 NA
ATOM      8  S   UNL A   1      30.988  25.434  24.783  1.00  0.00    -0.127 S 
ATOM      9  C   UNL A   1      31.074  26.255  26.288  1.00  0.00     0.091 A 
BRANCH   6  10
ATOM     10  C   UNL A   1      31.852  26.842  22.518  1.00  0.00     0.109 C 
BRANCH  10  11
ATOM     11  C   UNL A   1      33.276  26.437  22.124  1.00  0.00     0.237 C 
BRANCH  11  12
ATOM     12  O   UNL A   1      33.376  25.096  21.629  1.00  0.00    -0.493 OA
BRANCH  12  13
ATOM     13  C   UNL A   1      33.642  24.113  22.541  1.00  0.00     0.119 A 
ATOM     14  C   UNL A   1      35.520  23.531  25.762  1.00  0.00     0.046 C 
ATOM     15  C   UNL A   1      34.675  23.214  24.561  1.00  0.00    -0.029 A 
ATOM     16  C   UNL A   1      34.550  24.225  23.594  1.00  0.00     0.051 A 
ATOM     17  C   UNL A   1      33.921  22.044  24.403  1.00  0.00     0.044 A 
ATOM     18  C   UNL A   1      33.040  21.909  23.326  1.00  0.00     0.024 A 
ATOM     19  Cl  UNL A   1      34.033  20.710  25.489  1.00  0.00    -0.084 Cl
ATOM     20  C   UNL A   1      32.901  22.941  22.398  1.00  0.00     0.048 A 
ENDBRANCH  12  13
ENDBRANCH  11  12
ENDBRANCH  10  11
ENDBRANCH   6  10
ENDBRANCH   4   5
ENDBRANCH   2   4
ENDBRANCH   1   2
BRANCH   1  21
ATOM     21  C   UNL A   1      31.790  31.301  26.752  1.00  0.00     0.274 C 
BRANCH  21  22
ATOM     22  C   UNL A   1      31.777  32.808  27.012  1.00  0.00     0.275 C 
BRANCH  22  23
ATOM     23  O   UNL A   1      33.128  33.245  27.202  1.00  0.00    -0.458 OA
BRANCH  23  24
ATOM     24  C   UNL A   1      33.278  34.159  28.184  1.00  0.00     0.338 C 
ATOM     25  O   UNL A   1      32.523  35.056  28.505  1.00  0.00    -0.246 OA
BRANCH  24  26
ATOM     26  C   UNL A   1      34.399  33.702  29.007  1.00  0.00     0.060 A 
ATOM     27  C   UNL A   1      35.651  34.272  28.764  1.00  0.00     0.016 A 
ATOM     28  C   UNL A   1      34.221  32.742  29.997  1.00  0.00     0.016 A 
ATOM     29  C   UNL A   1      36.755  33.871  29.494  1.00  0.00     0.010 A 
ATOM     30  C   UNL A   1      35.329  32.340  30.739  1.00  0.00     0.010 A 
ATOM     31  C   UNL A   1      36.598  32.893  30.476  1.00  0.00    -0.014 A 
BRANCH  31  32
ATOM     32  C   UNL A   1      37.788  32.357  31.157  1.00  0.00     0.031 A 
ATOM     33  C   UNL A   1      38.567  31.277  30.476  1.00  0.00     0.074 A 
ATOM     34  C   UNL A   1      38.155  32.847  32.352  1.00  0.00     0.049 A 
ATOM     35  N   UNL A   1      39.521  30.520  30.946  1.00  0.00    -0.248 NA
ATOM     36  C   UNL A   1      38.214  31.007  29.073  1.00  0.00     0.031 C 
ATOM     37  C   UNL A   1      37.507  33.963  33.043  1.00  0.00     0.029 A 
ATOM     38  N   UNL A   1      39.156  32.459  33.201  1.00  0.00    -0.354 N 
ATOM     39  C   UNL A   1      39.855  29.658  29.910  1.00  0.00     0.074 A 
ATOM     40  C   UNL A   1      39.000  29.981  28.789  1.00  0.00     0.031 C 
ATOM     41  C   UNL A   1      38.119  34.158  34.222  1.00  0.00     0.029 A 
ATOM     42  C   UNL A   1      39.154  33.142  34.390  1.00  0.00     0.049 A 
ATOM     43  H   UNL A   1      39.811  31.758  32.980  1.00  0.00     0.167 HD
ATOM     44  C   UNL A   1      40.790  28.682  29.912  1.00  0.00     0.037 A 
ATOM     45  C   UNL A   1      39.878  32.929  35.503  1.00  0.00     0.037 A 
ATOM     46  C   UNL A   1      41.630  28.396  31.045  1.00  0.00     0.049 A 
ATOM     47  C   UNL A   1      40.863  31.791  35.505  1.00  0.00     0.074 A 
ATOM     48  C   UNL A   1      42.603  27.424  31.180  1.00  0.00     0.029 A 
ATOM     49  N   UNL A   1      41.592  29.096  32.246  1.00  0.00    -0.354 N 
ATOM     50  N   UNL A   1      41.151  30.943  34.546  1.00  0.00    -0.248 NA
ATOM     51  C   UNL A   1      41.618  31.573  36.745  1.00  0.00     0.031 C 
ATOM     52  C   UNL A   1      43.124  27.509  32.476  1.00  0.00     0.029 A 
ATOM     53  C   UNL A   1      42.515  28.569  33.131  1.00  0.00     0.049 A 
ATOM     54  H   UNL A   1      40.996  29.856  32.437  1.00  0.00     0.167 HD
ATOM     55  C   UNL A   1      42.134  30.106  35.055  1.00  0.00     0.074 A 
ATOM     56  C   UNL A   1      42.403  30.560  36.405  1.00  0.00     0.031 C 
ATOM     57  C   UNL A   1      42.759  29.057  34.466  1.00  0.00     0.037 A 
BRANCH  44  58
ATOM     58  C   UNL A   1      40.904  27.832  28.682  1.00  0.00     0.064 A 
ATOM     59  C   UNL A   1      41.772  28.161  27.629  1.00  0.00     0.173 A 
ATOM     60  C   UNL A   1      40.125  26.673  28.551  1.00  0.00     0.173 A 
ATOM     61  F   UNL A   1      42.521  29.272  27.693  1.00  0.00    -0.203 F 
ATOM     62  C   UNL A   1      41.833  27.376  26.480  1.00  0.00     0.198 A 
ATOM     63  C   UNL A   1      40.211  25.874  27.413  1.00  0.00     0.198 A 
ATOM     64  F   UNL A   1      39.276  26.315  29.525  1.00  0.00    -0.203 F 
ATOM     65  F   UNL A   1      42.626  27.741  25.462  1.00  0.00    -0.200 F 
ATOM     66  C   UNL A   1      41.057  26.231  26.375  1.00  0.00     0.200 A 
ATOM     67  F   UNL A   1      39.465  24.765  27.318  1.00  0.00    -0.200 F 
ATOM     68  F   UNL A   1      41.118  25.478  25.268  1.00  0.00    -0.200 F 
ENDBRANCH  44  58
BRANCH  45  69
ATOM     69  C   UNL A   1      39.671  33.781  36.702  1.00  0.00     0.064 A 
ATOM     70  C   UNL A   1      38.819  33.375  37.738  1.00  0.00     0.173 A 
ATOM     71  C   UNL A   1      40.321  35.018  36.842  1.00  0.00     0.173 A 
ATOM     72  F   UNL A   1      38.158  32.212  37.644  1.00  0.00    -0.203 F 
ATOM     73  C   UNL A   1      38.613  34.179  38.858  1.00  0.00     0.198 A 
ATOM     74  C   UNL A   1      40.138  35.806  37.975  1.00  0.00     0.198 A 
ATOM     75  F   UNL A   1      41.146  35.455  35.879  1.00  0.00    -0.203 F 
ATOM     76  F   UNL A   1      37.759  33.786  39.814  1.00  0.00    -0.200 F 
ATOM     77  C   UNL A   1      39.278  35.390  38.980  1.00  0.00     0.200 A 
ATOM     78  F   UNL A   1      40.791  36.970  38.092  1.00  0.00    -0.200 F 
ATOM     79  F   UNL A   1      39.083  36.159  40.059  1.00  0.00    -0.200 F 
ENDBRANCH  45  69
BRANCH  57  80
ATOM     80  C   UNL A   1      43.822  28.364  35.266  1.00  0.00     0.064 A 
ATOM     81  C   UNL A   1      45.160  28.779  35.227  1.00  0.00     0.173 A 
ATOM     82  C   UNL A   1      43.484  27.296  36.111  1.00  0.00     0.173 A 
ATOM     83  F   UNL A   1      45.532  29.786  34.422  1.00  0.00    -0.203 F 
ATOM     84  C   UNL A   1      46.130  28.131  35.986  1.00  0.00     0.198 A 
ATOM     85  C   UNL A   1      44.450  26.671  36.892  1.00  0.00     0.198 A 
ATOM     86  F   UNL A   1      42.215  26.869  36.187  1.00  0.00    -0.203 F 
ATOM     87  F   UNL A   1      47.411  28.510  35.898  1.00  0.00    -0.200 F 
ATOM     88  C   UNL A   1      45.773  27.083  36.824  1.00  0.00     0.200 A 
ATOM     89  F   UNL A   1      44.101  25.669  37.711  1.00  0.00    -0.200 F 
ATOM     90  F   UNL A   1      46.706  26.465  37.559  1.00  0.00    -0.200 F 
ENDBRANCH  57  80
ENDBRANCH  31  32
ENDBRANCH  24  26
ENDBRANCH  23  24
ENDBRANCH  22  23
ENDBRANCH  21  22
ENDBRANCH   1  21
TORSDOF 16
ENDMDL
MODEL 3
REMARK VINA RESULT:     -11.0      4.917      9.948
REMARK SMILES Cc1cc(OCCc2nc(CC(=O)OCCOC(=O)c3ccc(-c4c5nc(c(-c6c(F)c(F)c(F)c(F)c6F)c6ccc([nH]6)c(-c6c(F)c(F)c(F)c(F)c6F)c6nc(c(-c7c(F)c(F)c(F)c(F)c7F)c7ccc4[nH]7)C=C6)C=C5)cc3)cs2)ccc1Cl
REMARK SMILES IDX 14 1 12 2 13 3 11 4 10 5 8 6 9 7 84 8 83 9 7 10 6 11 5 12
REMARK SMILES IDX 4 13 1 14 2 15 3 16 87 17 86 18 88 19 85 20 15 21 16 22
REMARK SMILES IDX 17 23 18 24 19 25 20 26 21 27 82 28 22 29 81 30 23 31 24 32
REMARK SMILES IDX 25 33 75 34 26 35 80 36 74 37 76 38 27 39 79 40 73 41 72 42
REMARK SMILES IDX 28 44 60 45 40 46 59 47 41 48 44 49 58 50 77 51 42 52 43 53
REMARK SMILES IDX 57 55 78 56 45 57 29 58 30 59 38 60 31 61 32 62 36 63 39 64
REMARK SMILES IDX 33 65 34 66 37 67 35 68 61 69 62 70 70 71 63 72 64 73 68 74
REMARK SMILES IDX 71 75 65 76 66 77 69 78 67 79 46 80 47 81 55 82 48 83 49 84
REMARK SMILES IDX 53 85 56 86 50 87 51 88 54 89 52 90
REMARK H PARENT 76 43 44 54
REMARK Flexibility Score: inf
ROOT
ATOM      1  O   UNL A   1      38.215  21.483  25.667  1.00  0.00    -0.462 OA
ENDROOT
BRANCH   1   2
ATOM      2  C   UNL A   1      37.443  22.505  25.217  1.00  0.00     0.312 C 
ATOM      3  O   UNL A   1      37.377  23.597  25.779  1.00  0.00    -0.252 OA
BRANCH   2   4
ATOM      4  C   UNL A   1      36.685  22.261  23.931  1.00  0.00     0.179 C 
BRANCH   4   5
ATOM      5  C   UNL A   1      35.237  22.626  23.811  1.00  0.00     0.063 A 
ATOM      6  C   UNL A   1      33.603  23.753  22.772  1.00  0.00     0.096 A 
ATOM      7  N   UNL A   1      34.900  23.529  22.807  1.00  0.00    -0.246 NA
ATOM      8  S   UNL A   1      32.686  22.815  23.879  1.00  0.00    -0.127 S 
ATOM      9  C   UNL A   1      34.133  22.078  24.435  1.00  0.00     0.091 A 
BRANCH   6  10
ATOM     10  C   UNL A   1      32.931  24.695  21.813  1.00  0.00     0.109 C 
BRANCH  10  11
ATOM     11  C   UNL A   1      33.253  26.174  22.049  1.00  0.00     0.237 C 
BRANCH  11  12
ATOM     12  O   UNL A   1      32.095  26.982  22.292  1.00  0.00    -0.493 OA
BRANCH  12  13
ATOM     13  C   UNL A   1      32.084  27.726  23.439  1.00  0.00     0.119 A 
ATOM     14  C   UNL A   1      34.105  28.320  26.570  1.00  0.00     0.046 C 
ATOM     15  C   UNL A   1      32.972  28.454  25.592  1.00  0.00    -0.029 A 
ATOM     16  C   UNL A   1      32.972  27.568  24.502  1.00  0.00     0.051 A 
ATOM     17  C   UNL A   1      32.002  29.464  25.629  1.00  0.00     0.044 A 
ATOM     18  C   UNL A   1      31.083  29.602  24.586  1.00  0.00     0.024 A 
ATOM     19  Cl  UNL A   1      31.863  30.573  26.941  1.00  0.00    -0.084 Cl
ATOM     20  C   UNL A   1      31.124  28.735  23.493  1.00  0.00     0.048 A 
ENDBRANCH  12  13
ENDBRANCH  11  12
ENDBRANCH  10  11
ENDBRANCH   6  10
ENDBRANCH   4   5
ENDBRANCH   2   4
ENDBRANCH   1   2
BRANCH   1  21
ATOM     21  C   UNL A   1      38.146  20.249  24.904  1.00  0.00     0.274 C 
BRANCH  21  22
ATOM     22  C   UNL A   1      39.176  19.232  25.398  1.00  0.00     0.275 C 
BRANCH  22  23
ATOM     23  O   UNL A   1      39.991  19.863  26.394  1.00  0.00    -0.458 OA
BRANCH  23  24
ATOM     24  C   UNL A   1      41.318  19.705  26.200  1.00  0.00     0.338 C 
ATOM     25  O   UNL A   1      41.897  18.804  25.624  1.00  0.00    -0.246 OA
BRANCH  24  26
ATOM     26  C   UNL A   1      41.942  20.979  26.558  1.00  0.00     0.060 A 
ATOM     27  C   UNL A   1      42.248  21.191  27.905  1.00  0.00     0.016 A 
ATOM     28  C   UNL A   1      42.227  21.939  25.592  1.00  0.00     0.016 A 
ATOM     29  C   UNL A   1      42.821  22.381  28.313  1.00  0.00     0.010 A 
ATOM     30  C   UNL A   1      42.811  23.136  25.998  1.00  0.00     0.010 A 
ATOM     31  C   UNL A   1      43.093  23.363  27.360  1.00  0.00    -0.014 A 
BRANCH  31  32
ATOM     32  C   UNL A   1      43.569  24.684  27.801  1.00  0.00     0.031 A 
ATOM     33  C   UNL A   1      42.552  25.715  28.176  1.00  0.00     0.074 A 
ATOM     34  C   UNL A   1      44.887  24.934  27.871  1.00  0.00     0.049 A 
ATOM     35  N   UNL A   1      42.708  26.990  28.405  1.00  0.00    -0.248 NA
ATOM     36  C   UNL A   1      41.162  25.242  28.298  1.00  0.00     0.031 C 
ATOM     37  C   UNL A   1      45.946  23.958  27.615  1.00  0.00     0.029 A 
ATOM     38  N   UNL A   1      45.556  26.091  28.167  1.00  0.00    -0.354 N 
ATOM     39  C   UNL A   1      41.434  27.480  28.660  1.00  0.00     0.074 A 
ATOM     40  C   UNL A   1      40.515  26.368  28.553  1.00  0.00     0.031 C 
ATOM     41  C   UNL A   1      47.137  24.564  27.748  1.00  0.00     0.029 A 
ATOM     42  C   UNL A   1      46.916  25.979  28.034  1.00  0.00     0.049 A 
ATOM     43  H   UNL A   1      45.105  26.921  28.446  1.00  0.00     0.167 HD
ATOM     44  C   UNL A   1      41.077  28.752  28.949  1.00  0.00     0.037 A 
ATOM     45  C   UNL A   1      47.865  26.930  28.092  1.00  0.00     0.037 A 
ATOM     46  C   UNL A   1      42.022  29.832  29.057  1.00  0.00     0.049 A 
ATOM     47  C   UNL A   1      47.435  28.351  28.345  1.00  0.00     0.074 A 
ATOM     48  C   UNL A   1      41.786  31.166  29.328  1.00  0.00     0.029 A 
ATOM     49  N   UNL A   1      43.396  29.690  28.899  1.00  0.00    -0.354 N 
ATOM     50  N   UNL A   1      46.229  28.829  28.541  1.00  0.00    -0.248 NA
ATOM     51  C   UNL A   1      48.495  29.365  28.375  1.00  0.00     0.031 C 
ATOM     52  C   UNL A   1      43.012  31.839  29.293  1.00  0.00     0.029 A 
ATOM     53  C   UNL A   1      44.019  30.915  29.054  1.00  0.00     0.049 A 
ATOM     54  H   UNL A   1      43.857  28.841  28.707  1.00  0.00     0.167 HD
ATOM     55  C   UNL A   1      46.384  30.193  28.741  1.00  0.00     0.074 A 
ATOM     56  C   UNL A   1      47.806  30.463  28.657  1.00  0.00     0.031 C 
ATOM     57  C   UNL A   1      45.441  31.140  28.972  1.00  0.00     0.037 A 
BRANCH  44  58
ATOM     58  C   UNL A   1      39.614  29.038  29.108  1.00  0.00     0.064 A 
ATOM     59  C   UNL A   1      38.810  29.431  28.027  1.00  0.00     0.173 A 
ATOM     60  C   UNL A   1      39.006  28.927  30.368  1.00  0.00     0.173 A 
ATOM     61  F   UNL A   1      39.346  29.577  26.805  1.00  0.00    -0.203 F 
ATOM     62  C   UNL A   1      37.462  29.727  28.206  1.00  0.00     0.198 A 
ATOM     63  C   UNL A   1      37.651  29.195  30.539  1.00  0.00     0.198 A 
ATOM     64  F   UNL A   1      39.729  28.560  31.437  1.00  0.00    -0.203 F 
ATOM     65  F   UNL A   1      36.727  30.156  27.170  1.00  0.00    -0.200 F 
ATOM     66  C   UNL A   1      36.882  29.604  29.460  1.00  0.00     0.200 A 
ATOM     67  F   UNL A   1      37.091  29.069  31.750  1.00  0.00    -0.200 F 
ATOM     68  F   UNL A   1      35.584  29.892  29.631  1.00  0.00    -0.200 F 
ENDBRANCH  44  58
BRANCH  45  69
ATOM     69  C   UNL A   1      49.291  26.577  27.871  1.00  0.00     0.064 A 
ATOM     70  C   UNL A   1      49.806  26.431  26.577  1.00  0.00     0.173 A 
ATOM     71  C   UNL A   1      50.170  26.378  28.947  1.00  0.00     0.173 A 
ATOM     72  F   UNL A   1      49.003  26.588  25.514  1.00  0.00    -0.203 F 
ATOM     73  C   UNL A   1      51.141  26.086  26.367  1.00  0.00     0.198 A 
ATOM     74  C   UNL A   1      51.510  26.064  28.737  1.00  0.00     0.198 A 
ATOM     75  F   UNL A   1      49.728  26.504  30.208  1.00  0.00    -0.203 F 
ATOM     76  F   UNL A   1      51.597  25.910  25.119  1.00  0.00    -0.200 F 
ATOM     77  C   UNL A   1      51.993  25.910  27.446  1.00  0.00     0.200 A 
ATOM     78  F   UNL A   1      52.332  25.906  29.783  1.00  0.00    -0.200 F 
ATOM     79  F   UNL A   1      53.276  25.584  27.244  1.00  0.00    -0.200 F 
ENDBRANCH  45  69
BRANCH  57  80
ATOM     80  C   UNL A   1      45.928  32.541  29.193  1.00  0.00     0.064 A 
ATOM     81  C   UNL A   1      46.259  33.012  30.471  1.00  0.00     0.173 A 
ATOM     82  C   UNL A   1      46.100  33.408  28.103  1.00  0.00     0.173 A 
ATOM     83  F   UNL A   1      46.096  32.224  31.544  1.00  0.00    -0.203 F 
ATOM     84  C   UNL A   1      46.720  34.313  30.654  1.00  0.00     0.198 A 
ATOM     85  C   UNL A   1      46.591  34.696  28.286  1.00  0.00     0.198 A 
ATOM     86  F   UNL A   1      45.804  32.999  26.861  1.00  0.00    -0.203 F 
ATOM     87  F   UNL A   1      46.985  34.760  31.888  1.00  0.00    -0.200 F 
ATOM     88  C   UNL A   1      46.894  35.150  29.561  1.00  0.00     0.200 A 
ATOM     89  F   UNL A   1      46.771  35.498  27.228  1.00  0.00    -0.200 F 
ATOM     90  F   UNL A   1      47.345  36.399  29.738  1.00  0.00    -0.200 F 
ENDBRANCH  57  80
ENDBRANCH  31  32
ENDBRANCH  24  26
ENDBRANCH  23  24
ENDBRANCH  22  23
ENDBRANCH  21  22
ENDBRANCH   1  21
TORSDOF 16
ENDMDL
