MODEL 1
REMARK VINA RESULT:     -11.3      0.000      0.000
REMARK SMILES NC(=O)C[C@@H](NC(=O)c1ccc(CO)cc1)C(=O)OCCOC(=O)c1ccc(-c2c3nc(c(-c4c(F)c(F)c(F)c(F)c4F)c4ccc([nH]4)c(-c4c(F)c(F)c(F)c(F)c4F)c4nc(c(-c5c(F)c(F)c(F)c(F)c5F)c5ccc2[nH]5)C=C4)C=C3)cc1
REMARK SMILES IDX 20 1 19 2 17 3 18 4 5 5 4 6 2 7 1 8 3 11 6 12 7 13 8 15 9 16
REMARK SMILES IDX 10 17 16 18 11 19 15 20 12 21 13 22 14 23 21 25 22 26 23 27
REMARK SMILES IDX 24 28 25 29 26 30 87 31 27 32 86 33 28 34 29 35 30 36 80 37
REMARK SMILES IDX 31 38 85 39 79 40 81 41 32 42 84 43 78 44 77 45 33 47 65 48
REMARK SMILES IDX 45 49 64 50 46 51 49 52 63 53 82 54 47 55 48 56 62 58 83 59
REMARK SMILES IDX 50 60 34 61 35 62 43 63 36 64 37 65 41 66 44 67 38 68 39 69
REMARK SMILES IDX 42 70 40 71 66 72 67 73 75 74 68 75 69 76 73 77 76 78 70 79
REMARK SMILES IDX 71 80 74 81 72 82 51 83 52 84 60 85 53 86 54 87 58 88 61 89
REMARK SMILES IDX 55 90 56 91 59 92 57 93
REMARK H PARENT 1 9 1 10 6 14 14 24 81 46 49 57
REMARK Flexibility Score: inf
ROOT
ATOM      1  C   UNL A   1      31.405  28.828  25.169  1.00  0.00     0.274 C 
ENDROOT
BRANCH   1   2
ATOM      2  O   UNL A   1      32.046  27.725  25.844  1.00  0.00    -0.461 OA
BRANCH   2   3
ATOM      3  C   UNL A   1      31.351  26.557  25.842  1.00  0.00     0.329 C 
ATOM      4  O   UNL A   1      30.366  26.338  26.541  1.00  0.00    -0.250 OA
BRANCH   3   5
ATOM      5  C   UNL A   1      31.951  25.479  24.932  1.00  0.00     0.201 C 
BRANCH   5   6
ATOM      6  C   UNL A   1      30.860  24.499  24.482  1.00  0.00     0.136 C 
BRANCH   6   7
ATOM      7  C   UNL A   1      30.985  23.221  25.266  1.00  0.00     0.220 C 
ATOM      8  N   UNL A   1      30.163  23.113  26.348  1.00  0.00    -0.370 N 
ATOM      9  H   UNL A   1      30.191  22.304  26.908  1.00  0.00     0.159 HD
ATOM     10  H   UNL A   1      29.543  23.845  26.570  1.00  0.00     0.159 HD
ATOM     11  O   UNL A   1      31.720  22.299  24.930  1.00  0.00    -0.275 OA
ENDBRANCH   6   7
ENDBRANCH   5   6
BRANCH   5  12
ATOM     12  N   UNL A   1      32.778  25.894  23.774  1.00  0.00    -0.338 N 
ATOM     13  C   UNL A   1      33.754  25.214  23.090  1.00  0.00     0.251 C 
ATOM     14  H   UNL A   1      32.599  26.804  23.443  1.00  0.00     0.164 HD
ATOM     15  O   UNL A   1      33.955  25.443  21.903  1.00  0.00    -0.269 OA
BRANCH  13  16
ATOM     16  C   UNL A   1      34.668  24.333  23.827  1.00  0.00     0.039 A 
ATOM     17  C   UNL A   1      35.135  23.182  23.187  1.00  0.00     0.014 A 
ATOM     18  C   UNL A   1      35.090  24.659  25.113  1.00  0.00     0.014 A 
ATOM     19  C   UNL A   1      36.119  22.408  23.798  1.00  0.00     0.007 A 
ATOM     20  C   UNL A   1      36.100  23.898  25.709  1.00  0.00     0.007 A 
ATOM     21  C   UNL A   1      36.654  22.797  25.035  1.00  0.00    -0.023 A 
BRANCH  21  22
ATOM     22  C   UNL A   1      37.844  22.070  25.603  1.00  0.00     0.191 C 
BRANCH  22  23
ATOM     23  O   UNL A   1      38.471  22.830  26.620  1.00  0.00    -0.392 OA
ATOM     24  H   UNL A   1      38.154  22.532  27.487  1.00  0.00     0.211 HD
ENDBRANCH  22  23
ENDBRANCH  21  22
ENDBRANCH  13  16
ENDBRANCH   5  12
ENDBRANCH   3   5
ENDBRANCH   2   3
ENDBRANCH   1   2
BRANCH   1  25
ATOM     25  C   UNL A   1      31.760  30.212  25.728  1.00  0.00     0.275 C 
BRANCH  25  26
ATOM     26  O   UNL A   1      32.592  30.135  26.900  1.00  0.00    -0.458 OA
BRANCH  26  27
ATOM     27  C   UNL A   1      33.232  31.288  27.211  1.00  0.00     0.338 C 
ATOM     28  O   UNL A   1      32.749  32.409  27.205  1.00  0.00    -0.246 OA
BRANCH  27  29
ATOM     29  C   UNL A   1      34.582  31.010  27.740  1.00  0.00     0.060 A 
ATOM     30  C   UNL A   1      34.877  29.686  28.089  1.00  0.00     0.016 A 
ATOM     31  C   UNL A   1      35.521  32.022  27.953  1.00  0.00     0.016 A 
ATOM     32  C   UNL A   1      36.101  29.368  28.671  1.00  0.00     0.010 A 
ATOM     33  C   UNL A   1      36.742  31.706  28.559  1.00  0.00     0.010 A 
ATOM     34  C   UNL A   1      37.025  30.382  28.941  1.00  0.00    -0.014 A 
BRANCH  34  35
ATOM     35  C   UNL A   1      38.219  30.075  29.762  1.00  0.00     0.031 A 
ATOM     36  C   UNL A   1      39.248  29.131  29.212  1.00  0.00     0.074 A 
ATOM     37  C   UNL A   1      38.398  30.656  30.960  1.00  0.00     0.049 A 
ATOM     38  N   UNL A   1      40.325  28.651  29.778  1.00  0.00    -0.248 NA
ATOM     39  C   UNL A   1      39.032  28.665  27.833  1.00  0.00     0.031 C 
ATOM     40  C   UNL A   1      37.501  31.638  31.563  1.00  0.00     0.029 A 
ATOM     41  N   UNL A   1      39.398  30.494  31.886  1.00  0.00    -0.354 N 
ATOM     42  C   UNL A   1      40.905  27.816  28.834  1.00  0.00     0.074 A 
ATOM     43  C   UNL A   1      40.055  27.840  27.663  1.00  0.00     0.031 C 
ATOM     44  C   UNL A   1      37.983  31.983  32.769  1.00  0.00     0.029 A 
ATOM     45  C   UNL A   1      39.198  31.215  33.037  1.00  0.00     0.049 A 
ATOM     46  H   UNL A   1      40.182  29.918  31.740  1.00  0.00     0.167 HD
ATOM     47  C   UNL A   1      42.047  27.096  28.936  1.00  0.00     0.037 A 
ATOM     48  C   UNL A   1      39.901  31.226  34.185  1.00  0.00     0.037 A 
ATOM     49  C   UNL A   1      42.892  27.085  30.101  1.00  0.00     0.049 A 
ATOM     50  C   UNL A   1      41.128  30.359  34.303  1.00  0.00     0.074 A 
ATOM     51  C   UNL A   1      44.075  26.396  30.304  1.00  0.00     0.029 A 
ATOM     52  N   UNL A   1      42.639  27.799  31.263  1.00  0.00    -0.354 N 
ATOM     53  N   UNL A   1      41.669  29.563  33.412  1.00  0.00    -0.248 NA
ATOM     54  C   UNL A   1      41.839  30.385  35.589  1.00  0.00     0.031 C 
ATOM     55  C   UNL A   1      44.512  26.658  31.607  1.00  0.00     0.029 A 
ATOM     56  C   UNL A   1      43.630  27.548  32.198  1.00  0.00     0.049 A 
ATOM     57  H   UNL A   1      41.869  28.397  31.402  1.00  0.00     0.167 HD
ATOM     58  C   UNL A   1      42.791  29.014  34.017  1.00  0.00     0.074 A 
ATOM     59  C   UNL A   1      42.862  29.577  35.350  1.00  0.00     0.031 C 
ATOM     60  C   UNL A   1      43.683  28.123  33.517  1.00  0.00     0.037 A 
BRANCH  47  61
ATOM     61  C   UNL A   1      42.424  26.229  27.771  1.00  0.00     0.064 A 
ATOM     62  C   UNL A   1      41.840  24.971  27.565  1.00  0.00     0.173 A 
ATOM     63  C   UNL A   1      43.370  26.676  26.837  1.00  0.00     0.173 A 
ATOM     64  F   UNL A   1      40.941  24.493  28.438  1.00  0.00    -0.203 F 
ATOM     65  C   UNL A   1      42.211  24.180  26.481  1.00  0.00     0.198 A 
ATOM     66  C   UNL A   1      43.719  25.893  25.739  1.00  0.00     0.198 A 
ATOM     67  F   UNL A   1      43.958  27.873  26.987  1.00  0.00    -0.203 F 
ATOM     68  F   UNL A   1      41.675  22.960  26.328  1.00  0.00    -0.200 F 
ATOM     69  C   UNL A   1      43.145  24.643  25.567  1.00  0.00     0.200 A 
ATOM     70  F   UNL A   1      44.614  26.347  24.852  1.00  0.00    -0.200 F 
ATOM     71  F   UNL A   1      43.498  23.882  24.522  1.00  0.00    -0.200 F 
ENDBRANCH  47  61
BRANCH  48  72
ATOM     72  C   UNL A   1      39.447  32.062  35.326  1.00  0.00     0.064 A 
ATOM     73  C   UNL A   1      38.588  31.548  36.306  1.00  0.00     0.173 A 
ATOM     74  C   UNL A   1      39.856  33.398  35.453  1.00  0.00     0.173 A 
ATOM     75  F   UNL A   1      38.147  30.284  36.213  1.00  0.00    -0.203 F 
ATOM     76  C   UNL A   1      38.147  32.340  37.364  1.00  0.00     0.198 A 
ATOM     77  C   UNL A   1      39.436  34.182  36.524  1.00  0.00     0.198 A 
ATOM     78  F   UNL A   1      40.673  33.941  34.537  1.00  0.00    -0.203 F 
ATOM     79  F   UNL A   1      37.293  31.837  38.266  1.00  0.00    -0.200 F 
ATOM     80  C   UNL A   1      38.577  33.655  37.476  1.00  0.00     0.200 A 
ATOM     81  F   UNL A   1      39.862  35.448  36.634  1.00  0.00    -0.200 F 
ATOM     82  F   UNL A   1      38.156  34.415  38.496  1.00  0.00    -0.200 F 
ENDBRANCH  48  72
BRANCH  60  83
ATOM     83  C   UNL A   1      44.828  27.727  34.401  1.00  0.00     0.064 A 
ATOM     84  C   UNL A   1      46.017  28.470  34.442  1.00  0.00     0.173 A 
ATOM     85  C   UNL A   1      44.716  26.620  35.255  1.00  0.00     0.173 A 
ATOM     86  F   UNL A   1      46.178  29.530  33.634  1.00  0.00    -0.203 F 
ATOM     87  C   UNL A   1      47.059  28.107  35.291  1.00  0.00     0.198 A 
ATOM     88  C   UNL A   1      45.748  26.275  36.123  1.00  0.00     0.198 A 
ATOM     89  F   UNL A   1      43.596  25.880  35.260  1.00  0.00    -0.203 F 
ATOM     90  F   UNL A   1      48.201  28.808  35.286  1.00  0.00    -0.200 F 
ATOM     91  C   UNL A   1      46.920  27.015  36.136  1.00  0.00     0.200 A 
ATOM     92  F   UNL A   1      45.608  25.228  36.947  1.00  0.00    -0.200 F 
ATOM     93  F   UNL A   1      47.921  26.673  36.959  1.00  0.00    -0.200 F 
ENDBRANCH  60  83
ENDBRANCH  34  35
ENDBRANCH  27  29
ENDBRANCH  26  27
ENDBRANCH  25  26
ENDBRANCH   1  25
TORSDOF 17
ENDMDL
MODEL 2
REMARK VINA RESULT:     -11.3      1.262      2.126
REMARK SMILES NC(=O)C[C@@H](NC(=O)c1ccc(CO)cc1)C(=O)OCCOC(=O)c1ccc(-c2c3nc(c(-c4c(F)c(F)c(F)c(F)c4F)c4ccc([nH]4)c(-c4c(F)c(F)c(F)c(F)c4F)c4nc(c(-c5c(F)c(F)c(F)c(F)c5F)c5ccc2[nH]5)C=C4)C=C3)cc1
REMARK SMILES IDX 20 1 19 2 17 3 18 4 5 5 4 6 2 7 1 8 3 11 6 12 7 13 8 15 9 16
REMARK SMILES IDX 10 17 16 18 11 19 15 20 12 21 13 22 14 23 21 25 22 26 23 27
REMARK SMILES IDX 24 28 25 29 26 30 87 31 27 32 86 33 28 34 29 35 30 36 80 37
REMARK SMILES IDX 31 38 85 39 79 40 81 41 32 42 84 43 78 44 77 45 33 47 65 48
REMARK SMILES IDX 45 49 64 50 46 51 49 52 63 53 82 54 47 55 48 56 62 58 83 59
REMARK SMILES IDX 50 60 34 61 35 62 43 63 36 64 37 65 41 66 44 67 38 68 39 69
REMARK SMILES IDX 42 70 40 71 66 72 67 73 75 74 68 75 69 76 73 77 76 78 70 79
REMARK SMILES IDX 71 80 74 81 72 82 51 83 52 84 60 85 53 86 54 87 58 88 61 89
REMARK SMILES IDX 55 90 56 91 59 92 57 93
REMARK H PARENT 1 9 1 10 6 14 14 24 81 46 49 57
REMARK Flexibility Score: inf
ROOT
ATOM      1  C   UNL A   1      31.459  28.577  25.422  1.00  0.00     0.274 C 
ENDROOT
BRANCH   1   2
ATOM      2  O   UNL A   1      32.138  27.321  25.635  1.00  0.00    -0.461 OA
BRANCH   2   3
ATOM      3  C   UNL A   1      31.361  26.211  25.518  1.00  0.00     0.329 C 
ATOM      4  O   UNL A   1      30.501  25.881  26.328  1.00  0.00    -0.250 OA
BRANCH   3   5
ATOM      5  C   UNL A   1      31.704  25.340  24.303  1.00  0.00     0.201 C 
BRANCH   5   6
ATOM      6  C   UNL A   1      30.940  25.832  23.067  1.00  0.00     0.136 C 
BRANCH   6   7
ATOM      7  C   UNL A   1      31.915  26.413  22.079  1.00  0.00     0.220 C 
ATOM      8  N   UNL A   1      31.877  25.872  20.828  1.00  0.00    -0.370 N 
ATOM      9  H   UNL A   1      32.487  26.204  20.130  1.00  0.00     0.159 HD
ATOM     10  H   UNL A   1      31.240  25.151  20.624  1.00  0.00     0.159 HD
ATOM     11  O   UNL A   1      32.653  27.356  22.343  1.00  0.00    -0.275 OA
ENDBRANCH   6   7
ENDBRANCH   5   6
BRANCH   5  12
ATOM     12  N   UNL A   1      33.128  25.103  23.967  1.00  0.00    -0.338 N 
ATOM     13  C   UNL A   1      33.759  23.968  23.523  1.00  0.00     0.251 C 
ATOM     14  H   UNL A   1      33.715  25.885  24.081  1.00  0.00     0.164 HD
ATOM     15  O   UNL A   1      34.752  24.048  22.811  1.00  0.00    -0.269 OA
BRANCH  13  16
ATOM     16  C   UNL A   1      33.338  22.661  24.043  1.00  0.00     0.039 A 
ATOM     17  C   UNL A   1      32.644  21.803  23.187  1.00  0.00     0.014 A 
ATOM     18  C   UNL A   1      33.661  22.273  25.341  1.00  0.00     0.014 A 
ATOM     19  C   UNL A   1      32.366  20.500  23.599  1.00  0.00     0.007 A 
ATOM     20  C   UNL A   1      33.409  20.956  25.738  1.00  0.00     0.007 A 
ATOM     21  C   UNL A   1      32.804  20.049  24.853  1.00  0.00    -0.023 A 
BRANCH  21  22
ATOM     22  C   UNL A   1      32.671  18.594  25.218  1.00  0.00     0.191 C 
BRANCH  22  23
ATOM     23  O   UNL A   1      32.820  18.401  26.613  1.00  0.00    -0.392 OA
ATOM     24  H   UNL A   1      33.727  18.623  26.875  1.00  0.00     0.211 HD
ENDBRANCH  22  23
ENDBRANCH  21  22
ENDBRANCH  13  16
ENDBRANCH   5  12
ENDBRANCH   3   5
ENDBRANCH   2   3
ENDBRANCH   1   2
BRANCH   1  25
ATOM     25  C   UNL A   1      31.824  29.678  26.425  1.00  0.00     0.275 C 
BRANCH  25  26
ATOM     26  O   UNL A   1      33.129  30.234  26.182  1.00  0.00    -0.458 OA
BRANCH  26  27
ATOM     27  C   UNL A   1      33.482  31.230  27.029  1.00  0.00     0.338 C 
ATOM     28  O   UNL A   1      32.772  32.151  27.401  1.00  0.00    -0.246 OA
BRANCH  27  29
ATOM     29  C   UNL A   1      34.818  30.977  27.605  1.00  0.00     0.060 A 
ATOM     30  C   UNL A   1      35.137  29.653  27.932  1.00  0.00     0.016 A 
ATOM     31  C   UNL A   1      35.717  32.010  27.883  1.00  0.00     0.016 A 
ATOM     32  C   UNL A   1      36.345  29.355  28.555  1.00  0.00     0.010 A 
ATOM     33  C   UNL A   1      36.921  31.713  28.530  1.00  0.00     0.010 A 
ATOM     34  C   UNL A   1      37.227  30.387  28.890  1.00  0.00    -0.014 A 
BRANCH  34  35
ATOM     35  C   UNL A   1      38.396  30.093  29.750  1.00  0.00     0.031 A 
ATOM     36  C   UNL A   1      39.467  29.182  29.225  1.00  0.00     0.074 A 
ATOM     37  C   UNL A   1      38.516  30.656  30.964  1.00  0.00     0.049 A 
ATOM     38  N   UNL A   1      40.532  28.716  29.824  1.00  0.00    -0.248 NA
ATOM     39  C   UNL A   1      39.315  28.736  27.831  1.00  0.00     0.031 C 
ATOM     40  C   UNL A   1      37.573  31.608  31.548  1.00  0.00     0.029 A 
ATOM     41  N   UNL A   1      39.482  30.501  31.925  1.00  0.00    -0.354 N 
ATOM     42  C   UNL A   1      41.167  27.912  28.889  1.00  0.00     0.074 A 
ATOM     43  C   UNL A   1      40.362  27.937  27.687  1.00  0.00     0.031 C 
ATOM     44  C   UNL A   1      38.000  31.942  32.778  1.00  0.00     0.029 A 
ATOM     45  C   UNL A   1      39.222  31.197  33.080  1.00  0.00     0.049 A 
ATOM     46  H   UNL A   1      40.285  29.945  31.800  1.00  0.00     0.167 HD
ATOM     47  C   UNL A   1      42.321  27.216  29.023  1.00  0.00     0.037 A 
ATOM     48  C   UNL A   1      39.881  31.203  34.254  1.00  0.00     0.037 A 
ATOM     49  C   UNL A   1      43.121  27.203  30.220  1.00  0.00     0.049 A 
ATOM     50  C   UNL A   1      41.122  30.362  34.405  1.00  0.00     0.074 A 
ATOM     51  C   UNL A   1      44.310  26.537  30.457  1.00  0.00     0.029 A 
ATOM     52  N   UNL A   1      42.807  27.891  31.383  1.00  0.00    -0.354 N 
ATOM     53  N   UNL A   1      41.715  29.594  33.522  1.00  0.00    -0.248 NA
ATOM     54  C   UNL A   1      41.782  30.382  35.718  1.00  0.00     0.031 C 
ATOM     55  C   UNL A   1      44.691  26.786  31.780  1.00  0.00     0.029 A 
ATOM     56  C   UNL A   1      43.767  27.645  32.351  1.00  0.00     0.049 A 
ATOM     57  H   UNL A   1      42.018  28.469  31.502  1.00  0.00     0.167 HD
ATOM     58  C   UNL A   1      42.825  29.059  34.161  1.00  0.00     0.074 A 
ATOM     59  C   UNL A   1      42.832  29.601  35.504  1.00  0.00     0.031 C 
ATOM     60  C   UNL A   1      43.756  28.198  33.681  1.00  0.00     0.037 A 
BRANCH  47  61
ATOM     61  C   UNL A   1      42.761  26.378  27.859  1.00  0.00     0.064 A 
ATOM     62  C   UNL A   1      42.326  25.056  27.691  1.00  0.00     0.173 A 
ATOM     63  C   UNL A   1      43.619  26.917  26.888  1.00  0.00     0.173 A 
ATOM     64  F   UNL A   1      41.518  24.491  28.601  1.00  0.00    -0.203 F 
ATOM     65  C   UNL A   1      42.754  24.294  26.607  1.00  0.00     0.198 A 
ATOM     66  C   UNL A   1      44.023  26.161  25.791  1.00  0.00     0.198 A 
ATOM     67  F   UNL A   1      44.063  28.178  27.001  1.00  0.00    -0.203 F 
ATOM     68  F   UNL A   1      42.363  23.018  26.490  1.00  0.00    -0.200 F 
ATOM     69  C   UNL A   1      43.598  24.848  25.656  1.00  0.00     0.200 A 
ATOM     70  F   UNL A   1      44.830  26.702  24.868  1.00  0.00    -0.200 F 
ATOM     71  F   UNL A   1      44.006  24.115  24.611  1.00  0.00    -0.200 F 
ENDBRANCH  47  61
BRANCH  48  72
ATOM     72  C   UNL A   1      39.364  32.009  35.390  1.00  0.00     0.064 A 
ATOM     73  C   UNL A   1      39.725  33.353  35.549  1.00  0.00     0.173 A 
ATOM     74  C   UNL A   1      38.503  31.447  36.345  1.00  0.00     0.173 A 
ATOM     75  F   UNL A   1      40.568  33.928  34.677  1.00  0.00    -0.203 F 
ATOM     76  C   UNL A   1      39.255  34.102  36.625  1.00  0.00     0.198 A 
ATOM     77  C   UNL A   1      38.012  32.203  37.406  1.00  0.00     0.198 A 
ATOM     78  F   UNL A   1      38.132  30.162  36.242  1.00  0.00    -0.203 F 
ATOM     79  F   UNL A   1      39.649  35.374  36.779  1.00  0.00    -0.200 F 
ATOM     80  C   UNL A   1      38.393  33.529  37.550  1.00  0.00     0.200 A 
ATOM     81  F   UNL A   1      37.172  31.648  38.291  1.00  0.00    -0.200 F 
ATOM     82  F   UNL A   1      37.937  34.250  38.583  1.00  0.00    -0.200 F 
ENDBRANCH  48  72
BRANCH  60  83
ATOM     83  C   UNL A   1      44.876  27.812  34.602  1.00  0.00     0.064 A 
ATOM     84  C   UNL A   1      46.044  28.582  34.702  1.00  0.00     0.173 A 
ATOM     85  C   UNL A   1      44.757  26.687  35.431  1.00  0.00     0.173 A 
ATOM     86  F   UNL A   1      46.211  29.660  33.920  1.00  0.00    -0.203 F 
ATOM     87  C   UNL A   1      47.060  28.227  35.584  1.00  0.00     0.198 A 
ATOM     88  C   UNL A   1      45.763  26.351  36.332  1.00  0.00     0.198 A 
ATOM     89  F   UNL A   1      43.656  25.922  35.379  1.00  0.00    -0.203 F 
ATOM     90  F   UNL A   1      48.185  28.954  35.635  1.00  0.00    -0.200 F 
ATOM     91  C   UNL A   1      46.915  27.117  36.403  1.00  0.00     0.200 A 
ATOM     92  F   UNL A   1      45.616  25.285  37.132  1.00  0.00    -0.200 F 
ATOM     93  F   UNL A   1      47.892  26.783  37.259  1.00  0.00    -0.200 F 
ENDBRANCH  60  83
ENDBRANCH  34  35
ENDBRANCH  27  29
ENDBRANCH  26  27
ENDBRANCH  25  26
ENDBRANCH   1  25
TORSDOF 17
ENDMDL
MODEL 3
REMARK VINA RESULT:     -11.3      1.410      2.639
REMARK SMILES NC(=O)C[C@@H](NC(=O)c1ccc(CO)cc1)C(=O)OCCOC(=O)c1ccc(-c2c3nc(c(-c4c(F)c(F)c(F)c(F)c4F)c4ccc([nH]4)c(-c4c(F)c(F)c(F)c(F)c4F)c4nc(c(-c5c(F)c(F)c(F)c(F)c5F)c5ccc2[nH]5)C=C4)C=C3)cc1
REMARK SMILES IDX 20 1 19 2 17 3 18 4 5 5 4 6 2 7 1 8 3 11 6 12 7 13 8 15 9 16
REMARK SMILES IDX 10 17 16 18 11 19 15 20 12 21 13 22 14 23 21 25 22 26 23 27
REMARK SMILES IDX 24 28 25 29 26 30 87 31 27 32 86 33 28 34 29 35 30 36 80 37
REMARK SMILES IDX 31 38 85 39 79 40 81 41 32 42 84 43 78 44 77 45 33 47 65 48
REMARK SMILES IDX 45 49 64 50 46 51 49 52 63 53 82 54 47 55 48 56 62 58 83 59
REMARK SMILES IDX 50 60 34 61 35 62 43 63 36 64 37 65 41 66 44 67 38 68 39 69
REMARK SMILES IDX 42 70 40 71 66 72 67 73 75 74 68 75 69 76 73 77 76 78 70 79
REMARK SMILES IDX 71 80 74 81 72 82 51 83 52 84 60 85 53 86 54 87 58 88 61 89
REMARK SMILES IDX 55 90 56 91 59 92 57 93
REMARK H PARENT 1 9 1 10 6 14 14 24 81 46 49 57
REMARK Flexibility Score: inf
ROOT
ATOM      1  C   UNL A   1      32.023  28.526  27.258  1.00  0.00     0.274 C 
ENDROOT
BRANCH   1   2
ATOM      2  O   UNL A   1      31.656  27.604  26.210  1.00  0.00    -0.461 OA
BRANCH   2   3
ATOM      3  C   UNL A   1      32.601  27.405  25.253  1.00  0.00     0.329 C 
ATOM      4  O   UNL A   1      33.785  27.184  25.486  1.00  0.00    -0.250 OA
BRANCH   3   5
ATOM      5  C   UNL A   1      32.075  27.558  23.821  1.00  0.00     0.201 C 
BRANCH   5   6
ATOM      6  C   UNL A   1      31.515  28.971  23.611  1.00  0.00     0.136 C 
BRANCH   6   7
ATOM      7  C   UNL A   1      30.698  28.999  22.348  1.00  0.00     0.220 C 
ATOM      8  N   UNL A   1      30.769  30.155  21.628  1.00  0.00    -0.370 N 
ATOM      9  H   UNL A   1      30.260  30.244  20.790  1.00  0.00     0.159 HD
ATOM     10  H   UNL A   1      31.329  30.899  21.946  1.00  0.00     0.159 HD
ATOM     11  O   UNL A   1      30.061  28.034  21.942  1.00  0.00    -0.275 OA
ENDBRANCH   6   7
ENDBRANCH   5   6
BRANCH   5  12
ATOM     12  N   UNL A   1      32.954  27.180  22.688  1.00  0.00    -0.338 N 
ATOM     13  C   UNL A   1      33.073  25.990  22.015  1.00  0.00     0.251 C 
ATOM     14  H   UNL A   1      33.547  27.897  22.368  1.00  0.00     0.164 HD
ATOM     15  O   UNL A   1      33.409  25.974  20.837  1.00  0.00    -0.269 OA
BRANCH  13  16
ATOM     16  C   UNL A   1      32.961  24.729  22.758  1.00  0.00     0.039 A 
ATOM     17  C   UNL A   1      31.696  24.150  22.888  1.00  0.00     0.014 A 
ATOM     18  C   UNL A   1      34.092  24.106  23.281  1.00  0.00     0.014 A 
ATOM     19  C   UNL A   1      31.576  22.882  23.452  1.00  0.00     0.007 A 
ATOM     20  C   UNL A   1      33.971  22.821  23.817  1.00  0.00     0.007 A 
ATOM     21  C   UNL A   1      32.721  22.182  23.862  1.00  0.00    -0.023 A 
BRANCH  21  22
ATOM     22  C   UNL A   1      32.611  20.743  24.294  1.00  0.00     0.191 C 
BRANCH  22  23
ATOM     23  O   UNL A   1      32.293  19.904  23.199  1.00  0.00    -0.392 OA
ATOM     24  H   UNL A   1      32.870  19.123  23.213  1.00  0.00     0.211 HD
ENDBRANCH  22  23
ENDBRANCH  21  22
ENDBRANCH  13  16
ENDBRANCH   5  12
ENDBRANCH   3   5
ENDBRANCH   2   3
ENDBRANCH   1   2
BRANCH   1  25
ATOM     25  C   UNL A   1      31.873  30.006  26.888  1.00  0.00     0.275 C 
BRANCH  25  26
ATOM     26  O   UNL A   1      33.114  30.594  26.456  1.00  0.00    -0.458 OA
BRANCH  26  27
ATOM     27  C   UNL A   1      33.570  31.592  27.250  1.00  0.00     0.338 C 
ATOM     28  O   UNL A   1      32.945  32.579  27.603  1.00  0.00    -0.246 OA
BRANCH  27  29
ATOM     29  C   UNL A   1      34.899  31.257  27.799  1.00  0.00     0.060 A 
ATOM     30  C   UNL A   1      35.112  29.935  28.209  1.00  0.00     0.016 A 
ATOM     31  C   UNL A   1      35.896  32.220  27.973  1.00  0.00     0.016 A 
ATOM     32  C   UNL A   1      36.312  29.570  28.812  1.00  0.00     0.010 A 
ATOM     33  C   UNL A   1      37.094  31.858  28.600  1.00  0.00     0.010 A 
ATOM     34  C   UNL A   1      37.295  30.538  29.043  1.00  0.00    -0.014 A 
BRANCH  34  35
ATOM     35  C   UNL A   1      38.465  30.197  29.884  1.00  0.00     0.031 A 
ATOM     36  C   UNL A   1      39.508  29.272  29.326  1.00  0.00     0.074 A 
ATOM     37  C   UNL A   1      38.612  30.731  31.108  1.00  0.00     0.049 A 
ATOM     38  N   UNL A   1      40.569  28.769  29.903  1.00  0.00    -0.248 NA
ATOM     39  C   UNL A   1      39.330  28.860  27.925  1.00  0.00     0.031 C 
ATOM     40  C   UNL A   1      37.699  31.692  31.723  1.00  0.00     0.029 A 
ATOM     41  N   UNL A   1      39.585  30.532  32.054  1.00  0.00    -0.354 N 
ATOM     42  C   UNL A   1      41.173  27.969  28.944  1.00  0.00     0.074 A 
ATOM     43  C   UNL A   1      40.356  28.040  27.752  1.00  0.00     0.031 C 
ATOM     44  C   UNL A   1      38.148  31.988  32.955  1.00  0.00     0.029 A 
ATOM     45  C   UNL A   1      39.354  31.208  33.226  1.00  0.00     0.049 A 
ATOM     46  H   UNL A   1      40.372  29.960  31.908  1.00  0.00     0.167 HD
ATOM     47  C   UNL A   1      42.311  27.243  29.050  1.00  0.00     0.037 A 
ATOM     48  C   UNL A   1      40.026  31.173  34.393  1.00  0.00     0.037 A 
ATOM     49  C   UNL A   1      43.123  27.185  30.237  1.00  0.00     0.049 A 
ATOM     50  C   UNL A   1      41.248  30.299  34.512  1.00  0.00     0.074 A 
ATOM     51  C   UNL A   1      44.299  26.486  30.446  1.00  0.00     0.029 A 
ATOM     52  N   UNL A   1      42.839  27.855  31.418  1.00  0.00    -0.354 N 
ATOM     53  N   UNL A   1      41.812  29.537  33.605  1.00  0.00    -0.248 NA
ATOM     54  C   UNL A   1      41.923  30.275  35.817  1.00  0.00     0.031 C 
ATOM     55  C   UNL A   1      44.700  26.697  31.769  1.00  0.00     0.029 A 
ATOM     56  C   UNL A   1      43.803  27.565  32.369  1.00  0.00     0.049 A 
ATOM     57  H   UNL A   1      42.066  28.449  31.559  1.00  0.00     0.167 HD
ATOM     58  C   UNL A   1      42.916  28.962  34.220  1.00  0.00     0.074 A 
ATOM     59  C   UNL A   1      42.951  29.474  35.575  1.00  0.00     0.031 C 
ATOM     60  C   UNL A   1      43.821  28.089  33.711  1.00  0.00     0.037 A 
BRANCH  47  61
ATOM     61  C   UNL A   1      42.719  26.421  27.863  1.00  0.00     0.064 A 
ATOM     62  C   UNL A   1      43.610  26.908  26.896  1.00  0.00     0.173 A 
ATOM     63  C   UNL A   1      42.222  25.119  27.703  1.00  0.00     0.173 A 
ATOM     64  F   UNL A   1      44.100  28.152  26.996  1.00  0.00    -0.203 F 
ATOM     65  C   UNL A   1      43.968  26.130  25.798  1.00  0.00     0.198 A 
ATOM     66  C   UNL A   1      42.603  24.335  26.618  1.00  0.00     0.198 A 
ATOM     67  F   UNL A   1      41.366  24.605  28.601  1.00  0.00    -0.203 F 
ATOM     68  F   UNL A   1      44.785  26.632  24.861  1.00  0.00    -0.200 F 
ATOM     69  C   UNL A   1      43.469  24.843  25.662  1.00  0.00     0.200 A 
ATOM     70  F   UNL A   1      42.127  23.088  26.495  1.00  0.00    -0.200 F 
ATOM     71  F   UNL A   1      43.818  24.095  24.607  1.00  0.00    -0.200 F 
ENDBRANCH  47  61
BRANCH  48  72
ATOM     72  C   UNL A   1      39.540  31.966  35.552  1.00  0.00     0.064 A 
ATOM     73  C   UNL A   1      40.041  33.249  35.813  1.00  0.00     0.173 A 
ATOM     74  C   UNL A   1      38.571  31.454  36.426  1.00  0.00     0.173 A 
ATOM     75  F   UNL A   1      40.990  33.772  35.021  1.00  0.00    -0.203 F 
ATOM     76  C   UNL A   1      39.599  33.984  36.911  1.00  0.00     0.198 A 
ATOM     77  C   UNL A   1      38.111  32.198  37.509  1.00  0.00     0.198 A 
ATOM     78  F   UNL A   1      38.064  30.228  36.224  1.00  0.00    -0.203 F 
ATOM     79  F   UNL A   1      40.124  35.190  37.164  1.00  0.00    -0.200 F 
ATOM     80  C   UNL A   1      38.629  33.461  37.755  1.00  0.00     0.200 A 
ATOM     81  F   UNL A   1      37.166  31.693  38.315  1.00  0.00    -0.200 F 
ATOM     82  F   UNL A   1      38.201  34.169  38.809  1.00  0.00    -0.200 F 
ENDBRANCH  48  72
BRANCH  60  83
ATOM     83  C   UNL A   1      44.940  27.657  34.611  1.00  0.00     0.064 A 
ATOM     84  C   UNL A   1      46.122  28.404  34.725  1.00  0.00     0.173 A 
ATOM     85  C   UNL A   1      44.809  26.509  35.406  1.00  0.00     0.173 A 
ATOM     86  F   UNL A   1      46.301  29.502  33.975  1.00  0.00    -0.203 F 
ATOM     87  C   UNL A   1      47.139  28.005  35.588  1.00  0.00     0.198 A 
ATOM     88  C   UNL A   1      45.816  26.128  36.288  1.00  0.00     0.198 A 
ATOM     89  F   UNL A   1      43.695  25.764  35.339  1.00  0.00    -0.203 F 
ATOM     90  F   UNL A   1      48.276  28.711  35.652  1.00  0.00    -0.200 F 
ATOM     91  C   UNL A   1      46.982  26.873  36.374  1.00  0.00     0.200 A 
ATOM     92  F   UNL A   1      45.657  25.041  37.056  1.00  0.00    -0.200 F 
ATOM     93  F   UNL A   1      47.959  26.496  37.211  1.00  0.00    -0.200 F 
ENDBRANCH  60  83
ENDBRANCH  34  35
ENDBRANCH  27  29
ENDBRANCH  26  27
ENDBRANCH  25  26
ENDBRANCH   1  25
TORSDOF 17
ENDMDL
