MODEL 1
REMARK VINA RESULT:     -12.2      0.000      0.000
REMARK SMILES O=C(C[C@H](Cc1ccc(Cl)cc1)C(=O)Nc1cc(Cl)ccc1Cl)OCCOC(=O)c1ccc(-c2c3nc(c(-c4c(F)c(F)c(F)c(F)c4F)c4ccc([nH]4)c(-c4c(F)c(F)c(F)c(F)c4F)c4nc(c(-c5c(F)c(F)c(F)c(F)c5F)c5ccc2[nH]5)C=C4)C=C3)cc1
REMARK SMILES IDX 25 1 24 2 2 3 1 4 3 5 4 6 13 7 14 8 15 9 16 11 17 12 22 13
REMARK SMILES IDX 18 14 21 15 23 16 19 17 20 18 5 19 6 20 7 21 12 22 8 23
REMARK SMILES IDX 11 24 9 25 10 26 26 27 27 28 28 29 29 30 30 31 31 32 92 33
REMARK SMILES IDX 32 34 91 35 33 36 34 37 35 38 85 39 36 40 90 41 84 42 86 43
REMARK SMILES IDX 37 44 89 45 83 46 82 47 38 49 70 50 50 51 69 52 51 53 54 54
REMARK SMILES IDX 68 55 87 56 52 57 53 58 67 60 88 61 55 62 39 63 40 64 48 65
REMARK SMILES IDX 41 66 42 67 46 68 49 69 43 70 44 71 47 72 45 73 71 74 72 75
REMARK SMILES IDX 80 76 73 77 74 78 78 79 81 80 75 81 76 82 79 83 77 84 56 85
REMARK SMILES IDX 57 86 65 87 58 88 59 89 63 90 66 91 60 92 61 93 64 94 62 95
REMARK H PARENT 15 10 86 48 54 59
REMARK Flexibility Score: inf
ROOT
ATOM      1  C   UNL A   1      31.418  28.562  25.633  1.00  0.00     0.274 C 
ENDROOT
BRANCH   1   2
ATOM      2  O   UNL A   1      31.023  27.406  26.382  1.00  0.00    -0.462 OA
BRANCH   2   3
ATOM      3  C   UNL A   1      31.629  26.212  26.255  1.00  0.00     0.306 C 
ATOM      4  O   UNL A   1      32.825  26.108  26.508  1.00  0.00    -0.252 OA
BRANCH   3   5
ATOM      5  C   UNL A   1      30.810  25.037  25.782  1.00  0.00     0.136 C 
BRANCH   5   6
ATOM      6  C   UNL A   1      31.550  23.709  25.508  1.00  0.00     0.094 C 
BRANCH   6   7
ATOM      7  C   UNL A   1      31.463  22.937  26.900  1.00  0.00     0.228 C 
ATOM      8  O   UNL A   1      30.468  23.086  27.618  1.00  0.00    -0.274 OA
ATOM      9  N   UNL A   1      32.314  21.896  27.211  1.00  0.00    -0.324 N 
ATOM     10  H   UNL A   1      31.987  21.216  27.845  1.00  0.00     0.169 HD
BRANCH   9  11
ATOM     11  C   UNL A   1      33.598  21.729  26.700  1.00  0.00     0.061 A 
ATOM     12  C   UNL A   1      34.700  22.938  27.084  1.00  0.00     0.048 A 
ATOM     13  C   UNL A   1      34.064  20.564  25.574  1.00  0.00     0.064 A 
ATOM     14  C   UNL A   1      36.496  23.151  26.196  1.00  0.00     0.043 A 
ATOM     15  C   UNL A   1      35.638  20.598  24.680  1.00  0.00     0.024 A 
ATOM     16  Cl  UNL A   1      32.728  19.469  25.552  1.00  0.00    -0.082 Cl
ATOM     17  Cl  UNL A   1      37.883  24.274  26.305  1.00  0.00    -0.084 Cl
ATOM     18  C   UNL A   1      36.892  21.869  24.955  1.00  0.00     0.022 A 
ENDBRANCH   9  11
ENDBRANCH   6   7
BRANCH   6  19
ATOM     19  C   UNL A   1      31.487  23.009  24.031  1.00  0.00     0.049 C 
BRANCH  19  20
ATOM     20  C   UNL A   1      32.278  23.662  22.672  1.00  0.00    -0.047 A 
ATOM     21  C   UNL A   1      33.918  23.602  23.241  1.00  0.00     0.005 A 
ATOM     22  C   UNL A   1      31.482  25.200  22.138  1.00  0.00     0.005 A 
ATOM     23  C   UNL A   1      34.701  25.122  23.695  1.00  0.00     0.021 A 
ATOM     24  C   UNL A   1      32.203  26.805  22.421  1.00  0.00     0.021 A 
ATOM     25  C   UNL A   1      33.808  26.886  23.257  1.00  0.00     0.041 A 
ATOM     26  Cl  UNL A   1      34.189  28.655  23.216  1.00  0.00    -0.084 Cl
ENDBRANCH  19  20
ENDBRANCH   6  19
ENDBRANCH   5   6
ENDBRANCH   3   5
ENDBRANCH   2   3
ENDBRANCH   1   2
BRANCH   1  27
ATOM     27  C   UNL A   1      31.724  29.777  26.534  1.00  0.00     0.275 C 
BRANCH  27  28
ATOM     28  O   UNL A   1      32.936  30.527  26.201  1.00  0.00    -0.458 OA
BRANCH  28  29
ATOM     29  C   UNL A   1      33.395  31.440  27.107  1.00  0.00     0.338 C 
ATOM     30  O   UNL A   1      32.737  32.363  27.558  1.00  0.00    -0.246 OA
BRANCH  29  31
ATOM     31  C   UNL A   1      34.783  31.112  27.614  1.00  0.00     0.060 A 
ATOM     32  C   UNL A   1      35.141  29.772  27.813  1.00  0.00     0.016 A 
ATOM     33  C   UNL A   1      35.735  32.078  27.955  1.00  0.00     0.016 A 
ATOM     34  C   UNL A   1      36.448  29.407  28.254  1.00  0.00     0.010 A 
ATOM     35  C   UNL A   1      37.032  31.706  28.440  1.00  0.00     0.010 A 
ATOM     36  C   UNL A   1      37.462  30.360  28.523  1.00  0.00    -0.014 A 
BRANCH  36  37
ATOM     37  C   UNL A   1      38.811  29.877  29.117  1.00  0.00     0.031 A 
ATOM     38  C   UNL A   1      38.985  30.234  30.554  1.00  0.00     0.074 A 
ATOM     39  C   UNL A   1      39.904  29.228  28.592  1.00  0.00     0.049 A 
ATOM     40  N   UNL A   1      39.921  29.859  31.379  1.00  0.00    -0.248 NA
ATOM     41  C   UNL A   1      38.063  31.250  31.078  1.00  0.00     0.031 C 
ATOM     42  C   UNL A   1      40.348  29.152  27.219  1.00  0.00     0.029 A 
ATOM     43  N   UNL A   1      40.815  28.333  29.175  1.00  0.00    -0.354 N 
ATOM     44  C   UNL A   1      39.756  30.657  32.488  1.00  0.00     0.074 A 
ATOM     45  C   UNL A   1      38.624  31.523  32.239  1.00  0.00     0.031 C 
ATOM     46  C   UNL A   1      41.110  28.077  26.994  1.00  0.00     0.029 A 
ATOM     47  C   UNL A   1      41.447  27.480  28.255  1.00  0.00     0.049 A 
ATOM     48  H   UNL A   1      40.994  28.304  30.143  1.00  0.00     0.167 HD
ATOM     49  C   UNL A   1      40.524  30.700  33.593  1.00  0.00     0.037 A 
ATOM     50  C   UNL A   1      42.288  26.420  28.358  1.00  0.00     0.037 A 
ATOM     51  C   UNL A   1      41.704  29.906  33.789  1.00  0.00     0.049 A 
ATOM     52  C   UNL A   1      43.025  26.361  29.659  1.00  0.00     0.074 A 
ATOM     53  C   UNL A   1      42.547  29.899  34.883  1.00  0.00     0.029 A 
ATOM     54  N   UNL A   1      42.233  29.007  32.867  1.00  0.00    -0.354 N 
ATOM     55  N   UNL A   1      42.825  27.089  30.725  1.00  0.00    -0.248 NA
ATOM     56  C   UNL A   1      44.199  25.481  29.730  1.00  0.00     0.031 C 
ATOM     57  C   UNL A   1      43.618  29.048  34.602  1.00  0.00     0.029 A 
ATOM     58  C   UNL A   1      43.388  28.435  33.382  1.00  0.00     0.049 A 
ATOM     59  H   UNL A   1      41.847  28.809  31.984  1.00  0.00     0.167 HD
ATOM     60  C   UNL A   1      43.870  26.804  31.575  1.00  0.00     0.074 A 
ATOM     61  C   UNL A   1      44.661  25.768  30.938  1.00  0.00     0.031 C 
ATOM     62  C   UNL A   1      44.163  27.394  32.755  1.00  0.00     0.037 A 
BRANCH  49  63
ATOM     63  C   UNL A   1      40.132  31.727  34.604  1.00  0.00     0.064 A 
ATOM     64  C   UNL A   1      40.779  32.970  34.682  1.00  0.00     0.173 A 
ATOM     65  C   UNL A   1      39.167  31.419  35.573  1.00  0.00     0.173 A 
ATOM     66  F   UNL A   1      41.754  33.281  33.811  1.00  0.00    -0.203 F 
ATOM     67  C   UNL A   1      40.509  33.847  35.725  1.00  0.00     0.198 A 
ATOM     68  C   UNL A   1      38.863  32.323  36.583  1.00  0.00     0.198 A 
ATOM     69  F   UNL A   1      38.547  30.230  35.559  1.00  0.00    -0.203 F 
ATOM     70  F   UNL A   1      41.220  34.977  35.846  1.00  0.00    -0.200 F 
ATOM     71  C   UNL A   1      39.545  33.528  36.667  1.00  0.00     0.200 A 
ATOM     72  F   UNL A   1      37.929  32.013  37.493  1.00  0.00    -0.200 F 
ATOM     73  F   UNL A   1      39.288  34.372  37.675  1.00  0.00    -0.200 F 
ENDBRANCH  49  63
BRANCH  50  74
ATOM     74  C   UNL A   1      42.647  25.447  27.248  1.00  0.00     0.064 A 
ATOM     75  C   UNL A   1      41.871  24.280  27.058  1.00  0.00     0.173 A 
ATOM     76  C   UNL A   1      43.764  25.567  26.405  1.00  0.00     0.173 A 
ATOM     77  F   UNL A   1      40.833  24.028  27.871  1.00  0.00    -0.203 F 
ATOM     78  C   UNL A   1      42.189  23.316  26.091  1.00  0.00     0.198 A 
ATOM     79  C   UNL A   1      44.030  24.651  25.380  1.00  0.00     0.198 A 
ATOM     80  F   UNL A   1      44.661  26.543  26.599  1.00  0.00    -0.203 F 
ATOM     81  F   UNL A   1      41.484  22.177  26.018  1.00  0.00    -0.200 F 
ATOM     82  C   UNL A   1      43.251  23.518  25.229  1.00  0.00     0.200 A 
ATOM     83  F   UNL A   1      45.068  24.855  24.556  1.00  0.00    -0.200 F 
ATOM     84  F   UNL A   1      43.549  22.609  24.290  1.00  0.00    -0.200 F 
ENDBRANCH  50  74
BRANCH  62  85
ATOM     85  C   UNL A   1      45.336  26.837  33.494  1.00  0.00     0.064 A 
ATOM     86  C   UNL A   1      46.638  27.333  33.334  1.00  0.00     0.173 A 
ATOM     87  C   UNL A   1      45.138  25.754  34.361  1.00  0.00     0.173 A 
ATOM     88  F   UNL A   1      46.878  28.353  32.495  1.00  0.00    -0.203 F 
ATOM     89  C   UNL A   1      47.709  26.725  33.980  1.00  0.00     0.198 A 
ATOM     90  C   UNL A   1      46.203  25.183  35.041  1.00  0.00     0.198 A 
ATOM     91  F   UNL A   1      43.908  25.247  34.540  1.00  0.00    -0.203 F 
ATOM     92  F   UNL A   1      48.958  27.150  33.746  1.00  0.00    -0.200 F 
ATOM     93  C   UNL A   1      47.490  25.656  34.838  1.00  0.00     0.200 A 
ATOM     94  F   UNL A   1      45.984  24.163  35.882  1.00  0.00    -0.200 F 
ATOM     95  F   UNL A   1      48.522  25.069  35.456  1.00  0.00    -0.200 F 
ENDBRANCH  62  85
ENDBRANCH  36  37
ENDBRANCH  29  31
ENDBRANCH  28  29
ENDBRANCH  27  28
ENDBRANCH   1  27
TORSDOF 16
ENDMDL
MODEL 2
REMARK VINA RESULT:     -12.1      1.638      2.799
REMARK SMILES O=C(C[C@H](Cc1ccc(Cl)cc1)C(=O)Nc1cc(Cl)ccc1Cl)OCCOC(=O)c1ccc(-c2c3nc(c(-c4c(F)c(F)c(F)c(F)c4F)c4ccc([nH]4)c(-c4c(F)c(F)c(F)c(F)c4F)c4nc(c(-c5c(F)c(F)c(F)c(F)c5F)c5ccc2[nH]5)C=C4)C=C3)cc1
REMARK SMILES IDX 25 1 24 2 2 3 1 4 3 5 4 6 13 7 14 8 15 9 16 11 17 12 22 13
REMARK SMILES IDX 18 14 21 15 23 16 19 17 20 18 5 19 6 20 7 21 12 22 8 23
REMARK SMILES IDX 11 24 9 25 10 26 26 27 27 28 28 29 29 30 30 31 31 32 92 33
REMARK SMILES IDX 32 34 91 35 33 36 34 37 35 38 85 39 36 40 90 41 84 42 86 43
REMARK SMILES IDX 37 44 89 45 83 46 82 47 38 49 70 50 50 51 69 52 51 53 54 54
REMARK SMILES IDX 68 55 87 56 52 57 53 58 67 60 88 61 55 62 39 63 40 64 48 65
REMARK SMILES IDX 41 66 42 67 46 68 49 69 43 70 44 71 47 72 45 73 71 74 72 75
REMARK SMILES IDX 80 76 73 77 74 78 78 79 81 80 75 81 76 82 79 83 77 84 56 85
REMARK SMILES IDX 57 86 65 87 58 88 59 89 63 90 66 91 60 92 61 93 64 94 62 95
REMARK H PARENT 15 10 86 48 54 59
REMARK Flexibility Score: inf
ROOT
ATOM      1  C   UNL A   1      30.849  27.852  24.825  1.00  0.00     0.274 C 
ENDROOT
BRANCH   1   2
ATOM      2  O   UNL A   1      31.274  27.047  23.718  1.00  0.00    -0.462 OA
BRANCH   2   3
ATOM      3  C   UNL A   1      30.993  25.735  23.620  1.00  0.00     0.306 C 
ATOM      4  O   UNL A   1      30.441  25.161  24.552  1.00  0.00    -0.252 OA
BRANCH   3   5
ATOM      5  C   UNL A   1      31.391  25.008  22.360  1.00  0.00     0.136 C 
BRANCH   5   6
ATOM      6  C   UNL A   1      32.800  24.377  22.308  1.00  0.00     0.094 C 
BRANCH   6   7
ATOM      7  C   UNL A   1      33.775  25.612  22.562  1.00  0.00     0.228 C 
ATOM      8  O   UNL A   1      33.774  26.560  21.768  1.00  0.00    -0.274 OA
ATOM      9  N   UNL A   1      34.414  25.802  23.770  1.00  0.00    -0.324 N 
ATOM     10  H   UNL A   1      34.651  26.726  24.018  1.00  0.00     0.169 HD
BRANCH   9  11
ATOM     11  C   UNL A   1      34.748  24.792  24.668  1.00  0.00     0.061 A 
ATOM     12  C   UNL A   1      35.869  23.668  24.119  1.00  0.00     0.048 A 
ATOM     13  C   UNL A   1      33.975  24.486  26.135  1.00  0.00     0.064 A 
ATOM     14  C   UNL A   1      36.260  21.920  25.043  1.00  0.00     0.043 A 
ATOM     15  C   UNL A   1      34.205  22.970  27.099  1.00  0.00     0.024 A 
ATOM     16  Cl  UNL A   1      33.018  25.901  26.389  1.00  0.00    -0.082 Cl
ATOM     17  Cl  UNL A   1      37.320  20.507  24.771  1.00  0.00    -0.084 Cl
ATOM     18  C   UNL A   1      35.338  21.655  26.598  1.00  0.00     0.022 A 
ENDBRANCH   9  11
ENDBRANCH   6   7
BRANCH   6  19
ATOM     19  C   UNL A   1      33.049  22.849  22.838  1.00  0.00     0.049 C 
BRANCH  19  20
ATOM     20  C   UNL A   1      31.783  21.730  23.040  1.00  0.00    -0.047 A 
ATOM     21  C   UNL A   1      31.993  21.363  24.724  1.00  0.00     0.005 A 
ATOM     22  C   UNL A   1      31.830  20.460  21.747  1.00  0.00     0.005 A 
ATOM     23  C   UNL A   1      32.669  19.787  25.158  1.00  0.00     0.021 A 
ATOM     24  C   UNL A   1      32.379  18.793  22.056  1.00  0.00     0.021 A 
ATOM     25  C   UNL A   1      32.886  18.358  23.740  1.00  0.00     0.041 A 
ATOM     26  Cl  UNL A   1      33.236  16.587  23.605  1.00  0.00    -0.084 Cl
ENDBRANCH  19  20
ENDBRANCH   6  19
ENDBRANCH   5   6
ENDBRANCH   3   5
ENDBRANCH   2   3
ENDBRANCH   1   2
BRANCH   1  27
ATOM     27  C   UNL A   1      31.813  29.021  25.114  1.00  0.00     0.275 C 
BRANCH  27  28
ATOM     28  O   UNL A   1      31.893  29.449  26.512  1.00  0.00    -0.458 OA
BRANCH  28  29
ATOM     29  C   UNL A   1      32.484  30.651  26.782  1.00  0.00     0.338 C 
ATOM     30  O   UNL A   1      31.921  31.731  26.722  1.00  0.00    -0.246 OA
BRANCH  29  31
ATOM     31  C   UNL A   1      33.897  30.502  27.304  1.00  0.00     0.060 A 
ATOM     32  C   UNL A   1      34.411  29.218  27.533  1.00  0.00     0.016 A 
ATOM     33  C   UNL A   1      34.723  31.581  27.632  1.00  0.00     0.016 A 
ATOM     34  C   UNL A   1      35.748  29.022  27.991  1.00  0.00     0.010 A 
ATOM     35  C   UNL A   1      36.050  31.377  28.134  1.00  0.00     0.010 A 
ATOM     36  C   UNL A   1      36.638  30.094  28.248  1.00  0.00    -0.014 A 
BRANCH  36  37
ATOM     37  C   UNL A   1      38.029  29.788  28.861  1.00  0.00     0.031 A 
ATOM     38  C   UNL A   1      38.155  30.215  30.284  1.00  0.00     0.074 A 
ATOM     39  C   UNL A   1      39.191  29.246  28.362  1.00  0.00     0.049 A 
ATOM     40  N   UNL A   1      39.122  29.979  31.123  1.00  0.00    -0.248 NA
ATOM     41  C   UNL A   1      37.122  31.140  30.768  1.00  0.00     0.031 C 
ATOM     42  C   UNL A   1      39.647  29.169  26.993  1.00  0.00     0.029 A 
ATOM     43  N   UNL A   1      40.194  28.481  28.979  1.00  0.00    -0.354 N 
ATOM     44  C   UNL A   1      38.863  30.794  32.201  1.00  0.00     0.074 A 
ATOM     45  C   UNL A   1      37.643  31.518  31.918  1.00  0.00     0.031 C 
ATOM     46  C   UNL A   1      40.527  28.179  26.809  1.00  0.00     0.029 A 
ATOM     47  C   UNL A   1      40.922  27.672  28.092  1.00  0.00     0.049 A 
ATOM     48  H   UNL A   1      40.370  28.509  29.948  1.00  0.00     0.167 HD
ATOM     49  C   UNL A   1      39.616  30.964  33.304  1.00  0.00     0.037 A 
ATOM     50  C   UNL A   1      41.876  26.717  28.236  1.00  0.00     0.037 A 
ATOM     51  C   UNL A   1      40.877  30.315  33.531  1.00  0.00     0.049 A 
ATOM     52  C   UNL A   1      42.608  26.790  29.539  1.00  0.00     0.074 A 
ATOM     53  C   UNL A   1      41.710  30.444  34.625  1.00  0.00     0.029 A 
ATOM     54  N   UNL A   1      41.508  29.448  32.644  1.00  0.00    -0.354 N 
ATOM     55  N   UNL A   1      42.322  27.530  30.577  1.00  0.00    -0.248 NA
ATOM     56  C   UNL A   1      43.873  26.051  29.645  1.00  0.00     0.031 C 
ATOM     57  C   UNL A   1      42.870  29.709  34.378  1.00  0.00     0.029 A 
ATOM     58  C   UNL A   1      42.717  29.029  33.181  1.00  0.00     0.049 A 
ATOM     59  H   UNL A   1      41.151  29.175  31.769  1.00  0.00     0.167 HD
ATOM     60  C   UNL A   1      43.389  27.396  31.438  1.00  0.00     0.074 A 
ATOM     61  C   UNL A   1      44.294  26.433  30.841  1.00  0.00     0.031 C 
ATOM     62  C   UNL A   1      43.607  28.059  32.595  1.00  0.00     0.037 A 
BRANCH  49  63
ATOM     63  C   UNL A   1      39.106  31.978  34.275  1.00  0.00     0.064 A 
ATOM     64  C   UNL A   1      39.353  33.350  34.108  1.00  0.00     0.173 A 
ATOM     65  C   UNL A   1      38.452  31.559  35.442  1.00  0.00     0.173 A 
ATOM     66  F   UNL A   1      40.031  33.789  33.035  1.00  0.00    -0.203 F 
ATOM     67  C   UNL A   1      39.008  34.260  35.099  1.00  0.00     0.198 A 
ATOM     68  C   UNL A   1      38.062  32.480  36.406  1.00  0.00     0.198 A 
ATOM     69  F   UNL A   1      38.225  30.255  35.662  1.00  0.00    -0.203 F 
ATOM     70  F   UNL A   1      39.356  35.548  34.971  1.00  0.00    -0.200 F 
ATOM     71  C   UNL A   1      38.354  33.826  36.241  1.00  0.00     0.200 A 
ATOM     72  F   UNL A   1      37.429  32.059  37.509  1.00  0.00    -0.200 F 
ATOM     73  F   UNL A   1      38.026  34.703  37.199  1.00  0.00    -0.200 F 
ENDBRANCH  49  63
BRANCH  50  74
ATOM     74  C   UNL A   1      42.347  25.750  27.164  1.00  0.00     0.064 A 
ATOM     75  C   UNL A   1      41.680  24.516  26.988  1.00  0.00     0.173 A 
ATOM     76  C   UNL A   1      43.473  25.943  26.346  1.00  0.00     0.173 A 
ATOM     77  F   UNL A   1      40.645  24.196  27.781  1.00  0.00    -0.203 F 
ATOM     78  C   UNL A   1      42.106  23.557  26.057  1.00  0.00     0.198 A 
ATOM     79  C   UNL A   1      43.845  25.027  25.355  1.00  0.00     0.198 A 
ATOM     80  F   UNL A   1      44.278  26.998  26.535  1.00  0.00    -0.203 F 
ATOM     81  F   UNL A   1      41.504  22.360  26.000  1.00  0.00    -0.200 F 
ATOM     82  C   UNL A   1      43.170  23.827  25.217  1.00  0.00     0.200 A 
ATOM     83  F   UNL A   1      44.884  25.298  24.552  1.00  0.00    -0.200 F 
ATOM     84  F   UNL A   1      43.571  22.923  24.313  1.00  0.00    -0.200 F 
ENDBRANCH  50  74
BRANCH  62  85
ATOM     85  C   UNL A   1      44.831  27.665  33.355  1.00  0.00     0.064 A 
ATOM     86  C   UNL A   1      46.068  28.301  33.183  1.00  0.00     0.173 A 
ATOM     87  C   UNL A   1      44.752  26.596  34.258  1.00  0.00     0.173 A 
ATOM     88  F   UNL A   1      46.196  29.314  32.311  1.00  0.00    -0.203 F 
ATOM     89  C   UNL A   1      47.198  27.842  33.852  1.00  0.00     0.198 A 
ATOM     90  C   UNL A   1      45.872  26.174  34.961  1.00  0.00     0.198 A 
ATOM     91  F   UNL A   1      43.588  25.957  34.451  1.00  0.00    -0.203 F 
ATOM     92  F   UNL A   1      48.391  28.400  33.607  1.00  0.00    -0.200 F 
ATOM     93  C   UNL A   1      47.097  26.785  34.744  1.00  0.00     0.200 A 
ATOM     94  F   UNL A   1      45.765  25.163  35.835  1.00  0.00    -0.200 F 
ATOM     95  F   UNL A   1      48.186  26.340  35.385  1.00  0.00    -0.200 F 
ENDBRANCH  62  85
ENDBRANCH  36  37
ENDBRANCH  29  31
ENDBRANCH  28  29
ENDBRANCH  27  28
ENDBRANCH   1  27
TORSDOF 16
ENDMDL
MODEL 3
REMARK VINA RESULT:     -11.5      1.105      2.036
REMARK SMILES O=C(C[C@H](Cc1ccc(Cl)cc1)C(=O)Nc1cc(Cl)ccc1Cl)OCCOC(=O)c1ccc(-c2c3nc(c(-c4c(F)c(F)c(F)c(F)c4F)c4ccc([nH]4)c(-c4c(F)c(F)c(F)c(F)c4F)c4nc(c(-c5c(F)c(F)c(F)c(F)c5F)c5ccc2[nH]5)C=C4)C=C3)cc1
REMARK SMILES IDX 25 1 24 2 2 3 1 4 3 5 4 6 13 7 14 8 15 9 16 11 17 12 22 13
REMARK SMILES IDX 18 14 21 15 23 16 19 17 20 18 5 19 6 20 7 21 12 22 8 23
REMARK SMILES IDX 11 24 9 25 10 26 26 27 27 28 28 29 29 30 30 31 31 32 92 33
REMARK SMILES IDX 32 34 91 35 33 36 34 37 35 38 85 39 36 40 90 41 84 42 86 43
REMARK SMILES IDX 37 44 89 45 83 46 82 47 38 49 70 50 50 51 69 52 51 53 54 54
REMARK SMILES IDX 68 55 87 56 52 57 53 58 67 60 88 61 55 62 39 63 40 64 48 65
REMARK SMILES IDX 41 66 42 67 46 68 49 69 43 70 44 71 47 72 45 73 71 74 72 75
REMARK SMILES IDX 80 76 73 77 74 78 78 79 81 80 75 81 76 82 79 83 77 84 56 85
REMARK SMILES IDX 57 86 65 87 58 88 59 89 63 90 66 91 60 92 61 93 64 94 62 95
REMARK H PARENT 15 10 86 48 54 59
REMARK Flexibility Score: inf
ROOT
ATOM      1  C   UNL A   1      31.432  29.392  26.085  1.00  0.00     0.274 C 
ENDROOT
BRANCH   1   2
ATOM      2  O   UNL A   1      32.256  28.469  25.362  1.00  0.00    -0.462 OA
BRANCH   2   3
ATOM      3  C   UNL A   1      32.853  27.413  25.943  1.00  0.00     0.306 C 
ATOM      4  O   UNL A   1      34.032  27.488  26.273  1.00  0.00    -0.252 OA
BRANCH   3   5
ATOM      5  C   UNL A   1      32.045  26.157  26.152  1.00  0.00     0.136 C 
BRANCH   5   6
ATOM      6  C   UNL A   1      32.670  24.817  25.703  1.00  0.00     0.094 C 
BRANCH   6   7
ATOM      7  C   UNL A   1      32.005  23.747  26.679  1.00  0.00     0.228 C 
ATOM      8  O   UNL A   1      30.931  24.010  27.230  1.00  0.00    -0.274 OA
ATOM      9  N   UNL A   1      32.429  22.434  26.720  1.00  0.00    -0.324 N 
ATOM     10  H   UNL A   1      31.773  21.753  26.997  1.00  0.00     0.169 HD
BRANCH   9  11
ATOM     11  C   UNL A   1      33.710  21.994  26.399  1.00  0.00     0.061 A 
ATOM     12  C   UNL A   1      34.960  23.054  26.773  1.00  0.00     0.048 A 
ATOM     13  C   UNL A   1      34.081  20.624  25.490  1.00  0.00     0.064 A 
ATOM     14  C   UNL A   1      36.850  22.850  26.102  1.00  0.00     0.043 A 
ATOM     15  C   UNL A   1      35.722  20.281  24.806  1.00  0.00     0.024 A 
ATOM     16  Cl  UNL A   1      32.584  19.764  25.430  1.00  0.00    -0.082 Cl
ATOM     17  Cl  UNL A   1      38.392  23.742  26.250  1.00  0.00    -0.084 Cl
ATOM     18  C   UNL A   1      37.143  21.362  25.083  1.00  0.00     0.022 A 
ENDBRANCH   9  11
ENDBRANCH   6   7
BRANCH   6  19
ATOM     19  C   UNL A   1      33.052  24.559  24.134  1.00  0.00     0.049 C 
BRANCH  19  20
ATOM     20  C   UNL A   1      31.907  24.676  22.880  1.00  0.00    -0.047 A 
ATOM     21  C   UNL A   1      32.552  26.047  22.031  1.00  0.00     0.005 A 
ATOM     22  C   UNL A   1      30.219  24.636  23.539  1.00  0.00     0.005 A 
ATOM     23  C   UNL A   1      31.695  27.589  22.162  1.00  0.00     0.021 A 
ATOM     24  C   UNL A   1      29.188  26.087  23.630  1.00  0.00     0.021 A 
ATOM     25  C   UNL A   1      29.860  27.654  23.015  1.00  0.00     0.041 A 
ATOM     26  Cl  UNL A   1      28.458  28.785  23.194  1.00  0.00    -0.084 Cl
ENDBRANCH  19  20
ENDBRANCH   6  19
ENDBRANCH   5   6
ENDBRANCH   3   5
ENDBRANCH   2   3
ENDBRANCH   1   2
BRANCH   1  27
ATOM     27  C   UNL A   1      32.177  30.690  26.456  1.00  0.00     0.275 C 
BRANCH  27  28
ATOM     28  O   UNL A   1      33.133  30.582  27.559  1.00  0.00    -0.458 OA
BRANCH  28  29
ATOM     29  C   UNL A   1      33.941  31.654  27.815  1.00  0.00     0.338 C 
ATOM     30  O   UNL A   1      33.572  32.816  27.824  1.00  0.00    -0.246 OA
BRANCH  29  31
ATOM     31  C   UNL A   1      35.338  31.245  28.230  1.00  0.00     0.060 A 
ATOM     32  C   UNL A   1      35.610  29.893  28.483  1.00  0.00     0.016 A 
ATOM     33  C   UNL A   1      36.385  32.149  28.435  1.00  0.00     0.016 A 
ATOM     34  C   UNL A   1      36.918  29.451  28.842  1.00  0.00     0.010 A 
ATOM     35  C   UNL A   1      37.686  31.703  28.839  1.00  0.00     0.010 A 
ATOM     36  C   UNL A   1      38.019  30.333  28.972  1.00  0.00    -0.014 A 
BRANCH  36  37
ATOM     37  C   UNL A   1      39.373  29.778  29.486  1.00  0.00     0.031 A 
ATOM     38  C   UNL A   1      39.648  30.119  30.911  1.00  0.00     0.074 A 
ATOM     39  C   UNL A   1      40.398  29.075  28.899  1.00  0.00     0.049 A 
ATOM     40  N   UNL A   1      40.608  29.693  31.680  1.00  0.00    -0.248 NA
ATOM     41  C   UNL A   1      38.812  31.179  31.489  1.00  0.00     0.031 C 
ATOM     42  C   UNL A   1      40.758  28.981  27.502  1.00  0.00     0.029 A 
ATOM     43  N   UNL A   1      41.293  28.131  29.427  1.00  0.00    -0.354 N 
ATOM     44  C   UNL A   1      40.549  30.493  32.798  1.00  0.00     0.074 A 
ATOM     45  C   UNL A   1      39.452  31.418  32.615  1.00  0.00     0.031 C 
ATOM     46  C   UNL A   1      41.449  27.869  27.232  1.00  0.00     0.029 A 
ATOM     47  C   UNL A   1      41.826  27.251  28.471  1.00  0.00     0.049 A 
ATOM     48  H   UNL A   1      41.526  28.089  30.383  1.00  0.00     0.167 HD
ATOM     49  C   UNL A   1      41.381  30.491  33.857  1.00  0.00     0.037 A 
ATOM     50  C   UNL A   1      42.615  26.148  28.524  1.00  0.00     0.037 A 
ATOM     51  C   UNL A   1      42.527  29.636  33.984  1.00  0.00     0.049 A 
ATOM     52  C   UNL A   1      43.421  26.045  29.780  1.00  0.00     0.074 A 
ATOM     53  C   UNL A   1      43.430  29.580  35.027  1.00  0.00     0.029 A 
ATOM     54  N   UNL A   1      42.955  28.715  33.032  1.00  0.00    -0.354 N 
ATOM     55  N   UNL A   1      43.321  26.777  30.858  1.00  0.00    -0.248 NA
ATOM     56  C   UNL A   1      44.550  25.104  29.783  1.00  0.00     0.031 C 
ATOM     57  C   UNL A   1      44.437  28.676  34.684  1.00  0.00     0.029 A 
ATOM     58  C   UNL A   1      44.106  28.081  33.478  1.00  0.00     0.049 A 
ATOM     59  H   UNL A   1      42.508  28.540  32.173  1.00  0.00     0.167 HD
ATOM     60  C   UNL A   1      44.397  26.434  31.645  1.00  0.00     0.074 A 
ATOM     61  C   UNL A   1      45.095  25.362  30.962  1.00  0.00     0.031 C 
ATOM     62  C   UNL A   1      44.787  27.004  32.807  1.00  0.00     0.037 A 
BRANCH  49  63
ATOM     63  C   UNL A   1      41.101  31.534  34.890  1.00  0.00     0.064 A 
ATOM     64  C   UNL A   1      40.115  31.353  35.872  1.00  0.00     0.173 A 
ATOM     65  C   UNL A   1      41.758  32.771  34.828  1.00  0.00     0.173 A 
ATOM     66  F   UNL A   1      39.418  30.206  35.928  1.00  0.00    -0.203 F 
ATOM     67  C   UNL A   1      39.761  32.392  36.723  1.00  0.00     0.198 A 
ATOM     68  C   UNL A   1      41.437  33.789  35.716  1.00  0.00     0.198 A 
ATOM     69  F   UNL A   1      42.683  33.002  33.884  1.00  0.00    -0.203 F 
ATOM     70  F   UNL A   1      38.739  32.237  37.576  1.00  0.00    -0.200 F 
ATOM     71  C   UNL A   1      40.429  33.605  36.651  1.00  0.00     0.200 A 
ATOM     72  F   UNL A   1      42.084  34.960  35.646  1.00  0.00    -0.200 F 
ATOM     73  F   UNL A   1      40.084  34.608  37.469  1.00  0.00    -0.200 F 
ENDBRANCH  49  63
BRANCH  50  74
ATOM     74  C   UNL A   1      42.858  25.162  27.394  1.00  0.00     0.064 A 
ATOM     75  C   UNL A   1      43.907  25.390  26.474  1.00  0.00     0.173 A 
ATOM     76  C   UNL A   1      42.060  24.037  27.125  1.00  0.00     0.173 A 
ATOM     77  F   UNL A   1      44.672  26.487  26.592  1.00  0.00    -0.203 F 
ATOM     78  C   UNL A   1      44.141  24.549  25.377  1.00  0.00     0.198 A 
ATOM     79  C   UNL A   1      42.348  23.147  26.083  1.00  0.00     0.198 A 
ATOM     80  F   UNL A   1      40.943  23.811  27.830  1.00  0.00    -0.203 F 
ATOM     81  F   UNL A   1      45.081  24.865  24.475  1.00  0.00    -0.200 F 
ATOM     82  C   UNL A   1      43.380  23.408  25.200  1.00  0.00     0.200 A 
ATOM     83  F   UNL A   1      41.598  22.047  25.919  1.00  0.00    -0.200 F 
ATOM     84  F   UNL A   1      43.611  22.590  24.164  1.00  0.00    -0.200 F 
ENDBRANCH  50  74
BRANCH  62  85
ATOM     85  C   UNL A   1      45.970  26.383  33.476  1.00  0.00     0.064 A 
ATOM     86  C   UNL A   1      47.285  26.812  33.244  1.00  0.00     0.173 A 
ATOM     87  C   UNL A   1      45.766  25.307  34.351  1.00  0.00     0.173 A 
ATOM     88  F   UNL A   1      47.530  27.822  32.395  1.00  0.00    -0.203 F 
ATOM     89  C   UNL A   1      48.358  26.146  33.826  1.00  0.00     0.198 A 
ATOM     90  C   UNL A   1      46.837  24.679  34.969  1.00  0.00     0.198 A 
ATOM     91  F   UNL A   1      44.524  24.864  34.600  1.00  0.00    -0.203 F 
ATOM     92  F   UNL A   1      49.612  26.507  33.522  1.00  0.00    -0.200 F 
ATOM     93  C   UNL A   1      48.133  25.086  34.693  1.00  0.00     0.200 A 
ATOM     94  F   UNL A   1      46.614  23.667  35.819  1.00  0.00    -0.200 F 
ATOM     95  F   UNL A   1      49.167  24.443  35.250  1.00  0.00    -0.200 F 
ENDBRANCH  62  85
ENDBRANCH  36  37
ENDBRANCH  29  31
ENDBRANCH  28  29
ENDBRANCH  27  28
ENDBRANCH   1  27
TORSDOF 16
ENDMDL
