MODEL 1
REMARK VINA RESULT:     -12.4      0.000      0.000
REMARK SMILES O=C(OCCOC(=O)c1coc(-c2csc(-c3ccc(Cl)cn3)n2)c1)c1ccc(-c2c3nc(c(-c4c(F)c(F)c(F)c(F)c4F)c4ccc([nH]4)c(-c4c(F)c(F)c(F)c(F)c4F)c4nc(c(-c5c(F)c(F)c(F)c(F)c5F)c5ccc2[nH]5)C=C4)C=C3)cc1
REMARK SMILES IDX 4 1 3 2 2 3 1 4 26 5 27 6 88 7 28 8 87 9 29 10 30 11 31 12
REMARK SMILES IDX 81 13 32 14 86 15 80 16 82 17 33 18 85 19 79 20 78 21 34 23
REMARK SMILES IDX 66 24 46 25 65 26 47 27 50 28 64 29 83 30 48 31 49 32 63 34
REMARK SMILES IDX 84 35 51 36 35 37 36 38 44 39 37 40 38 41 42 42 45 43 39 44
REMARK SMILES IDX 40 45 43 46 41 47 67 48 68 49 76 50 69 51 70 52 74 53 77 54
REMARK SMILES IDX 71 55 72 56 75 57 73 58 52 59 53 60 61 61 54 62 55 63 59 64
REMARK SMILES IDX 62 65 56 66 57 67 60 68 58 69 5 70 6 71 7 72 8 73 9 74 10 75
REMARK SMILES IDX 25 76 11 77 12 78 13 79 14 80 24 81 15 82 16 83 17 84 18 85
REMARK SMILES IDX 23 86 19 87 22 88 20 89 21 90
REMARK H PARENT 82 22 50 33
REMARK Flexibility Score: inf
ROOT
ATOM      1  C   UNL A   1      32.519  32.988  26.955  1.00  0.00     0.275 C 
ENDROOT
BRANCH   1   2
ATOM      2  O   UNL A   1      32.175  34.110  27.786  1.00  0.00    -0.458 OA
BRANCH   2   3
ATOM      3  C   UNL A   1      32.917  34.772  28.704  1.00  0.00     0.338 C 
ATOM      4  O   UNL A   1      32.621  35.929  28.996  1.00  0.00    -0.246 OA
BRANCH   3   5
ATOM      5  C   UNL A   1      34.189  34.227  29.267  1.00  0.00     0.060 A 
ATOM      6  C   UNL A   1      35.471  34.476  28.774  1.00  0.00     0.016 A 
ATOM      7  C   UNL A   1      34.059  33.351  30.362  1.00  0.00     0.016 A 
ATOM      8  C   UNL A   1      36.595  33.922  29.392  1.00  0.00     0.010 A 
ATOM      9  C   UNL A   1      35.180  32.800  30.991  1.00  0.00     0.010 A 
ATOM     10  C   UNL A   1      36.457  33.079  30.499  1.00  0.00    -0.014 A 
BRANCH  10  11
ATOM     11  C   UNL A   1      37.648  32.378  31.025  1.00  0.00     0.031 A 
ATOM     12  C   UNL A   1      38.153  32.746  32.386  1.00  0.00     0.074 A 
ATOM     13  C   UNL A   1      38.223  31.386  30.322  1.00  0.00     0.049 A 
ATOM     14  N   UNL A   1      39.122  32.213  33.084  1.00  0.00    -0.248 NA
ATOM     15  C   UNL A   1      37.464  33.859  33.060  1.00  0.00     0.031 C 
ATOM     16  C   UNL A   1      37.792  30.933  29.001  1.00  0.00     0.029 A 
ATOM     17  N   UNL A   1      39.289  30.578  30.623  1.00  0.00    -0.354 N 
ATOM     18  C   UNL A   1      39.140  32.907  34.286  1.00  0.00     0.074 A 
ATOM     19  C   UNL A   1      38.126  33.935  34.203  1.00  0.00     0.031 C 
ATOM     20  C   UNL A   1      38.593  29.932  28.598  1.00  0.00     0.029 A 
ATOM     21  C   UNL A   1      39.599  29.683  29.628  1.00  0.00     0.049 A 
ATOM     22  H   UNL A   1      39.785  30.634  31.472  1.00  0.00     0.167 HD
ATOM     23  C   UNL A   1      39.920  32.690  35.370  1.00  0.00     0.037 A 
ATOM     24  C   UNL A   1      40.589  28.772  29.562  1.00  0.00     0.037 A 
ATOM     25  C   UNL A   1      40.946  31.685  35.432  1.00  0.00     0.049 A 
ATOM     26  C   UNL A   1      41.504  28.610  30.748  1.00  0.00     0.074 A 
ATOM     27  C   UNL A   1      41.806  31.388  36.472  1.00  0.00     0.029 A 
ATOM     28  N   UNL A   1      41.257  30.820  34.391  1.00  0.00    -0.354 N 
ATOM     29  N   UNL A   1      41.483  29.237  31.900  1.00  0.00    -0.248 NA
ATOM     30  C   UNL A   1      42.572  27.607  30.630  1.00  0.00     0.031 C 
ATOM     31  C   UNL A   1      42.668  30.371  36.045  1.00  0.00     0.029 A 
ATOM     32  C   UNL A   1      42.316  30.006  34.755  1.00  0.00     0.049 A 
ATOM     33  H   UNL A   1      40.794  30.791  33.523  1.00  0.00     0.167 HD
ATOM     34  C   UNL A   1      42.510  28.686  32.655  1.00  0.00     0.074 A 
ATOM     35  C   UNL A   1      43.129  27.667  31.832  1.00  0.00     0.031 C 
ATOM     36  C   UNL A   1      42.904  28.991  33.916  1.00  0.00     0.037 A 
BRANCH  23  37
ATOM     37  C   UNL A   1      39.693  33.581  36.553  1.00  0.00     0.064 A 
ATOM     38  C   UNL A   1      38.830  33.207  37.595  1.00  0.00     0.173 A 
ATOM     39  C   UNL A   1      40.313  34.836  36.630  1.00  0.00     0.173 A 
ATOM     40  F   UNL A   1      38.195  32.025  37.554  1.00  0.00    -0.203 F 
ATOM     41  C   UNL A   1      38.569  34.072  38.655  1.00  0.00     0.198 A 
ATOM     42  C   UNL A   1      40.069  35.689  37.703  1.00  0.00     0.198 A 
ATOM     43  F   UNL A   1      41.141  35.241  35.656  1.00  0.00    -0.203 F 
ATOM     44  F   UNL A   1      37.695  33.719  39.606  1.00  0.00    -0.200 F 
ATOM     45  C   UNL A   1      39.190  35.311  38.708  1.00  0.00     0.200 A 
ATOM     46  F   UNL A   1      40.670  36.885  37.755  1.00  0.00    -0.200 F 
ATOM     47  F   UNL A   1      38.929  36.149  39.721  1.00  0.00    -0.200 F 
ENDBRANCH  23  37
BRANCH  24  48
ATOM     48  C   UNL A   1      40.761  27.944  28.340  1.00  0.00     0.064 A 
ATOM     49  C   UNL A   1      40.163  26.682  28.224  1.00  0.00     0.173 A 
ATOM     50  C   UNL A   1      41.539  28.398  27.263  1.00  0.00     0.173 A 
ATOM     51  F   UNL A   1      39.427  26.195  29.233  1.00  0.00    -0.203 F 
ATOM     52  C   UNL A   1      40.351  25.898  27.086  1.00  0.00     0.198 A 
ATOM     53  C   UNL A   1      41.706  27.623  26.117  1.00  0.00     0.198 A 
ATOM     54  F   UNL A   1      42.134  29.598  27.323  1.00  0.00    -0.203 F 
ATOM     55  F   UNL A   1      39.802  24.677  27.019  1.00  0.00    -0.200 F 
ATOM     56  C   UNL A   1      41.118  26.371  26.032  1.00  0.00     0.200 A 
ATOM     57  F   UNL A   1      42.440  28.089  25.097  1.00  0.00    -0.200 F 
ATOM     58  F   UNL A   1      41.296  25.617  24.939  1.00  0.00    -0.200 F 
ENDBRANCH  24  48
BRANCH  36  59
ATOM     59  C   UNL A   1      44.034  28.193  34.492  1.00  0.00     0.064 A 
ATOM     60  C   UNL A   1      45.366  28.617  34.376  1.00  0.00     0.173 A 
ATOM     61  C   UNL A   1      43.776  27.020  35.217  1.00  0.00     0.173 A 
ATOM     62  F   UNL A   1      45.663  29.725  33.679  1.00  0.00    -0.203 F 
ATOM     63  C   UNL A   1      46.401  27.884  34.949  1.00  0.00     0.198 A 
ATOM     64  C   UNL A   1      44.811  26.305  35.811  1.00  0.00     0.198 A 
ATOM     65  F   UNL A   1      42.517  26.578  35.361  1.00  0.00    -0.203 F 
ATOM     66  F   UNL A   1      47.669  28.286  34.794  1.00  0.00    -0.200 F 
ATOM     67  C   UNL A   1      46.122  26.734  35.673  1.00  0.00     0.200 A 
ATOM     68  F   UNL A   1      44.538  25.200  36.521  1.00  0.00    -0.200 F 
ATOM     69  F   UNL A   1      47.119  26.036  36.233  1.00  0.00    -0.200 F 
ENDBRANCH  36  59
ENDBRANCH  10  11
ENDBRANCH   3   5
ENDBRANCH   2   3
ENDBRANCH   1   2
BRANCH   1  70
ATOM     70  C   UNL A   1      31.403  31.956  26.770  1.00  0.00     0.275 C 
BRANCH  70  71
ATOM     71  O   UNL A   1      31.845  30.596  26.882  1.00  0.00    -0.458 OA
BRANCH  71  72
ATOM     72  C   UNL A   1      31.576  29.817  25.791  1.00  0.00     0.341 C 
ATOM     73  O   UNL A   1      31.062  30.217  24.755  1.00  0.00    -0.246 OA
BRANCH  72  74
ATOM     74  C   UNL A   1      32.044  28.460  25.957  1.00  0.00     0.098 A 
ATOM     75  C   UNL A   1      33.339  28.069  26.213  1.00  0.00     0.211 A 
ATOM     76  C   UNL A   1      31.287  27.255  25.894  1.00  0.00     0.068 A 
ATOM     77  O   UNL A   1      33.419  26.718  26.324  1.00  0.00    -0.462 OA
ATOM     78  C   UNL A   1      32.173  26.212  26.060  1.00  0.00     0.154 A 
BRANCH  78  79
ATOM     79  C   UNL A   1      31.865  24.757  25.940  1.00  0.00     0.117 A 
ATOM     80  C   UNL A   1      30.757  24.208  26.548  1.00  0.00     0.099 A 
ATOM     81  N   UNL A   1      32.692  23.861  25.275  1.00  0.00    -0.231 NA
ATOM     82  S   UNL A   1      30.706  22.526  26.254  1.00  0.00    -0.120 S 
ATOM     83  C   UNL A   1      32.212  22.637  25.415  1.00  0.00     0.142 A 
BRANCH  83  84
ATOM     84  C   UNL A   1      32.862  21.379  25.029  1.00  0.00     0.099 A 
ATOM     85  C   UNL A   1      34.250  21.248  25.100  1.00  0.00     0.033 A 
ATOM     86  N   UNL A   1      32.039  20.348  24.714  1.00  0.00    -0.252 NA
ATOM     87  C   UNL A   1      34.822  19.998  24.859  1.00  0.00     0.024 A 
ATOM     88  C   UNL A   1      32.628  19.148  24.473  1.00  0.00     0.132 A 
ATOM     89  C   UNL A   1      33.996  18.926  24.544  1.00  0.00     0.059 A 
ATOM     90  Cl  UNL A   1      34.657  17.367  24.268  1.00  0.00    -0.083 Cl
ENDBRANCH  83  84
ENDBRANCH  78  79
ENDBRANCH  72  74
ENDBRANCH  71  72
ENDBRANCH  70  71
ENDBRANCH   1  70
TORSDOF 13
ENDMDL
MODEL 2
REMARK VINA RESULT:     -12.3      4.704      9.850
REMARK SMILES O=C(OCCOC(=O)c1coc(-c2csc(-c3ccc(Cl)cn3)n2)c1)c1ccc(-c2c3nc(c(-c4c(F)c(F)c(F)c(F)c4F)c4ccc([nH]4)c(-c4c(F)c(F)c(F)c(F)c4F)c4nc(c(-c5c(F)c(F)c(F)c(F)c5F)c5ccc2[nH]5)C=C4)C=C3)cc1
REMARK SMILES IDX 4 1 3 2 2 3 1 4 26 5 27 6 88 7 28 8 87 9 29 10 30 11 31 12
REMARK SMILES IDX 81 13 32 14 86 15 80 16 82 17 33 18 85 19 79 20 78 21 34 23
REMARK SMILES IDX 66 24 46 25 65 26 47 27 50 28 64 29 83 30 48 31 49 32 63 34
REMARK SMILES IDX 84 35 51 36 35 37 36 38 44 39 37 40 38 41 42 42 45 43 39 44
REMARK SMILES IDX 40 45 43 46 41 47 67 48 68 49 76 50 69 51 70 52 74 53 77 54
REMARK SMILES IDX 71 55 72 56 75 57 73 58 52 59 53 60 61 61 54 62 55 63 59 64
REMARK SMILES IDX 62 65 56 66 57 67 60 68 58 69 5 70 6 71 7 72 8 73 9 74 10 75
REMARK SMILES IDX 25 76 11 77 12 78 13 79 14 80 24 81 15 82 16 83 17 84 18 85
REMARK SMILES IDX 23 86 19 87 22 88 20 89 21 90
REMARK H PARENT 82 22 50 33
REMARK Flexibility Score: inf
ROOT
ATOM      1  C   UNL A   1      32.889  36.361  29.728  1.00  0.00     0.275 C 
ENDROOT
BRANCH   1   2
ATOM      2  O   UNL A   1      32.732  34.944  29.535  1.00  0.00    -0.458 OA
BRANCH   2   3
ATOM      3  C   UNL A   1      33.442  34.088  28.765  1.00  0.00     0.338 C 
ATOM      4  O   UNL A   1      32.972  33.715  27.691  1.00  0.00    -0.246 OA
BRANCH   3   5
ATOM      5  C   UNL A   1      34.703  33.434  29.225  1.00  0.00     0.060 A 
ATOM      6  C   UNL A   1      34.810  32.510  30.265  1.00  0.00     0.016 A 
ATOM      7  C   UNL A   1      35.886  33.834  28.572  1.00  0.00     0.016 A 
ATOM      8  C   UNL A   1      36.046  31.950  30.601  1.00  0.00     0.010 A 
ATOM      9  C   UNL A   1      37.124  33.271  28.896  1.00  0.00     0.010 A 
ATOM     10  C   UNL A   1      37.208  32.329  29.924  1.00  0.00    -0.014 A 
BRANCH  10  11
ATOM     11  C   UNL A   1      38.518  31.847  30.413  1.00  0.00     0.031 A 
ATOM     12  C   UNL A   1      39.056  30.561  29.865  1.00  0.00     0.074 A 
ATOM     13  C   UNL A   1      39.237  32.582  31.279  1.00  0.00     0.049 A 
ATOM     14  N   UNL A   1      40.211  29.986  30.080  1.00  0.00    -0.248 NA
ATOM     15  C   UNL A   1      38.179  29.825  28.940  1.00  0.00     0.031 C 
ATOM     16  C   UNL A   1      38.815  33.859  31.850  1.00  0.00     0.029 A 
ATOM     17  N   UNL A   1      40.475  32.362  31.826  1.00  0.00    -0.354 N 
ATOM     18  C   UNL A   1      40.209  28.841  29.297  1.00  0.00     0.074 A 
ATOM     19  C   UNL A   1      38.919  28.768  28.647  1.00  0.00     0.031 C 
ATOM     20  C   UNL A   1      39.774  34.308  32.676  1.00  0.00     0.029 A 
ATOM     21  C   UNL A   1      40.872  33.344  32.701  1.00  0.00     0.049 A 
ATOM     22  H   UNL A   1      41.027  31.576  31.611  1.00  0.00     0.167 HD
ATOM     23  C   UNL A   1      41.204  27.941  29.121  1.00  0.00     0.037 A 
ATOM     24  C   UNL A   1      41.994  33.442  33.439  1.00  0.00     0.037 A 
ATOM     25  C   UNL A   1      42.472  28.005  29.795  1.00  0.00     0.049 A 
ATOM     26  C   UNL A   1      43.051  32.378  33.294  1.00  0.00     0.074 A 
ATOM     27  C   UNL A   1      43.545  27.140  29.705  1.00  0.00     0.029 A 
ATOM     28  N   UNL A   1      42.826  28.994  30.703  1.00  0.00    -0.354 N 
ATOM     29  N   UNL A   1      43.062  31.323  32.514  1.00  0.00    -0.248 NA
ATOM     30  C   UNL A   1      44.258  32.525  34.121  1.00  0.00     0.031 C 
ATOM     31  C   UNL A   1      44.534  27.581  30.591  1.00  0.00     0.029 A 
ATOM     32  C   UNL A   1      44.093  28.745  31.202  1.00  0.00     0.049 A 
ATOM     33  H   UNL A   1      42.259  29.758  30.956  1.00  0.00     0.167 HD
ATOM     34  C   UNL A   1      44.282  30.698  32.732  1.00  0.00     0.074 A 
ATOM     35  C   UNL A   1      44.989  31.498  33.711  1.00  0.00     0.031 C 
ATOM     36  C   UNL A   1      44.776  29.567  32.169  1.00  0.00     0.037 A 
BRANCH  23  37
ATOM     37  C   UNL A   1      40.930  26.810  28.178  1.00  0.00     0.064 A 
ATOM     38  C   UNL A   1      40.009  25.799  28.496  1.00  0.00     0.173 A 
ATOM     39  C   UNL A   1      41.619  26.713  26.961  1.00  0.00     0.173 A 
ATOM     40  F   UNL A   1      39.343  25.835  29.660  1.00  0.00    -0.203 F 
ATOM     41  C   UNL A   1      39.815  24.714  27.645  1.00  0.00     0.198 A 
ATOM     42  C   UNL A   1      41.404  25.640  26.101  1.00  0.00     0.198 A 
ATOM     43  F   UNL A   1      42.514  27.651  26.615  1.00  0.00    -0.203 F 
ATOM     44  F   UNL A   1      38.976  23.730  27.997  1.00  0.00    -0.200 F 
ATOM     45  C   UNL A   1      40.511  24.636  26.448  1.00  0.00     0.200 A 
ATOM     46  F   UNL A   1      42.077  25.566  24.944  1.00  0.00    -0.200 F 
ATOM     47  F   UNL A   1      40.333  23.585  25.635  1.00  0.00    -0.200 F 
ENDBRANCH  23  37
BRANCH  24  48
ATOM     48  C   UNL A   1      42.177  34.586  34.370  1.00  0.00     0.064 A 
ATOM     49  C   UNL A   1      42.539  35.856  33.903  1.00  0.00     0.173 A 
ATOM     50  C   UNL A   1      42.002  34.426  35.754  1.00  0.00     0.173 A 
ATOM     51  F   UNL A   1      42.739  36.055  32.592  1.00  0.00    -0.203 F 
ATOM     52  C   UNL A   1      42.737  36.918  34.784  1.00  0.00     0.198 A 
ATOM     53  C   UNL A   1      42.176  35.495  36.631  1.00  0.00     0.198 A 
ATOM     54  F   UNL A   1      41.656  33.231  36.254  1.00  0.00    -0.203 F 
ATOM     55  F   UNL A   1      43.125  38.112  34.314  1.00  0.00    -0.200 F 
ATOM     56  C   UNL A   1      42.550  36.738  36.147  1.00  0.00     0.200 A 
ATOM     57  F   UNL A   1      41.984  35.318  37.946  1.00  0.00    -0.200 F 
ATOM     58  F   UNL A   1      42.739  37.760  36.992  1.00  0.00    -0.200 F 
ENDBRANCH  24  48
BRANCH  36  59
ATOM     59  C   UNL A   1      46.156  29.147  32.576  1.00  0.00     0.064 A 
ATOM     60  C   UNL A   1      47.283  29.501  31.821  1.00  0.00     0.173 A 
ATOM     61  C   UNL A   1      46.357  28.430  33.765  1.00  0.00     0.173 A 
ATOM     62  F   UNL A   1      47.139  30.174  30.668  1.00  0.00    -0.203 F 
ATOM     63  C   UNL A   1      48.562  29.136  32.233  1.00  0.00     0.198 A 
ATOM     64  C   UNL A   1      47.639  28.090  34.187  1.00  0.00     0.198 A 
ATOM     65  F   UNL A   1      45.310  28.073  34.524  1.00  0.00    -0.203 F 
ATOM     66  F   UNL A   1      49.622  29.452  31.477  1.00  0.00    -0.200 F 
ATOM     67  C   UNL A   1      48.739  28.439  33.419  1.00  0.00     0.200 A 
ATOM     68  F   UNL A   1      47.809  27.427  35.339  1.00  0.00    -0.200 F 
ATOM     69  F   UNL A   1      49.971  28.098  33.819  1.00  0.00    -0.200 F 
ENDBRANCH  36  59
ENDBRANCH  10  11
ENDBRANCH   3   5
ENDBRANCH   2   3
ENDBRANCH   1   2
BRANCH   1  70
ATOM     70  C   UNL A   1      32.885  36.817  31.190  1.00  0.00     0.275 C 
BRANCH  70  71
ATOM     71  O   UNL A   1      34.164  36.724  31.831  1.00  0.00    -0.458 OA
BRANCH  71  72
ATOM     72  C   UNL A   1      34.113  36.472  33.174  1.00  0.00     0.341 C 
ATOM     73  O   UNL A   1      33.618  37.218  34.007  1.00  0.00    -0.246 OA
BRANCH  72  74
ATOM     74  C   UNL A   1      34.641  35.169  33.509  1.00  0.00     0.098 A 
ATOM     75  C   UNL A   1      33.977  33.967  33.405  1.00  0.00     0.211 A 
ATOM     76  C   UNL A   1      35.936  34.848  34.009  1.00  0.00     0.068 A 
ATOM     77  O   UNL A   1      34.779  32.942  33.790  1.00  0.00    -0.462 OA
ATOM     78  C   UNL A   1      35.958  33.486  34.227  1.00  0.00     0.154 A 
BRANCH  78  79
ATOM     79  C   UNL A   1      37.056  32.707  34.869  1.00  0.00     0.117 A 
ATOM     80  C   UNL A   1      37.522  33.029  36.125  1.00  0.00     0.099 A 
ATOM     81  N   UNL A   1      37.717  31.666  34.231  1.00  0.00    -0.231 NA
ATOM     82  S   UNL A   1      38.798  31.979  36.559  1.00  0.00    -0.120 S 
ATOM     83  C   UNL A   1      38.698  31.231  35.006  1.00  0.00     0.142 A 
BRANCH  83  84
ATOM     84  C   UNL A   1      39.750  30.272  34.651  1.00  0.00     0.099 A 
ATOM     85  C   UNL A   1      40.874  30.120  35.465  1.00  0.00     0.033 A 
ATOM     86  N   UNL A   1      39.510  29.487  33.571  1.00  0.00    -0.252 NA
ATOM     87  C   UNL A   1      41.785  29.103  35.174  1.00  0.00     0.024 A 
ATOM     88  C   UNL A   1      40.423  28.516  33.307  1.00  0.00     0.132 A 
ATOM     89  C   UNL A   1      41.553  28.282  34.077  1.00  0.00     0.059 A 
ATOM     90  Cl  UNL A   1      42.633  27.004  33.701  1.00  0.00    -0.083 Cl
ENDBRANCH  83  84
ENDBRANCH  78  79
ENDBRANCH  72  74
ENDBRANCH  71  72
ENDBRANCH  70  71
ENDBRANCH   1  70
TORSDOF 13
ENDMDL
MODEL 3
REMARK VINA RESULT:     -12.2      5.742     11.109
REMARK SMILES O=C(OCCOC(=O)c1coc(-c2csc(-c3ccc(Cl)cn3)n2)c1)c1ccc(-c2c3nc(c(-c4c(F)c(F)c(F)c(F)c4F)c4ccc([nH]4)c(-c4c(F)c(F)c(F)c(F)c4F)c4nc(c(-c5c(F)c(F)c(F)c(F)c5F)c5ccc2[nH]5)C=C4)C=C3)cc1
REMARK SMILES IDX 4 1 3 2 2 3 1 4 26 5 27 6 88 7 28 8 87 9 29 10 30 11 31 12
REMARK SMILES IDX 81 13 32 14 86 15 80 16 82 17 33 18 85 19 79 20 78 21 34 23
REMARK SMILES IDX 66 24 46 25 65 26 47 27 50 28 64 29 83 30 48 31 49 32 63 34
REMARK SMILES IDX 84 35 51 36 35 37 36 38 44 39 37 40 38 41 42 42 45 43 39 44
REMARK SMILES IDX 40 45 43 46 41 47 67 48 68 49 76 50 69 51 70 52 74 53 77 54
REMARK SMILES IDX 71 55 72 56 75 57 73 58 52 59 53 60 61 61 54 62 55 63 59 64
REMARK SMILES IDX 62 65 56 66 57 67 60 68 58 69 5 70 6 71 7 72 8 73 9 74 10 75
REMARK SMILES IDX 25 76 11 77 12 78 13 79 14 80 24 81 15 82 16 83 17 84 18 85
REMARK SMILES IDX 23 86 19 87 22 88 20 89 21 90
REMARK H PARENT 82 22 50 33
REMARK Flexibility Score: inf
ROOT
ATOM      1  C   UNL A   1      39.014  19.975  25.750  1.00  0.00     0.275 C 
ENDROOT
BRANCH   1   2
ATOM      2  O   UNL A   1      40.153  19.096  25.735  1.00  0.00    -0.458 OA
BRANCH   2   3
ATOM      3  C   UNL A   1      41.449  19.348  26.030  1.00  0.00     0.338 C 
ATOM      4  O   UNL A   1      42.250  18.416  26.068  1.00  0.00    -0.246 OA
BRANCH   3   5
ATOM      5  C   UNL A   1      41.935  20.688  26.478  1.00  0.00     0.060 A 
ATOM      6  C   UNL A   1      42.158  21.073  27.801  1.00  0.00     0.016 A 
ATOM      7  C   UNL A   1      42.135  21.647  25.466  1.00  0.00     0.016 A 
ATOM      8  C   UNL A   1      42.629  22.354  28.103  1.00  0.00     0.010 A 
ATOM      9  C   UNL A   1      42.616  22.927  25.761  1.00  0.00     0.010 A 
ATOM     10  C   UNL A   1      42.856  23.288  27.088  1.00  0.00    -0.014 A 
BRANCH  10  11
ATOM     11  C   UNL A   1      43.192  24.681  27.452  1.00  0.00     0.031 A 
ATOM     12  C   UNL A   1      44.589  25.166  27.213  1.00  0.00     0.074 A 
ATOM     13  C   UNL A   1      42.246  25.511  27.926  1.00  0.00     0.049 A 
ATOM     14  N   UNL A   1      45.091  26.363  27.374  1.00  0.00    -0.248 NA
ATOM     15  C   UNL A   1      45.551  24.170  26.713  1.00  0.00     0.031 C 
ATOM     16  C   UNL A   1      40.853  25.146  28.168  1.00  0.00     0.029 A 
ATOM     17  N   UNL A   1      42.314  26.834  28.281  1.00  0.00    -0.354 N 
ATOM     18  C   UNL A   1      46.415  26.269  26.969  1.00  0.00     0.074 A 
ATOM     19  C   UNL A   1      46.657  24.889  26.610  1.00  0.00     0.031 C 
ATOM     20  C   UNL A   1      40.195  26.216  28.644  1.00  0.00     0.029 A 
ATOM     21  C   UNL A   1      41.125  27.339  28.749  1.00  0.00     0.049 A 
ATOM     22  H   UNL A   1      43.135  27.371  28.208  1.00  0.00     0.167 HD
ATOM     23  C   UNL A   1      47.340  27.253  26.885  1.00  0.00     0.037 A 
ATOM     24  C   UNL A   1      40.831  28.568  29.213  1.00  0.00     0.037 A 
ATOM     25  C   UNL A   1      47.099  28.615  27.273  1.00  0.00     0.049 A 
ATOM     26  C   UNL A   1      41.904  29.625  29.194  1.00  0.00     0.074 A 
ATOM     27  C   UNL A   1      47.968  29.690  27.245  1.00  0.00     0.029 A 
ATOM     28  N   UNL A   1      45.893  29.084  27.777  1.00  0.00    -0.354 N 
ATOM     29  N   UNL A   1      43.140  29.541  28.765  1.00  0.00    -0.248 NA
ATOM     30  C   UNL A   1      41.539  30.951  29.713  1.00  0.00     0.031 C 
ATOM     31  C   UNL A   1      47.300  30.801  27.774  1.00  0.00     0.029 A 
ATOM     32  C   UNL A   1      46.002  30.427  28.091  1.00  0.00     0.049 A 
ATOM     33  H   UNL A   1      45.081  28.540  27.896  1.00  0.00     0.167 HD
ATOM     34  C   UNL A   1      43.691  30.805  28.931  1.00  0.00     0.074 A 
ATOM     35  C   UNL A   1      42.650  31.640  29.494  1.00  0.00     0.031 C 
ATOM     36  C   UNL A   1      44.944  31.237  28.641  1.00  0.00     0.037 A 
BRANCH  23  37
ATOM     37  C   UNL A   1      48.693  26.863  26.375  1.00  0.00     0.064 A 
ATOM     38  C   UNL A   1      49.046  27.041  25.028  1.00  0.00     0.173 A 
ATOM     39  C   UNL A   1      49.635  26.272  27.229  1.00  0.00     0.173 A 
ATOM     40  F   UNL A   1      48.171  27.581  24.166  1.00  0.00    -0.203 F 
ATOM     41  C   UNL A   1      50.281  26.609  24.548  1.00  0.00     0.198 A 
ATOM     42  C   UNL A   1      50.877  25.864  26.751  1.00  0.00     0.198 A 
ATOM     43  F   UNL A   1      49.343  26.074  28.523  1.00  0.00    -0.203 F 
ATOM     44  F   UNL A   1      50.572  26.734  23.246  1.00  0.00    -0.200 F 
ATOM     45  C   UNL A   1      51.195  26.023  25.409  1.00  0.00     0.200 A 
ATOM     46  F   UNL A   1      51.761  25.298  27.585  1.00  0.00    -0.200 F 
ATOM     47  F   UNL A   1      52.377  25.596  24.945  1.00  0.00    -0.200 F 
ENDBRANCH  23  37
BRANCH  24  48
ATOM     48  C   UNL A   1      39.467  28.866  29.725  1.00  0.00     0.064 A 
ATOM     49  C   UNL A   1      39.121  28.621  31.061  1.00  0.00     0.173 A 
ATOM     50  C   UNL A   1      38.477  29.393  28.881  1.00  0.00     0.173 A 
ATOM     51  F   UNL A   1      40.024  28.098  31.902  1.00  0.00    -0.203 F 
ATOM     52  C   UNL A   1      37.832  28.876  31.529  1.00  0.00     0.198 A 
ATOM     53  C   UNL A   1      37.197  29.670  29.357  1.00  0.00     0.198 A 
ATOM     54  F   UNL A   1      38.756  29.644  27.594  1.00  0.00    -0.203 F 
ATOM     55  F   UNL A   1      37.516  28.594  32.800  1.00  0.00    -0.200 F 
ATOM     56  C   UNL A   1      36.873  29.405  30.678  1.00  0.00     0.200 A 
ATOM     57  F   UNL A   1      36.277  30.191  28.533  1.00  0.00    -0.200 F 
ATOM     58  F   UNL A   1      35.636  29.651  31.129  1.00  0.00    -0.200 F 
ENDBRANCH  24  48
BRANCH  36  59
ATOM     59  C   UNL A   1      45.245  32.682  28.897  1.00  0.00     0.064 A 
ATOM     60  C   UNL A   1      44.957  33.671  27.945  1.00  0.00     0.173 A 
ATOM     61  C   UNL A   1      45.776  33.088  30.130  1.00  0.00     0.173 A 
ATOM     62  F   UNL A   1      44.462  33.330  26.745  1.00  0.00    -0.203 F 
ATOM     63  C   UNL A   1      45.207  35.014  28.214  1.00  0.00     0.198 A 
ATOM     64  C   UNL A   1      46.000  34.433  30.405  1.00  0.00     0.198 A 
ATOM     65  F   UNL A   1      46.063  32.178  31.074  1.00  0.00    -0.203 F 
ATOM     66  F   UNL A   1      44.960  35.939  27.277  1.00  0.00    -0.200 F 
ATOM     67  C   UNL A   1      45.720  35.394  29.445  1.00  0.00     0.200 A 
ATOM     68  F   UNL A   1      46.484  34.800  31.600  1.00  0.00    -0.200 F 
ATOM     69  F   UNL A   1      45.950  36.688  29.706  1.00  0.00    -0.200 F 
ENDBRANCH  36  59
ENDBRANCH  10  11
ENDBRANCH   3   5
ENDBRANCH   2   3
ENDBRANCH   1   2
BRANCH   1  70
ATOM     70  C   UNL A   1      37.888  19.587  24.787  1.00  0.00     0.275 C 
BRANCH  70  71
ATOM     71  O   UNL A   1      36.654  20.276  25.029  1.00  0.00    -0.458 OA
BRANCH  71  72
ATOM     72  C   UNL A   1      35.531  19.518  24.845  1.00  0.00     0.341 C 
ATOM     73  O   UNL A   1      35.528  18.315  24.622  1.00  0.00    -0.246 OA
BRANCH  72  74
ATOM     74  C   UNL A   1      34.317  20.282  25.026  1.00  0.00     0.098 A 
ATOM     75  C   UNL A   1      33.030  19.807  24.915  1.00  0.00     0.211 A 
ATOM     76  C   UNL A   1      34.189  21.662  25.352  1.00  0.00     0.068 A 
ATOM     77  O   UNL A   1      32.132  20.794  25.164  1.00  0.00    -0.462 OA
ATOM     78  C   UNL A   1      32.840  21.950  25.364  1.00  0.00     0.154 A 
BRANCH  78  79
ATOM     79  C   UNL A   1      32.221  23.297  25.528  1.00  0.00     0.117 A 
ATOM     80  C   UNL A   1      31.012  23.605  24.940  1.00  0.00     0.099 A 
ATOM     81  N   UNL A   1      32.837  24.335  26.214  1.00  0.00    -0.231 NA
ATOM     82  S   UNL A   1      30.595  25.226  25.284  1.00  0.00    -0.120 S 
ATOM     83  C   UNL A   1      32.097  25.427  26.112  1.00  0.00     0.142 A 
BRANCH  83  84
ATOM     84  C   UNL A   1      32.458  26.786  26.531  1.00  0.00     0.099 A 
ATOM     85  C   UNL A   1      33.720  27.307  26.236  1.00  0.00     0.033 A 
ATOM     86  N   UNL A   1      31.475  27.519  27.110  1.00  0.00    -0.252 NA
ATOM     87  C   UNL A   1      33.980  28.647  26.526  1.00  0.00     0.024 A 
ATOM     88  C   UNL A   1      31.765  28.816  27.392  1.00  0.00     0.132 A 
ATOM     89  C   UNL A   1      32.983  29.418  27.111  1.00  0.00     0.059 A 
ATOM     90  Cl  UNL A   1      33.253  31.076  27.458  1.00  0.00    -0.083 Cl
ENDBRANCH  83  84
ENDBRANCH  78  79
ENDBRANCH  72  74
ENDBRANCH  71  72
ENDBRANCH  70  71
ENDBRANCH   1  70
TORSDOF 13
ENDMDL
