MODEL 1
REMARK VINA RESULT:     -12.4      0.000      0.000
REMARK SMILES Cn1ncc(C(=O)OCCOC(=O)c2ccc(-c3c4nc(c(-c5c(F)c(F)c(F)c(F)c5F)c5ccc([nH]5)c(-c5c(F)c(F)c(F)c(F)c5F)c5nc(c(-c6c(F)c(F)c(F)c(F)c6F)c6ccc3[nH]6)C=C5)C=C4)cc2)c1C(=O)N1CCN(S(C)(=O)=O)CC1
REMARK SMILES IDX 9 1 8 2 6 3 7 4 5 5 1 6 2 7 3 8 77 9 4 10 78 11 79 12 80 13
REMARK SMILES IDX 81 14 89 15 82 16 88 17 83 18 84 19 85 20 86 21 87 22 10 23
REMARK SMILES IDX 11 24 12 25 13 26 14 27 15 28 76 29 16 30 75 31 17 32 18 33
REMARK SMILES IDX 19 34 69 35 20 36 74 37 68 38 70 39 21 40 73 41 67 42 66 43
REMARK SMILES IDX 22 45 54 46 34 47 53 48 35 49 38 50 52 51 71 52 36 53 37 54
REMARK SMILES IDX 51 56 72 57 39 58 23 59 24 60 32 61 25 62 26 63 30 64 33 65
REMARK SMILES IDX 27 66 28 67 31 68 29 69 55 70 56 71 64 72 57 73 58 74 62 75
REMARK SMILES IDX 65 76 59 77 60 78 63 79 61 80 40 81 41 82 49 83 42 84 43 85
REMARK SMILES IDX 47 86 50 87 44 88 45 89 48 90 46 91
REMARK H PARENT 70 44 38 55
REMARK Flexibility Score: inf
ROOT
ATOM      1  C   UNL A   1      31.745  28.555  27.253  1.00  0.00     0.275 C 
ENDROOT
BRANCH   1   2
ATOM      2  O   UNL A   1      32.511  27.464  26.702  1.00  0.00    -0.458 OA
BRANCH   2   3
ATOM      3  C   UNL A   1      31.799  26.482  26.081  1.00  0.00     0.342 C 
ATOM      4  O   UNL A   1      30.995  25.748  26.644  1.00  0.00    -0.246 OA
BRANCH   3   5
ATOM      5  C   UNL A   1      31.943  26.473  24.634  1.00  0.00     0.111 A 
ATOM      6  C   UNL A   1      32.894  25.582  21.258  1.00  0.00     0.174 C 
ATOM      7  N   UNL A   1      32.457  26.104  22.531  1.00  0.00    -0.262 N 
ATOM      8  N   UNL A   1      31.445  26.987  22.473  1.00  0.00    -0.180 NA
ATOM      9  C   UNL A   1      32.822  25.752  23.819  1.00  0.00     0.140 A 
ATOM     10  C   UNL A   1      31.078  27.129  23.738  1.00  0.00     0.151 A 
BRANCH   9  11
ATOM     11  C   UNL A   1      33.733  24.717  24.273  1.00  0.00     0.273 C 
ATOM     12  O   UNL A   1      34.839  24.978  24.746  1.00  0.00    -0.267 OA
ATOM     13  N   UNL A   1      33.254  23.420  24.370  1.00  0.00    -0.335 N 
ATOM     14  C   UNL A   1      33.630  22.697  25.582  1.00  0.00     0.136 C 
ATOM     15  C   UNL A   1      33.081  22.574  23.188  1.00  0.00     0.136 C 
ATOM     16  C   UNL A   1      32.616  21.604  25.899  1.00  0.00     0.123 C 
ATOM     17  C   UNL A   1      32.118  21.399  23.452  1.00  0.00     0.123 C 
ATOM     18  N   UNL A   1      32.416  20.707  24.734  1.00  0.00    -0.199 NA
BRANCH  18  19
ATOM     19  S   UNL A   1      33.118  19.184  24.726  1.00  0.00     0.211 S 
ATOM     20  C   UNL A   1      32.542  18.487  23.192  1.00  0.00     0.176 C 
ATOM     21  O   UNL A   1      34.549  19.349  24.627  1.00  0.00    -0.213 OA
ATOM     22  O   UNL A   1      32.520  18.423  25.803  1.00  0.00    -0.213 OA
ENDBRANCH  18  19
ENDBRANCH   9  11
ENDBRANCH   3   5
ENDBRANCH   2   3
ENDBRANCH   1   2
BRANCH   1  23
ATOM     23  C   UNL A   1      31.817  29.782  26.344  1.00  0.00     0.275 C 
BRANCH  23  24
ATOM     24  O   UNL A   1      33.177  30.243  26.246  1.00  0.00    -0.458 OA
BRANCH  24  25
ATOM     25  C   UNL A   1      33.508  31.258  27.077  1.00  0.00     0.338 C 
ATOM     26  O   UNL A   1      32.820  32.205  27.417  1.00  0.00    -0.246 OA
BRANCH  25  27
ATOM     27  C   UNL A   1      34.836  30.999  27.647  1.00  0.00     0.060 A 
ATOM     28  C   UNL A   1      35.152  29.684  27.969  1.00  0.00     0.016 A 
ATOM     29  C   UNL A   1      35.698  32.031  28.001  1.00  0.00     0.016 A 
ATOM     30  C   UNL A   1      36.288  29.387  28.713  1.00  0.00     0.010 A 
ATOM     31  C   UNL A   1      36.888  31.726  28.677  1.00  0.00     0.010 A 
ATOM     32  C   UNL A   1      37.181  30.403  29.068  1.00  0.00    -0.014 A 
BRANCH  32  33
ATOM     33  C   UNL A   1      38.380  30.086  29.893  1.00  0.00     0.031 A 
ATOM     34  C   UNL A   1      39.459  29.197  29.338  1.00  0.00     0.074 A 
ATOM     35  C   UNL A   1      38.525  30.615  31.125  1.00  0.00     0.049 A 
ATOM     36  N   UNL A   1      40.484  28.655  29.947  1.00  0.00    -0.248 NA
ATOM     37  C   UNL A   1      39.366  28.863  27.909  1.00  0.00     0.031 C 
ATOM     38  C   UNL A   1      37.594  31.547  31.764  1.00  0.00     0.029 A 
ATOM     39  N   UNL A   1      39.515  30.445  32.063  1.00  0.00    -0.354 N 
ATOM     40  C   UNL A   1      41.123  27.874  28.991  1.00  0.00     0.074 A 
ATOM     41  C   UNL A   1      40.369  28.009  27.764  1.00  0.00     0.031 C 
ATOM     42  C   UNL A   1      38.070  31.888  32.971  1.00  0.00     0.029 A 
ATOM     43  C   UNL A   1      39.290  31.131  33.232  1.00  0.00     0.049 A 
ATOM     44  H   UNL A   1      40.311  29.886  31.910  1.00  0.00     0.167 HD
ATOM     45  C   UNL A   1      42.237  27.115  29.130  1.00  0.00     0.037 A 
ATOM     46  C   UNL A   1      39.957  31.115  34.401  1.00  0.00     0.037 A 
ATOM     47  C   UNL A   1      43.016  27.032  30.338  1.00  0.00     0.049 A 
ATOM     48  C   UNL A   1      41.161  30.226  34.545  1.00  0.00     0.074 A 
ATOM     49  C   UNL A   1      44.170  26.303  30.574  1.00  0.00     0.029 A 
ATOM     50  N   UNL A   1      42.729  27.712  31.512  1.00  0.00    -0.354 N 
ATOM     51  N   UNL A   1      41.726  29.446  33.655  1.00  0.00    -0.248 NA
ATOM     52  C   UNL A   1      41.809  30.198  35.865  1.00  0.00     0.031 C 
ATOM     53  C   UNL A   1      44.556  26.510  31.901  1.00  0.00     0.029 A 
ATOM     54  C   UNL A   1      43.673  27.406  32.481  1.00  0.00     0.049 A 
ATOM     55  H   UNL A   1      41.968  28.324  31.639  1.00  0.00     0.167 HD
ATOM     56  C   UNL A   1      42.800  28.847  34.300  1.00  0.00     0.074 A 
ATOM     57  C   UNL A   1      42.822  29.371  35.650  1.00  0.00     0.031 C 
ATOM     58  C   UNL A   1      43.684  27.940  33.818  1.00  0.00     0.037 A 
BRANCH  45  59
ATOM     59  C   UNL A   1      42.663  26.283  27.956  1.00  0.00     0.064 A 
ATOM     60  C   UNL A   1      42.161  24.993  27.733  1.00  0.00     0.173 A 
ATOM     61  C   UNL A   1      43.564  26.807  27.014  1.00  0.00     0.173 A 
ATOM     62  F   UNL A   1      41.308  24.441  28.608  1.00  0.00    -0.203 F 
ATOM     63  C   UNL A   1      42.564  24.249  26.626  1.00  0.00     0.198 A 
ATOM     64  C   UNL A   1      43.941  26.073  25.893  1.00  0.00     0.198 A 
ATOM     65  F   UNL A   1      44.071  28.039  27.176  1.00  0.00    -0.203 F 
ATOM     66  F   UNL A   1      42.106  23.001  26.458  1.00  0.00    -0.200 F 
ATOM     67  C   UNL A   1      43.447  24.792  25.704  1.00  0.00     0.200 A 
ATOM     68  F   UNL A   1      44.784  26.604  24.998  1.00  0.00    -0.200 F 
ATOM     69  F   UNL A   1      43.826  24.077  24.635  1.00  0.00    -0.200 F 
ENDBRANCH  45  59
BRANCH  46  70
ATOM     70  C   UNL A   1      39.472  31.931  35.546  1.00  0.00     0.064 A 
ATOM     71  C   UNL A   1      39.913  33.246  35.737  1.00  0.00     0.173 A 
ATOM     72  C   UNL A   1      38.563  31.407  36.480  1.00  0.00     0.173 A 
ATOM     73  F   UNL A   1      40.805  33.783  34.891  1.00  0.00    -0.203 F 
ATOM     74  C   UNL A   1      39.475  34.003  36.823  1.00  0.00     0.198 A 
ATOM     75  C   UNL A   1      38.099  32.175  37.545  1.00  0.00     0.198 A 
ATOM     76  F   UNL A   1      38.112  30.151  36.347  1.00  0.00    -0.203 F 
ATOM     77  F   UNL A   1      39.950  35.242  37.008  1.00  0.00    -0.200 F 
ATOM     78  C   UNL A   1      38.563  33.469  37.721  1.00  0.00     0.200 A 
ATOM     79  F   UNL A   1      37.208  31.660  38.401  1.00  0.00    -0.200 F 
ATOM     80  F   UNL A   1      38.137  34.199  38.761  1.00  0.00    -0.200 F 
ENDBRANCH  46  70
BRANCH  58  81
ATOM     81  C   UNL A   1      44.768  27.480  34.748  1.00  0.00     0.064 A 
ATOM     82  C   UNL A   1      45.981  28.176  34.862  1.00  0.00     0.173 A 
ATOM     83  C   UNL A   1      44.577  26.350  35.556  1.00  0.00     0.173 A 
ATOM     84  F   UNL A   1      46.216  29.253  34.098  1.00  0.00    -0.203 F 
ATOM     85  C   UNL A   1      46.973  27.741  35.736  1.00  0.00     0.198 A 
ATOM     86  C   UNL A   1      45.561  25.935  36.450  1.00  0.00     0.198 A 
ATOM     87  F   UNL A   1      43.433  25.654  35.488  1.00  0.00    -0.203 F 
ATOM     88  F   UNL A   1      48.143  28.393  35.796  1.00  0.00    -0.200 F 
ATOM     89  C   UNL A   1      46.760  26.627  36.534  1.00  0.00     0.200 A 
ATOM     90  F   UNL A   1      45.349  24.865  37.228  1.00  0.00    -0.200 F 
ATOM     91  F   UNL A   1      47.715  26.213  37.379  1.00  0.00    -0.200 F 
ENDBRANCH  58  81
ENDBRANCH  32  33
ENDBRANCH  25  27
ENDBRANCH  24  25
ENDBRANCH  23  24
ENDBRANCH   1  23
TORSDOF 13
ENDMDL
MODEL 2
REMARK VINA RESULT:     -12.0      4.374      9.767
REMARK SMILES Cn1ncc(C(=O)OCCOC(=O)c2ccc(-c3c4nc(c(-c5c(F)c(F)c(F)c(F)c5F)c5ccc([nH]5)c(-c5c(F)c(F)c(F)c(F)c5F)c5nc(c(-c6c(F)c(F)c(F)c(F)c6F)c6ccc3[nH]6)C=C5)C=C4)cc2)c1C(=O)N1CCN(S(C)(=O)=O)CC1
REMARK SMILES IDX 9 1 8 2 6 3 7 4 5 5 1 6 2 7 3 8 77 9 4 10 78 11 79 12 80 13
REMARK SMILES IDX 81 14 89 15 82 16 88 17 83 18 84 19 85 20 86 21 87 22 10 23
REMARK SMILES IDX 11 24 12 25 13 26 14 27 15 28 76 29 16 30 75 31 17 32 18 33
REMARK SMILES IDX 19 34 69 35 20 36 74 37 68 38 70 39 21 40 73 41 67 42 66 43
REMARK SMILES IDX 22 45 54 46 34 47 53 48 35 49 38 50 52 51 71 52 36 53 37 54
REMARK SMILES IDX 51 56 72 57 39 58 23 59 24 60 32 61 25 62 26 63 30 64 33 65
REMARK SMILES IDX 27 66 28 67 31 68 29 69 55 70 56 71 64 72 57 73 58 74 62 75
REMARK SMILES IDX 65 76 59 77 60 78 63 79 61 80 40 81 41 82 49 83 42 84 43 85
REMARK SMILES IDX 47 86 50 87 44 88 45 89 48 90 46 91
REMARK H PARENT 70 44 38 55
REMARK Flexibility Score: inf
ROOT
ATOM      1  C   UNL A   1      35.441  21.266  25.002  1.00  0.00     0.275 C 
ENDROOT
BRANCH   1   2
ATOM      2  O   UNL A   1      35.360  22.475  24.219  1.00  0.00    -0.458 OA
BRANCH   2   3
ATOM      3  C   UNL A   1      34.143  22.763  23.681  1.00  0.00     0.342 C 
ATOM      4  O   UNL A   1      33.957  23.056  22.506  1.00  0.00    -0.246 OA
BRANCH   3   5
ATOM      5  C   UNL A   1      33.027  22.534  24.585  1.00  0.00     0.111 A 
ATOM      6  C   UNL A   1      30.224  23.038  26.817  1.00  0.00     0.174 C 
ATOM      7  N   UNL A   1      31.343  22.657  25.989  1.00  0.00    -0.262 N 
ATOM      8  N   UNL A   1      31.365  21.366  25.611  1.00  0.00    -0.180 NA
ATOM      9  C   UNL A   1      32.336  23.428  25.410  1.00  0.00     0.140 A 
ATOM     10  C   UNL A   1      32.319  21.322  24.694  1.00  0.00     0.151 A 
BRANCH   9  11
ATOM     11  C   UNL A   1      32.523  24.867  25.434  1.00  0.00     0.273 C 
ATOM     12  O   UNL A   1      33.465  25.396  26.025  1.00  0.00    -0.267 OA
ATOM     13  N   UNL A   1      31.741  25.643  24.594  1.00  0.00    -0.335 N 
ATOM     14  C   UNL A   1      32.444  26.704  23.879  1.00  0.00     0.136 C 
ATOM     15  C   UNL A   1      30.343  25.945  24.908  1.00  0.00     0.136 C 
ATOM     16  C   UNL A   1      31.714  27.066  22.590  1.00  0.00     0.123 C 
ATOM     17  C   UNL A   1      29.553  26.389  23.661  1.00  0.00     0.123 C 
ATOM     18  N   UNL A   1      30.293  27.397  22.856  1.00  0.00    -0.199 NA
BRANCH  18  19
ATOM     19  S   UNL A   1      29.796  28.998  22.849  1.00  0.00     0.211 S 
ATOM     20  C   UNL A   1      28.025  28.868  22.977  1.00  0.00     0.176 C 
ATOM     21  O   UNL A   1      30.281  29.625  24.057  1.00  0.00    -0.213 OA
ATOM     22  O   UNL A   1      30.100  29.543  21.542  1.00  0.00    -0.213 OA
ENDBRANCH  18  19
ENDBRANCH   9  11
ENDBRANCH   3   5
ENDBRANCH   2   3
ENDBRANCH   1   2
BRANCH   1  23
ATOM     23  C   UNL A   1      36.861  20.701  24.983  1.00  0.00     0.275 C 
BRANCH  23  24
ATOM     24  O   UNL A   1      37.811  21.745  25.266  1.00  0.00    -0.458 OA
BRANCH  24  25
ATOM     25  C   UNL A   1      38.894  21.367  25.982  1.00  0.00     0.338 C 
ATOM     26  O   UNL A   1      39.388  20.256  26.067  1.00  0.00    -0.246 OA
BRANCH  25  27
ATOM     27  C   UNL A   1      39.510  22.555  26.588  1.00  0.00     0.060 A 
ATOM     28  C   UNL A   1      39.049  23.799  26.172  1.00  0.00     0.016 A 
ATOM     29  C   UNL A   1      40.614  22.464  27.428  1.00  0.00     0.016 A 
ATOM     30  C   UNL A   1      39.725  24.962  26.524  1.00  0.00     0.010 A 
ATOM     31  C   UNL A   1      41.246  23.640  27.854  1.00  0.00     0.010 A 
ATOM     32  C   UNL A   1      40.828  24.901  27.381  1.00  0.00    -0.014 A 
BRANCH  32  33
ATOM     33  C   UNL A   1      41.569  26.145  27.729  1.00  0.00     0.031 A 
ATOM     34  C   UNL A   1      40.911  27.198  28.580  1.00  0.00     0.074 A 
ATOM     35  C   UNL A   1      42.840  26.325  27.316  1.00  0.00     0.049 A 
ATOM     36  N   UNL A   1      41.307  28.418  28.846  1.00  0.00    -0.248 NA
ATOM     37  C   UNL A   1      39.632  26.833  29.206  1.00  0.00     0.031 C 
ATOM     38  C   UNL A   1      43.627  25.361  26.545  1.00  0.00     0.029 A 
ATOM     39  N   UNL A   1      43.697  27.386  27.489  1.00  0.00    -0.354 N 
ATOM     40  C   UNL A   1      40.301  28.982  29.620  1.00  0.00     0.074 A 
ATOM     41  C   UNL A   1      39.275  27.974  29.779  1.00  0.00     0.031 C 
ATOM     42  C   UNL A   1      44.855  25.859  26.338  1.00  0.00     0.029 A 
ATOM     43  C   UNL A   1      44.916  27.213  26.879  1.00  0.00     0.049 A 
ATOM     44  H   UNL A   1      43.460  28.192  28.002  1.00  0.00     0.167 HD
ATOM     45  C   UNL A   1      40.242  30.228  30.149  1.00  0.00     0.037 A 
ATOM     46  C   UNL A   1      45.948  28.063  26.725  1.00  0.00     0.037 A 
ATOM     47  C   UNL A   1      41.291  31.207  30.036  1.00  0.00     0.049 A 
ATOM     48  C   UNL A   1      45.837  29.457  27.277  1.00  0.00     0.074 A 
ATOM     49  C   UNL A   1      41.333  32.493  30.549  1.00  0.00     0.029 A 
ATOM     50  N   UNL A   1      42.493  31.005  29.374  1.00  0.00    -0.354 N 
ATOM     51  N   UNL A   1      44.860  30.003  27.959  1.00  0.00    -0.248 NA
ATOM     52  C   UNL A   1      46.967  30.363  27.019  1.00  0.00     0.031 C 
ATOM     53  C   UNL A   1      42.541  33.081  30.164  1.00  0.00     0.029 A 
ATOM     54  C   UNL A   1      43.275  32.147  29.451  1.00  0.00     0.049 A 
ATOM     55  H   UNL A   1      42.753  30.171  28.918  1.00  0.00     0.167 HD
ATOM     56  C   UNL A   1      45.259  31.306  28.223  1.00  0.00     0.074 A 
ATOM     57  C   UNL A   1      46.579  31.463  27.648  1.00  0.00     0.031 C 
ATOM     58  C   UNL A   1      44.589  32.286  28.878  1.00  0.00     0.037 A 
BRANCH  45  59
ATOM     59  C   UNL A   1      38.984  30.621  30.868  1.00  0.00     0.064 A 
ATOM     60  C   UNL A   1      38.855  30.513  32.260  1.00  0.00     0.173 A 
ATOM     61  C   UNL A   1      37.901  31.152  30.148  1.00  0.00     0.173 A 
ATOM     62  F   UNL A   1      39.854  30.000  32.992  1.00  0.00    -0.203 F 
ATOM     63  C   UNL A   1      37.679  30.898  32.902  1.00  0.00     0.198 A 
ATOM     64  C   UNL A   1      36.740  31.564  30.796  1.00  0.00     0.198 A 
ATOM     65  F   UNL A   1      37.974  31.282  28.814  1.00  0.00    -0.203 F 
ATOM     66  F   UNL A   1      37.561  30.744  34.228  1.00  0.00    -0.200 F 
ATOM     67  C   UNL A   1      36.627  31.430  32.171  1.00  0.00     0.200 A 
ATOM     68  F   UNL A   1      35.730  32.089  30.090  1.00  0.00    -0.200 F 
ATOM     69  F   UNL A   1      35.501  31.808  32.793  1.00  0.00    -0.200 F 
ENDBRANCH  45  59
BRANCH  46  70
ATOM     70  C   UNL A   1      47.158  27.637  25.971  1.00  0.00     0.064 A 
ATOM     71  C   UNL A   1      47.205  27.715  24.574  1.00  0.00     0.173 A 
ATOM     72  C   UNL A   1      48.289  27.133  26.634  1.00  0.00     0.173 A 
ATOM     73  F   UNL A   1      46.140  28.161  23.892  1.00  0.00    -0.203 F 
ATOM     74  C   UNL A   1      48.331  27.295  23.866  1.00  0.00     0.198 A 
ATOM     75  C   UNL A   1      49.425  26.745  25.930  1.00  0.00     0.198 A 
ATOM     76  F   UNL A   1      48.294  27.032  27.972  1.00  0.00    -0.203 F 
ATOM     77  F   UNL A   1      48.332  27.336  22.527  1.00  0.00    -0.200 F 
ATOM     78  C   UNL A   1      49.442  26.818  24.545  1.00  0.00     0.200 A 
ATOM     79  F   UNL A   1      50.501  26.299  26.590  1.00  0.00    -0.200 F 
ATOM     80  F   UNL A   1      50.526  26.421  23.865  1.00  0.00    -0.200 F 
ENDBRANCH  46  70
BRANCH  58  81
ATOM     81  C   UNL A   1      45.286  33.605  29.033  1.00  0.00     0.064 A 
ATOM     82  C   UNL A   1      45.122  34.637  28.097  1.00  0.00     0.173 A 
ATOM     83  C   UNL A   1      46.103  33.849  30.147  1.00  0.00     0.173 A 
ATOM     84  F   UNL A   1      44.365  34.446  27.006  1.00  0.00    -0.203 F 
ATOM     85  C   UNL A   1      45.770  35.858  28.260  1.00  0.00     0.198 A 
ATOM     86  C   UNL A   1      46.726  35.082  30.321  1.00  0.00     0.198 A 
ATOM     87  F   UNL A   1      46.287  32.896  31.073  1.00  0.00    -0.203 F 
ATOM     88  F   UNL A   1      45.637  36.814  27.330  1.00  0.00    -0.200 F 
ATOM     89  C   UNL A   1      46.565  36.082  29.374  1.00  0.00     0.200 A 
ATOM     90  F   UNL A   1      47.483  35.301  31.405  1.00  0.00    -0.200 F 
ATOM     91  F   UNL A   1      47.183  37.261  29.532  1.00  0.00    -0.200 F 
ENDBRANCH  58  81
ENDBRANCH  32  33
ENDBRANCH  25  27
ENDBRANCH  24  25
ENDBRANCH  23  24
ENDBRANCH   1  23
TORSDOF 13
ENDMDL
MODEL 3
REMARK VINA RESULT:     -12.0      1.911      3.697
REMARK SMILES Cn1ncc(C(=O)OCCOC(=O)c2ccc(-c3c4nc(c(-c5c(F)c(F)c(F)c(F)c5F)c5ccc([nH]5)c(-c5c(F)c(F)c(F)c(F)c5F)c5nc(c(-c6c(F)c(F)c(F)c(F)c6F)c6ccc3[nH]6)C=C5)C=C4)cc2)c1C(=O)N1CCN(S(C)(=O)=O)CC1
REMARK SMILES IDX 9 1 8 2 6 3 7 4 5 5 1 6 2 7 3 8 77 9 4 10 78 11 79 12 80 13
REMARK SMILES IDX 81 14 89 15 82 16 88 17 83 18 84 19 85 20 86 21 87 22 10 23
REMARK SMILES IDX 11 24 12 25 13 26 14 27 15 28 76 29 16 30 75 31 17 32 18 33
REMARK SMILES IDX 19 34 69 35 20 36 74 37 68 38 70 39 21 40 73 41 67 42 66 43
REMARK SMILES IDX 22 45 54 46 34 47 53 48 35 49 38 50 52 51 71 52 36 53 37 54
REMARK SMILES IDX 51 56 72 57 39 58 23 59 24 60 32 61 25 62 26 63 30 64 33 65
REMARK SMILES IDX 27 66 28 67 31 68 29 69 55 70 56 71 64 72 57 73 58 74 62 75
REMARK SMILES IDX 65 76 59 77 60 78 63 79 61 80 40 81 41 82 49 83 42 84 43 85
REMARK SMILES IDX 47 86 50 87 44 88 45 89 48 90 46 91
REMARK H PARENT 70 44 38 55
REMARK Flexibility Score: inf
ROOT
ATOM      1  C   UNL A   1      31.940  28.381  26.887  1.00  0.00     0.275 C 
ENDROOT
BRANCH   1   2
ATOM      2  O   UNL A   1      32.720  27.393  26.182  1.00  0.00    -0.458 OA
BRANCH   2   3
ATOM      3  C   UNL A   1      32.249  26.115  26.221  1.00  0.00     0.342 C 
ATOM      4  O   UNL A   1      31.278  25.755  26.876  1.00  0.00    -0.246 OA
BRANCH   3   5
ATOM      5  C   UNL A   1      32.897  25.218  25.278  1.00  0.00     0.111 A 
ATOM      6  C   UNL A   1      33.666  23.269  22.328  1.00  0.00     0.174 C 
ATOM      7  N   UNL A   1      33.492  23.941  23.592  1.00  0.00    -0.262 N 
ATOM      8  N   UNL A   1      34.585  23.988  24.374  1.00  0.00    -0.180 NA
ATOM      9  C   UNL A   1      32.418  24.661  24.087  1.00  0.00     0.140 A 
ATOM     10  C   UNL A   1      34.250  24.835  25.335  1.00  0.00     0.151 A 
BRANCH   9  11
ATOM     11  C   UNL A   1      31.152  24.987  23.456  1.00  0.00     0.273 C 
ATOM     12  O   UNL A   1      30.323  24.124  23.164  1.00  0.00    -0.267 OA
ATOM     13  N   UNL A   1      30.784  26.321  23.377  1.00  0.00    -0.335 N 
ATOM     14  C   UNL A   1      29.393  26.613  23.715  1.00  0.00     0.136 C 
ATOM     15  C   UNL A   1      31.369  27.222  22.382  1.00  0.00     0.136 C 
ATOM     16  C   UNL A   1      29.244  28.051  24.199  1.00  0.00     0.123 C 
ATOM     17  C   UNL A   1      31.195  28.703  22.769  1.00  0.00     0.123 C 
ATOM     18  N   UNL A   1      29.809  29.007  23.216  1.00  0.00    -0.199 NA
BRANCH  18  19
ATOM     19  S   UNL A   1      28.782  29.894  22.231  1.00  0.00     0.211 S 
ATOM     20  C   UNL A   1      28.530  31.391  23.161  1.00  0.00     0.176 C 
ATOM     21  O   UNL A   1      29.500  30.237  21.026  1.00  0.00    -0.213 OA
ATOM     22  O   UNL A   1      27.515  29.193  22.181  1.00  0.00    -0.213 OA
ENDBRANCH  18  19
ENDBRANCH   9  11
ENDBRANCH   3   5
ENDBRANCH   2   3
ENDBRANCH   1   2
BRANCH   1  23
ATOM     23  C   UNL A   1      31.931  29.708  26.128  1.00  0.00     0.275 C 
BRANCH  23  24
ATOM     24  O   UNL A   1      33.257  30.269  26.100  1.00  0.00    -0.458 OA
BRANCH  24  25
ATOM     25  C   UNL A   1      33.516  31.194  27.052  1.00  0.00     0.338 C 
ATOM     26  O   UNL A   1      32.773  32.061  27.478  1.00  0.00    -0.246 OA
BRANCH  25  27
ATOM     27  C   UNL A   1      34.843  30.936  27.627  1.00  0.00     0.060 A 
ATOM     28  C   UNL A   1      35.151  29.623  27.966  1.00  0.00     0.016 A 
ATOM     29  C   UNL A   1      35.710  31.967  27.968  1.00  0.00     0.016 A 
ATOM     30  C   UNL A   1      36.284  29.329  28.715  1.00  0.00     0.010 A 
ATOM     31  C   UNL A   1      36.897  31.664  28.649  1.00  0.00     0.010 A 
ATOM     32  C   UNL A   1      37.182  30.345  29.058  1.00  0.00    -0.014 A 
BRANCH  32  33
ATOM     33  C   UNL A   1      38.378  30.031  29.888  1.00  0.00     0.031 A 
ATOM     34  C   UNL A   1      39.467  29.152  29.334  1.00  0.00     0.074 A 
ATOM     35  C   UNL A   1      38.513  30.555  31.123  1.00  0.00     0.049 A 
ATOM     36  N   UNL A   1      40.492  28.614  29.946  1.00  0.00    -0.248 NA
ATOM     37  C   UNL A   1      39.384  28.825  27.903  1.00  0.00     0.031 C 
ATOM     38  C   UNL A   1      37.573  31.477  31.762  1.00  0.00     0.029 A 
ATOM     39  N   UNL A   1      39.500  30.387  32.065  1.00  0.00    -0.354 N 
ATOM     40  C   UNL A   1      41.142  27.842  28.990  1.00  0.00     0.074 A 
ATOM     41  C   UNL A   1      40.394  27.978  27.759  1.00  0.00     0.031 C 
ATOM     42  C   UNL A   1      38.039  31.816  32.972  1.00  0.00     0.029 A 
ATOM     43  C   UNL A   1      39.263  31.065  33.236  1.00  0.00     0.049 A 
ATOM     44  H   UNL A   1      40.300  29.833  31.915  1.00  0.00     0.167 HD
ATOM     45  C   UNL A   1      42.260  27.090  29.132  1.00  0.00     0.037 A 
ATOM     46  C   UNL A   1      39.924  31.048  34.409  1.00  0.00     0.037 A 
ATOM     47  C   UNL A   1      43.033  27.005  30.344  1.00  0.00     0.049 A 
ATOM     48  C   UNL A   1      41.132  30.166  34.556  1.00  0.00     0.074 A 
ATOM     49  C   UNL A   1      44.190  26.283  30.582  1.00  0.00     0.029 A 
ATOM     50  N   UNL A   1      42.734  27.678  31.520  1.00  0.00    -0.354 N 
ATOM     51  N   UNL A   1      41.708  29.395  33.666  1.00  0.00    -0.248 NA
ATOM     52  C   UNL A   1      41.773  30.136  35.879  1.00  0.00     0.031 C 
ATOM     53  C   UNL A   1      44.568  26.486  31.913  1.00  0.00     0.029 A 
ATOM     54  C   UNL A   1      43.675  27.373  32.492  1.00  0.00     0.049 A 
ATOM     55  H   UNL A   1      41.968  28.284  31.645  1.00  0.00     0.167 HD
ATOM     56  C   UNL A   1      42.782  28.800  34.313  1.00  0.00     0.074 A 
ATOM     57  C   UNL A   1      42.793  29.317  35.666  1.00  0.00     0.031 C 
ATOM     58  C   UNL A   1      43.675  27.900  33.831  1.00  0.00     0.037 A 
BRANCH  45  59
ATOM     59  C   UNL A   1      42.698  26.266  27.956  1.00  0.00     0.064 A 
ATOM     60  C   UNL A   1      43.604  26.750  27.001  1.00  0.00     0.173 A 
ATOM     61  C   UNL A   1      42.229  24.951  27.807  1.00  0.00     0.173 A 
ATOM     62  F   UNL A   1      44.072  28.004  27.090  1.00  0.00    -0.203 F 
ATOM     63  C   UNL A   1      44.003  25.957  25.927  1.00  0.00     0.198 A 
ATOM     64  C   UNL A   1      42.654  24.152  26.749  1.00  0.00     0.198 A 
ATOM     65  F   UNL A   1      41.365  24.436  28.695  1.00  0.00    -0.203 F 
ATOM     66  F   UNL A   1      44.834  26.457  25.001  1.00  0.00    -0.200 F 
ATOM     67  C   UNL A   1      43.534  24.658  25.806  1.00  0.00     0.200 A 
ATOM     68  F   UNL A   1      42.209  22.892  26.642  1.00  0.00    -0.200 F 
ATOM     69  F   UNL A   1      43.927  23.894  24.776  1.00  0.00    -0.200 F 
ENDBRANCH  45  59
BRANCH  46  70
ATOM     70  C   UNL A   1      39.426  31.855  35.556  1.00  0.00     0.064 A 
ATOM     71  C   UNL A   1      38.502  31.326  36.466  1.00  0.00     0.173 A 
ATOM     72  C   UNL A   1      39.858  33.175  35.759  1.00  0.00     0.173 A 
ATOM     73  F   UNL A   1      38.036  30.080  36.299  1.00  0.00    -0.203 F 
ATOM     74  C   UNL A   1      38.020  32.090  37.529  1.00  0.00     0.198 A 
ATOM     75  C   UNL A   1      39.402  33.926  36.839  1.00  0.00     0.198 A 
ATOM     76  F   UNL A   1      40.738  33.732  34.913  1.00  0.00    -0.203 F 
ATOM     77  F   UNL A   1      37.101  31.575  38.357  1.00  0.00    -0.200 F 
ATOM     78  C   UNL A   1      38.476  33.385  37.718  1.00  0.00     0.200 A 
ATOM     79  F   UNL A   1      39.855  35.172  37.026  1.00  0.00    -0.200 F 
ATOM     80  F   UNL A   1      38.017  34.117  38.743  1.00  0.00    -0.200 F 
ENDBRANCH  46  70
BRANCH  58  81
ATOM     81  C   UNL A   1      44.756  27.443  34.765  1.00  0.00     0.064 A 
ATOM     82  C   UNL A   1      45.999  28.093  34.824  1.00  0.00     0.173 A 
ATOM     83  C   UNL A   1      44.535  26.364  35.634  1.00  0.00     0.173 A 
ATOM     84  F   UNL A   1      46.263  29.119  34.002  1.00  0.00    -0.203 F 
ATOM     85  C   UNL A   1      46.989  27.662  35.702  1.00  0.00     0.198 A 
ATOM     86  C   UNL A   1      45.518  25.954  36.531  1.00  0.00     0.198 A 
ATOM     87  F   UNL A   1      43.362  25.714  35.620  1.00  0.00    -0.203 F 
ATOM     88  F   UNL A   1      48.185  28.266  35.709  1.00  0.00    -0.200 F 
ATOM     89  C   UNL A   1      46.746  26.598  36.559  1.00  0.00     0.200 A 
ATOM     90  F   UNL A   1      45.277  24.934  37.366  1.00  0.00    -0.200 F 
ATOM     91  F   UNL A   1      47.699  26.188  37.407  1.00  0.00    -0.200 F 
ENDBRANCH  58  81
ENDBRANCH  32  33
ENDBRANCH  25  27
ENDBRANCH  24  25
ENDBRANCH  23  24
ENDBRANCH   1  23
TORSDOF 13
ENDMDL
