MODEL 1
REMARK VINA RESULT:     -10.9      0.000      0.000
REMARK SMILES CC(C)[C@@H]([NH2+][C@@H]1CSCC(C)(C)C1)C(=O)OCCOC(=O)c1ccc(-c2c3nc(c(-c4c(F)c(F)c(F)c(F)c4F)c4ccc([nH]4)c(-c4c(F)c(F)c(F)c(F)c4F)c4nc(c(-c5c(F)c(F)c(F)c(F)c5F)c5ccc2[nH]5)C=C4)C=C3)cc1
REMARK SMILES IDX 17 1 16 2 14 3 15 4 4 5 2 6 1 7 3 8 5 9 6 12 7 13 13 14 8 15
REMARK SMILES IDX 10 16 9 17 11 18 12 19 18 20 19 21 20 22 21 23 22 24 23 25
REMARK SMILES IDX 84 26 24 27 83 28 25 29 26 30 27 31 77 32 28 33 82 34 76 35
REMARK SMILES IDX 78 36 29 37 81 38 75 39 74 40 30 42 62 43 42 44 61 45 43 46
REMARK SMILES IDX 46 47 60 48 79 49 44 50 45 51 59 53 80 54 47 55 31 56 32 57
REMARK SMILES IDX 40 58 33 59 34 60 38 61 41 62 35 63 36 64 39 65 37 66 63 67
REMARK SMILES IDX 64 68 72 69 65 70 66 71 70 72 73 73 67 74 68 75 71 76 69 77
REMARK SMILES IDX 48 78 49 79 57 80 50 81 51 82 55 83 58 84 52 85 53 86 56 87
REMARK SMILES IDX 54 88
REMARK H PARENT 5 10 5 11 78 41 46 52
REMARK Flexibility Score: inf
ROOT
ATOM      1  C   UNL A   1      32.333  29.142  25.592  1.00  0.00     0.274 C 
ENDROOT
BRANCH   1   2
ATOM      2  O   UNL A   1      33.612  29.046  24.930  1.00  0.00    -0.458 OA
BRANCH   2   3
ATOM      3  C   UNL A   1      33.614  28.309  23.786  1.00  0.00     0.365 C 
ATOM      4  O   UNL A   1      34.364  28.524  22.839  1.00  0.00    -0.245 OA
BRANCH   3   5
ATOM      5  C   UNL A   1      32.520  27.219  23.741  1.00  0.00     0.296 C 
BRANCH   5   6
ATOM      6  C   UNL A   1      31.631  27.264  22.455  1.00  0.00     0.053 C 
ATOM      7  C   UNL A   1      31.783  25.977  21.623  1.00  0.00     0.014 C 
ATOM      8  C   UNL A   1      30.138  27.452  22.735  1.00  0.00     0.014 C 
ENDBRANCH   5   6
BRANCH   5   9
ATOM      9  N   UNL A   1      33.177  25.907  23.831  1.00  0.00    -0.331 N 
ATOM     10  H   UNL A   1      33.831  25.858  23.050  1.00  0.00     0.347 HD
ATOM     11  H   UNL A   1      32.386  25.263  23.843  1.00  0.00     0.347 HD
BRANCH   9  12
ATOM     12  C   UNL A   1      33.927  25.511  25.027  1.00  0.00     0.193 C 
ATOM     13  C   UNL A   1      35.065  24.464  24.971  1.00  0.00     0.134 C 
ATOM     14  C   UNL A   1      32.858  25.058  26.044  1.00  0.00     0.073 C 
ATOM     15  S   UNL A   1      34.610  22.717  25.271  1.00  0.00    -0.155 SA
ATOM     16  C   UNL A   1      32.018  23.822  25.589  1.00  0.00    -0.021 C 
ATOM     17  C   UNL A   1      32.855  22.776  24.815  1.00  0.00     0.076 C 
ATOM     18  C   UNL A   1      30.828  24.243  24.691  1.00  0.00     0.012 C 
ATOM     19  C   UNL A   1      31.407  23.179  26.850  1.00  0.00     0.012 C 
ENDBRANCH   9  12
ENDBRANCH   5   9
ENDBRANCH   3   5
ENDBRANCH   2   3
ENDBRANCH   1   2
BRANCH   1  20
ATOM     20  C   UNL A   1      31.985  30.563  26.047  1.00  0.00     0.275 C 
BRANCH  20  21
ATOM     21  O   UNL A   1      32.503  30.838  27.363  1.00  0.00    -0.458 OA
BRANCH  21  22
ATOM     22  C   UNL A   1      33.331  31.900  27.453  1.00  0.00     0.338 C 
ATOM     23  O   UNL A   1      33.040  33.081  27.363  1.00  0.00    -0.246 OA
BRANCH  22  24
ATOM     24  C   UNL A   1      34.689  31.467  27.819  1.00  0.00     0.060 A 
ATOM     25  C   UNL A   1      34.875  30.126  28.164  1.00  0.00     0.016 A 
ATOM     26  C   UNL A   1      35.713  32.392  28.009  1.00  0.00     0.016 A 
ATOM     27  C   UNL A   1      36.065  29.700  28.741  1.00  0.00     0.010 A 
ATOM     28  C   UNL A   1      36.912  31.970  28.596  1.00  0.00     0.010 A 
ATOM     29  C   UNL A   1      37.073  30.631  29.001  1.00  0.00    -0.014 A 
BRANCH  29  30
ATOM     30  C   UNL A   1      38.200  30.230  29.871  1.00  0.00     0.031 A 
ATOM     31  C   UNL A   1      39.250  29.313  29.311  1.00  0.00     0.074 A 
ATOM     32  C   UNL A   1      38.332  30.740  31.107  1.00  0.00     0.049 A 
ATOM     33  N   UNL A   1      40.281  28.768  29.904  1.00  0.00    -0.248 NA
ATOM     34  C   UNL A   1      39.125  28.972  27.885  1.00  0.00     0.031 C 
ATOM     35  C   UNL A   1      37.430  31.713  31.720  1.00  0.00     0.029 A 
ATOM     36  N   UNL A   1      39.286  30.512  32.065  1.00  0.00    -0.354 N 
ATOM     37  C   UNL A   1      40.909  28.000  28.933  1.00  0.00     0.074 A 
ATOM     38  C   UNL A   1      40.147  28.147  27.712  1.00  0.00     0.031 C 
ATOM     39  C   UNL A   1      37.872  31.994  32.958  1.00  0.00     0.029 A 
ATOM     40  C   UNL A   1      39.060  31.189  33.235  1.00  0.00     0.049 A 
ATOM     41  H   UNL A   1      40.060  29.918  31.925  1.00  0.00     0.167 HD
ATOM     42  C   UNL A   1      42.020  27.236  29.053  1.00  0.00     0.037 A 
ATOM     43  C   UNL A   1      39.725  31.139  34.406  1.00  0.00     0.037 A 
ATOM     44  C   UNL A   1      42.781  27.103  30.265  1.00  0.00     0.049 A 
ATOM     45  C   UNL A   1      40.922  30.236  34.532  1.00  0.00     0.074 A 
ATOM     46  C   UNL A   1      43.902  26.327  30.504  1.00  0.00     0.029 A 
ATOM     47  N   UNL A   1      42.500  27.775  31.445  1.00  0.00    -0.354 N 
ATOM     48  N   UNL A   1      41.477  29.464  33.629  1.00  0.00    -0.248 NA
ATOM     49  C   UNL A   1      41.579  30.189  35.846  1.00  0.00     0.031 C 
ATOM     50  C   UNL A   1      44.283  26.511  31.839  1.00  0.00     0.029 A 
ATOM     51  C   UNL A   1      43.421  27.427  32.419  1.00  0.00     0.049 A 
ATOM     52  H   UNL A   1      41.754  28.406  31.571  1.00  0.00     0.167 HD
ATOM     53  C   UNL A   1      42.553  28.852  34.259  1.00  0.00     0.074 A 
ATOM     54  C   UNL A   1      42.585  29.357  35.616  1.00  0.00     0.031 C 
ATOM     55  C   UNL A   1      43.433  27.949  33.761  1.00  0.00     0.037 A 
BRANCH  42  56
ATOM     56  C   UNL A   1      42.445  26.453  27.849  1.00  0.00     0.064 A 
ATOM     57  C   UNL A   1      41.902  25.194  27.558  1.00  0.00     0.173 A 
ATOM     58  C   UNL A   1      43.408  26.974  26.973  1.00  0.00     0.173 A 
ATOM     59  F   UNL A   1      40.994  24.644  28.378  1.00  0.00    -0.203 F 
ATOM     60  C   UNL A   1      42.324  24.475  26.442  1.00  0.00     0.198 A 
ATOM     61  C   UNL A   1      43.812  26.263  25.847  1.00  0.00     0.198 A 
ATOM     62  F   UNL A   1      43.961  28.174  27.211  1.00  0.00    -0.203 F 
ATOM     63  F   UNL A   1      41.822  23.255  26.204  1.00  0.00    -0.200 F 
ATOM     64  C   UNL A   1      43.274  25.012  25.585  1.00  0.00     0.200 A 
ATOM     65  F   UNL A   1      44.727  26.785  25.019  1.00  0.00    -0.200 F 
ATOM     66  F   UNL A   1      43.679  24.318  24.512  1.00  0.00    -0.200 F 
ENDBRANCH  42  56
BRANCH  43  67
ATOM     67  C   UNL A   1      39.253  31.943  35.560  1.00  0.00     0.064 A 
ATOM     68  C   UNL A   1      39.686  33.262  35.749  1.00  0.00     0.173 A 
ATOM     69  C   UNL A   1      38.373  31.401  36.510  1.00  0.00     0.173 A 
ATOM     70  F   UNL A   1      40.550  33.813  34.883  1.00  0.00    -0.203 F 
ATOM     71  C   UNL A   1      39.266  34.006  36.850  1.00  0.00     0.198 A 
ATOM     72  C   UNL A   1      37.935  32.153  37.596  1.00  0.00     0.198 A 
ATOM     73  F   UNL A   1      37.937  30.140  36.377  1.00  0.00    -0.203 F 
ATOM     74  F   UNL A   1      39.728  35.251  37.030  1.00  0.00    -0.200 F 
ATOM     75  C   UNL A   1      38.387  33.453  37.769  1.00  0.00     0.200 A 
ATOM     76  F   UNL A   1      37.081  31.617  38.479  1.00  0.00    -0.200 F 
ATOM     77  F   UNL A   1      37.984  34.169  38.828  1.00  0.00    -0.200 F 
ENDBRANCH  43  67
BRANCH  55  78
ATOM     78  C   UNL A   1      44.514  27.473  34.683  1.00  0.00     0.064 A 
ATOM     79  C   UNL A   1      45.730  28.160  34.801  1.00  0.00     0.173 A 
ATOM     80  C   UNL A   1      44.320  26.332  35.475  1.00  0.00     0.173 A 
ATOM     81  F   UNL A   1      45.966  29.247  34.051  1.00  0.00    -0.203 F 
ATOM     82  C   UNL A   1      46.724  27.708  35.665  1.00  0.00     0.198 A 
ATOM     83  C   UNL A   1      45.306  25.896  36.354  1.00  0.00     0.198 A 
ATOM     84  F   UNL A   1      43.170  25.644  35.400  1.00  0.00    -0.203 F 
ATOM     85  F   UNL A   1      47.895  28.355  35.731  1.00  0.00    -0.200 F 
ATOM     86  C   UNL A   1      46.510  26.580  36.443  1.00  0.00     0.200 A 
ATOM     87  F   UNL A   1      45.096  24.811  37.112  1.00  0.00    -0.200 F 
ATOM     88  F   UNL A   1      47.468  26.147  37.273  1.00  0.00    -0.200 F 
ENDBRANCH  55  78
ENDBRANCH  29  30
ENDBRANCH  22  24
ENDBRANCH  21  22
ENDBRANCH  20  21
ENDBRANCH   1  20
TORSDOF 14
ENDMDL
MODEL 2
REMARK VINA RESULT:     -10.9      0.741      1.829
REMARK SMILES CC(C)[C@@H]([NH2+][C@@H]1CSCC(C)(C)C1)C(=O)OCCOC(=O)c1ccc(-c2c3nc(c(-c4c(F)c(F)c(F)c(F)c4F)c4ccc([nH]4)c(-c4c(F)c(F)c(F)c(F)c4F)c4nc(c(-c5c(F)c(F)c(F)c(F)c5F)c5ccc2[nH]5)C=C4)C=C3)cc1
REMARK SMILES IDX 17 1 16 2 14 3 15 4 4 5 2 6 1 7 3 8 5 9 6 12 7 13 13 14 8 15
REMARK SMILES IDX 10 16 9 17 11 18 12 19 18 20 19 21 20 22 21 23 22 24 23 25
REMARK SMILES IDX 84 26 24 27 83 28 25 29 26 30 27 31 77 32 28 33 82 34 76 35
REMARK SMILES IDX 78 36 29 37 81 38 75 39 74 40 30 42 62 43 42 44 61 45 43 46
REMARK SMILES IDX 46 47 60 48 79 49 44 50 45 51 59 53 80 54 47 55 31 56 32 57
REMARK SMILES IDX 40 58 33 59 34 60 38 61 41 62 35 63 36 64 39 65 37 66 63 67
REMARK SMILES IDX 64 68 72 69 65 70 66 71 70 72 73 73 67 74 68 75 71 76 69 77
REMARK SMILES IDX 48 78 49 79 57 80 50 81 51 82 55 83 58 84 52 85 53 86 56 87
REMARK SMILES IDX 54 88
REMARK H PARENT 5 10 5 11 78 41 46 52
REMARK Flexibility Score: inf
ROOT
ATOM      1  C   UNL A   1      31.339  30.270  25.450  1.00  0.00     0.274 C 
ENDROOT
BRANCH   1   2
ATOM      2  O   UNL A   1      32.499  29.704  24.805  1.00  0.00    -0.458 OA
BRANCH   2   3
ATOM      3  C   UNL A   1      32.229  28.807  23.818  1.00  0.00     0.365 C 
ATOM      4  O   UNL A   1      32.682  28.889  22.681  1.00  0.00    -0.245 OA
BRANCH   3   5
ATOM      5  C   UNL A   1      31.221  27.710  24.228  1.00  0.00     0.296 C 
BRANCH   5   6
ATOM      6  C   UNL A   1      30.005  27.568  23.255  1.00  0.00     0.053 C 
ATOM      7  C   UNL A   1      28.886  26.712  23.876  1.00  0.00     0.014 C 
ATOM      8  C   UNL A   1      29.381  28.903  22.838  1.00  0.00     0.014 C 
ENDBRANCH   5   6
BRANCH   5   9
ATOM      9  N   UNL A   1      31.940  26.429  24.295  1.00  0.00    -0.331 N 
ATOM     10  H   UNL A   1      32.727  26.507  23.650  1.00  0.00     0.347 HD
ATOM     11  H   UNL A   1      31.207  25.751  24.087  1.00  0.00     0.347 HD
BRANCH   9  12
ATOM     12  C   UNL A   1      32.487  25.929  25.560  1.00  0.00     0.193 C 
ATOM     13  C   UNL A   1      33.999  25.659  25.749  1.00  0.00     0.134 C 
ATOM     14  C   UNL A   1      31.691  24.642  25.865  1.00  0.00     0.073 C 
ATOM     15  S   UNL A   1      34.601  23.970  25.381  1.00  0.00    -0.155 SA
ATOM     16  C   UNL A   1      31.863  23.510  24.801  1.00  0.00    -0.021 C 
ATOM     17  C   UNL A   1      33.301  23.427  24.236  1.00  0.00     0.076 C 
ATOM     18  C   UNL A   1      30.892  23.699  23.609  1.00  0.00     0.012 C 
ATOM     19  C   UNL A   1      31.480  22.175  25.469  1.00  0.00     0.012 C 
ENDBRANCH   9  12
ENDBRANCH   5   9
ENDBRANCH   3   5
ENDBRANCH   2   3
ENDBRANCH   1   2
BRANCH   1  20
ATOM     20  C   UNL A   1      31.679  31.342  26.491  1.00  0.00     0.275 C 
BRANCH  20  21
ATOM     21  O   UNL A   1      32.850  30.986  27.253  1.00  0.00    -0.458 OA
BRANCH  21  22
ATOM     22  C   UNL A   1      33.645  32.014  27.615  1.00  0.00     0.338 C 
ATOM     23  O   UNL A   1      33.331  33.185  27.751  1.00  0.00    -0.246 OA
BRANCH  22  24
ATOM     24  C   UNL A   1      34.988  31.529  27.971  1.00  0.00     0.060 A 
ATOM     25  C   UNL A   1      35.118  30.191  28.353  1.00  0.00     0.016 A 
ATOM     26  C   UNL A   1      36.056  32.411  28.119  1.00  0.00     0.016 A 
ATOM     27  C   UNL A   1      36.297  29.728  28.923  1.00  0.00     0.010 A 
ATOM     28  C   UNL A   1      37.244  31.951  28.699  1.00  0.00     0.010 A 
ATOM     29  C   UNL A   1      37.350  30.618  29.140  1.00  0.00    -0.014 A 
BRANCH  29  30
ATOM     30  C   UNL A   1      38.473  30.190  30.004  1.00  0.00     0.031 A 
ATOM     31  C   UNL A   1      39.497  29.248  29.438  1.00  0.00     0.074 A 
ATOM     32  C   UNL A   1      38.624  30.698  31.238  1.00  0.00     0.049 A 
ATOM     33  N   UNL A   1      40.518  28.678  30.026  1.00  0.00    -0.248 NA
ATOM     34  C   UNL A   1      39.355  28.909  28.013  1.00  0.00     0.031 C 
ATOM     35  C   UNL A   1      37.750  31.693  31.856  1.00  0.00     0.029 A 
ATOM     36  N   UNL A   1      39.579  30.446  32.191  1.00  0.00    -0.354 N 
ATOM     37  C   UNL A   1      41.121  27.894  29.052  1.00  0.00     0.074 A 
ATOM     38  C   UNL A   1      40.355  28.059  27.835  1.00  0.00     0.031 C 
ATOM     39  C   UNL A   1      38.206  31.963  33.091  1.00  0.00     0.029 A 
ATOM     40  C   UNL A   1      39.376  31.130  33.361  1.00  0.00     0.049 A 
ATOM     41  H   UNL A   1      40.336  29.834  32.046  1.00  0.00     0.167 HD
ATOM     42  C   UNL A   1      42.213  27.103  29.166  1.00  0.00     0.037 A 
ATOM     43  C   UNL A   1      40.046  31.064  34.529  1.00  0.00     0.037 A 
ATOM     44  C   UNL A   1      42.978  26.952  30.373  1.00  0.00     0.049 A 
ATOM     45  C   UNL A   1      41.221  30.132  34.649  1.00  0.00     0.074 A 
ATOM     46  C   UNL A   1      44.081  26.149  30.606  1.00  0.00     0.029 A 
ATOM     47  N   UNL A   1      42.720  27.631  31.554  1.00  0.00    -0.354 N 
ATOM     48  N   UNL A   1      41.752  29.346  33.743  1.00  0.00    -0.248 NA
ATOM     49  C   UNL A   1      41.885  30.070  35.958  1.00  0.00     0.031 C 
ATOM     50  C   UNL A   1      44.475  26.324  31.938  1.00  0.00     0.029 A 
ATOM     51  C   UNL A   1      43.638  27.262  32.523  1.00  0.00     0.049 A 
ATOM     52  H   UNL A   1      41.991  28.281  31.684  1.00  0.00     0.167 HD
ATOM     53  C   UNL A   1      42.817  28.709  34.366  1.00  0.00     0.074 A 
ATOM     54  C   UNL A   1      42.869  29.213  35.723  1.00  0.00     0.031 C 
ATOM     55  C   UNL A   1      43.672  27.784  33.864  1.00  0.00     0.037 A 
BRANCH  42  56
ATOM     56  C   UNL A   1      42.612  26.309  27.959  1.00  0.00     0.064 A 
ATOM     57  C   UNL A   1      43.537  26.798  27.026  1.00  0.00     0.173 A 
ATOM     58  C   UNL A   1      42.060  25.039  27.737  1.00  0.00     0.173 A 
ATOM     59  F   UNL A   1      44.075  28.017  27.184  1.00  0.00    -0.203 F 
ATOM     60  C   UNL A   1      43.881  26.050  25.903  1.00  0.00     0.198 A 
ATOM     61  C   UNL A   1      42.421  24.286  26.624  1.00  0.00     0.198 A 
ATOM     62  F   UNL A   1      41.166  24.530  28.599  1.00  0.00    -0.203 F 
ATOM     63  F   UNL A   1      44.737  26.553  25.002  1.00  0.00    -0.200 F 
ATOM     64  C   UNL A   1      43.327  24.793  25.705  1.00  0.00     0.200 A 
ATOM     65  F   UNL A   1      41.888  23.071  26.437  1.00  0.00    -0.200 F 
ATOM     66  F   UNL A   1      43.659  24.077  24.623  1.00  0.00    -0.200 F 
ENDBRANCH  42  56
BRANCH  43  67
ATOM     67  C   UNL A   1      39.601  31.880  35.685  1.00  0.00     0.064 A 
ATOM     68  C   UNL A   1      38.587  31.429  36.541  1.00  0.00     0.173 A 
ATOM     69  C   UNL A   1      40.170  33.135  35.949  1.00  0.00     0.173 A 
ATOM     70  F   UNL A   1      37.994  30.248  36.313  1.00  0.00    -0.203 F 
ATOM     71  C   UNL A   1      38.149  32.209  37.610  1.00  0.00     0.198 A 
ATOM     72  C   UNL A   1      39.749  33.903  37.031  1.00  0.00     0.198 A 
ATOM     73  F   UNL A   1      41.138  33.613  35.153  1.00  0.00    -0.203 F 
ATOM     74  F   UNL A   1      37.148  31.775  38.388  1.00  0.00    -0.200 F 
ATOM     75  C   UNL A   1      38.734  33.443  37.857  1.00  0.00     0.200 A 
ATOM     76  F   UNL A   1      40.320  35.091  37.270  1.00  0.00    -0.200 F 
ATOM     77  F   UNL A   1      38.312  34.192  38.885  1.00  0.00    -0.200 F 
ENDBRANCH  43  67
BRANCH  55  78
ATOM     78  C   UNL A   1      44.746  27.282  34.780  1.00  0.00     0.064 A 
ATOM     79  C   UNL A   1      45.981  27.936  34.886  1.00  0.00     0.173 A 
ATOM     80  C   UNL A   1      44.526  26.150  35.579  1.00  0.00     0.173 A 
ATOM     81  F   UNL A   1      46.241  29.013  34.130  1.00  0.00    -0.203 F 
ATOM     82  C   UNL A   1      46.969  27.460  35.744  1.00  0.00     0.198 A 
ATOM     83  C   UNL A   1      45.507  25.691  36.452  1.00  0.00     0.198 A 
ATOM     84  F   UNL A   1      43.358  25.494  35.515  1.00  0.00    -0.203 F 
ATOM     85  F   UNL A   1      48.158  28.075  35.800  1.00  0.00    -0.200 F 
ATOM     86  C   UNL A   1      46.729  26.342  36.529  1.00  0.00     0.200 A 
ATOM     87  F   UNL A   1      45.273  24.615  37.216  1.00  0.00    -0.200 F 
ATOM     88  F   UNL A   1      47.682  25.886  37.354  1.00  0.00    -0.200 F 
ENDBRANCH  55  78
ENDBRANCH  29  30
ENDBRANCH  22  24
ENDBRANCH  21  22
ENDBRANCH  20  21
ENDBRANCH   1  20
TORSDOF 14
ENDMDL
MODEL 3
REMARK VINA RESULT:     -10.8      4.732      9.953
REMARK SMILES CC(C)[C@@H]([NH2+][C@@H]1CSCC(C)(C)C1)C(=O)OCCOC(=O)c1ccc(-c2c3nc(c(-c4c(F)c(F)c(F)c(F)c4F)c4ccc([nH]4)c(-c4c(F)c(F)c(F)c(F)c4F)c4nc(c(-c5c(F)c(F)c(F)c(F)c5F)c5ccc2[nH]5)C=C4)C=C3)cc1
REMARK SMILES IDX 17 1 16 2 14 3 15 4 4 5 2 6 1 7 3 8 5 9 6 12 7 13 13 14 8 15
REMARK SMILES IDX 10 16 9 17 11 18 12 19 18 20 19 21 20 22 21 23 22 24 23 25
REMARK SMILES IDX 84 26 24 27 83 28 25 29 26 30 27 31 77 32 28 33 82 34 76 35
REMARK SMILES IDX 78 36 29 37 81 38 75 39 74 40 30 42 62 43 42 44 61 45 43 46
REMARK SMILES IDX 46 47 60 48 79 49 44 50 45 51 59 53 80 54 47 55 31 56 32 57
REMARK SMILES IDX 40 58 33 59 34 60 38 61 41 62 35 63 36 64 39 65 37 66 63 67
REMARK SMILES IDX 64 68 72 69 65 70 66 71 70 72 73 73 67 74 68 75 71 76 69 77
REMARK SMILES IDX 48 78 49 79 57 80 50 81 51 82 55 83 58 84 52 85 53 86 56 87
REMARK SMILES IDX 54 88
REMARK H PARENT 5 10 5 11 78 41 46 52
REMARK Flexibility Score: inf
ROOT
ATOM      1  C   UNL A   1      36.205  21.564  25.994  1.00  0.00     0.274 C 
ENDROOT
BRANCH   1   2
ATOM      2  O   UNL A   1      35.066  22.000  25.221  1.00  0.00    -0.458 OA
BRANCH   2   3
ATOM      3  C   UNL A   1      33.905  21.341  25.485  1.00  0.00     0.365 C 
ATOM      4  O   UNL A   1      33.512  21.081  26.617  1.00  0.00    -0.245 OA
BRANCH   3   5
ATOM      5  C   UNL A   1      33.156  20.864  24.221  1.00  0.00     0.296 C 
BRANCH   5   6
ATOM      6  C   UNL A   1      32.785  19.345  24.237  1.00  0.00     0.053 C 
ATOM      7  C   UNL A   1      32.154  18.907  22.903  1.00  0.00     0.014 C 
ATOM      8  C   UNL A   1      33.972  18.416  24.507  1.00  0.00     0.014 C 
ENDBRANCH   5   6
BRANCH   5   9
ATOM      9  N   UNL A   1      31.928  21.661  24.088  1.00  0.00    -0.331 N 
ATOM     10  H   UNL A   1      31.745  22.063  25.008  1.00  0.00     0.347 HD
ATOM     11  H   UNL A   1      31.263  20.985  23.712  1.00  0.00     0.347 HD
BRANCH   9  12
ATOM     12  C   UNL A   1      31.837  22.765  23.127  1.00  0.00     0.193 C 
ATOM     13  C   UNL A   1      33.076  23.598  22.716  1.00  0.00     0.134 C 
ATOM     14  C   UNL A   1      30.748  23.703  23.690  1.00  0.00     0.073 C 
ATOM     15  S   UNL A   1      33.425  25.111  23.684  1.00  0.00    -0.155 SA
ATOM     16  C   UNL A   1      31.088  24.323  25.083  1.00  0.00    -0.021 C 
ATOM     17  C   UNL A   1      32.585  24.682  25.235  1.00  0.00     0.076 C 
ATOM     18  C   UNL A   1      30.706  23.364  26.239  1.00  0.00     0.012 C 
ATOM     19  C   UNL A   1      30.222  25.586  25.260  1.00  0.00     0.012 C 
ENDBRANCH   9  12
ENDBRANCH   5   9
ENDBRANCH   3   5
ENDBRANCH   2   3
ENDBRANCH   1   2
BRANCH   1  20
ATOM     20  C   UNL A   1      37.260  20.824  25.164  1.00  0.00     0.275 C 
BRANCH  20  21
ATOM     21  O   UNL A   1      38.503  21.552  25.122  1.00  0.00    -0.458 OA
BRANCH  21  22
ATOM     22  C   UNL A   1      39.366  21.291  26.126  1.00  0.00     0.338 C 
ATOM     23  O   UNL A   1      39.853  20.214  26.427  1.00  0.00    -0.246 OA
BRANCH  22  24
ATOM     24  C   UNL A   1      39.784  22.538  26.787  1.00  0.00     0.060 A 
ATOM     25  C   UNL A   1      39.251  23.738  26.311  1.00  0.00     0.016 A 
ATOM     26  C   UNL A   1      40.820  22.547  27.718  1.00  0.00     0.016 A 
ATOM     27  C   UNL A   1      39.771  24.958  26.723  1.00  0.00     0.010 A 
ATOM     28  C   UNL A   1      41.353  23.774  28.132  1.00  0.00     0.010 A 
ATOM     29  C   UNL A   1      40.855  24.980  27.602  1.00  0.00    -0.014 A 
BRANCH  29  30
ATOM     30  C   UNL A   1      41.581  26.254  27.801  1.00  0.00     0.031 A 
ATOM     31  C   UNL A   1      40.912  27.348  28.583  1.00  0.00     0.074 A 
ATOM     32  C   UNL A   1      42.844  26.402  27.368  1.00  0.00     0.049 A 
ATOM     33  N   UNL A   1      41.317  28.569  28.819  1.00  0.00    -0.248 NA
ATOM     34  C   UNL A   1      39.612  27.016  29.189  1.00  0.00     0.031 C 
ATOM     35  C   UNL A   1      43.630  25.376  26.686  1.00  0.00     0.029 A 
ATOM     36  N   UNL A   1      43.689  27.479  27.449  1.00  0.00    -0.354 N 
ATOM     37  C   UNL A   1      40.312  29.158  29.574  1.00  0.00     0.074 A 
ATOM     38  C   UNL A   1      39.277  28.163  29.759  1.00  0.00     0.031 C 
ATOM     39  C   UNL A   1      44.844  25.876  26.402  1.00  0.00     0.029 A 
ATOM     40  C   UNL A   1      44.903  27.268  26.846  1.00  0.00     0.049 A 
ATOM     41  H   UNL A   1      43.448  28.322  27.896  1.00  0.00     0.167 HD
ATOM     42  C   UNL A   1      40.257  30.418  30.064  1.00  0.00     0.037 A 
ATOM     43  C   UNL A   1      45.931  28.116  26.651  1.00  0.00     0.037 A 
ATOM     44  C   UNL A   1      41.293  31.399  29.889  1.00  0.00     0.049 A 
ATOM     45  C   UNL A   1      45.820  29.531  27.153  1.00  0.00     0.074 A 
ATOM     46  C   UNL A   1      41.321  32.716  30.314  1.00  0.00     0.029 A 
ATOM     47  N   UNL A   1      42.493  31.162  29.237  1.00  0.00    -0.354 N 
ATOM     48  N   UNL A   1      44.843  30.102  27.814  1.00  0.00    -0.248 NA
ATOM     49  C   UNL A   1      46.954  30.423  26.872  1.00  0.00     0.031 C 
ATOM     50  C   UNL A   1      42.531  33.283  29.896  1.00  0.00     0.029 A 
ATOM     51  C   UNL A   1      43.269  32.310  29.242  1.00  0.00     0.049 A 
ATOM     52  H   UNL A   1      42.756  30.305  28.831  1.00  0.00     0.167 HD
ATOM     53  C   UNL A   1      45.247  31.411  28.040  1.00  0.00     0.074 A 
ATOM     54  C   UNL A   1      46.568  31.545  27.461  1.00  0.00     0.031 C 
ATOM     55  C   UNL A   1      44.583  32.415  28.664  1.00  0.00     0.037 A 
BRANCH  42  56
ATOM     56  C   UNL A   1      39.011  30.813  30.798  1.00  0.00     0.064 A 
ATOM     57  C   UNL A   1      38.898  30.676  32.188  1.00  0.00     0.173 A 
ATOM     58  C   UNL A   1      37.916  31.339  30.096  1.00  0.00     0.173 A 
ATOM     59  F   UNL A   1      39.911  30.157  32.900  1.00  0.00    -0.203 F 
ATOM     60  C   UNL A   1      37.725  31.034  32.848  1.00  0.00     0.198 A 
ATOM     61  C   UNL A   1      36.753  31.715  30.761  1.00  0.00     0.198 A 
ATOM     62  F   UNL A   1      37.974  31.485  28.763  1.00  0.00    -0.203 F 
ATOM     63  F   UNL A   1      37.623  30.856  34.173  1.00  0.00    -0.200 F 
ATOM     64  C   UNL A   1      36.656  31.557  32.135  1.00  0.00     0.200 A 
ATOM     65  F   UNL A   1      35.723  32.224  30.071  1.00  0.00    -0.200 F 
ATOM     66  F   UNL A   1      35.528  31.899  32.772  1.00  0.00    -0.200 F 
ENDBRANCH  42  56
BRANCH  43  67
ATOM     67  C   UNL A   1      47.138  27.662  25.919  1.00  0.00     0.064 A 
ATOM     68  C   UNL A   1      47.206  27.730  24.521  1.00  0.00     0.173 A 
ATOM     69  C   UNL A   1      48.244  27.132  26.602  1.00  0.00     0.173 A 
ATOM     70  F   UNL A   1      46.162  28.203  23.822  1.00  0.00    -0.203 F 
ATOM     71  C   UNL A   1      48.329  27.275  23.832  1.00  0.00     0.198 A 
ATOM     72  C   UNL A   1      49.375  26.700  25.915  1.00  0.00     0.198 A 
ATOM     73  F   UNL A   1      48.223  27.038  27.939  1.00  0.00    -0.203 F 
ATOM     74  F   UNL A   1      48.351  27.313  22.493  1.00  0.00    -0.200 F 
ATOM     75  C   UNL A   1      49.414  26.766  24.530  1.00  0.00     0.200 A 
ATOM     76  F   UNL A   1      50.424  26.214  26.592  1.00  0.00    -0.200 F 
ATOM     77  F   UNL A   1      50.493  26.328  23.867  1.00  0.00    -0.200 F 
ENDBRANCH  43  67
BRANCH  55  78
ATOM     78  C   UNL A   1      45.288  33.733  28.773  1.00  0.00     0.064 A 
ATOM     79  C   UNL A   1      45.134  34.728  27.798  1.00  0.00     0.173 A 
ATOM     80  C   UNL A   1      46.105  34.012  29.878  1.00  0.00     0.173 A 
ATOM     81  F   UNL A   1      44.375  34.499  26.715  1.00  0.00    -0.203 F 
ATOM     82  C   UNL A   1      45.792  35.949  27.914  1.00  0.00     0.198 A 
ATOM     83  C   UNL A   1      46.743  35.241  30.003  1.00  0.00     0.198 A 
ATOM     84  F   UNL A   1      46.279  33.092  30.840  1.00  0.00    -0.203 F 
ATOM     85  F   UNL A   1      45.665  36.870  26.950  1.00  0.00    -0.200 F 
ATOM     86  C   UNL A   1      46.592  36.206  29.018  1.00  0.00     0.200 A 
ATOM     87  F   UNL A   1      47.510  35.492  31.073  1.00  0.00    -0.200 F 
ATOM     88  F   UNL A   1      47.225  37.382  29.127  1.00  0.00    -0.200 F 
ENDBRANCH  55  78
ENDBRANCH  29  30
ENDBRANCH  22  24
ENDBRANCH  21  22
ENDBRANCH  20  21
ENDBRANCH   1  20
TORSDOF 14
ENDMDL
