MODEL 1
REMARK VINA RESULT:     -12.1      0.000      0.000
REMARK SMILES O=C(Cn1cnnn1)Nc1cccc(F)c1C(=O)OCCOC(=O)c1ccc(-c2c3nc(c(-c4c(F)c(F)c(F)c(F)c4F)c4ccc([nH]4)c(-c4c(F)c(F)c(F)c(F)c4F)c4nc(c(-c5c(F)c(F)c(F)c(F)c5F)c5ccc2[nH]5)C=C4)C=C3)cc1
REMARK SMILES IDX 20 1 19 2 17 3 18 4 16 5 10 6 11 7 12 8 14 9 13 10 15 11
REMARK SMILES IDX 9 12 1 13 2 14 3 16 4 17 5 18 8 19 6 20 7 21 21 22 22 23
REMARK SMILES IDX 23 24 24 25 25 26 26 27 87 28 27 29 86 30 28 31 29 32 30 33
REMARK SMILES IDX 80 34 31 35 85 36 79 37 81 38 32 39 84 40 78 41 77 42 33 44
REMARK SMILES IDX 65 45 45 46 64 47 46 48 49 49 63 50 82 51 47 52 48 53 62 55
REMARK SMILES IDX 83 56 50 57 34 58 35 59 43 60 36 61 37 62 41 63 44 64 38 65
REMARK SMILES IDX 39 66 42 67 40 68 66 69 67 70 75 71 68 72 69 73 73 74 76 75
REMARK SMILES IDX 70 76 71 77 74 78 72 79 51 80 52 81 60 82 53 83 54 84 58 85
REMARK SMILES IDX 61 86 55 87 56 88 59 89 57 90
REMARK H PARENT 9 15 81 43 49 54
REMARK Flexibility Score: inf
ROOT
ATOM      1  C   UNL A   1      34.343  33.715  29.789  1.00  0.00     0.275 C 
ENDROOT
BRANCH   1   2
ATOM      2  O   UNL A   1      34.375  32.509  30.571  1.00  0.00    -0.458 OA
BRANCH   2   3
ATOM      3  C   UNL A   1      34.572  32.661  31.907  1.00  0.00     0.343 C 
ATOM      4  O   UNL A   1      33.696  32.656  32.746  1.00  0.00    -0.246 OA
BRANCH   3   5
ATOM      5  C   UNL A   1      36.017  32.679  32.263  1.00  0.00     0.119 A 
ATOM      6  C   UNL A   1      36.642  33.888  32.666  1.00  0.00     0.058 A 
ATOM      7  C   UNL A   1      37.996  33.845  33.043  1.00  0.00     0.027 A 
ATOM      8  C   UNL A   1      38.728  32.655  33.000  1.00  0.00     0.005 A 
ATOM      9  C   UNL A   1      36.771  31.498  32.221  1.00  0.00     0.139 A 
ATOM     10  C   UNL A   1      38.115  31.482  32.584  1.00  0.00     0.040 A 
ATOM     11  F   UNL A   1      36.242  30.335  31.812  1.00  0.00    -0.206 F 
BRANCH   6  12
ATOM     12  N   UNL A   1      35.906  35.112  32.731  1.00  0.00    -0.324 N 
ATOM     13  O   UNL A   1      34.919  34.913  34.815  1.00  0.00    -0.273 OA
ATOM     14  C   UNL A   1      35.044  35.504  33.739  1.00  0.00     0.246 C 
ATOM     15  H   UNL A   1      36.025  35.740  31.983  1.00  0.00     0.170 HD
BRANCH  14  16
ATOM     16  C   UNL A   1      34.088  36.641  33.445  1.00  0.00     0.248 C 
BRANCH  16  17
ATOM     17  N   UNL A   1      33.313  36.605  32.231  1.00  0.00    -0.223 N 
ATOM     18  C   UNL A   1      33.545  37.329  31.101  1.00  0.00     0.246 A 
ATOM     19  N   UNL A   1      32.239  35.830  32.054  1.00  0.00    -0.045 NA
ATOM     20  N   UNL A   1      32.606  37.049  30.228  1.00  0.00    -0.117 NA
ATOM     21  N   UNL A   1      31.799  36.118  30.836  1.00  0.00    -0.024 NA
ENDBRANCH  16  17
ENDBRANCH  14  16
ENDBRANCH   6  12
ENDBRANCH   3   5
ENDBRANCH   2   3
ENDBRANCH   1   2
BRANCH   1  22
ATOM     22  C   UNL A   1      34.071  33.407  28.323  1.00  0.00     0.275 C 
BRANCH  22  23
ATOM     23  O   UNL A   1      35.201  32.810  27.683  1.00  0.00    -0.458 OA
BRANCH  23  24
ATOM     24  C   UNL A   1      35.162  31.465  27.600  1.00  0.00     0.338 C 
ATOM     25  O   UNL A   1      34.275  30.769  27.127  1.00  0.00    -0.246 OA
BRANCH  24  26
ATOM     26  C   UNL A   1      36.244  30.891  28.402  1.00  0.00     0.060 A 
ATOM     27  C   UNL A   1      37.299  31.745  28.738  1.00  0.00     0.016 A 
ATOM     28  C   UNL A   1      36.352  29.499  28.523  1.00  0.00     0.016 A 
ATOM     29  C   UNL A   1      38.528  31.193  29.028  1.00  0.00     0.010 A 
ATOM     30  C   UNL A   1      37.580  28.950  28.815  1.00  0.00     0.010 A 
ATOM     31  C   UNL A   1      38.671  29.802  28.984  1.00  0.00    -0.014 A 
BRANCH  31  32
ATOM     32  C   UNL A   1      40.000  29.257  29.182  1.00  0.00     0.031 A 
ATOM     33  C   UNL A   1      40.369  29.038  30.605  1.00  0.00     0.074 A 
ATOM     34  C   UNL A   1      40.760  28.847  28.149  1.00  0.00     0.049 A 
ATOM     35  N   UNL A   1      41.427  29.426  31.244  1.00  0.00    -0.248 NA
ATOM     36  C   UNL A   1      39.367  28.364  31.451  1.00  0.00     0.031 C 
ATOM     37  C   UNL A   1      40.381  28.720  26.737  1.00  0.00     0.029 A 
ATOM     38  N   UNL A   1      42.014  28.326  28.178  1.00  0.00    -0.354 N 
ATOM     39  C   UNL A   1      41.295  28.914  32.533  1.00  0.00     0.074 A 
ATOM     40  C   UNL A   1      39.965  28.377  32.640  1.00  0.00     0.031 C 
ATOM     41  C   UNL A   1      41.289  27.944  26.105  1.00  0.00     0.029 A 
ATOM     42  C   UNL A   1      42.362  27.631  27.033  1.00  0.00     0.049 A 
ATOM     43  H   UNL A   1      42.621  28.433  28.945  1.00  0.00     0.167 HD
ATOM     44  C   UNL A   1      42.353  28.786  33.376  1.00  0.00     0.037 A 
ATOM     45  C   UNL A   1      43.401  26.770  26.914  1.00  0.00     0.037 A 
ATOM     46  C   UNL A   1      43.426  29.674  33.035  1.00  0.00     0.049 A 
ATOM     47  C   UNL A   1      44.339  27.039  28.034  1.00  0.00     0.074 A 
ATOM     48  C   UNL A   1      43.549  31.049  32.966  1.00  0.00     0.029 A 
ATOM     49  N   UNL A   1      44.515  29.176  32.367  1.00  0.00    -0.354 N 
ATOM     50  N   UNL A   1      45.041  28.131  28.165  1.00  0.00    -0.248 NA
ATOM     51  C   UNL A   1      44.181  26.251  29.249  1.00  0.00     0.031 C 
ATOM     52  C   UNL A   1      44.410  31.290  31.857  1.00  0.00     0.029 A 
ATOM     53  C   UNL A   1      44.779  30.047  31.341  1.00  0.00     0.049 A 
ATOM     54  H   UNL A   1      45.012  28.354  32.583  1.00  0.00     0.167 HD
ATOM     55  C   UNL A   1      45.075  28.372  29.531  1.00  0.00     0.074 A 
ATOM     56  C   UNL A   1      44.611  27.136  30.150  1.00  0.00     0.031 C 
ATOM     57  C   UNL A   1      45.212  29.637  30.026  1.00  0.00     0.037 A 
BRANCH  44  58
ATOM     58  C   UNL A   1      42.502  27.633  34.330  1.00  0.00     0.064 A 
ATOM     59  C   UNL A   1      41.889  27.603  35.604  1.00  0.00     0.173 A 
ATOM     60  C   UNL A   1      43.035  26.411  33.882  1.00  0.00     0.173 A 
ATOM     61  F   UNL A   1      41.233  28.661  36.099  1.00  0.00    -0.203 F 
ATOM     62  C   UNL A   1      41.831  26.448  36.378  1.00  0.00     0.198 A 
ATOM     63  C   UNL A   1      42.925  25.240  34.637  1.00  0.00     0.198 A 
ATOM     64  F   UNL A   1      43.603  26.319  32.671  1.00  0.00    -0.203 F 
ATOM     65  F   UNL A   1      41.227  26.485  37.574  1.00  0.00    -0.200 F 
ATOM     66  C   UNL A   1      42.324  25.260  35.885  1.00  0.00     0.200 A 
ATOM     67  F   UNL A   1      43.350  24.078  34.126  1.00  0.00    -0.200 F 
ATOM     68  F   UNL A   1      42.176  24.130  36.587  1.00  0.00    -0.200 F 
ENDBRANCH  44  58
BRANCH  45  69
ATOM     69  C   UNL A   1      43.428  25.505  26.139  1.00  0.00     0.064 A 
ATOM     70  C   UNL A   1      42.544  24.445  26.425  1.00  0.00     0.173 A 
ATOM     71  C   UNL A   1      44.496  25.211  25.277  1.00  0.00     0.173 A 
ATOM     72  F   UNL A   1      41.546  24.595  27.308  1.00  0.00    -0.203 F 
ATOM     73  C   UNL A   1      42.720  23.170  25.888  1.00  0.00     0.198 A 
ATOM     74  C   UNL A   1      44.679  23.929  24.750  1.00  0.00     0.198 A 
ATOM     75  F   UNL A   1      45.410  26.150  24.995  1.00  0.00    -0.203 F 
ATOM     76  F   UNL A   1      41.877  22.185  26.227  1.00  0.00    -0.200 F 
ATOM     77  C   UNL A   1      43.795  22.908  25.062  1.00  0.00     0.200 A 
ATOM     78  F   UNL A   1      45.746  23.668  23.982  1.00  0.00    -0.200 F 
ATOM     79  F   UNL A   1      44.003  21.666  24.603  1.00  0.00    -0.200 F 
ENDBRANCH  45  69
BRANCH  57  80
ATOM     80  C   UNL A   1      45.562  30.736  29.062  1.00  0.00     0.064 A 
ATOM     81  C   UNL A   1      46.887  31.188  29.007  1.00  0.00     0.173 A 
ATOM     82  C   UNL A   1      44.602  31.462  28.336  1.00  0.00     0.173 A 
ATOM     83  F   UNL A   1      47.836  30.573  29.730  1.00  0.00    -0.203 F 
ATOM     84  C   UNL A   1      47.237  32.311  28.261  1.00  0.00     0.198 A 
ATOM     85  C   UNL A   1      44.959  32.564  27.561  1.00  0.00     0.198 A 
ATOM     86  F   UNL A   1      43.301  31.161  28.425  1.00  0.00    -0.203 F 
ATOM     87  F   UNL A   1      48.501  32.756  28.280  1.00  0.00    -0.200 F 
ATOM     88  C   UNL A   1      46.275  32.993  27.532  1.00  0.00     0.200 A 
ATOM     89  F   UNL A   1      44.022  33.238  26.877  1.00  0.00    -0.200 F 
ATOM     90  F   UNL A   1      46.612  34.084  26.830  1.00  0.00    -0.200 F 
ENDBRANCH  57  80
ENDBRANCH  31  32
ENDBRANCH  24  26
ENDBRANCH  23  24
ENDBRANCH  22  23
ENDBRANCH   1  22
TORSDOF 14
ENDMDL
MODEL 2
REMARK VINA RESULT:     -11.6      3.806      5.656
REMARK SMILES O=C(Cn1cnnn1)Nc1cccc(F)c1C(=O)OCCOC(=O)c1ccc(-c2c3nc(c(-c4c(F)c(F)c(F)c(F)c4F)c4ccc([nH]4)c(-c4c(F)c(F)c(F)c(F)c4F)c4nc(c(-c5c(F)c(F)c(F)c(F)c5F)c5ccc2[nH]5)C=C4)C=C3)cc1
REMARK SMILES IDX 20 1 19 2 17 3 18 4 16 5 10 6 11 7 12 8 14 9 13 10 15 11
REMARK SMILES IDX 9 12 1 13 2 14 3 16 4 17 5 18 8 19 6 20 7 21 21 22 22 23
REMARK SMILES IDX 23 24 24 25 25 26 26 27 87 28 27 29 86 30 28 31 29 32 30 33
REMARK SMILES IDX 80 34 31 35 85 36 79 37 81 38 32 39 84 40 78 41 77 42 33 44
REMARK SMILES IDX 65 45 45 46 64 47 46 48 49 49 63 50 82 51 47 52 48 53 62 55
REMARK SMILES IDX 83 56 50 57 34 58 35 59 43 60 36 61 37 62 41 63 44 64 38 65
REMARK SMILES IDX 39 66 42 67 40 68 66 69 67 70 75 71 68 72 69 73 73 74 76 75
REMARK SMILES IDX 70 76 71 77 74 78 72 79 51 80 52 81 60 82 53 83 54 84 58 85
REMARK SMILES IDX 61 86 55 87 56 88 59 89 57 90
REMARK H PARENT 9 15 81 43 49 54
REMARK Flexibility Score: inf
ROOT
ATOM      1  C   UNL A   1      32.321  30.162  25.872  1.00  0.00     0.275 C 
ENDROOT
BRANCH   1   2
ATOM      2  O   UNL A   1      32.877  28.934  25.373  1.00  0.00    -0.458 OA
BRANCH   2   3
ATOM      3  C   UNL A   1      32.022  27.882  25.271  1.00  0.00     0.343 C 
ATOM      4  O   UNL A   1      31.119  27.640  26.043  1.00  0.00    -0.246 OA
BRANCH   3   5
ATOM      5  C   UNL A   1      32.208  27.128  24.000  1.00  0.00     0.119 A 
ATOM      6  C   UNL A   1      31.234  27.205  22.971  1.00  0.00     0.058 A 
ATOM      7  C   UNL A   1      31.480  26.518  21.769  1.00  0.00     0.027 A 
ATOM      8  C   UNL A   1      32.634  25.751  21.590  1.00  0.00     0.005 A 
ATOM      9  C   UNL A   1      33.356  26.349  23.802  1.00  0.00     0.139 A 
ATOM     10  C   UNL A   1      33.570  25.664  22.609  1.00  0.00     0.040 A 
ATOM     11  F   UNL A   1      34.290  26.209  24.755  1.00  0.00    -0.206 F 
BRANCH   6  12
ATOM     12  N   UNL A   1      30.054  27.997  23.130  1.00  0.00    -0.324 N 
ATOM     13  O   UNL A   1      30.520  29.759  21.704  1.00  0.00    -0.273 OA
ATOM     14  C   UNL A   1      29.810  29.237  22.567  1.00  0.00     0.246 C 
ATOM     15  H   UNL A   1      29.344  27.622  23.699  1.00  0.00     0.170 HD
BRANCH  14  16
ATOM     16  C   UNL A   1      28.685  30.065  23.151  1.00  0.00     0.248 C 
BRANCH  16  17
ATOM     17  N   UNL A   1      28.456  31.392  22.637  1.00  0.00    -0.223 N 
ATOM     18  C   UNL A   1      28.744  32.565  23.266  1.00  0.00     0.246 A 
ATOM     19  N   UNL A   1      27.920  31.646  21.440  1.00  0.00    -0.045 NA
ATOM     20  N   UNL A   1      28.358  33.555  22.497  1.00  0.00    -0.117 NA
ATOM     21  N   UNL A   1      27.845  32.968  21.365  1.00  0.00    -0.024 NA
ENDBRANCH  16  17
ENDBRANCH  14  16
ENDBRANCH   6  12
ENDBRANCH   3   5
ENDBRANCH   2   3
ENDBRANCH   1   2
BRANCH   1  22
ATOM     22  C   UNL A   1      33.042  30.612  27.135  1.00  0.00     0.275 C 
BRANCH  22  23
ATOM     23  O   UNL A   1      34.462  30.566  26.986  1.00  0.00    -0.458 OA
BRANCH  23  24
ATOM     24  C   UNL A   1      35.137  31.506  27.678  1.00  0.00     0.338 C 
ATOM     25  O   UNL A   1      35.061  32.721  27.562  1.00  0.00    -0.246 OA
BRANCH  24  26
ATOM     26  C   UNL A   1      36.206  30.874  28.454  1.00  0.00     0.060 A 
ATOM     27  C   UNL A   1      37.220  31.714  28.927  1.00  0.00     0.016 A 
ATOM     28  C   UNL A   1      36.353  29.481  28.423  1.00  0.00     0.016 A 
ATOM     29  C   UNL A   1      38.454  31.167  29.202  1.00  0.00     0.010 A 
ATOM     30  C   UNL A   1      37.587  28.936  28.701  1.00  0.00     0.010 A 
ATOM     31  C   UNL A   1      38.643  29.793  29.009  1.00  0.00    -0.014 A 
BRANCH  31  32
ATOM     32  C   UNL A   1      39.980  29.267  29.199  1.00  0.00     0.031 A 
ATOM     33  C   UNL A   1      40.360  29.052  30.620  1.00  0.00     0.074 A 
ATOM     34  C   UNL A   1      40.739  28.866  28.161  1.00  0.00     0.049 A 
ATOM     35  N   UNL A   1      41.416  29.454  31.253  1.00  0.00    -0.248 NA
ATOM     36  C   UNL A   1      39.372  28.365  31.471  1.00  0.00     0.031 C 
ATOM     37  C   UNL A   1      40.353  28.735  26.752  1.00  0.00     0.029 A 
ATOM     38  N   UNL A   1      42.000  28.362  28.183  1.00  0.00    -0.354 N 
ATOM     39  C   UNL A   1      41.299  28.940  32.543  1.00  0.00     0.074 A 
ATOM     40  C   UNL A   1      39.977  28.386  32.657  1.00  0.00     0.031 C 
ATOM     41  C   UNL A   1      41.267  27.970  26.114  1.00  0.00     0.029 A 
ATOM     42  C   UNL A   1      42.351  27.672  27.035  1.00  0.00     0.049 A 
ATOM     43  H   UNL A   1      42.610  28.477  28.946  1.00  0.00     0.167 HD
ATOM     44  C   UNL A   1      42.364  28.826  33.378  1.00  0.00     0.037 A 
ATOM     45  C   UNL A   1      43.400  26.824  26.910  1.00  0.00     0.037 A 
ATOM     46  C   UNL A   1      43.423  29.728  33.031  1.00  0.00     0.049 A 
ATOM     47  C   UNL A   1      44.341  27.106  28.025  1.00  0.00     0.074 A 
ATOM     48  C   UNL A   1      43.527  31.105  32.962  1.00  0.00     0.029 A 
ATOM     49  N   UNL A   1      44.515  29.245  32.357  1.00  0.00    -0.354 N 
ATOM     50  N   UNL A   1      45.029  28.208  28.152  1.00  0.00    -0.248 NA
ATOM     51  C   UNL A   1      44.200  26.316  29.240  1.00  0.00     0.031 C 
ATOM     52  C   UNL A   1      44.378  31.357  31.848  1.00  0.00     0.029 A 
ATOM     53  C   UNL A   1      44.761  30.120  31.329  1.00  0.00     0.049 A 
ATOM     54  H   UNL A   1      45.024  28.429  32.570  1.00  0.00     0.167 HD
ATOM     55  C   UNL A   1      45.068  28.449  29.518  1.00  0.00     0.074 A 
ATOM     56  C   UNL A   1      44.624  27.206  30.139  1.00  0.00     0.031 C 
ATOM     57  C   UNL A   1      45.191  29.715  30.011  1.00  0.00     0.037 A 
BRANCH  44  58
ATOM     58  C   UNL A   1      42.534  27.675  34.332  1.00  0.00     0.064 A 
ATOM     59  C   UNL A   1      41.937  27.641  35.613  1.00  0.00     0.173 A 
ATOM     60  C   UNL A   1      43.071  26.457  33.878  1.00  0.00     0.173 A 
ATOM     61  F   UNL A   1      41.278  28.694  36.115  1.00  0.00    -0.203 F 
ATOM     62  C   UNL A   1      41.897  26.487  36.389  1.00  0.00     0.198 A 
ATOM     63  C   UNL A   1      42.980  25.286  34.635  1.00  0.00     0.198 A 
ATOM     64  F   UNL A   1      43.625  26.369  32.660  1.00  0.00    -0.203 F 
ATOM     65  F   UNL A   1      41.307  26.519  37.592  1.00  0.00    -0.200 F 
ATOM     66  C   UNL A   1      42.394  25.302  35.890  1.00  0.00     0.200 A 
ATOM     67  F   UNL A   1      43.408  24.127  34.119  1.00  0.00    -0.200 F 
ATOM     68  F   UNL A   1      42.264  24.171  36.595  1.00  0.00    -0.200 F 
ENDBRANCH  44  58
BRANCH  45  69
ATOM     69  C   UNL A   1      43.439  25.561  26.134  1.00  0.00     0.064 A 
ATOM     70  C   UNL A   1      42.549  24.501  26.405  1.00  0.00     0.173 A 
ATOM     71  C   UNL A   1      44.521  25.266  25.292  1.00  0.00     0.173 A 
ATOM     72  F   UNL A   1      41.536  24.652  27.270  1.00  0.00    -0.203 F 
ATOM     73  C   UNL A   1      42.732  23.227  25.870  1.00  0.00     0.198 A 
ATOM     74  C   UNL A   1      44.712  23.984  24.767  1.00  0.00     0.198 A 
ATOM     75  F   UNL A   1      45.441  26.204  25.026  1.00  0.00    -0.203 F 
ATOM     76  F   UNL A   1      41.883  22.242  26.194  1.00  0.00    -0.200 F 
ATOM     77  C   UNL A   1      43.822  22.963  25.062  1.00  0.00     0.200 A 
ATOM     78  F   UNL A   1      45.792  23.722  24.017  1.00  0.00    -0.200 F 
ATOM     79  F   UNL A   1      44.036  21.722  24.606  1.00  0.00    -0.200 F 
ENDBRANCH  45  69
BRANCH  57  80
ATOM     80  C   UNL A   1      45.521  30.819  29.046  1.00  0.00     0.064 A 
ATOM     81  C   UNL A   1      44.478  31.432  28.341  1.00  0.00     0.173 A 
ATOM     82  C   UNL A   1      46.836  31.155  28.677  1.00  0.00     0.173 A 
ATOM     83  F   UNL A   1      43.204  31.102  28.605  1.00  0.00    -0.203 F 
ATOM     84  C   UNL A   1      44.735  32.338  27.315  1.00  0.00     0.198 A 
ATOM     85  C   UNL A   1      47.091  32.090  27.675  1.00  0.00     0.198 A 
ATOM     86  F   UNL A   1      47.885  30.533  29.227  1.00  0.00    -0.203 F 
ATOM     87  F   UNL A   1      43.717  32.860  26.615  1.00  0.00    -0.200 F 
ATOM     88  C   UNL A   1      46.040  32.674  26.989  1.00  0.00     0.200 A 
ATOM     89  F   UNL A   1      48.355  32.393  27.344  1.00  0.00    -0.200 F 
ATOM     90  F   UNL A   1      46.284  33.533  25.989  1.00  0.00    -0.200 F 
ENDBRANCH  57  80
ENDBRANCH  31  32
ENDBRANCH  24  26
ENDBRANCH  23  24
ENDBRANCH  22  23
ENDBRANCH   1  22
TORSDOF 14
ENDMDL
MODEL 3
REMARK VINA RESULT:     -11.5      5.936     11.622
REMARK SMILES O=C(Cn1cnnn1)Nc1cccc(F)c1C(=O)OCCOC(=O)c1ccc(-c2c3nc(c(-c4c(F)c(F)c(F)c(F)c4F)c4ccc([nH]4)c(-c4c(F)c(F)c(F)c(F)c4F)c4nc(c(-c5c(F)c(F)c(F)c(F)c5F)c5ccc2[nH]5)C=C4)C=C3)cc1
REMARK SMILES IDX 20 1 19 2 17 3 18 4 16 5 10 6 11 7 12 8 14 9 13 10 15 11
REMARK SMILES IDX 9 12 1 13 2 14 3 16 4 17 5 18 8 19 6 20 7 21 21 22 22 23
REMARK SMILES IDX 23 24 24 25 25 26 26 27 87 28 27 29 86 30 28 31 29 32 30 33
REMARK SMILES IDX 80 34 31 35 85 36 79 37 81 38 32 39 84 40 78 41 77 42 33 44
REMARK SMILES IDX 65 45 45 46 64 47 46 48 49 49 63 50 82 51 47 52 48 53 62 55
REMARK SMILES IDX 83 56 50 57 34 58 35 59 43 60 36 61 37 62 41 63 44 64 38 65
REMARK SMILES IDX 39 66 42 67 40 68 66 69 67 70 75 71 68 72 69 73 73 74 76 75
REMARK SMILES IDX 70 76 71 77 74 78 72 79 51 80 52 81 60 82 53 83 54 84 58 85
REMARK SMILES IDX 61 86 55 87 56 88 59 89 57 90
REMARK H PARENT 9 15 81 43 49 54
REMARK Flexibility Score: inf
ROOT
ATOM      1  C   UNL A   1      37.314  21.437  24.733  1.00  0.00     0.275 C 
ENDROOT
BRANCH   1   2
ATOM      2  O   UNL A   1      36.072  21.059  25.351  1.00  0.00    -0.458 OA
BRANCH   2   3
ATOM      3  C   UNL A   1      35.188  22.064  25.593  1.00  0.00     0.343 C 
ATOM      4  O   UNL A   1      35.239  22.825  26.536  1.00  0.00    -0.246 OA
BRANCH   3   5
ATOM      5  C   UNL A   1      34.219  22.241  24.477  1.00  0.00     0.119 A 
ATOM      6  C   UNL A   1      33.210  21.272  24.242  1.00  0.00     0.058 A 
ATOM      7  C   UNL A   1      32.285  21.510  23.209  1.00  0.00     0.027 A 
ATOM      8  C   UNL A   1      32.364  22.652  22.408  1.00  0.00     0.005 A 
ATOM      9  C   UNL A   1      34.284  23.377  23.658  1.00  0.00     0.139 A 
ATOM     10  C   UNL A   1      33.368  23.583  22.631  1.00  0.00     0.040 A 
ATOM     11  F   UNL A   1      35.241  24.306  23.810  1.00  0.00    -0.206 F 
BRANCH   6  12
ATOM     12  N   UNL A   1      33.103  20.105  25.061  1.00  0.00    -0.324 N 
ATOM     13  O   UNL A   1      33.311  18.438  23.470  1.00  0.00    -0.273 OA
ATOM     14  C   UNL A   1      33.076  18.792  24.628  1.00  0.00     0.246 C 
ATOM     15  H   UNL A   1      33.043  20.251  26.032  1.00  0.00     0.170 HD
BRANCH  14  16
ATOM     16  C   UNL A   1      32.585  17.740  25.600  1.00  0.00     0.248 C 
BRANCH  16  17
ATOM     17  N   UNL A   1      33.128  16.408  25.521  1.00  0.00    -0.223 N 
ATOM     18  C   UNL A   1      32.426  15.242  25.591  1.00  0.00     0.246 A 
ATOM     19  N   UNL A   1      34.426  16.139  25.358  1.00  0.00    -0.045 NA
ATOM     20  N   UNL A   1      33.272  14.243  25.516  1.00  0.00    -0.117 NA
ATOM     21  N   UNL A   1      34.513  14.816  25.374  1.00  0.00    -0.024 NA
ENDBRANCH  16  17
ENDBRANCH  14  16
ENDBRANCH   6  12
ENDBRANCH   3   5
ENDBRANCH   2   3
ENDBRANCH   1   2
BRANCH   1  22
ATOM     22  C   UNL A   1      38.455  21.403  25.741  1.00  0.00     0.275 C 
BRANCH  22  23
ATOM     23  O   UNL A   1      38.929  22.714  26.057  1.00  0.00    -0.458 OA
BRANCH  23  24
ATOM     24  C   UNL A   1      40.022  22.748  26.846  1.00  0.00     0.338 C 
ATOM     25  O   UNL A   1      40.486  21.841  27.521  1.00  0.00    -0.246 OA
BRANCH  24  26
ATOM     26  C   UNL A   1      40.473  24.132  27.004  1.00  0.00     0.060 A 
ATOM     27  C   UNL A   1      41.521  24.353  27.904  1.00  0.00     0.016 A 
ATOM     28  C   UNL A   1      39.672  25.179  26.529  1.00  0.00     0.016 A 
ATOM     29  C   UNL A   1      41.653  25.603  28.468  1.00  0.00     0.010 A 
ATOM     30  C   UNL A   1      39.808  26.428  27.092  1.00  0.00     0.010 A 
ATOM     31  C   UNL A   1      40.742  26.604  28.112  1.00  0.00    -0.014 A 
BRANCH  31  32
ATOM     32  C   UNL A   1      40.837  27.874  28.806  1.00  0.00     0.031 A 
ATOM     33  C   UNL A   1      41.974  28.728  28.371  1.00  0.00     0.074 A 
ATOM     34  C   UNL A   1      39.880  28.292  29.654  1.00  0.00     0.049 A 
ATOM     35  N   UNL A   1      42.881  29.308  29.090  1.00  0.00    -0.248 NA
ATOM     36  C   UNL A   1      42.168  28.879  26.918  1.00  0.00     0.031 C 
ATOM     37  C   UNL A   1      38.570  27.684  29.917  1.00  0.00     0.029 A 
ATOM     38  N   UNL A   1      39.834  29.444  30.374  1.00  0.00    -0.354 N 
ATOM     39  C   UNL A   1      43.672  30.021  28.192  1.00  0.00     0.074 A 
ATOM     40  C   UNL A   1      43.267  29.628  26.869  1.00  0.00     0.031 C 
ATOM     41  C   UNL A   1      37.781  28.589  30.539  1.00  0.00     0.029 A 
ATOM     42  C   UNL A   1      38.567  29.777  30.823  1.00  0.00     0.049 A 
ATOM     43  H   UNL A   1      40.629  29.992  30.559  1.00  0.00     0.167 HD
ATOM     44  C   UNL A   1      44.480  31.040  28.586  1.00  0.00     0.037 A 
ATOM     45  C   UNL A   1      38.184  30.992  31.284  1.00  0.00     0.037 A 
ATOM     46  C   UNL A   1      44.831  30.946  29.973  1.00  0.00     0.049 A 
ATOM     47  C   UNL A   1      39.414  31.744  31.646  1.00  0.00     0.074 A 
ATOM     48  C   UNL A   1      45.512  30.011  30.730  1.00  0.00     0.029 A 
ATOM     49  N   UNL A   1      44.187  31.749  30.879  1.00  0.00    -0.354 N 
ATOM     50  N   UNL A   1      40.207  31.431  32.634  1.00  0.00    -0.248 NA
ATOM     51  C   UNL A   1      39.994  32.615  30.633  1.00  0.00     0.031 C 
ATOM     52  C   UNL A   1      44.848  29.997  31.990  1.00  0.00     0.029 A 
ATOM     53  C   UNL A   1      43.826  30.945  31.930  1.00  0.00     0.049 A 
ATOM     54  H   UNL A   1      44.019  32.716  30.792  1.00  0.00     0.167 HD
ATOM     55  C   UNL A   1      41.482  31.731  32.177  1.00  0.00     0.074 A 
ATOM     56  C   UNL A   1      41.280  32.540  30.980  1.00  0.00     0.031 C 
ATOM     57  C   UNL A   1      42.579  31.070  32.649  1.00  0.00     0.037 A 
BRANCH  44  58
ATOM     58  C   UNL A   1      44.701  32.275  27.757  1.00  0.00     0.064 A 
ATOM     59  C   UNL A   1      43.896  33.433  27.868  1.00  0.00     0.173 A 
ATOM     60  C   UNL A   1      45.894  32.432  27.029  1.00  0.00     0.173 A 
ATOM     61  F   UNL A   1      42.799  33.460  28.636  1.00  0.00    -0.203 F 
ATOM     62  C   UNL A   1      44.245  34.645  27.281  1.00  0.00     0.198 A 
ATOM     63  C   UNL A   1      46.270  33.665  26.489  1.00  0.00     0.198 A 
ATOM     64  F   UNL A   1      46.750  31.408  26.896  1.00  0.00    -0.203 F 
ATOM     65  F   UNL A   1      43.442  35.707  27.433  1.00  0.00    -0.200 F 
ATOM     66  C   UNL A   1      45.445  34.769  26.615  1.00  0.00     0.200 A 
ATOM     67  F   UNL A   1      47.464  33.794  25.897  1.00  0.00    -0.200 F 
ATOM     68  F   UNL A   1      45.827  35.962  26.139  1.00  0.00    -0.200 F 
ENDBRANCH  44  58
BRANCH  45  69
ATOM     69  C   UNL A   1      36.879  31.660  31.060  1.00  0.00     0.064 A 
ATOM     70  C   UNL A   1      36.533  32.205  29.808  1.00  0.00     0.173 A 
ATOM     71  C   UNL A   1      36.056  32.011  32.142  1.00  0.00     0.173 A 
ATOM     72  F   UNL A   1      37.306  32.007  28.729  1.00  0.00    -0.203 F 
ATOM     73  C   UNL A   1      35.436  33.051  29.646  1.00  0.00     0.198 A 
ATOM     74  C   UNL A   1      34.965  32.871  31.982  1.00  0.00     0.198 A 
ATOM     75  F   UNL A   1      36.346  31.577  33.376  1.00  0.00    -0.203 F 
ATOM     76  F   UNL A   1      35.176  33.579  28.442  1.00  0.00    -0.200 F 
ATOM     77  C   UNL A   1      34.660  33.396  30.735  1.00  0.00     0.200 A 
ATOM     78  F   UNL A   1      34.239  33.236  33.048  1.00  0.00    -0.200 F 
ATOM     79  F   UNL A   1      33.649  34.264  30.592  1.00  0.00    -0.200 F 
ENDBRANCH  45  69
BRANCH  57  80
ATOM     80  C   UNL A   1      42.403  30.176  33.844  1.00  0.00     0.064 A 
ATOM     81  C   UNL A   1      42.864  30.618  35.090  1.00  0.00     0.173 A 
ATOM     82  C   UNL A   1      41.960  28.844  33.754  1.00  0.00     0.173 A 
ATOM     83  F   UNL A   1      43.359  31.859  35.222  1.00  0.00    -0.203 F 
ATOM     84  C   UNL A   1      42.883  29.770  36.196  1.00  0.00     0.198 A 
ATOM     85  C   UNL A   1      41.944  28.009  34.870  1.00  0.00     0.198 A 
ATOM     86  F   UNL A   1      41.607  28.315  32.577  1.00  0.00    -0.203 F 
ATOM     87  F   UNL A   1      43.390  30.202  37.359  1.00  0.00    -0.200 F 
ATOM     88  C   UNL A   1      42.414  28.470  36.087  1.00  0.00     0.200 A 
ATOM     89  F   UNL A   1      41.515  26.743  34.756  1.00  0.00    -0.200 F 
ATOM     90  F   UNL A   1      42.450  27.652  37.149  1.00  0.00    -0.200 F 
ENDBRANCH  57  80
ENDBRANCH  31  32
ENDBRANCH  24  26
ENDBRANCH  23  24
ENDBRANCH  22  23
ENDBRANCH   1  22
TORSDOF 14
ENDMDL
