MODEL 1
REMARK VINA RESULT:     -12.2      0.000      0.000
REMARK SMILES O=C(OCCOC(=O)c1ccc(-n2nc(Cl)ccc2=O)cc1)c1ccc(-c2c3nc(c(-c4c(F)c(F)c(F)c(F)c4F)c4ccc([nH]4)c(-c4c(F)c(F)c(F)c(F)c4F)c4nc(c(-c5c(F)c(F)c(F)c(F)c5F)c5ccc2[nH]5)C=C4)C=C3)cc1
REMARK SMILES IDX 4 1 3 2 2 3 1 4 23 5 24 6 85 7 25 8 84 9 26 10 27 11 28 12
REMARK SMILES IDX 78 13 29 14 83 15 77 16 79 17 30 18 82 19 76 20 75 21 31 23
REMARK SMILES IDX 63 24 43 25 62 26 44 27 47 28 61 29 80 30 45 31 46 32 60 34
REMARK SMILES IDX 81 35 48 36 32 37 33 38 41 39 34 40 35 41 39 42 42 43 36 44
REMARK SMILES IDX 37 45 40 46 38 47 64 48 65 49 73 50 66 51 67 52 71 53 74 54
REMARK SMILES IDX 68 55 69 56 72 57 70 58 49 59 50 60 58 61 51 62 52 63 56 64
REMARK SMILES IDX 59 65 53 66 54 67 57 68 55 69 5 70 6 71 7 72 8 73 9 74 10 75
REMARK SMILES IDX 22 76 11 77 21 78 12 79 13 80 14 81 19 82 15 83 18 84 20 85
REMARK SMILES IDX 16 86 17 87
REMARK H PARENT 79 22 47 33
REMARK Flexibility Score: inf
ROOT
ATOM      1  C   UNL A   1      43.743  21.610  25.370  1.00  0.00     0.275 C 
ENDROOT
BRANCH   1   2
ATOM      2  O   UNL A   1      43.393  22.843  24.724  1.00  0.00    -0.458 OA
BRANCH   2   3
ATOM      3  C   UNL A   1      43.787  24.106  25.004  1.00  0.00     0.338 C 
ATOM      4  O   UNL A   1      44.802  24.539  24.461  1.00  0.00    -0.246 OA
BRANCH   3   5
ATOM      5  C   UNL A   1      43.147  24.961  26.057  1.00  0.00     0.060 A 
ATOM      6  C   UNL A   1      42.032  24.638  26.836  1.00  0.00     0.016 A 
ATOM      7  C   UNL A   1      43.766  26.197  26.296  1.00  0.00     0.016 A 
ATOM      8  C   UNL A   1      41.627  25.447  27.902  1.00  0.00     0.010 A 
ATOM      9  C   UNL A   1      43.365  27.010  27.358  1.00  0.00     0.010 A 
ATOM     10  C   UNL A   1      42.310  26.624  28.191  1.00  0.00    -0.014 A 
BRANCH  10  11
ATOM     11  C   UNL A   1      41.836  27.532  29.257  1.00  0.00     0.031 A 
ATOM     12  C   UNL A   1      42.502  27.441  30.594  1.00  0.00     0.074 A 
ATOM     13  C   UNL A   1      40.855  28.428  29.034  1.00  0.00     0.049 A 
ATOM     14  N   UNL A   1      42.230  28.083  31.698  1.00  0.00    -0.248 NA
ATOM     15  C   UNL A   1      43.655  26.529  30.692  1.00  0.00     0.031 C 
ATOM     16  C   UNL A   1      40.233  28.692  27.740  1.00  0.00     0.029 A 
ATOM     17  N   UNL A   1      40.192  29.273  29.891  1.00  0.00    -0.354 N 
ATOM     18  C   UNL A   1      43.196  27.677  32.605  1.00  0.00     0.074 A 
ATOM     19  C   UNL A   1      44.018  26.685  31.954  1.00  0.00     0.031 C 
ATOM     20  C   UNL A   1      39.227  29.568  27.899  1.00  0.00     0.029 A 
ATOM     21  C   UNL A   1      39.125  29.920  29.309  1.00  0.00     0.049 A 
ATOM     22  H   UNL A   1      40.453  29.402  30.832  1.00  0.00     0.167 HD
ATOM     23  C   UNL A   1      43.398  28.130  33.861  1.00  0.00     0.037 A 
ATOM     24  C   UNL A   1      38.158  30.677  29.867  1.00  0.00     0.037 A 
ATOM     25  C   UNL A   1      42.564  29.114  34.490  1.00  0.00     0.049 A 
ATOM     26  C   UNL A   1      38.266  30.978  31.341  1.00  0.00     0.074 A 
ATOM     27  C   UNL A   1      42.689  29.676  35.745  1.00  0.00     0.029 A 
ATOM     28  N   UNL A   1      41.431  29.665  33.908  1.00  0.00    -0.354 N 
ATOM     29  N   UNL A   1      39.211  30.631  32.182  1.00  0.00    -0.248 NA
ATOM     30  C   UNL A   1      37.196  31.782  31.945  1.00  0.00     0.031 C 
ATOM     31  C   UNL A   1      41.587  30.511  35.952  1.00  0.00     0.029 A 
ATOM     32  C   UNL A   1      40.809  30.516  34.805  1.00  0.00     0.049 A 
ATOM     33  H   UNL A   1      41.116  29.479  32.994  1.00  0.00     0.167 HD
ATOM     34  C   UNL A   1      38.894  31.238  33.388  1.00  0.00     0.074 A 
ATOM     35  C   UNL A   1      37.651  31.951  33.179  1.00  0.00     0.031 C 
ATOM     36  C   UNL A   1      39.580  31.227  34.556  1.00  0.00     0.037 A 
BRANCH  23  37
ATOM     37  C   UNL A   1      44.540  27.542  34.627  1.00  0.00     0.064 A 
ATOM     38  C   UNL A   1      44.386  26.396  35.422  1.00  0.00     0.173 A 
ATOM     39  C   UNL A   1      45.810  28.133  34.563  1.00  0.00     0.173 A 
ATOM     40  F   UNL A   1      43.184  25.808  35.534  1.00  0.00    -0.203 F 
ATOM     41  C   UNL A   1      45.457  25.875  36.142  1.00  0.00     0.198 A 
ATOM     42  C   UNL A   1      46.885  27.595  35.263  1.00  0.00     0.198 A 
ATOM     43  F   UNL A   1      46.005  29.235  33.824  1.00  0.00    -0.203 F 
ATOM     44  F   UNL A   1      45.276  24.807  36.931  1.00  0.00    -0.200 F 
ATOM     45  C   UNL A   1      46.707  26.470  36.056  1.00  0.00     0.200 A 
ATOM     46  F   UNL A   1      48.092  28.168  35.175  1.00  0.00    -0.200 F 
ATOM     47  F   UNL A   1      47.740  25.966  36.746  1.00  0.00    -0.200 F 
ENDBRANCH  23  37
BRANCH  24  48
ATOM     48  C   UNL A   1      36.980  31.137  29.072  1.00  0.00     0.064 A 
ATOM     49  C   UNL A   1      36.803  32.470  28.681  1.00  0.00     0.173 A 
ATOM     50  C   UNL A   1      35.946  30.242  28.759  1.00  0.00     0.173 A 
ATOM     51  F   UNL A   1      37.750  33.378  28.959  1.00  0.00    -0.203 F 
ATOM     52  C   UNL A   1      35.625  32.894  28.061  1.00  0.00     0.198 A 
ATOM     53  C   UNL A   1      34.778  30.656  28.122  1.00  0.00     0.198 A 
ATOM     54  F   UNL A   1      36.080  28.953  29.081  1.00  0.00    -0.203 F 
ATOM     55  F   UNL A   1      35.459  34.188  27.759  1.00  0.00    -0.200 F 
ATOM     56  C   UNL A   1      34.610  31.987  27.788  1.00  0.00     0.200 A 
ATOM     57  F   UNL A   1      33.810  29.769  27.853  1.00  0.00    -0.200 F 
ATOM     58  F   UNL A   1      33.471  32.401  27.217  1.00  0.00    -0.200 F 
ENDBRANCH  24  48
BRANCH  36  59
ATOM     59  C   UNL A   1      39.037  32.056  35.681  1.00  0.00     0.064 A 
ATOM     60  C   UNL A   1      38.230  31.498  36.681  1.00  0.00     0.173 A 
ATOM     61  C   UNL A   1      39.396  33.407  35.795  1.00  0.00     0.173 A 
ATOM     62  F   UNL A   1      37.846  30.215  36.603  1.00  0.00    -0.203 F 
ATOM     63  C   UNL A   1      37.793  32.269  37.754  1.00  0.00     0.198 A 
ATOM     64  C   UNL A   1      38.986  34.165  36.886  1.00  0.00     0.198 A 
ATOM     65  F   UNL A   1      40.171  33.982  34.863  1.00  0.00    -0.203 F 
ATOM     66  F   UNL A   1      36.992  31.728  38.681  1.00  0.00    -0.200 F 
ATOM     67  C   UNL A   1      38.182  33.598  37.862  1.00  0.00     0.200 A 
ATOM     68  F   UNL A   1      39.378  35.442  36.998  1.00  0.00    -0.200 F 
ATOM     69  F   UNL A   1      37.779  34.331  38.908  1.00  0.00    -0.200 F 
ENDBRANCH  36  59
ENDBRANCH  10  11
ENDBRANCH   3   5
ENDBRANCH   2   3
ENDBRANCH   1   2
BRANCH   1  70
ATOM     70  C   UNL A   1      42.607  20.957  26.169  1.00  0.00     0.275 C 
BRANCH  70  71
ATOM     71  O   UNL A   1      41.283  21.345  25.758  1.00  0.00    -0.458 OA
BRANCH  71  72
ATOM     72  C   UNL A   1      40.401  21.572  26.774  1.00  0.00     0.338 C 
ATOM     73  O   UNL A   1      40.628  21.505  27.963  1.00  0.00    -0.246 OA
BRANCH  72  74
ATOM     74  C   UNL A   1      39.118  22.048  26.210  1.00  0.00     0.060 A 
ATOM     75  C   UNL A   1      38.383  21.182  25.401  1.00  0.00     0.018 A 
ATOM     76  C   UNL A   1      38.628  23.327  26.477  1.00  0.00     0.018 A 
ATOM     77  C   UNL A   1      37.093  21.535  24.984  1.00  0.00     0.029 A 
ATOM     78  C   UNL A   1      37.370  23.707  25.977  1.00  0.00     0.029 A 
ATOM     79  C   UNL A   1      36.554  22.789  25.293  1.00  0.00     0.069 A 
BRANCH  79  80
ATOM     80  N   UNL A   1      35.195  23.122  24.998  1.00  0.00    -0.196 N 
ATOM     81  N   UNL A   1      34.892  23.132  23.646  1.00  0.00    -0.153 NA
ATOM     82  C   UNL A   1      34.251  23.395  25.998  1.00  0.00     0.271 A 
ATOM     83  C   UNL A   1      33.694  23.482  23.302  1.00  0.00     0.150 A 
ATOM     84  C   UNL A   1      32.957  23.937  25.523  1.00  0.00     0.077 A 
ATOM     85  O   UNL A   1      34.401  23.297  27.213  1.00  0.00    -0.267 OA
ATOM     86  Cl  UNL A   1      33.297  23.332  21.627  1.00  0.00    -0.060 Cl
ATOM     87  C   UNL A   1      32.669  23.989  24.225  1.00  0.00     0.049 A 
ENDBRANCH  79  80
ENDBRANCH  72  74
ENDBRANCH  71  72
ENDBRANCH  70  71
ENDBRANCH   1  70
TORSDOF 12
ENDMDL
MODEL 2
REMARK VINA RESULT:     -12.0      0.938      2.068
REMARK SMILES O=C(OCCOC(=O)c1ccc(-n2nc(Cl)ccc2=O)cc1)c1ccc(-c2c3nc(c(-c4c(F)c(F)c(F)c(F)c4F)c4ccc([nH]4)c(-c4c(F)c(F)c(F)c(F)c4F)c4nc(c(-c5c(F)c(F)c(F)c(F)c5F)c5ccc2[nH]5)C=C4)C=C3)cc1
REMARK SMILES IDX 4 1 3 2 2 3 1 4 23 5 24 6 85 7 25 8 84 9 26 10 27 11 28 12
REMARK SMILES IDX 78 13 29 14 83 15 77 16 79 17 30 18 82 19 76 20 75 21 31 23
REMARK SMILES IDX 63 24 43 25 62 26 44 27 47 28 61 29 80 30 45 31 46 32 60 34
REMARK SMILES IDX 81 35 48 36 32 37 33 38 41 39 34 40 35 41 39 42 42 43 36 44
REMARK SMILES IDX 37 45 40 46 38 47 64 48 65 49 73 50 66 51 67 52 71 53 74 54
REMARK SMILES IDX 68 55 69 56 72 57 70 58 49 59 50 60 58 61 51 62 52 63 56 64
REMARK SMILES IDX 59 65 53 66 54 67 57 68 55 69 5 70 6 71 7 72 8 73 9 74 10 75
REMARK SMILES IDX 22 76 11 77 21 78 12 79 13 80 14 81 19 82 15 83 18 84 20 85
REMARK SMILES IDX 16 86 17 87
REMARK H PARENT 79 22 47 33
REMARK Flexibility Score: inf
ROOT
ATOM      1  C   UNL A   1      43.503  21.314  25.325  1.00  0.00     0.275 C 
ENDROOT
BRANCH   1   2
ATOM      2  O   UNL A   1      43.064  22.609  24.890  1.00  0.00    -0.458 OA
BRANCH   2   3
ATOM      3  C   UNL A   1      43.675  23.811  25.003  1.00  0.00     0.338 C 
ATOM      4  O   UNL A   1      44.615  24.065  24.253  1.00  0.00    -0.246 OA
BRANCH   3   5
ATOM      5  C   UNL A   1      43.374  24.794  26.094  1.00  0.00     0.060 A 
ATOM      6  C   UNL A   1      43.929  26.068  26.251  1.00  0.00     0.016 A 
ATOM      7  C   UNL A   1      42.406  24.391  27.027  1.00  0.00     0.016 A 
ATOM      8  C   UNL A   1      43.447  26.960  27.214  1.00  0.00     0.010 A 
ATOM      9  C   UNL A   1      41.923  25.278  27.991  1.00  0.00     0.010 A 
ATOM     10  C   UNL A   1      42.418  26.583  28.071  1.00  0.00    -0.014 A 
BRANCH  10  11
ATOM     11  C   UNL A   1      41.964  27.485  29.151  1.00  0.00     0.031 A 
ATOM     12  C   UNL A   1      42.645  27.378  30.479  1.00  0.00     0.074 A 
ATOM     13  C   UNL A   1      40.987  28.390  28.946  1.00  0.00     0.049 A 
ATOM     14  N   UNL A   1      42.390  28.013  31.591  1.00  0.00    -0.248 NA
ATOM     15  C   UNL A   1      43.792  26.456  30.555  1.00  0.00     0.031 C 
ATOM     16  C   UNL A   1      40.352  28.669  27.662  1.00  0.00     0.029 A 
ATOM     17  N   UNL A   1      40.340  29.233  29.819  1.00  0.00    -0.354 N 
ATOM     18  C   UNL A   1      43.364  27.592  32.483  1.00  0.00     0.074 A 
ATOM     19  C   UNL A   1      44.171  26.599  31.814  1.00  0.00     0.031 C 
ATOM     20  C   UNL A   1      39.354  29.551  27.840  1.00  0.00     0.029 A 
ATOM     21  C   UNL A   1      39.272  29.892  29.255  1.00  0.00     0.049 A 
ATOM     22  H   UNL A   1      40.613  29.351  30.757  1.00  0.00     0.167 HD
ATOM     23  C   UNL A   1      43.584  28.033  33.741  1.00  0.00     0.037 A 
ATOM     24  C   UNL A   1      38.317  30.652  29.830  1.00  0.00     0.037 A 
ATOM     25  C   UNL A   1      42.765  29.018  34.387  1.00  0.00     0.049 A 
ATOM     26  C   UNL A   1      38.445  30.940  31.305  1.00  0.00     0.074 A 
ATOM     27  C   UNL A   1      42.909  29.569  35.645  1.00  0.00     0.029 A 
ATOM     28  N   UNL A   1      41.630  29.582  33.824  1.00  0.00    -0.354 N 
ATOM     29  N   UNL A   1      39.397  30.579  32.132  1.00  0.00    -0.248 NA
ATOM     30  C   UNL A   1      37.387  31.746  31.928  1.00  0.00     0.031 C 
ATOM     31  C   UNL A   1      41.816  30.410  35.873  1.00  0.00     0.029 A 
ATOM     32  C   UNL A   1      41.024  30.430  34.734  1.00  0.00     0.049 A 
ATOM     33  H   UNL A   1      41.302  29.406  32.912  1.00  0.00     0.167 HD
ATOM     34  C   UNL A   1      39.098  31.178  33.347  1.00  0.00     0.074 A 
ATOM     35  C   UNL A   1      37.859  31.902  33.158  1.00  0.00     0.031 C 
ATOM     36  C   UNL A   1      39.798  31.153  34.507  1.00  0.00     0.037 A 
BRANCH  23  37
ATOM     37  C   UNL A   1      44.731  27.431  34.488  1.00  0.00     0.064 A 
ATOM     38  C   UNL A   1      46.017  27.992  34.447  1.00  0.00     0.173 A 
ATOM     39  C   UNL A   1      44.542  26.277  35.262  1.00  0.00     0.173 A 
ATOM     40  F   UNL A   1      46.254  29.083  33.701  1.00  0.00    -0.203 F 
ATOM     41  C   UNL A   1      47.076  27.406  35.134  1.00  0.00     0.198 A 
ATOM     42  C   UNL A   1      45.596  25.709  35.969  1.00  0.00     0.198 A 
ATOM     43  F   UNL A   1      43.333  25.699  35.326  1.00  0.00    -0.203 F 
ATOM     44  F   UNL A   1      48.305  27.932  35.042  1.00  0.00    -0.200 F 
ATOM     45  C   UNL A   1      46.863  26.270  35.900  1.00  0.00     0.200 A 
ATOM     46  F   UNL A   1      45.388  24.614  36.712  1.00  0.00    -0.200 F 
ATOM     47  F   UNL A   1      47.882  25.708  36.566  1.00  0.00    -0.200 F 
ENDBRANCH  23  37
BRANCH  24  48
ATOM     48  C   UNL A   1      37.133  31.127  29.052  1.00  0.00     0.064 A 
ATOM     49  C   UNL A   1      36.949  32.469  28.697  1.00  0.00     0.173 A 
ATOM     50  C   UNL A   1      36.102  30.236  28.721  1.00  0.00     0.173 A 
ATOM     51  F   UNL A   1      37.892  33.374  28.994  1.00  0.00    -0.203 F 
ATOM     52  C   UNL A   1      35.766  32.903  28.094  1.00  0.00     0.198 A 
ATOM     53  C   UNL A   1      34.929  30.661  28.101  1.00  0.00     0.198 A 
ATOM     54  F   UNL A   1      36.243  28.939  29.009  1.00  0.00    -0.203 F 
ATOM     55  F   UNL A   1      35.592  34.204  27.827  1.00  0.00    -0.200 F 
ATOM     56  C   UNL A   1      34.754  31.999  27.803  1.00  0.00     0.200 A 
ATOM     57  F   UNL A   1      33.963  29.777  27.813  1.00  0.00    -0.200 F 
ATOM     58  F   UNL A   1      33.610  32.423  27.247  1.00  0.00    -0.200 F 
ENDBRANCH  24  48
BRANCH  36  59
ATOM     59  C   UNL A   1      39.274  31.975  35.644  1.00  0.00     0.064 A 
ATOM     60  C   UNL A   1      39.532  33.349  35.737  1.00  0.00     0.173 A 
ATOM     61  C   UNL A   1      38.439  31.391  36.608  1.00  0.00     0.173 A 
ATOM     62  F   UNL A   1      40.340  33.946  34.849  1.00  0.00    -0.203 F 
ATOM     63  C   UNL A   1      38.979  34.109  36.764  1.00  0.00     0.198 A 
ATOM     64  C   UNL A   1      37.860  32.159  37.612  1.00  0.00     0.198 A 
ATOM     65  F   UNL A   1      38.160  30.079  36.556  1.00  0.00    -0.203 F 
ATOM     66  F   UNL A   1      39.267  35.413  36.858  1.00  0.00    -0.200 F 
ATOM     67  C   UNL A   1      38.134  33.515  37.692  1.00  0.00     0.200 A 
ATOM     68  F   UNL A   1      37.030  31.587  38.496  1.00  0.00    -0.200 F 
ATOM     69  F   UNL A   1      37.584  34.253  38.666  1.00  0.00    -0.200 F 
ENDBRANCH  36  59
ENDBRANCH  10  11
ENDBRANCH   3   5
ENDBRANCH   2   3
ENDBRANCH   1   2
BRANCH   1  70
ATOM     70  C   UNL A   1      42.441  20.490  26.066  1.00  0.00     0.275 C 
BRANCH  70  71
ATOM     71  O   UNL A   1      41.084  20.905  25.827  1.00  0.00    -0.458 OA
BRANCH  71  72
ATOM     72  C   UNL A   1      40.439  21.437  26.904  1.00  0.00     0.338 C 
ATOM     73  O   UNL A   1      40.866  21.530  28.035  1.00  0.00    -0.246 OA
BRANCH  72  74
ATOM     74  C   UNL A   1      39.150  22.018  26.465  1.00  0.00     0.060 A 
ATOM     75  C   UNL A   1      38.883  23.353  26.770  1.00  0.00     0.018 A 
ATOM     76  C   UNL A   1      38.212  21.272  25.751  1.00  0.00     0.018 A 
ATOM     77  C   UNL A   1      37.752  23.984  26.235  1.00  0.00     0.029 A 
ATOM     78  C   UNL A   1      37.034  21.889  25.296  1.00  0.00     0.029 A 
ATOM     79  C   UNL A   1      36.828  23.270  25.462  1.00  0.00     0.069 A 
BRANCH  79  80
ATOM     80  N   UNL A   1      35.742  23.917  24.793  1.00  0.00    -0.196 N 
ATOM     81  N   UNL A   1      35.056  24.832  25.576  1.00  0.00    -0.153 NA
ATOM     82  C   UNL A   1      35.418  23.655  23.455  1.00  0.00     0.271 A 
ATOM     83  C   UNL A   1      34.024  25.412  25.053  1.00  0.00     0.150 A 
ATOM     84  C   UNL A   1      34.139  24.236  22.983  1.00  0.00     0.077 A 
ATOM     85  O   UNL A   1      36.037  22.953  22.660  1.00  0.00    -0.267 OA
ATOM     86  Cl  UNL A   1      33.285  26.663  25.991  1.00  0.00    -0.060 Cl
ATOM     87  C   UNL A   1      33.450  25.086  23.740  1.00  0.00     0.049 A 
ENDBRANCH  79  80
ENDBRANCH  72  74
ENDBRANCH  71  72
ENDBRANCH  70  71
ENDBRANCH   1  70
TORSDOF 12
ENDMDL
MODEL 3
REMARK VINA RESULT:     -11.9      5.134      7.542
REMARK SMILES O=C(OCCOC(=O)c1ccc(-n2nc(Cl)ccc2=O)cc1)c1ccc(-c2c3nc(c(-c4c(F)c(F)c(F)c(F)c4F)c4ccc([nH]4)c(-c4c(F)c(F)c(F)c(F)c4F)c4nc(c(-c5c(F)c(F)c(F)c(F)c5F)c5ccc2[nH]5)C=C4)C=C3)cc1
REMARK SMILES IDX 4 1 3 2 2 3 1 4 23 5 24 6 85 7 25 8 84 9 26 10 27 11 28 12
REMARK SMILES IDX 78 13 29 14 83 15 77 16 79 17 30 18 82 19 76 20 75 21 31 23
REMARK SMILES IDX 63 24 43 25 62 26 44 27 47 28 61 29 80 30 45 31 46 32 60 34
REMARK SMILES IDX 81 35 48 36 32 37 33 38 41 39 34 40 35 41 39 42 42 43 36 44
REMARK SMILES IDX 37 45 40 46 38 47 64 48 65 49 73 50 66 51 67 52 71 53 74 54
REMARK SMILES IDX 68 55 69 56 72 57 70 58 49 59 50 60 58 61 51 62 52 63 56 64
REMARK SMILES IDX 59 65 53 66 54 67 57 68 55 69 5 70 6 71 7 72 8 73 9 74 10 75
REMARK SMILES IDX 22 76 11 77 21 78 12 79 13 80 14 81 19 82 15 83 18 84 20 85
REMARK SMILES IDX 16 86 17 87
REMARK H PARENT 79 22 47 33
REMARK Flexibility Score: inf
ROOT
ATOM      1  C   UNL A   1      43.013  18.298  25.921  1.00  0.00     0.275 C 
ENDROOT
BRANCH   1   2
ATOM      2  O   UNL A   1      43.534  18.782  24.675  1.00  0.00    -0.458 OA
BRANCH   2   3
ATOM      3  C   UNL A   1      44.668  19.477  24.425  1.00  0.00     0.338 C 
ATOM      4  O   UNL A   1      45.670  18.858  24.073  1.00  0.00    -0.246 OA
BRANCH   3   5
ATOM      5  C   UNL A   1      44.820  20.943  24.701  1.00  0.00     0.060 A 
ATOM      6  C   UNL A   1      44.542  21.995  23.824  1.00  0.00     0.016 A 
ATOM      7  C   UNL A   1      45.257  21.277  25.993  1.00  0.00     0.016 A 
ATOM      8  C   UNL A   1      44.565  23.326  24.250  1.00  0.00     0.010 A 
ATOM      9  C   UNL A   1      45.283  22.604  26.423  1.00  0.00     0.010 A 
ATOM     10  C   UNL A   1      44.906  23.640  25.562  1.00  0.00    -0.014 A 
BRANCH  10  11
ATOM     11  C   UNL A   1      45.021  25.048  25.999  1.00  0.00     0.031 A 
ATOM     12  C   UNL A   1      46.390  25.650  26.049  1.00  0.00     0.074 A 
ATOM     13  C   UNL A   1      43.934  25.776  26.318  1.00  0.00     0.049 A 
ATOM     14  N   UNL A   1      46.756  26.837  26.450  1.00  0.00    -0.248 NA
ATOM     15  C   UNL A   1      47.493  24.813  25.545  1.00  0.00     0.031 C 
ATOM     16  C   UNL A   1      42.550  25.332  26.177  1.00  0.00     0.029 A 
ATOM     17  N   UNL A   1      43.817  27.039  26.848  1.00  0.00    -0.354 N 
ATOM     18  C   UNL A   1      48.120  26.898  26.214  1.00  0.00     0.074 A 
ATOM     19  C   UNL A   1      48.534  25.613  25.704  1.00  0.00     0.031 C 
ATOM     20  C   UNL A   1      41.728  26.266  26.684  1.00  0.00     0.029 A 
ATOM     21  C   UNL A   1      42.528  27.372  27.196  1.00  0.00     0.049 A 
ATOM     22  H   UNL A   1      44.583  27.646  26.970  1.00  0.00     0.167 HD
ATOM     23  C   UNL A   1      48.944  27.957  26.376  1.00  0.00     0.037 A 
ATOM     24  C   UNL A   1      42.059  28.433  27.885  1.00  0.00     0.037 A 
ATOM     25  C   UNL A   1      48.510  29.224  26.890  1.00  0.00     0.049 A 
ATOM     26  C   UNL A   1      43.045  29.505  28.276  1.00  0.00     0.074 A 
ATOM     27  C   UNL A   1      49.245  30.380  27.067  1.00  0.00     0.029 A 
ATOM     28  N   UNL A   1      47.222  29.489  27.332  1.00  0.00    -0.354 N 
ATOM     29  N   UNL A   1      44.327  29.580  28.006  1.00  0.00    -0.248 NA
ATOM     30  C   UNL A   1      42.532  30.644  29.048  1.00  0.00     0.031 C 
ATOM     31  C   UNL A   1      48.419  31.322  27.688  1.00  0.00     0.029 A 
ATOM     32  C   UNL A   1      47.154  30.773  27.842  1.00  0.00     0.049 A 
ATOM     33  H   UNL A   1      46.468  28.857  27.290  1.00  0.00     0.167 HD
ATOM     34  C   UNL A   1      44.754  30.803  28.500  1.00  0.00     0.074 A 
ATOM     35  C   UNL A   1      43.601  31.426  29.115  1.00  0.00     0.031 C 
ATOM     36  C   UNL A   1      45.982  31.371  28.431  1.00  0.00     0.037 A 
BRANCH  23  37
ATOM     37  C   UNL A   1      50.383  27.767  26.017  1.00  0.00     0.064 A 
ATOM     38  C   UNL A   1      51.363  27.523  26.993  1.00  0.00     0.173 A 
ATOM     39  C   UNL A   1      50.790  27.826  24.677  1.00  0.00     0.173 A 
ATOM     40  F   UNL A   1      51.026  27.481  28.292  1.00  0.00    -0.203 F 
ATOM     41  C   UNL A   1      52.700  27.367  26.641  1.00  0.00     0.198 A 
ATOM     42  C   UNL A   1      52.124  27.644  24.325  1.00  0.00     0.198 A 
ATOM     43  F   UNL A   1      49.892  28.065  23.709  1.00  0.00    -0.203 F 
ATOM     44  F   UNL A   1      53.625  27.183  27.592  1.00  0.00    -0.200 F 
ATOM     45  C   UNL A   1      53.079  27.421  25.307  1.00  0.00     0.200 A 
ATOM     46  F   UNL A   1      52.486  27.691  23.037  1.00  0.00    -0.200 F 
ATOM     47  F   UNL A   1      54.366  27.267  24.967  1.00  0.00    -0.200 F 
ENDBRANCH  23  37
BRANCH  24  48
ATOM     48  C   UNL A   1      40.631  28.508  28.314  1.00  0.00     0.064 A 
ATOM     49  C   UNL A   1      39.625  29.056  27.509  1.00  0.00     0.173 A 
ATOM     50  C   UNL A   1      40.259  28.100  29.604  1.00  0.00     0.173 A 
ATOM     51  F   UNL A   1      39.917  29.474  26.269  1.00  0.00    -0.203 F 
ATOM     52  C   UNL A   1      38.328  29.239  27.993  1.00  0.00     0.198 A 
ATOM     53  C   UNL A   1      38.961  28.262  30.084  1.00  0.00     0.198 A 
ATOM     54  F   UNL A   1      41.174  27.541  30.400  1.00  0.00    -0.203 F 
ATOM     55  F   UNL A   1      37.404  29.827  27.221  1.00  0.00    -0.200 F 
ATOM     56  C   UNL A   1      37.998  28.848  29.284  1.00  0.00     0.200 A 
ATOM     57  F   UNL A   1      38.652  27.869  31.328  1.00  0.00    -0.200 F 
ATOM     58  F   UNL A   1      36.759  29.049  29.754  1.00  0.00    -0.200 F 
ENDBRANCH  24  48
BRANCH  36  59
ATOM     59  C   UNL A   1      46.131  32.757  28.980  1.00  0.00     0.064 A 
ATOM     60  C   UNL A   1      45.847  33.889  28.206  1.00  0.00     0.173 A 
ATOM     61  C   UNL A   1      46.487  32.946  30.324  1.00  0.00     0.173 A 
ATOM     62  F   UNL A   1      45.522  33.758  26.911  1.00  0.00    -0.203 F 
ATOM     63  C   UNL A   1      45.925  35.165  28.756  1.00  0.00     0.198 A 
ATOM     64  C   UNL A   1      46.530  34.219  30.880  1.00  0.00     0.198 A 
ATOM     65  F   UNL A   1      46.763  31.890  31.106  1.00  0.00    -0.203 F 
ATOM     66  F   UNL A   1      45.687  36.237  27.989  1.00  0.00    -0.200 F 
ATOM     67  C   UNL A   1      46.254  35.328  30.095  1.00  0.00     0.200 A 
ATOM     68  F   UNL A   1      46.829  34.373  32.178  1.00  0.00    -0.200 F 
ATOM     69  F   UNL A   1      46.306  36.556  30.628  1.00  0.00    -0.200 F 
ENDBRANCH  36  59
ENDBRANCH  10  11
ENDBRANCH   3   5
ENDBRANCH   2   3
ENDBRANCH   1   2
BRANCH   1  70
ATOM     70  C   UNL A   1      42.231  19.335  26.739  1.00  0.00     0.275 C 
BRANCH  70  71
ATOM     71  O   UNL A   1      41.614  20.375  25.958  1.00  0.00    -0.458 OA
BRANCH  71  72
ATOM     72  C   UNL A   1      41.238  21.484  26.657  1.00  0.00     0.338 C 
ATOM     73  O   UNL A   1      41.941  22.168  27.370  1.00  0.00    -0.246 OA
BRANCH  72  74
ATOM     74  C   UNL A   1      39.837  21.825  26.319  1.00  0.00     0.060 A 
ATOM     75  C   UNL A   1      39.376  23.108  26.611  1.00  0.00     0.018 A 
ATOM     76  C   UNL A   1      38.983  20.904  25.711  1.00  0.00     0.018 A 
ATOM     77  C   UNL A   1      38.113  23.520  26.161  1.00  0.00     0.029 A 
ATOM     78  C   UNL A   1      37.684  21.298  25.345  1.00  0.00     0.029 A 
ATOM     79  C   UNL A   1      37.262  22.632  25.493  1.00  0.00     0.069 A 
BRANCH  79  80
ATOM     80  N   UNL A   1      36.031  23.062  24.906  1.00  0.00    -0.196 N 
ATOM     81  N   UNL A   1      35.033  23.346  25.823  1.00  0.00    -0.153 NA
ATOM     82  C   UNL A   1      35.863  23.197  23.521  1.00  0.00     0.271 A 
ATOM     83  C   UNL A   1      33.872  23.685  25.360  1.00  0.00     0.150 A 
ATOM     84  C   UNL A   1      34.473  23.434  23.067  1.00  0.00     0.077 A 
ATOM     85  O   UNL A   1      36.720  23.079  22.650  1.00  0.00    -0.267 OA
ATOM     86  Cl  UNL A   1      32.695  24.188  26.522  1.00  0.00    -0.060 Cl
ATOM     87  C   UNL A   1      33.497  23.670  23.939  1.00  0.00     0.049 A 
ENDBRANCH  79  80
ENDBRANCH  72  74
ENDBRANCH  71  72
ENDBRANCH  70  71
ENDBRANCH   1  70
TORSDOF 12
ENDMDL
