MODEL 1
REMARK VINA RESULT:     -12.2      0.000      0.000
REMARK SMILES O=C(OCCOC(=O)c1cc(NC(=S)NC(=O)c2ccccc2Cl)c(Cl)cc1Cl)c1ccc(-c2c3nc(c(-c4c(F)c(F)c(F)c(F)c4F)c4ccc([nH]4)c(-c4c(F)c(F)c(F)c(F)c4F)c4nc(c(-c5c(F)c(F)c(F)c(F)c5F)c5ccc2[nH]5)C=C4)C=C3)cc1
REMARK SMILES IDX 5 1 4 2 3 3 2 4 1 5 30 6 31 7 92 8 32 9 91 10 33 11 34 12
REMARK SMILES IDX 35 13 85 14 36 15 90 16 84 17 86 18 37 19 89 20 83 21 82 22
REMARK SMILES IDX 38 24 70 25 50 26 69 27 51 28 54 29 68 30 87 31 52 32 53 33
REMARK SMILES IDX 67 35 88 36 55 37 39 38 40 39 48 40 41 41 42 42 46 43 49 44
REMARK SMILES IDX 43 45 44 46 47 47 45 48 71 49 72 50 80 51 73 52 74 53 78 54
REMARK SMILES IDX 81 55 75 56 76 57 79 58 77 59 56 60 57 61 65 62 58 63 59 64
REMARK SMILES IDX 63 65 66 66 60 67 61 68 64 69 62 70 6 71 7 72 8 73 9 74
REMARK SMILES IDX 10 75 28 76 11 77 27 78 29 79 25 80 26 81 12 82 13 84 14 85
REMARK SMILES IDX 15 86 16 87 17 89 18 90 19 91 23 92 20 93 22 94 24 95 21 96
REMARK H PARENT 86 23 54 34 12 83 15 88
REMARK Flexibility Score: inf
ROOT
ATOM      1  C   UNL A   1      38.133  20.364  24.980  1.00  0.00     0.275 C 
ENDROOT
BRANCH   1   2
ATOM      2  C   UNL A   1      39.077  19.774  26.039  1.00  0.00     0.275 C 
BRANCH   2   3
ATOM      3  O   UNL A   1      40.369  19.273  25.660  1.00  0.00    -0.458 OA
BRANCH   3   4
ATOM      4  C   UNL A   1      41.509  19.801  26.150  1.00  0.00     0.338 C 
ATOM      5  O   UNL A   1      42.577  19.206  26.053  1.00  0.00    -0.246 OA
BRANCH   4   6
ATOM      6  C   UNL A   1      41.454  21.198  26.697  1.00  0.00     0.060 A 
ATOM      7  C   UNL A   1      41.733  21.590  28.015  1.00  0.00     0.016 A 
ATOM      8  C   UNL A   1      41.168  22.199  25.770  1.00  0.00     0.016 A 
ATOM      9  C   UNL A   1      41.907  22.959  28.354  1.00  0.00     0.010 A 
ATOM     10  C   UNL A   1      41.345  23.546  26.107  1.00  0.00     0.010 A 
ATOM     11  C   UNL A   1      41.792  23.959  27.383  1.00  0.00    -0.014 A 
BRANCH  11  12
ATOM     12  C   UNL A   1      42.091  25.424  27.594  1.00  0.00     0.031 A 
ATOM     13  C   UNL A   1      43.499  25.894  27.309  1.00  0.00     0.074 A 
ATOM     14  C   UNL A   1      41.245  26.322  28.165  1.00  0.00     0.049 A 
ATOM     15  N   UNL A   1      44.050  27.058  27.548  1.00  0.00    -0.248 NA
ATOM     16  C   UNL A   1      44.417  24.912  26.706  1.00  0.00     0.031 C 
ATOM     17  C   UNL A   1      39.836  26.122  28.497  1.00  0.00     0.029 A 
ATOM     18  N   UNL A   1      41.480  27.612  28.621  1.00  0.00    -0.354 N 
ATOM     19  C   UNL A   1      45.346  26.943  27.077  1.00  0.00     0.074 A 
ATOM     20  C   UNL A   1      45.570  25.552  26.764  1.00  0.00     0.031 C 
ATOM     21  C   UNL A   1      39.372  27.184  29.188  1.00  0.00     0.029 A 
ATOM     22  C   UNL A   1      40.430  28.173  29.325  1.00  0.00     0.049 A 
ATOM     23  H   UNL A   1      42.325  28.089  28.456  1.00  0.00     0.167 HD
ATOM     24  C   UNL A   1      46.231  27.917  26.772  1.00  0.00     0.037 A 
ATOM     25  C   UNL A   1      40.323  29.352  29.980  1.00  0.00     0.037 A 
ATOM     26  C   UNL A   1      46.020  29.313  27.003  1.00  0.00     0.049 A 
ATOM     27  C   UNL A   1      41.397  30.395  29.800  1.00  0.00     0.074 A 
ATOM     28  C   UNL A   1      46.799  30.382  26.601  1.00  0.00     0.029 A 
ATOM     29  N   UNL A   1      44.954  29.831  27.713  1.00  0.00    -0.354 N 
ATOM     30  N   UNL A   1      42.526  30.315  29.148  1.00  0.00    -0.248 NA
ATOM     31  C   UNL A   1      41.124  31.732  30.361  1.00  0.00     0.031 C 
ATOM     32  C   UNL A   1      46.234  31.550  27.123  1.00  0.00     0.029 A 
ATOM     33  C   UNL A   1      45.084  31.206  27.813  1.00  0.00     0.049 A 
ATOM     34  H   UNL A   1      44.214  29.304  28.092  1.00  0.00     0.167 HD
ATOM     35  C   UNL A   1      43.047  31.603  29.138  1.00  0.00     0.074 A 
ATOM     36  C   UNL A   1      42.131  32.441  29.877  1.00  0.00     0.031 C 
ATOM     37  C   UNL A   1      44.169  32.051  28.530  1.00  0.00     0.037 A 
BRANCH  24  38
ATOM     38  C   UNL A   1      47.459  27.480  26.040  1.00  0.00     0.064 A 
ATOM     39  C   UNL A   1      48.629  27.149  26.746  1.00  0.00     0.173 A 
ATOM     40  C   UNL A   1      47.490  27.438  24.644  1.00  0.00     0.173 A 
ATOM     41  F   UNL A   1      48.648  27.205  28.088  1.00  0.00    -0.203 F 
ATOM     42  C   UNL A   1      49.803  26.841  26.074  1.00  0.00     0.198 A 
ATOM     43  C   UNL A   1      48.661  27.096  23.974  1.00  0.00     0.198 A 
ATOM     44  F   UNL A   1      46.398  27.752  23.932  1.00  0.00    -0.203 F 
ATOM     45  F   UNL A   1      50.928  26.610  26.765  1.00  0.00    -0.200 F 
ATOM     46  C   UNL A   1      49.818  26.811  24.688  1.00  0.00     0.200 A 
ATOM     47  F   UNL A   1      48.678  27.065  22.636  1.00  0.00    -0.200 F 
ATOM     48  F   UNL A   1      50.954  26.525  24.038  1.00  0.00    -0.200 F 
ENDBRANCH  24  38
BRANCH  25  49
ATOM     49  C   UNL A   1      39.150  29.735  30.821  1.00  0.00     0.064 A 
ATOM     50  C   UNL A   1      38.061  30.436  30.280  1.00  0.00     0.173 A 
ATOM     51  C   UNL A   1      39.225  29.639  32.220  1.00  0.00     0.173 A 
ATOM     52  F   UNL A   1      37.991  30.633  28.955  1.00  0.00    -0.203 F 
ATOM     53  C   UNL A   1      37.102  31.034  31.102  1.00  0.00     0.198 A 
ATOM     54  C   UNL A   1      38.268  30.242  33.041  1.00  0.00     0.198 A 
ATOM     55  F   UNL A   1      40.247  28.985  32.794  1.00  0.00    -0.203 F 
ATOM     56  F   UNL A   1      36.108  31.750  30.557  1.00  0.00    -0.200 F 
ATOM     57  C   UNL A   1      37.208  30.942  32.482  1.00  0.00     0.200 A 
ATOM     58  F   UNL A   1      38.364  30.126  34.374  1.00  0.00    -0.200 F 
ATOM     59  F   UNL A   1      36.294  31.524  33.270  1.00  0.00    -0.200 F 
ENDBRANCH  25  49
BRANCH  37  60
ATOM     60  C   UNL A   1      44.455  33.519  28.579  1.00  0.00     0.064 A 
ATOM     61  C   UNL A   1      45.158  34.100  29.644  1.00  0.00     0.173 A 
ATOM     62  C   UNL A   1      44.061  34.349  27.518  1.00  0.00     0.173 A 
ATOM     63  F   UNL A   1      45.533  33.352  30.693  1.00  0.00    -0.203 F 
ATOM     64  C   UNL A   1      45.444  35.462  29.651  1.00  0.00     0.198 A 
ATOM     65  C   UNL A   1      44.380  35.704  27.513  1.00  0.00     0.198 A 
ATOM     66  F   UNL A   1      43.383  33.843  26.478  1.00  0.00    -0.203 F 
ATOM     67  F   UNL A   1      46.077  36.004  30.701  1.00  0.00    -0.200 F 
ATOM     68  C   UNL A   1      45.066  36.259  28.581  1.00  0.00     0.200 A 
ATOM     69  F   UNL A   1      44.028  36.469  26.471  1.00  0.00    -0.200 F 
ATOM     70  F   UNL A   1      45.360  37.566  28.582  1.00  0.00    -0.200 F 
ENDBRANCH  37  60
ENDBRANCH  11  12
ENDBRANCH   4   6
ENDBRANCH   3   4
ENDBRANCH   2   3
ENDBRANCH   1   2
BRANCH   1  71
ATOM     71  O   UNL A   1      36.906  20.926  25.474  1.00  0.00    -0.458 OA
BRANCH  71  72
ATOM     72  C   UNL A   1      36.375  21.856  24.624  1.00  0.00     0.339 C 
ATOM     73  O   UNL A   1      36.861  22.157  23.541  1.00  0.00    -0.246 OA
BRANCH  72  74
ATOM     74  C   UNL A   1      35.202  22.703  25.173  1.00  0.00     0.080 A 
ATOM     75  C   UNL A   1      34.949  24.634  25.713  1.00  0.00     0.045 A 
ATOM     76  C   UNL A   1      33.666  21.743  25.035  1.00  0.00     0.057 A 
ATOM     77  C   UNL A   1      33.435  25.376  25.886  1.00  0.00     0.060 A 
ATOM     78  C   UNL A   1      32.115  22.580  25.364  1.00  0.00     0.044 A 
ATOM     79  Cl  UNL A   1      33.647  20.076  24.636  1.00  0.00    -0.083 Cl
ATOM     80  C   UNL A   1      32.026  24.334  25.764  1.00  0.00     0.066 A 
ATOM     81  Cl  UNL A   1      30.468  25.046  25.943  1.00  0.00    -0.082 Cl
BRANCH  77  82
ATOM     82  N   UNL A   1      33.545  26.714  25.408  1.00  0.00    -0.331 N 
ATOM     83  H   UNL A   1      34.102  26.814  24.602  1.00  0.00     0.169 HD
BRANCH  82  84
ATOM     84  C   UNL A   1      33.002  27.898  25.882  1.00  0.00     0.177 C 
ATOM     85  S   UNL A   1      33.701  28.578  27.250  1.00  0.00    -0.040 S 
BRANCH  84  86
ATOM     86  N   UNL A   1      31.901  28.664  25.409  1.00  0.00    -0.299 N 
ATOM     87  C   UNL A   1      31.063  29.249  24.343  1.00  0.00     0.258 C 
ATOM     88  H   UNL A   1      31.460  28.967  26.236  1.00  0.00     0.172 HD
ATOM     89  O   UNL A   1      30.362  30.230  24.565  1.00  0.00    -0.269 OA
BRANCH  87  90
ATOM     90  C   UNL A   1      31.188  28.747  22.928  1.00  0.00     0.058 A 
ATOM     91  C   UNL A   1      32.899  28.983  22.408  1.00  0.00     0.015 A 
ATOM     92  C   UNL A   1      30.385  27.199  22.895  1.00  0.00     0.053 A 
ATOM     93  C   UNL A   1      33.993  27.623  22.036  1.00  0.00     0.001 A 
ATOM     94  C   UNL A   1      31.365  25.762  22.569  1.00  0.00     0.021 A 
ATOM     95  Cl  UNL A   1      28.793  26.991  23.507  1.00  0.00    -0.083 Cl
ATOM     96  C   UNL A   1      33.335  25.958  22.158  1.00  0.00     0.002 A 
ENDBRANCH  87  90
ENDBRANCH  84  86
ENDBRANCH  82  84
ENDBRANCH  77  82
ENDBRANCH  72  74
ENDBRANCH  71  72
ENDBRANCH   1  71
TORSDOF 15
ENDMDL
MODEL 2
REMARK VINA RESULT:     -12.2      8.550     15.552
REMARK SMILES O=C(OCCOC(=O)c1cc(NC(=S)NC(=O)c2ccccc2Cl)c(Cl)cc1Cl)c1ccc(-c2c3nc(c(-c4c(F)c(F)c(F)c(F)c4F)c4ccc([nH]4)c(-c4c(F)c(F)c(F)c(F)c4F)c4nc(c(-c5c(F)c(F)c(F)c(F)c5F)c5ccc2[nH]5)C=C4)C=C3)cc1
REMARK SMILES IDX 5 1 4 2 3 3 2 4 1 5 30 6 31 7 92 8 32 9 91 10 33 11 34 12
REMARK SMILES IDX 35 13 85 14 36 15 90 16 84 17 86 18 37 19 89 20 83 21 82 22
REMARK SMILES IDX 38 24 70 25 50 26 69 27 51 28 54 29 68 30 87 31 52 32 53 33
REMARK SMILES IDX 67 35 88 36 55 37 39 38 40 39 48 40 41 41 42 42 46 43 49 44
REMARK SMILES IDX 43 45 44 46 47 47 45 48 71 49 72 50 80 51 73 52 74 53 78 54
REMARK SMILES IDX 81 55 75 56 76 57 79 58 77 59 56 60 57 61 65 62 58 63 59 64
REMARK SMILES IDX 63 65 66 66 60 67 61 68 64 69 62 70 6 71 7 72 8 73 9 74
REMARK SMILES IDX 10 75 28 76 11 77 27 78 29 79 25 80 26 81 12 82 13 84 14 85
REMARK SMILES IDX 15 86 16 87 17 89 18 90 19 91 23 92 20 93 22 94 24 95 21 96
REMARK H PARENT 86 23 54 34 12 83 15 88
REMARK Flexibility Score: inf
ROOT
ATOM      1  C   UNL A   1      43.888  41.073  28.086  1.00  0.00     0.275 C 
ENDROOT
BRANCH   1   2
ATOM      2  C   UNL A   1      44.723  40.050  28.873  1.00  0.00     0.275 C 
BRANCH   2   3
ATOM      3  O   UNL A   1      44.403  38.651  28.811  1.00  0.00    -0.458 OA
BRANCH   3   4
ATOM      4  C   UNL A   1      44.868  37.773  29.723  1.00  0.00     0.338 C 
ATOM      5  O   UNL A   1      45.142  38.130  30.864  1.00  0.00    -0.246 OA
BRANCH   4   6
ATOM      6  C   UNL A   1      44.913  36.323  29.339  1.00  0.00     0.060 A 
ATOM      7  C   UNL A   1      45.687  35.322  29.944  1.00  0.00     0.016 A 
ATOM      8  C   UNL A   1      44.036  35.939  28.325  1.00  0.00     0.016 A 
ATOM      9  C   UNL A   1      45.453  33.946  29.675  1.00  0.00     0.010 A 
ATOM     10  C   UNL A   1      43.805  34.583  28.065  1.00  0.00     0.010 A 
ATOM     11  C   UNL A   1      44.450  33.550  28.784  1.00  0.00    -0.014 A 
BRANCH  11  12
ATOM     12  C   UNL A   1      44.019  32.126  28.526  1.00  0.00     0.031 A 
ATOM     13  C   UNL A   1      42.848  31.599  29.323  1.00  0.00     0.074 A 
ATOM     14  C   UNL A   1      44.691  31.232  27.753  1.00  0.00     0.049 A 
ATOM     15  N   UNL A   1      42.377  30.380  29.399  1.00  0.00    -0.248 NA
ATOM     16  C   UNL A   1      42.134  32.568  30.173  1.00  0.00     0.031 C 
ATOM     17  C   UNL A   1      45.821  31.503  26.868  1.00  0.00     0.029 A 
ATOM     18  N   UNL A   1      44.534  29.858  27.627  1.00  0.00    -0.354 N 
ATOM     19  C   UNL A   1      41.296  30.467  30.259  1.00  0.00     0.074 A 
ATOM     20  C   UNL A   1      41.324  31.781  30.855  1.00  0.00     0.031 C 
ATOM     21  C   UNL A   1      46.315  30.344  26.386  1.00  0.00     0.029 A 
ATOM     22  C   UNL A   1      45.521  29.232  26.889  1.00  0.00     0.049 A 
ATOM     23  H   UNL A   1      43.780  29.370  28.029  1.00  0.00     0.167 HD
ATOM     24  C   UNL A   1      40.271  29.603  30.428  1.00  0.00     0.037 A 
ATOM     25  C   UNL A   1      45.747  27.925  26.627  1.00  0.00     0.037 A 
ATOM     26  C   UNL A   1      40.172  28.321  29.803  1.00  0.00     0.049 A 
ATOM     27  C   UNL A   1      44.687  26.910  26.976  1.00  0.00     0.074 A 
ATOM     28  C   UNL A   1      39.108  27.438  29.806  1.00  0.00     0.029 A 
ATOM     29  N   UNL A   1      41.186  27.731  29.072  1.00  0.00    -0.354 N 
ATOM     30  N   UNL A   1      43.555  27.080  27.606  1.00  0.00    -0.248 NA
ATOM     31  C   UNL A   1      44.893  25.538  26.475  1.00  0.00     0.031 C 
ATOM     32  C   UNL A   1      39.502  26.282  29.125  1.00  0.00     0.029 A 
ATOM     33  C   UNL A   1      40.796  26.467  28.666  1.00  0.00     0.049 A 
ATOM     34  H   UNL A   1      42.056  28.147  28.872  1.00  0.00     0.167 HD
ATOM     35  C   UNL A   1      42.878  25.872  27.495  1.00  0.00     0.074 A 
ATOM     36  C   UNL A   1      43.735  24.966  26.767  1.00  0.00     0.031 C 
ATOM     37  C   UNL A   1      41.633  25.564  27.927  1.00  0.00     0.037 A 
BRANCH  24  38
ATOM     38  C   UNL A   1      39.123  30.103  31.245  1.00  0.00     0.064 A 
ATOM     39  C   UNL A   1      38.072  30.812  30.637  1.00  0.00     0.173 A 
ATOM     40  C   UNL A   1      39.089  29.922  32.630  1.00  0.00     0.173 A 
ATOM     41  F   UNL A   1      38.082  31.032  29.312  1.00  0.00    -0.203 F 
ATOM     42  C   UNL A   1      37.054  31.369  31.398  1.00  0.00     0.198 A 
ATOM     43  C   UNL A   1      38.048  30.452  33.386  1.00  0.00     0.198 A 
ATOM     44  F   UNL A   1      40.074  29.256  33.251  1.00  0.00    -0.203 F 
ATOM     45  F   UNL A   1      36.108  32.112  30.808  1.00  0.00    -0.200 F 
ATOM     46  C   UNL A   1      37.040  31.185  32.772  1.00  0.00     0.200 A 
ATOM     47  F   UNL A   1      38.032  30.276  34.713  1.00  0.00    -0.200 F 
ATOM     48  F   UNL A   1      36.064  31.731  33.509  1.00  0.00    -0.200 F 
ENDBRANCH  24  38
BRANCH  25  49
ATOM     49  C   UNL A   1      46.962  27.412  25.926  1.00  0.00     0.064 A 
ATOM     50  C   UNL A   1      48.119  27.055  26.636  1.00  0.00     0.173 A 
ATOM     51  C   UNL A   1      47.069  27.525  24.530  1.00  0.00     0.173 A 
ATOM     52  F   UNL A   1      48.091  27.022  27.976  1.00  0.00    -0.203 F 
ATOM     53  C   UNL A   1      49.335  26.843  25.981  1.00  0.00     0.198 A 
ATOM     54  C   UNL A   1      48.288  27.317  23.877  1.00  0.00     0.198 A 
ATOM     55  F   UNL A   1      45.998  27.868  23.800  1.00  0.00    -0.203 F 
ATOM     56  F   UNL A   1      50.436  26.565  26.693  1.00  0.00    -0.200 F 
ATOM     57  C   UNL A   1      49.421  26.979  24.604  1.00  0.00     0.200 A 
ATOM     58  F   UNL A   1      48.356  27.424  22.543  1.00  0.00    -0.200 F 
ATOM     59  F   UNL A   1      50.590  26.784  23.977  1.00  0.00    -0.200 F 
ENDBRANCH  25  49
BRANCH  37  60
ATOM     60  C   UNL A   1      41.086  24.214  27.584  1.00  0.00     0.064 A 
ATOM     61  C   UNL A   1      40.065  24.048  26.639  1.00  0.00     0.173 A 
ATOM     62  C   UNL A   1      41.629  23.063  28.177  1.00  0.00     0.173 A 
ATOM     63  F   UNL A   1      39.496  25.120  26.065  1.00  0.00    -0.203 F 
ATOM     64  C   UNL A   1      39.597  22.780  26.309  1.00  0.00     0.198 A 
ATOM     65  C   UNL A   1      41.183  21.794  27.818  1.00  0.00     0.198 A 
ATOM     66  F   UNL A   1      42.606  23.168  29.089  1.00  0.00    -0.203 F 
ATOM     67  F   UNL A   1      38.587  22.648  25.437  1.00  0.00    -0.200 F 
ATOM     68  C   UNL A   1      40.164  21.655  26.889  1.00  0.00     0.200 A 
ATOM     69  F   UNL A   1      41.744  20.709  28.368  1.00  0.00    -0.200 F 
ATOM     70  F   UNL A   1      39.725  20.434  26.555  1.00  0.00    -0.200 F 
ENDBRANCH  37  60
ENDBRANCH  11  12
ENDBRANCH   4   6
ENDBRANCH   3   4
ENDBRANCH   2   3
ENDBRANCH   1   2
BRANCH   1  71
ATOM     71  O   UNL A   1      44.573  41.765  27.029  1.00  0.00    -0.458 OA
BRANCH  71  72
ATOM     72  C   UNL A   1      44.539  41.081  25.846  1.00  0.00     0.339 C 
ATOM     73  O   UNL A   1      44.994  39.955  25.688  1.00  0.00    -0.246 OA
BRANCH  72  74
ATOM     74  C   UNL A   1      44.072  41.876  24.603  1.00  0.00     0.080 A 
ATOM     75  C   UNL A   1      44.978  42.704  22.997  1.00  0.00     0.045 A 
ATOM     76  C   UNL A   1      42.261  41.786  24.493  1.00  0.00     0.057 A 
ATOM     77  C   UNL A   1      44.165  43.153  21.581  1.00  0.00     0.060 A 
ATOM     78  C   UNL A   1      41.473  42.406  23.007  1.00  0.00     0.044 A 
ATOM     79  Cl  UNL A   1      41.285  41.165  25.758  1.00  0.00    -0.083 Cl
ATOM     80  C   UNL A   1      42.411  43.053  21.611  1.00  0.00     0.066 A 
ATOM     81  Cl  UNL A   1      41.544  43.510  20.194  1.00  0.00    -0.082 Cl
BRANCH  77  82
ATOM     82  N   UNL A   1      45.012  42.855  20.474  1.00  0.00    -0.331 N 
ATOM     83  H   UNL A   1      44.814  42.000  20.028  1.00  0.00     0.169 HD
BRANCH  82  84
ATOM     84  C   UNL A   1      46.068  43.561  19.919  1.00  0.00     0.177 C 
ATOM     85  S   UNL A   1      47.619  43.160  20.423  1.00  0.00    -0.040 S 
BRANCH  84  86
ATOM     86  N   UNL A   1      46.073  44.623  18.973  1.00  0.00    -0.299 N 
ATOM     87  C   UNL A   1      45.420  45.677  18.172  1.00  0.00     0.258 C 
ATOM     88  H   UNL A   1      47.020  44.694  18.712  1.00  0.00     0.172 HD
ATOM     89  O   UNL A   1      45.939  46.093  17.141  1.00  0.00    -0.269 OA
BRANCH  87  90
ATOM     90  C   UNL A   1      44.028  46.135  18.522  1.00  0.00     0.058 A 
ATOM     91  C   UNL A   1      44.067  47.929  18.703  1.00  0.00     0.015 A 
ATOM     92  C   UNL A   1      42.959  45.310  17.418  1.00  0.00     0.053 A 
ATOM     93  C   UNL A   1      43.187  49.031  17.609  1.00  0.00     0.001 A 
ATOM     94  C   UNL A   1      42.050  46.286  16.256  1.00  0.00     0.021 A 
ATOM     95  Cl  UNL A   1      43.031  43.609  17.188  1.00  0.00    -0.083 Cl
ATOM     96  C   UNL A   1      42.201  48.303  16.298  1.00  0.00     0.002 A 
ENDBRANCH  87  90
ENDBRANCH  84  86
ENDBRANCH  82  84
ENDBRANCH  77  82
ENDBRANCH  72  74
ENDBRANCH  71  72
ENDBRANCH   1  71
TORSDOF 15
ENDMDL
MODEL 3
REMARK VINA RESULT:     -12.0      4.624      7.226
REMARK SMILES O=C(OCCOC(=O)c1cc(NC(=S)NC(=O)c2ccccc2Cl)c(Cl)cc1Cl)c1ccc(-c2c3nc(c(-c4c(F)c(F)c(F)c(F)c4F)c4ccc([nH]4)c(-c4c(F)c(F)c(F)c(F)c4F)c4nc(c(-c5c(F)c(F)c(F)c(F)c5F)c5ccc2[nH]5)C=C4)C=C3)cc1
REMARK SMILES IDX 5 1 4 2 3 3 2 4 1 5 30 6 31 7 92 8 32 9 91 10 33 11 34 12
REMARK SMILES IDX 35 13 85 14 36 15 90 16 84 17 86 18 37 19 89 20 83 21 82 22
REMARK SMILES IDX 38 24 70 25 50 26 69 27 51 28 54 29 68 30 87 31 52 32 53 33
REMARK SMILES IDX 67 35 88 36 55 37 39 38 40 39 48 40 41 41 42 42 46 43 49 44
REMARK SMILES IDX 43 45 44 46 47 47 45 48 71 49 72 50 80 51 73 52 74 53 78 54
REMARK SMILES IDX 81 55 75 56 76 57 79 58 77 59 56 60 57 61 65 62 58 63 59 64
REMARK SMILES IDX 63 65 66 66 60 67 61 68 64 69 62 70 6 71 7 72 8 73 9 74
REMARK SMILES IDX 10 75 28 76 11 77 27 78 29 79 25 80 26 81 12 82 13 84 14 85
REMARK SMILES IDX 15 86 16 87 17 89 18 90 19 91 23 92 20 93 22 94 24 95 21 96
REMARK H PARENT 86 23 54 34 12 83 15 88
REMARK Flexibility Score: inf
ROOT
ATOM      1  C   UNL A   1      43.563  20.541  25.367  1.00  0.00     0.275 C 
ENDROOT
BRANCH   1   2
ATOM      2  C   UNL A   1      45.028  21.007  25.359  1.00  0.00     0.275 C 
BRANCH   2   3
ATOM      3  O   UNL A   1      45.355  22.374  25.656  1.00  0.00    -0.458 OA
BRANCH   3   4
ATOM      4  C   UNL A   1      44.917  23.393  24.890  1.00  0.00     0.338 C 
ATOM      5  O   UNL A   1      44.964  23.332  23.666  1.00  0.00    -0.246 OA
BRANCH   4   6
ATOM      6  C   UNL A   1      44.249  24.548  25.577  1.00  0.00     0.060 A 
ATOM      7  C   UNL A   1      42.942  25.010  25.356  1.00  0.00     0.016 A 
ATOM      8  C   UNL A   1      44.991  25.165  26.583  1.00  0.00     0.016 A 
ATOM      9  C   UNL A   1      42.328  25.933  26.243  1.00  0.00     0.010 A 
ATOM     10  C   UNL A   1      44.381  26.071  27.458  1.00  0.00     0.010 A 
ATOM     11  C   UNL A   1      43.015  26.422  27.359  1.00  0.00    -0.014 A 
BRANCH  11  12
ATOM     12  C   UNL A   1      42.423  27.293  28.441  1.00  0.00     0.031 A 
ATOM     13  C   UNL A   1      42.896  27.060  29.858  1.00  0.00     0.074 A 
ATOM     14  C   UNL A   1      41.390  28.160  28.272  1.00  0.00     0.049 A 
ATOM     15  N   UNL A   1      42.443  27.564  30.978  1.00  0.00    -0.248 NA
ATOM     16  C   UNL A   1      44.005  26.106  30.038  1.00  0.00     0.031 C 
ATOM     17  C   UNL A   1      40.786  28.579  27.009  1.00  0.00     0.029 A 
ATOM     18  N   UNL A   1      40.615  28.828  29.211  1.00  0.00    -0.354 N 
ATOM     19  C   UNL A   1      43.247  27.021  31.965  1.00  0.00     0.074 A 
ATOM     20  C   UNL A   1      44.044  25.986  31.352  1.00  0.00     0.031 C 
ATOM     21  C   UNL A   1      39.690  29.328  27.250  1.00  0.00     0.029 A 
ATOM     22  C   UNL A   1      39.518  29.487  28.687  1.00  0.00     0.049 A 
ATOM     23  H   UNL A   1      40.830  28.833  30.171  1.00  0.00     0.167 HD
ATOM     24  C   UNL A   1      43.437  27.441  33.235  1.00  0.00     0.037 A 
ATOM     25  C   UNL A   1      38.510  30.160  29.287  1.00  0.00     0.037 A 
ATOM     26  C   UNL A   1      42.716  28.507  33.859  1.00  0.00     0.049 A 
ATOM     27  C   UNL A   1      38.614  30.485  30.757  1.00  0.00     0.074 A 
ATOM     28  C   UNL A   1      42.935  29.092  35.092  1.00  0.00     0.029 A 
ATOM     29  N   UNL A   1      41.623  29.140  33.298  1.00  0.00    -0.354 N 
ATOM     30  N   UNL A   1      39.528  30.128  31.620  1.00  0.00    -0.248 NA
ATOM     31  C   UNL A   1      37.596  31.401  31.306  1.00  0.00     0.031 C 
ATOM     32  C   UNL A   1      41.932  30.043  35.304  1.00  0.00     0.029 A 
ATOM     33  C   UNL A   1      41.117  30.073  34.186  1.00  0.00     0.049 A 
ATOM     34  H   UNL A   1      41.258  28.954  32.403  1.00  0.00     0.167 HD
ATOM     35  C   UNL A   1      39.251  30.846  32.777  1.00  0.00     0.074 A 
ATOM     36  C   UNL A   1      38.067  31.633  32.521  1.00  0.00     0.031 C 
ATOM     37  C   UNL A   1      39.951  30.874  33.935  1.00  0.00     0.037 A 
BRANCH  24  38
ATOM     38  C   UNL A   1      44.565  26.798  33.975  1.00  0.00     0.064 A 
ATOM     39  C   UNL A   1      44.343  25.650  34.757  1.00  0.00     0.173 A 
ATOM     40  C   UNL A   1      45.851  27.345  33.948  1.00  0.00     0.173 A 
ATOM     41  F   UNL A   1      43.115  25.112  34.832  1.00  0.00    -0.203 F 
ATOM     42  C   UNL A   1      45.360  25.106  35.528  1.00  0.00     0.198 A 
ATOM     43  C   UNL A   1      46.877  26.776  34.696  1.00  0.00     0.198 A 
ATOM     44  F   UNL A   1      46.105  28.442  33.220  1.00  0.00    -0.203 F 
ATOM     45  F   UNL A   1      45.104  24.063  36.331  1.00  0.00    -0.200 F 
ATOM     46  C   UNL A   1      46.627  25.666  35.495  1.00  0.00     0.200 A 
ATOM     47  F   UNL A   1      48.102  27.314  34.666  1.00  0.00    -0.200 F 
ATOM     48  F   UNL A   1      47.607  25.148  36.248  1.00  0.00    -0.200 F 
ENDBRANCH  24  38
BRANCH  25  49
ATOM     49  C   UNL A   1      37.314  30.690  28.566  1.00  0.00     0.064 A 
ATOM     50  C   UNL A   1      37.100  32.069  28.422  1.00  0.00     0.173 A 
ATOM     51  C   UNL A   1      36.248  29.833  28.249  1.00  0.00     0.173 A 
ATOM     52  F   UNL A   1      38.056  32.932  28.797  1.00  0.00    -0.203 F 
ATOM     53  C   UNL A   1      35.865  32.571  28.001  1.00  0.00     0.198 A 
ATOM     54  C   UNL A   1      35.012  30.337  27.832  1.00  0.00     0.198 A 
ATOM     55  F   UNL A   1      36.393  28.505  28.372  1.00  0.00    -0.203 F 
ATOM     56  F   UNL A   1      35.672  33.896  27.933  1.00  0.00    -0.200 F 
ATOM     57  C   UNL A   1      34.820  31.706  27.712  1.00  0.00     0.200 A 
ATOM     58  F   UNL A   1      34.015  29.493  27.529  1.00  0.00    -0.200 F 
ATOM     59  F   UNL A   1      33.634  32.189  27.317  1.00  0.00    -0.200 F 
ENDBRANCH  25  49
BRANCH  37  60
ATOM     60  C   UNL A   1      39.501  31.821  35.003  1.00  0.00     0.064 A 
ATOM     61  C   UNL A   1      38.647  31.416  36.037  1.00  0.00     0.173 A 
ATOM     62  C   UNL A   1      39.973  33.143  35.016  1.00  0.00     0.173 A 
ATOM     63  F   UNL A   1      38.148  30.170  36.053  1.00  0.00    -0.203 F 
ATOM     64  C   UNL A   1      38.270  32.305  37.040  1.00  0.00     0.198 A 
ATOM     65  C   UNL A   1      39.623  34.018  36.040  1.00  0.00     0.198 A 
ATOM     66  F   UNL A   1      40.790  33.580  34.047  1.00  0.00    -0.203 F 
ATOM     67  F   UNL A   1      37.415  31.909  37.994  1.00  0.00    -0.200 F 
ATOM     68  C   UNL A   1      38.767  33.599  37.047  1.00  0.00     0.200 A 
ATOM     69  F   UNL A   1      40.117  35.263  36.053  1.00  0.00    -0.200 F 
ATOM     70  F   UNL A   1      38.419  34.447  38.025  1.00  0.00    -0.200 F 
ENDBRANCH  37  60
ENDBRANCH  11  12
ENDBRANCH   4   6
ENDBRANCH   3   4
ENDBRANCH   2   3
ENDBRANCH   1   2
BRANCH   1  71
ATOM     71  O   UNL A   1      43.278  19.375  26.158  1.00  0.00    -0.458 OA
BRANCH  71  72
ATOM     72  C   UNL A   1      42.299  19.597  27.085  1.00  0.00     0.339 C 
ATOM     73  O   UNL A   1      42.027  18.827  28.000  1.00  0.00    -0.246 OA
BRANCH  72  74
ATOM     74  C   UNL A   1      41.362  20.802  26.826  1.00  0.00     0.080 A 
ATOM     75  C   UNL A   1      39.587  21.074  25.899  1.00  0.00     0.045 A 
ATOM     76  C   UNL A   1      41.921  22.208  27.831  1.00  0.00     0.057 A 
ATOM     77  C   UNL A   1      38.598  22.429  26.133  1.00  0.00     0.060 A 
ATOM     78  C   UNL A   1      40.868  23.656  27.916  1.00  0.00     0.044 A 
ATOM     79  Cl  UNL A   1      43.419  22.215  28.666  1.00  0.00    -0.083 Cl
ATOM     80  C   UNL A   1      39.265  23.738  27.097  1.00  0.00     0.066 A 
ATOM     81  Cl  UNL A   1      38.295  25.139  27.352  1.00  0.00    -0.082 Cl
BRANCH  77  82
ATOM     82  N   UNL A   1      37.242  21.990  26.122  1.00  0.00    -0.331 N 
ATOM     83  H   UNL A   1      36.866  21.808  27.013  1.00  0.00     0.169 HD
BRANCH  82  84
ATOM     84  C   UNL A   1      36.363  21.775  25.072  1.00  0.00     0.177 C 
ATOM     85  S   UNL A   1      36.666  22.580  23.629  1.00  0.00    -0.040 S 
BRANCH  84  86
ATOM     86  N   UNL A   1      35.189  20.974  25.000  1.00  0.00    -0.299 N 
ATOM     87  C   UNL A   1      33.729  20.769  25.064  1.00  0.00     0.258 C 
ATOM     88  H   UNL A   1      35.536  20.075  24.799  1.00  0.00     0.172 HD
ATOM     89  O   UNL A   1      33.262  19.658  25.297  1.00  0.00    -0.269 OA
BRANCH  87  90
ATOM     90  C   UNL A   1      32.799  21.953  25.010  1.00  0.00     0.058 A 
ATOM     91  C   UNL A   1      33.375  23.162  26.217  1.00  0.00     0.015 A 
ATOM     92  C   UNL A   1      32.588  22.320  23.318  1.00  0.00     0.053 A 
ATOM     93  C   UNL A   1      34.001  24.768  25.755  1.00  0.00     0.001 A 
ATOM     94  C   UNL A   1      33.195  23.871  22.721  1.00  0.00     0.021 A 
ATOM     95  Cl  UNL A   1      32.149  21.112  22.176  1.00  0.00    -0.083 Cl
ATOM     96  C   UNL A   1      34.020  25.193  24.011  1.00  0.00     0.002 A 
ENDBRANCH  87  90
ENDBRANCH  84  86
ENDBRANCH  82  84
ENDBRANCH  77  82
ENDBRANCH  72  74
ENDBRANCH  71  72
ENDBRANCH   1  71
TORSDOF 15
ENDMDL
