MODEL 1
REMARK VINA RESULT:     -12.2      0.000      0.000
REMARK SMILES C[C@@H]1CC[C@@](C(=O)OCCOC(=O)c2ccc(-c3c4nc(c(-c5c(F)c(F)c(F)c(F)c5F)c5ccc([nH]5)c(-c5c(F)c(F)c(F)c(F)c5F)c5nc(c(-c6c(F)c(F)c(F)c(F)c6F)c6ccc3[nH]6)C=C5)C=C4)cc2)([C@@H]2CCC[C@H](S(C)(=O)=O)C2)C1
REMARK SMILES IDX 9 1 8 2 6 3 7 4 5 5 1 6 2 7 3 8 87 9 4 10 77 11 78 12 86 13
REMARK SMILES IDX 79 14 81 15 80 16 82 17 83 18 84 19 85 20 10 21 11 22 12 23
REMARK SMILES IDX 13 24 14 25 15 26 76 27 16 28 75 29 17 30 18 31 19 32 69 33
REMARK SMILES IDX 20 34 74 35 68 36 70 37 21 38 73 39 67 40 66 41 22 43 54 44
REMARK SMILES IDX 34 45 53 46 35 47 38 48 52 49 71 50 36 51 37 52 51 54 72 55
REMARK SMILES IDX 39 56 23 57 24 58 32 59 25 60 26 61 30 62 33 63 27 64 28 65
REMARK SMILES IDX 31 66 29 67 55 68 56 69 64 70 57 71 58 72 62 73 65 74 59 75
REMARK SMILES IDX 60 76 63 77 61 78 40 79 41 80 49 81 42 82 43 83 47 84 50 85
REMARK SMILES IDX 44 86 45 87 48 88 46 89
REMARK H PARENT 70 42 38 53
REMARK Flexibility Score: inf
ROOT
ATOM      1  C   UNL A   1      36.214  20.289  25.106  1.00  0.00     0.274 C 
ENDROOT
BRANCH   1   2
ATOM      2  O   UNL A   1      35.972  21.701  25.273  1.00  0.00    -0.462 OA
BRANCH   2   3
ATOM      3  C   UNL A   1      34.836  22.037  25.929  1.00  0.00     0.312 C 
ATOM      4  O   UNL A   1      34.655  21.828  27.126  1.00  0.00    -0.252 OA
BRANCH   3   5
ATOM      5  C   UNL A   1      33.728  22.632  25.025  1.00  0.00     0.071 C 
ATOM      6  C   UNL A   1      32.593  19.573  24.927  1.00  0.00     0.007 C 
ATOM      7  C   UNL A   1      31.948  20.935  24.675  1.00  0.00    -0.013 C 
ATOM      8  C   UNL A   1      32.337  21.499  23.322  1.00  0.00     0.004 C 
ATOM      9  C   UNL A   1      32.414  22.042  25.630  1.00  0.00     0.022 C 
ATOM     10  C   UNL A   1      33.705  22.131  23.551  1.00  0.00     0.019 C 
BRANCH   5  11
ATOM     11  C   UNL A   1      33.884  24.207  25.132  1.00  0.00     0.008 C 
ATOM     12  C   UNL A   1      32.993  24.911  26.171  1.00  0.00     0.005 C 
ATOM     13  C   UNL A   1      33.689  24.885  23.755  1.00  0.00     0.024 C 
ATOM     14  C   UNL A   1      33.277  26.416  26.215  1.00  0.00     0.002 C 
ATOM     15  C   UNL A   1      33.836  26.410  23.760  1.00  0.00     0.108 C 
ATOM     16  C   UNL A   1      33.026  27.077  24.868  1.00  0.00     0.020 C 
BRANCH  15  17
ATOM     17  S   UNL A   1      33.387  27.038  22.125  1.00  0.00     0.150 S 
ATOM     18  C   UNL A   1      31.703  27.555  22.296  1.00  0.00     0.158 C 
ATOM     19  O   UNL A   1      34.161  28.243  21.891  1.00  0.00    -0.229 OA
ATOM     20  O   UNL A   1      33.422  25.946  21.174  1.00  0.00    -0.229 OA
ENDBRANCH  15  17
ENDBRANCH   5  11
ENDBRANCH   3   5
ENDBRANCH   2   3
ENDBRANCH   1   2
BRANCH   1  21
ATOM     21  C   UNL A   1      37.703  20.000  24.962  1.00  0.00     0.275 C 
BRANCH  21  22
ATOM     22  O   UNL A   1      38.453  21.188  25.276  1.00  0.00    -0.458 OA
BRANCH  22  23
ATOM     23  C   UNL A   1      39.382  21.053  26.243  1.00  0.00     0.338 C 
ATOM     24  O   UNL A   1      39.796  20.002  26.724  1.00  0.00    -0.246 OA
BRANCH  23  25
ATOM     25  C   UNL A   1      39.836  22.379  26.706  1.00  0.00     0.060 A 
ATOM     26  C   UNL A   1      39.222  23.542  26.255  1.00  0.00     0.016 A 
ATOM     27  C   UNL A   1      40.963  22.472  27.522  1.00  0.00     0.016 A 
ATOM     28  C   UNL A   1      39.818  24.781  26.509  1.00  0.00     0.010 A 
ATOM     29  C   UNL A   1      41.481  23.727  27.875  1.00  0.00     0.010 A 
ATOM     30  C   UNL A   1      40.966  24.906  27.316  1.00  0.00    -0.014 A 
BRANCH  30  31
ATOM     31  C   UNL A   1      41.604  26.253  27.519  1.00  0.00     0.031 A 
ATOM     32  C   UNL A   1      40.885  27.391  28.224  1.00  0.00     0.074 A 
ATOM     33  C   UNL A   1      42.895  26.447  27.167  1.00  0.00     0.049 A 
ATOM     34  N   UNL A   1      41.378  28.530  28.661  1.00  0.00    -0.248 NA
ATOM     35  C   UNL A   1      39.458  27.225  28.533  1.00  0.00     0.031 C 
ATOM     36  C   UNL A   1      43.748  25.464  26.498  1.00  0.00     0.029 A 
ATOM     37  N   UNL A   1      43.722  27.535  27.336  1.00  0.00    -0.354 N 
ATOM     38  C   UNL A   1      40.353  29.156  29.362  1.00  0.00     0.074 A 
ATOM     39  C   UNL A   1      39.192  28.306  29.253  1.00  0.00     0.031 C 
ATOM     40  C   UNL A   1      44.981  25.970  26.358  1.00  0.00     0.029 A 
ATOM     41  C   UNL A   1      44.980  27.354  26.814  1.00  0.00     0.049 A 
ATOM     42  H   UNL A   1      43.439  28.363  27.788  1.00  0.00     0.167 HD
ATOM     43  C   UNL A   1      40.362  30.328  30.042  1.00  0.00     0.037 A 
ATOM     44  C   UNL A   1      46.004  28.214  26.644  1.00  0.00     0.037 A 
ATOM     45  C   UNL A   1      41.427  31.292  29.999  1.00  0.00     0.049 A 
ATOM     46  C   UNL A   1      45.864  29.633  27.113  1.00  0.00     0.074 A 
ATOM     47  C   UNL A   1      41.468  32.560  30.554  1.00  0.00     0.029 A 
ATOM     48  N   UNL A   1      42.605  31.128  29.292  1.00  0.00    -0.354 N 
ATOM     49  N   UNL A   1      44.911  30.175  27.830  1.00  0.00    -0.248 NA
ATOM     50  C   UNL A   1      46.928  30.568  26.722  1.00  0.00     0.031 C 
ATOM     51  C   UNL A   1      42.627  33.198  30.097  1.00  0.00     0.029 A 
ATOM     52  C   UNL A   1      43.339  32.303  29.317  1.00  0.00     0.049 A 
ATOM     53  H   UNL A   1      42.880  30.298  28.838  1.00  0.00     0.167 HD
ATOM     54  C   UNL A   1      45.259  31.510  27.977  1.00  0.00     0.074 A 
ATOM     55  C   UNL A   1      46.522  31.693  27.296  1.00  0.00     0.031 C 
ATOM     56  C   UNL A   1      44.583  32.494  28.620  1.00  0.00     0.037 A 
BRANCH  43  57
ATOM     57  C   UNL A   1      39.141  30.669  30.844  1.00  0.00     0.064 A 
ATOM     58  C   UNL A   1      39.048  30.325  32.201  1.00  0.00     0.173 A 
ATOM     59  C   UNL A   1      38.077  31.379  30.269  1.00  0.00     0.173 A 
ATOM     60  F   UNL A   1      40.035  29.634  32.792  1.00  0.00    -0.203 F 
ATOM     61  C   UNL A   1      37.930  30.682  32.954  1.00  0.00     0.198 A 
ATOM     62  C   UNL A   1      36.966  31.739  31.025  1.00  0.00     0.198 A 
ATOM     63  F   UNL A   1      38.122  31.725  28.974  1.00  0.00    -0.203 F 
ATOM     64  F   UNL A   1      37.855  30.335  34.247  1.00  0.00    -0.200 F 
ATOM     65  C   UNL A   1      36.892  31.391  32.366  1.00  0.00     0.200 A 
ATOM     66  F   UNL A   1      35.965  32.425  30.457  1.00  0.00    -0.200 F 
ATOM     67  F   UNL A   1      35.818  31.733  33.090  1.00  0.00    -0.200 F 
ENDBRANCH  43  57
BRANCH  44  68
ATOM     68  C   UNL A   1      47.204  27.777  25.879  1.00  0.00     0.064 A 
ATOM     69  C   UNL A   1      47.233  27.782  24.480  1.00  0.00     0.173 A 
ATOM     70  C   UNL A   1      48.359  27.342  26.553  1.00  0.00     0.173 A 
ATOM     71  F   UNL A   1      46.145  28.151  23.788  1.00  0.00    -0.203 F 
ATOM     72  C   UNL A   1      48.372  27.376  23.785  1.00  0.00     0.198 A 
ATOM     73  C   UNL A   1      49.507  26.976  25.860  1.00  0.00     0.198 A 
ATOM     74  F   UNL A   1      48.378  27.300  27.894  1.00  0.00    -0.203 F 
ATOM     75  F   UNL A   1      48.363  27.353  22.445  1.00  0.00    -0.200 F 
ATOM     76  C   UNL A   1      49.512  26.988  24.475  1.00  0.00     0.200 A 
ATOM     77  F   UNL A   1      50.608  26.618  26.535  1.00  0.00    -0.200 F 
ATOM     78  F   UNL A   1      50.611  26.617  23.806  1.00  0.00    -0.200 F 
ENDBRANCH  44  68
BRANCH  56  79
ATOM     79  C   UNL A   1      45.192  33.865  28.615  1.00  0.00     0.064 A 
ATOM     80  C   UNL A   1      44.838  34.819  27.649  1.00  0.00     0.173 A 
ATOM     81  C   UNL A   1      46.119  34.238  29.599  1.00  0.00     0.173 A 
ATOM     82  F   UNL A   1      43.968  34.505  26.677  1.00  0.00    -0.203 F 
ATOM     83  C   UNL A   1      45.408  36.089  27.654  1.00  0.00     0.198 A 
ATOM     84  C   UNL A   1      46.666  35.519  29.619  1.00  0.00     0.198 A 
ATOM     85  F   UNL A   1      46.486  33.365  30.548  1.00  0.00    -0.203 F 
ATOM     86  F   UNL A   1      45.092  36.968  26.693  1.00  0.00    -0.200 F 
ATOM     87  C   UNL A   1      46.316  36.440  28.642  1.00  0.00     0.200 A 
ATOM     88  F   UNL A   1      47.534  35.859  30.581  1.00  0.00    -0.200 F 
ATOM     89  F   UNL A   1      46.863  37.663  28.648  1.00  0.00    -0.200 F 
ENDBRANCH  56  79
ENDBRANCH  30  31
ENDBRANCH  23  25
ENDBRANCH  22  23
ENDBRANCH  21  22
ENDBRANCH   1  21
TORSDOF 13
ENDMDL
MODEL 2
REMARK VINA RESULT:     -12.0      0.537      1.281
REMARK SMILES C[C@@H]1CC[C@@](C(=O)OCCOC(=O)c2ccc(-c3c4nc(c(-c5c(F)c(F)c(F)c(F)c5F)c5ccc([nH]5)c(-c5c(F)c(F)c(F)c(F)c5F)c5nc(c(-c6c(F)c(F)c(F)c(F)c6F)c6ccc3[nH]6)C=C5)C=C4)cc2)([C@@H]2CCC[C@H](S(C)(=O)=O)C2)C1
REMARK SMILES IDX 9 1 8 2 6 3 7 4 5 5 1 6 2 7 3 8 87 9 4 10 77 11 78 12 86 13
REMARK SMILES IDX 79 14 81 15 80 16 82 17 83 18 84 19 85 20 10 21 11 22 12 23
REMARK SMILES IDX 13 24 14 25 15 26 76 27 16 28 75 29 17 30 18 31 19 32 69 33
REMARK SMILES IDX 20 34 74 35 68 36 70 37 21 38 73 39 67 40 66 41 22 43 54 44
REMARK SMILES IDX 34 45 53 46 35 47 38 48 52 49 71 50 36 51 37 52 51 54 72 55
REMARK SMILES IDX 39 56 23 57 24 58 32 59 25 60 26 61 30 62 33 63 27 64 28 65
REMARK SMILES IDX 31 66 29 67 55 68 56 69 64 70 57 71 58 72 62 73 65 74 59 75
REMARK SMILES IDX 60 76 63 77 61 78 40 79 41 80 49 81 42 82 43 83 47 84 50 85
REMARK SMILES IDX 44 86 45 87 48 88 46 89
REMARK H PARENT 70 42 38 53
REMARK Flexibility Score: inf
ROOT
ATOM      1  C   UNL A   1      36.333  20.114  25.001  1.00  0.00     0.274 C 
ENDROOT
BRANCH   1   2
ATOM      2  O   UNL A   1      35.817  21.423  24.678  1.00  0.00    -0.462 OA
BRANCH   2   3
ATOM      3  C   UNL A   1      34.877  21.915  25.519  1.00  0.00     0.312 C 
ATOM      4  O   UNL A   1      35.002  21.937  26.742  1.00  0.00    -0.252 OA
BRANCH   3   5
ATOM      5  C   UNL A   1      33.573  22.374  24.822  1.00  0.00     0.071 C 
ATOM      6  C   UNL A   1      33.090  19.186  24.309  1.00  0.00     0.007 C 
ATOM      7  C   UNL A   1      32.153  20.393  24.341  1.00  0.00    -0.013 C 
ATOM      8  C   UNL A   1      32.256  21.219  23.074  1.00  0.00     0.004 C 
ATOM      9  C   UNL A   1      32.488  21.425  25.426  1.00  0.00     0.022 C 
ATOM     10  C   UNL A   1      33.482  22.099  23.292  1.00  0.00     0.019 C 
BRANCH   5  11
ATOM     11  C   UNL A   1      33.410  23.911  25.177  1.00  0.00     0.008 C 
ATOM     12  C   UNL A   1      32.212  24.282  26.068  1.00  0.00     0.005 C 
ATOM     13  C   UNL A   1      33.381  24.783  23.899  1.00  0.00     0.024 C 
ATOM     14  C   UNL A   1      32.199  25.781  26.383  1.00  0.00     0.002 C 
ATOM     15  C   UNL A   1      33.242  26.288  24.148  1.00  0.00     0.108 C 
ATOM     16  C   UNL A   1      32.112  26.623  25.118  1.00  0.00     0.020 C 
BRANCH  15  17
ATOM     17  S   UNL A   1      33.029  27.118  22.555  1.00  0.00     0.150 S 
ATOM     18  C   UNL A   1      34.022  28.577  22.680  1.00  0.00     0.158 C 
ATOM     19  O   UNL A   1      33.653  26.287  21.542  1.00  0.00    -0.229 OA
ATOM     20  O   UNL A   1      31.647  27.530  22.419  1.00  0.00    -0.229 OA
ENDBRANCH  15  17
ENDBRANCH   5  11
ENDBRANCH   3   5
ENDBRANCH   2   3
ENDBRANCH   1   2
BRANCH   1  21
ATOM     21  C   UNL A   1      37.857  20.109  24.993  1.00  0.00     0.275 C 
BRANCH  21  22
ATOM     22  O   UNL A   1      38.343  21.345  25.548  1.00  0.00    -0.458 OA
BRANCH  22  23
ATOM     23  C   UNL A   1      39.419  21.241  26.353  1.00  0.00     0.338 C 
ATOM     24  O   UNL A   1      39.967  20.204  26.718  1.00  0.00    -0.246 OA
BRANCH  23  25
ATOM     25  C   UNL A   1      39.857  22.577  26.798  1.00  0.00     0.060 A 
ATOM     26  C   UNL A   1      39.274  23.730  26.282  1.00  0.00     0.016 A 
ATOM     27  C   UNL A   1      40.943  22.690  27.666  1.00  0.00     0.016 A 
ATOM     28  C   UNL A   1      39.864  24.973  26.529  1.00  0.00     0.010 A 
ATOM     29  C   UNL A   1      41.451  23.953  28.006  1.00  0.00     0.010 A 
ATOM     30  C   UNL A   1      40.972  25.116  27.387  1.00  0.00    -0.014 A 
BRANCH  30  31
ATOM     31  C   UNL A   1      41.607  26.466  27.581  1.00  0.00     0.031 A 
ATOM     32  C   UNL A   1      40.882  27.611  28.271  1.00  0.00     0.074 A 
ATOM     33  C   UNL A   1      42.900  26.658  27.237  1.00  0.00     0.049 A 
ATOM     34  N   UNL A   1      41.371  28.754  28.700  1.00  0.00    -0.248 NA
ATOM     35  C   UNL A   1      39.453  27.446  28.571  1.00  0.00     0.031 C 
ATOM     36  C   UNL A   1      43.759  25.669  26.583  1.00  0.00     0.029 A 
ATOM     37  N   UNL A   1      43.725  27.748  27.400  1.00  0.00    -0.354 N 
ATOM     38  C   UNL A   1      40.341  29.386  29.386  1.00  0.00     0.074 A 
ATOM     39  C   UNL A   1      39.181  28.534  29.278  1.00  0.00     0.031 C 
ATOM     40  C   UNL A   1      44.992  26.174  26.447  1.00  0.00     0.029 A 
ATOM     41  C   UNL A   1      44.987  27.563  26.888  1.00  0.00     0.049 A 
ATOM     42  H   UNL A   1      43.439  28.580  27.842  1.00  0.00     0.167 HD
ATOM     43  C   UNL A   1      40.344  30.565  30.055  1.00  0.00     0.037 A 
ATOM     44  C   UNL A   1      46.011  28.422  26.718  1.00  0.00     0.037 A 
ATOM     45  C   UNL A   1      41.408  31.530  30.010  1.00  0.00     0.049 A 
ATOM     46  C   UNL A   1      45.867  29.845  27.171  1.00  0.00     0.074 A 
ATOM     47  C   UNL A   1      41.445  32.803  30.552  1.00  0.00     0.029 A 
ATOM     48  N   UNL A   1      42.591  31.359  29.312  1.00  0.00    -0.354 N 
ATOM     49  N   UNL A   1      44.908  30.394  27.876  1.00  0.00    -0.248 NA
ATOM     50  C   UNL A   1      46.933  30.778  26.779  1.00  0.00     0.031 C 
ATOM     51  C   UNL A   1      42.606  33.438  30.097  1.00  0.00     0.029 A 
ATOM     52  C   UNL A   1      43.324  32.535  29.331  1.00  0.00     0.049 A 
ATOM     53  H   UNL A   1      42.871  30.525  28.868  1.00  0.00     0.167 HD
ATOM     54  C   UNL A   1      45.254  31.731  28.013  1.00  0.00     0.074 A 
ATOM     55  C   UNL A   1      46.522  31.908  27.339  1.00  0.00     0.031 C 
ATOM     56  C   UNL A   1      44.573  32.721  28.640  1.00  0.00     0.037 A 
BRANCH  43  57
ATOM     57  C   UNL A   1      39.117  30.912  30.845  1.00  0.00     0.064 A 
ATOM     58  C   UNL A   1      39.016  30.585  32.206  1.00  0.00     0.173 A 
ATOM     59  C   UNL A   1      38.056  31.613  30.255  1.00  0.00     0.173 A 
ATOM     60  F   UNL A   1      40.001  29.904  32.811  1.00  0.00    -0.203 F 
ATOM     61  C   UNL A   1      37.893  30.949  32.947  1.00  0.00     0.198 A 
ATOM     62  C   UNL A   1      36.939  31.980  31.000  1.00  0.00     0.198 A 
ATOM     63  F   UNL A   1      38.108  31.944  28.956  1.00  0.00    -0.203 F 
ATOM     64  F   UNL A   1      37.810  30.617  34.243  1.00  0.00    -0.200 F 
ATOM     65  C   UNL A   1      36.858  31.648  32.344  1.00  0.00     0.200 A 
ATOM     66  F   UNL A   1      35.941  32.657  30.417  1.00  0.00    -0.200 F 
ATOM     67  F   UNL A   1      35.778  31.997  33.057  1.00  0.00    -0.200 F 
ENDBRANCH  43  57
BRANCH  44  68
ATOM     68  C   UNL A   1      47.217  27.978  25.965  1.00  0.00     0.064 A 
ATOM     69  C   UNL A   1      47.218  27.860  24.571  1.00  0.00     0.173 A 
ATOM     70  C   UNL A   1      48.406  27.662  26.647  1.00  0.00     0.173 A 
ATOM     71  F   UNL A   1      46.099  28.112  23.875  1.00  0.00    -0.203 F 
ATOM     72  C   UNL A   1      48.362  27.451  23.887  1.00  0.00     0.198 A 
ATOM     73  C   UNL A   1      49.557  27.293  25.961  1.00  0.00     0.198 A 
ATOM     74  F   UNL A   1      48.453  27.741  27.985  1.00  0.00    -0.203 F 
ATOM     75  F   UNL A   1      48.329  27.308  22.555  1.00  0.00    -0.200 F 
ATOM     76  C   UNL A   1      49.534  27.182  24.581  1.00  0.00     0.200 A 
ATOM     77  F   UNL A   1      50.688  27.052  26.638  1.00  0.00    -0.200 F 
ATOM     78  F   UNL A   1      50.637  26.808  23.920  1.00  0.00    -0.200 F 
ENDBRANCH  44  68
BRANCH  56  79
ATOM     79  C   UNL A   1      45.181  34.092  28.626  1.00  0.00     0.064 A 
ATOM     80  C   UNL A   1      46.120  34.484  29.592  1.00  0.00     0.173 A 
ATOM     81  C   UNL A   1      44.842  35.014  27.626  1.00  0.00     0.173 A 
ATOM     82  F   UNL A   1      46.465  33.645  30.579  1.00  0.00    -0.203 F 
ATOM     83  C   UNL A   1      46.680  35.759  29.569  1.00  0.00     0.198 A 
ATOM     84  C   UNL A   1      45.425  36.278  27.589  1.00  0.00     0.198 A 
ATOM     85  F   UNL A   1      43.954  34.685  26.677  1.00  0.00    -0.203 F 
ATOM     86  F   UNL A   1      47.538  36.130  30.530  1.00  0.00    -0.200 F 
ATOM     87  C   UNL A   1      46.337  36.652  28.565  1.00  0.00     0.200 A 
ATOM     88  F   UNL A   1      45.101  37.134  26.611  1.00  0.00    -0.200 F 
ATOM     89  F   UNL A   1      46.877  37.878  28.543  1.00  0.00    -0.200 F 
ENDBRANCH  56  79
ENDBRANCH  30  31
ENDBRANCH  23  25
ENDBRANCH  22  23
ENDBRANCH  21  22
ENDBRANCH   1  21
TORSDOF 13
ENDMDL
MODEL 3
REMARK VINA RESULT:     -12.0      4.518      9.934
REMARK SMILES C[C@@H]1CC[C@@](C(=O)OCCOC(=O)c2ccc(-c3c4nc(c(-c5c(F)c(F)c(F)c(F)c5F)c5ccc([nH]5)c(-c5c(F)c(F)c(F)c(F)c5F)c5nc(c(-c6c(F)c(F)c(F)c(F)c6F)c6ccc3[nH]6)C=C5)C=C4)cc2)([C@@H]2CCC[C@H](S(C)(=O)=O)C2)C1
REMARK SMILES IDX 9 1 8 2 6 3 7 4 5 5 1 6 2 7 3 8 87 9 4 10 77 11 78 12 86 13
REMARK SMILES IDX 79 14 81 15 80 16 82 17 83 18 84 19 85 20 10 21 11 22 12 23
REMARK SMILES IDX 13 24 14 25 15 26 76 27 16 28 75 29 17 30 18 31 19 32 69 33
REMARK SMILES IDX 20 34 74 35 68 36 70 37 21 38 73 39 67 40 66 41 22 43 54 44
REMARK SMILES IDX 34 45 53 46 35 47 38 48 52 49 71 50 36 51 37 52 51 54 72 55
REMARK SMILES IDX 39 56 23 57 24 58 32 59 25 60 26 61 30 62 33 63 27 64 28 65
REMARK SMILES IDX 31 66 29 67 55 68 56 69 64 70 57 71 58 72 62 73 65 74 59 75
REMARK SMILES IDX 60 76 63 77 61 78 40 79 41 80 49 81 42 82 43 83 47 84 50 85
REMARK SMILES IDX 44 86 45 87 48 88 46 89
REMARK H PARENT 70 42 38 53
REMARK Flexibility Score: inf
ROOT
ATOM      1  C   UNL A   1      31.763  28.838  27.095  1.00  0.00     0.274 C 
ENDROOT
BRANCH   1   2
ATOM      2  O   UNL A   1      32.570  27.863  26.401  1.00  0.00    -0.462 OA
BRANCH   2   3
ATOM      3  C   UNL A   1      31.912  26.783  25.917  1.00  0.00     0.312 C 
ATOM      4  O   UNL A   1      30.868  26.349  26.400  1.00  0.00    -0.252 OA
BRANCH   3   5
ATOM      5  C   UNL A   1      32.631  26.069  24.746  1.00  0.00     0.071 C 
ATOM      6  C   UNL A   1      31.823  28.728  23.034  1.00  0.00     0.007 C 
ATOM      7  C   UNL A   1      32.891  27.652  22.850  1.00  0.00    -0.013 C 
ATOM      8  C   UNL A   1      32.304  26.363  22.311  1.00  0.00     0.004 C 
ATOM      9  C   UNL A   1      33.551  27.186  24.154  1.00  0.00     0.022 C 
ATOM     10  C   UNL A   1      31.735  25.661  23.540  1.00  0.00     0.019 C 
BRANCH   5  11
ATOM     11  C   UNL A   1      33.387  24.833  25.392  1.00  0.00     0.008 C 
ATOM     12  C   UNL A   1      34.919  24.827  25.262  1.00  0.00     0.005 C 
ATOM     13  C   UNL A   1      32.827  23.492  24.860  1.00  0.00     0.024 C 
ATOM     14  C   UNL A   1      35.531  23.615  25.973  1.00  0.00     0.002 C 
ATOM     15  C   UNL A   1      33.489  22.240  25.443  1.00  0.00     0.108 C 
ATOM     16  C   UNL A   1      35.013  22.304  25.398  1.00  0.00     0.020 C 
BRANCH  15  17
ATOM     17  S   UNL A   1      32.850  20.791  24.570  1.00  0.00     0.150 S 
ATOM     18  C   UNL A   1      34.175  19.619  24.627  1.00  0.00     0.158 C 
ATOM     19  O   UNL A   1      31.778  20.233  25.374  1.00  0.00    -0.229 OA
ATOM     20  O   UNL A   1      32.623  21.139  23.182  1.00  0.00    -0.229 OA
ENDBRANCH  15  17
ENDBRANCH   5  11
ENDBRANCH   3   5
ENDBRANCH   2   3
ENDBRANCH   1   2
BRANCH   1  21
ATOM     21  C   UNL A   1      31.761  30.172  26.359  1.00  0.00     0.275 C 
BRANCH  21  22
ATOM     22  O   UNL A   1      33.115  30.625  26.185  1.00  0.00    -0.458 OA
BRANCH  22  23
ATOM     23  C   UNL A   1      33.564  31.494  27.113  1.00  0.00     0.338 C 
ATOM     24  O   UNL A   1      33.037  32.552  27.445  1.00  0.00    -0.246 OA
BRANCH  23  25
ATOM     25  C   UNL A   1      34.842  31.024  27.680  1.00  0.00     0.060 A 
ATOM     26  C   UNL A   1      35.036  29.682  27.991  1.00  0.00     0.016 A 
ATOM     27  C   UNL A   1      35.831  31.952  28.008  1.00  0.00     0.016 A 
ATOM     28  C   UNL A   1      36.149  29.302  28.747  1.00  0.00     0.010 A 
ATOM     29  C   UNL A   1      37.004  31.538  28.658  1.00  0.00     0.010 A 
ATOM     30  C   UNL A   1      37.155  30.219  29.108  1.00  0.00    -0.014 A 
BRANCH  30  31
ATOM     31  C   UNL A   1      38.308  29.776  29.967  1.00  0.00     0.031 A 
ATOM     32  C   UNL A   1      39.328  28.754  29.490  1.00  0.00     0.074 A 
ATOM     33  C   UNL A   1      38.526  30.370  31.161  1.00  0.00     0.049 A 
ATOM     34  N   UNL A   1      40.485  28.436  30.027  1.00  0.00    -0.248 NA
ATOM     35  C   UNL A   1      39.058  28.039  28.236  1.00  0.00     0.031 C 
ATOM     36  C   UNL A   1      37.665  31.385  31.773  1.00  0.00     0.029 A 
ATOM     37  N   UNL A   1      39.547  30.218  32.073  1.00  0.00    -0.354 N 
ATOM     38  C   UNL A   1      41.102  27.564  29.136  1.00  0.00     0.074 A 
ATOM     39  C   UNL A   1      40.179  27.355  28.048  1.00  0.00     0.031 C 
ATOM     40  C   UNL A   1      38.214  31.796  32.923  1.00  0.00     0.029 A 
ATOM     41  C   UNL A   1      39.399  30.993  33.197  1.00  0.00     0.049 A 
ATOM     42  H   UNL A   1      40.310  29.611  31.932  1.00  0.00     0.167 HD
ATOM     43  C   UNL A   1      42.326  26.986  29.201  1.00  0.00     0.037 A 
ATOM     44  C   UNL A   1      40.085  31.016  34.357  1.00  0.00     0.037 A 
ATOM     45  C   UNL A   1      43.181  27.004  30.357  1.00  0.00     0.049 A 
ATOM     46  C   UNL A   1      41.262  30.102  34.539  1.00  0.00     0.074 A 
ATOM     47  C   UNL A   1      44.379  26.341  30.556  1.00  0.00     0.029 A 
ATOM     48  N   UNL A   1      42.884  27.657  31.540  1.00  0.00    -0.354 N 
ATOM     49  N   UNL A   1      41.860  29.341  33.656  1.00  0.00    -0.248 NA
ATOM     50  C   UNL A   1      41.842  30.028  35.888  1.00  0.00     0.031 C 
ATOM     51  C   UNL A   1      44.754  26.511  31.894  1.00  0.00     0.029 A 
ATOM     52  C   UNL A   1      43.827  27.337  32.505  1.00  0.00     0.049 A 
ATOM     53  H   UNL A   1      42.117  28.259  31.677  1.00  0.00     0.167 HD
ATOM     54  C   UNL A   1      42.884  28.700  34.339  1.00  0.00     0.074 A 
ATOM     55  C   UNL A   1      42.843  29.178  35.704  1.00  0.00     0.031 C 
ATOM     56  C   UNL A   1      43.774  27.791  33.869  1.00  0.00     0.037 A 
BRANCH  43  57
ATOM     57  C   UNL A   1      42.789  26.216  28.000  1.00  0.00     0.064 A 
ATOM     58  C   UNL A   1      43.603  26.814  27.027  1.00  0.00     0.173 A 
ATOM     59  C   UNL A   1      42.456  24.863  27.841  1.00  0.00     0.173 A 
ATOM     60  F   UNL A   1      43.938  28.109  27.130  1.00  0.00    -0.203 F 
ATOM     61  C   UNL A   1      44.067  26.082  25.935  1.00  0.00     0.198 A 
ATOM     62  C   UNL A   1      42.926  24.134  26.753  1.00  0.00     0.198 A 
ATOM     63  F   UNL A   1      41.677  24.251  28.745  1.00  0.00    -0.203 F 
ATOM     64  F   UNL A   1      44.835  26.675  25.009  1.00  0.00    -0.200 F 
ATOM     65  C   UNL A   1      43.731  24.743  25.801  1.00  0.00     0.200 A 
ATOM     66  F   UNL A   1      42.601  22.840  26.625  1.00  0.00    -0.200 F 
ATOM     67  F   UNL A   1      44.177  24.041  24.751  1.00  0.00    -0.200 F 
ENDBRANCH  43  57
BRANCH  44  68
ATOM     68  C   UNL A   1      39.584  31.851  35.484  1.00  0.00     0.064 A 
ATOM     69  C   UNL A   1      38.623  31.379  36.385  1.00  0.00     0.173 A 
ATOM     70  C   UNL A   1      40.073  33.155  35.676  1.00  0.00     0.173 A 
ATOM     71  F   UNL A   1      38.096  30.156  36.225  1.00  0.00    -0.203 F 
ATOM     72  C   UNL A   1      38.177  32.177  37.439  1.00  0.00     0.198 A 
ATOM     73  C   UNL A   1      39.656  33.934  36.750  1.00  0.00     0.198 A 
ATOM     74  F   UNL A   1      40.982  33.663  34.830  1.00  0.00    -0.203 F 
ATOM     75  F   UNL A   1      37.227  31.718  38.266  1.00  0.00    -0.200 F 
ATOM     76  C   UNL A   1      38.703  33.446  37.628  1.00  0.00     0.200 A 
ATOM     77  F   UNL A   1      40.183  35.152  36.934  1.00  0.00    -0.200 F 
ATOM     78  F   UNL A   1      38.286  34.203  38.651  1.00  0.00    -0.200 F 
ENDBRANCH  44  68
BRANCH  56  79
ATOM     79  C   UNL A   1      44.779  27.247  34.840  1.00  0.00     0.064 A 
ATOM     80  C   UNL A   1      45.990  27.911  35.088  1.00  0.00     0.173 A 
ATOM     81  C   UNL A   1      44.522  26.064  35.547  1.00  0.00     0.173 A 
ATOM     82  F   UNL A   1      46.290  29.038  34.425  1.00  0.00    -0.203 F 
ATOM     83  C   UNL A   1      46.916  27.398  35.992  1.00  0.00     0.198 A 
ATOM     84  C   UNL A   1      45.438  25.568  36.472  1.00  0.00     0.198 A 
ATOM     85  F   UNL A   1      43.377  25.394  35.350  1.00  0.00    -0.203 F 
ATOM     86  F   UNL A   1      48.087  28.023  36.177  1.00  0.00    -0.200 F 
ATOM     87  C   UNL A   1      46.637  26.231  36.686  1.00  0.00     0.200 A 
ATOM     88  F   UNL A   1      45.160  24.447  37.151  1.00  0.00    -0.200 F 
ATOM     89  F   UNL A   1      47.528  25.738  37.558  1.00  0.00    -0.200 F 
ENDBRANCH  56  79
ENDBRANCH  30  31
ENDBRANCH  23  25
ENDBRANCH  22  23
ENDBRANCH  21  22
ENDBRANCH   1  21
TORSDOF 13
ENDMDL
