MODEL 1
REMARK VINA RESULT:     -12.0      0.000      0.000
REMARK SMILES C[C@@H]1C[N@H+](Cc2ccccc2)CC[C@@H]1CC(=O)OCCOC(=O)c1ccc(-c2c3nc(c(-c4c(F)c(F)c(F)c(F)c4F)c4ccc([nH]4)c(-c4c(F)c(F)c(F)c(F)c4F)c4nc(c(-c5c(F)c(F)c(F)c(F)c5F)c5ccc2[nH]5)C=C4)C=C3)cc1
REMARK SMILES IDX 19 1 18 2 16 3 17 4 15 5 14 6 1 7 2 8 3 9 4 10 13 11 12 12
REMARK SMILES IDX 5 14 6 15 7 16 11 17 8 18 10 19 9 20 20 21 21 22 22 23 23 24
REMARK SMILES IDX 24 25 25 26 86 27 26 28 85 29 27 30 28 31 29 32 79 33 30 34
REMARK SMILES IDX 84 35 78 36 80 37 31 38 83 39 77 40 76 41 32 43 64 44 44 45
REMARK SMILES IDX 63 46 45 47 48 48 62 49 81 50 46 51 47 52 61 54 82 55 49 56
REMARK SMILES IDX 33 57 34 58 42 59 35 60 36 61 40 62 43 63 37 64 38 65 41 66
REMARK SMILES IDX 39 67 65 68 66 69 74 70 67 71 68 72 72 73 75 74 69 75 70 76
REMARK SMILES IDX 73 77 71 78 50 79 51 80 59 81 52 82 53 83 57 84 60 85 54 86
REMARK SMILES IDX 55 87 58 88 56 89
REMARK H PARENT 4 13 80 42 48 53
REMARK Flexibility Score: inf
ROOT
ATOM      1  C   UNL A   1      31.336  31.559  26.375  1.00  0.00     0.274 C 
ENDROOT
BRANCH   1   2
ATOM      2  O   UNL A   1      31.862  30.329  26.924  1.00  0.00    -0.462 OA
BRANCH   2   3
ATOM      3  C   UNL A   1      32.693  29.598  26.140  1.00  0.00     0.306 C 
ATOM      4  O   UNL A   1      33.016  29.911  25.001  1.00  0.00    -0.252 OA
BRANCH   3   5
ATOM      5  C   UNL A   1      33.038  28.256  26.768  1.00  0.00     0.127 C 
BRANCH   5   6
ATOM      6  C   UNL A   1      32.419  26.883  26.359  1.00  0.00     0.014 C 
ATOM      7  C   UNL A   1      33.707  26.618  24.006  1.00  0.00     0.014 C 
ATOM      8  C   UNL A   1      32.994  25.997  25.201  1.00  0.00     0.045 C 
ATOM      9  C   UNL A   1      31.990  24.932  24.704  1.00  0.00     0.265 C 
ATOM     10  N   UNL A   1      30.621  25.390  24.525  1.00  0.00    -0.331 N 
ATOM     11  C   UNL A   1      30.868  26.914  26.508  1.00  0.00     0.066 C 
ATOM     12  C   UNL A   1      30.069  25.818  25.800  1.00  0.00     0.262 C 
ATOM     13  H   UNL A   1      30.056  24.587  24.251  1.00  0.00     0.348 HD
BRANCH  10  14
ATOM     14  C   UNL A   1      30.301  26.142  23.299  1.00  0.00     0.299 C 
BRANCH  14  15
ATOM     15  C   UNL A   1      29.560  27.449  23.491  1.00  0.00     0.006 A 
ATOM     16  C   UNL A   1      30.226  28.684  23.468  1.00  0.00     0.009 A 
ATOM     17  C   UNL A   1      28.171  27.454  23.501  1.00  0.00     0.009 A 
ATOM     18  C   UNL A   1      29.510  29.875  23.309  1.00  0.00     0.001 A 
ATOM     19  C   UNL A   1      27.477  28.621  23.217  1.00  0.00     0.001 A 
ATOM     20  C   UNL A   1      28.137  29.835  23.124  1.00  0.00     0.000 A 
ENDBRANCH  14  15
ENDBRANCH  10  14
ENDBRANCH   5   6
ENDBRANCH   3   5
ENDBRANCH   2   3
ENDBRANCH   1   2
BRANCH   1  21
ATOM     21  C   UNL A   1      32.076  32.800  26.899  1.00  0.00     0.275 C 
BRANCH  21  22
ATOM     22  O   UNL A   1      33.039  32.492  27.923  1.00  0.00    -0.458 OA
BRANCH  22  23
ATOM     23  C   UNL A   1      34.125  33.300  27.923  1.00  0.00     0.338 C 
ATOM     24  O   UNL A   1      34.140  34.505  27.709  1.00  0.00    -0.246 OA
BRANCH  23  25
ATOM     25  C   UNL A   1      35.351  32.513  28.126  1.00  0.00     0.060 A 
ATOM     26  C   UNL A   1      36.500  33.210  28.488  1.00  0.00     0.016 A 
ATOM     27  C   UNL A   1      35.369  31.116  28.054  1.00  0.00     0.016 A 
ATOM     28  C   UNL A   1      37.677  32.509  28.751  1.00  0.00     0.010 A 
ATOM     29  C   UNL A   1      36.521  30.412  28.451  1.00  0.00     0.010 A 
ATOM     30  C   UNL A   1      37.675  31.103  28.854  1.00  0.00    -0.014 A 
BRANCH  30  31
ATOM     31  C   UNL A   1      38.784  30.449  29.622  1.00  0.00     0.031 A 
ATOM     32  C   UNL A   1      39.769  29.480  29.029  1.00  0.00     0.074 A 
ATOM     33  C   UNL A   1      38.889  30.768  30.931  1.00  0.00     0.049 A 
ATOM     34  N   UNL A   1      40.722  28.807  29.634  1.00  0.00    -0.248 NA
ATOM     35  C   UNL A   1      39.684  29.221  27.586  1.00  0.00     0.031 C 
ATOM     36  C   UNL A   1      37.989  31.682  31.641  1.00  0.00     0.029 A 
ATOM     37  N   UNL A   1      39.804  30.414  31.891  1.00  0.00    -0.354 N 
ATOM     38  C   UNL A   1      41.326  28.021  28.661  1.00  0.00     0.074 A 
ATOM     39  C   UNL A   1      40.637  28.309  27.418  1.00  0.00     0.031 C 
ATOM     40  C   UNL A   1      38.468  31.924  32.862  1.00  0.00     0.029 A 
ATOM     41  C   UNL A   1      39.603  31.047  33.095  1.00  0.00     0.049 A 
ATOM     42  H   UNL A   1      40.532  29.770  31.734  1.00  0.00     0.167 HD
ATOM     43  C   UNL A   1      42.346  27.133  28.804  1.00  0.00     0.037 A 
ATOM     44  C   UNL A   1      40.208  30.908  34.288  1.00  0.00     0.037 A 
ATOM     45  C   UNL A   1      43.024  26.854  30.053  1.00  0.00     0.049 A 
ATOM     46  C   UNL A   1      41.282  29.880  34.428  1.00  0.00     0.074 A 
ATOM     47  C   UNL A   1      44.062  25.968  30.296  1.00  0.00     0.029 A 
ATOM     48  N   UNL A   1      42.729  27.454  31.271  1.00  0.00    -0.354 N 
ATOM     49  N   UNL A   1      41.807  29.110  33.508  1.00  0.00    -0.248 NA
ATOM     50  C   UNL A   1      41.818  29.672  35.777  1.00  0.00     0.031 C 
ATOM     51  C   UNL A   1      44.355  25.990  31.665  1.00  0.00     0.029 A 
ATOM     52  C   UNL A   1      43.543  26.934  32.271  1.00  0.00     0.049 A 
ATOM     53  H   UNL A   1      42.043  28.147  31.407  1.00  0.00     0.167 HD
ATOM     54  C   UNL A   1      42.733  28.316  34.165  1.00  0.00     0.074 A 
ATOM     55  C   UNL A   1      42.719  28.725  35.557  1.00  0.00     0.031 C 
ATOM     56  C   UNL A   1      43.512  27.332  33.657  1.00  0.00     0.037 A 
BRANCH  43  57
ATOM     57  C   UNL A   1      42.763  26.342  27.592  1.00  0.00     0.064 A 
ATOM     58  C   UNL A   1      43.798  26.764  26.743  1.00  0.00     0.173 A 
ATOM     59  C   UNL A   1      42.148  25.111  27.304  1.00  0.00     0.173 A 
ATOM     60  F   UNL A   1      44.423  27.928  26.968  1.00  0.00    -0.203 F 
ATOM     61  C   UNL A   1      44.176  26.001  25.638  1.00  0.00     0.198 A 
ATOM     62  C   UNL A   1      42.549  24.338  26.215  1.00  0.00     0.198 A 
ATOM     63  F   UNL A   1      41.166  24.647  28.091  1.00  0.00    -0.203 F 
ATOM     64  F   UNL A   1      45.137  26.448  24.816  1.00  0.00    -0.200 F 
ATOM     65  C   UNL A   1      43.556  24.789  25.377  1.00  0.00     0.200 A 
ATOM     66  F   UNL A   1      41.959  23.158  25.979  1.00  0.00    -0.200 F 
ATOM     67  F   UNL A   1      43.923  24.058  24.315  1.00  0.00    -0.200 F 
ENDBRANCH  43  57
BRANCH  44  68
ATOM     68  C   UNL A   1      39.742  31.724  35.440  1.00  0.00     0.064 A 
ATOM     69  C   UNL A   1      40.279  32.992  35.688  1.00  0.00     0.173 A 
ATOM     70  C   UNL A   1      38.694  31.285  36.266  1.00  0.00     0.173 A 
ATOM     71  F   UNL A   1      41.299  33.445  34.944  1.00  0.00    -0.203 F 
ATOM     72  C   UNL A   1      39.776  33.797  36.709  1.00  0.00     0.198 A 
ATOM     73  C   UNL A   1      38.164  32.106  37.256  1.00  0.00     0.198 A 
ATOM     74  F   UNL A   1      38.143  30.078  36.069  1.00  0.00    -0.203 F 
ATOM     75  F   UNL A   1      40.322  34.998  36.943  1.00  0.00    -0.200 F 
ATOM     76  C   UNL A   1      38.707  33.361  37.480  1.00  0.00     0.200 A 
ATOM     77  F   UNL A   1      37.113  31.690  37.976  1.00  0.00    -0.200 F 
ATOM     78  F   UNL A   1      38.201  34.150  38.437  1.00  0.00    -0.200 F 
ENDBRANCH  44  68
BRANCH  56  79
ATOM     79  C   UNL A   1      44.432  26.645  34.623  1.00  0.00     0.064 A 
ATOM     80  C   UNL A   1      45.705  27.157  34.917  1.00  0.00     0.173 A 
ATOM     81  C   UNL A   1      44.042  25.453  35.251  1.00  0.00     0.173 A 
ATOM     82  F   UNL A   1      46.135  28.280  34.322  1.00  0.00    -0.203 F 
ATOM     83  C   UNL A   1      46.566  26.482  35.777  1.00  0.00     0.198 A 
ATOM     84  C   UNL A   1      44.895  24.796  36.133  1.00  0.00     0.198 A 
ATOM     85  F   UNL A   1      42.836  24.921  35.002  1.00  0.00    -0.203 F 
ATOM     86  F   UNL A   1      47.801  26.957  35.995  1.00  0.00    -0.200 F 
ATOM     87  C   UNL A   1      46.159  25.305  36.388  1.00  0.00     0.200 A 
ATOM     88  F   UNL A   1      44.497  23.663  36.728  1.00  0.00    -0.200 F 
ATOM     89  F   UNL A   1      46.990  24.655  37.213  1.00  0.00    -0.200 F 
ENDBRANCH  56  79
ENDBRANCH  30  31
ENDBRANCH  23  25
ENDBRANCH  22  23
ENDBRANCH  21  22
ENDBRANCH   1  21
TORSDOF 14
ENDMDL
MODEL 2
REMARK VINA RESULT:     -11.9      1.672      3.534
REMARK SMILES C[C@@H]1C[N@H+](Cc2ccccc2)CC[C@@H]1CC(=O)OCCOC(=O)c1ccc(-c2c3nc(c(-c4c(F)c(F)c(F)c(F)c4F)c4ccc([nH]4)c(-c4c(F)c(F)c(F)c(F)c4F)c4nc(c(-c5c(F)c(F)c(F)c(F)c5F)c5ccc2[nH]5)C=C4)C=C3)cc1
REMARK SMILES IDX 19 1 18 2 16 3 17 4 15 5 14 6 1 7 2 8 3 9 4 10 13 11 12 12
REMARK SMILES IDX 5 14 6 15 7 16 11 17 8 18 10 19 9 20 20 21 21 22 22 23 23 24
REMARK SMILES IDX 24 25 25 26 86 27 26 28 85 29 27 30 28 31 29 32 79 33 30 34
REMARK SMILES IDX 84 35 78 36 80 37 31 38 83 39 77 40 76 41 32 43 64 44 44 45
REMARK SMILES IDX 63 46 45 47 48 48 62 49 81 50 46 51 47 52 61 54 82 55 49 56
REMARK SMILES IDX 33 57 34 58 42 59 35 60 36 61 40 62 43 63 37 64 38 65 41 66
REMARK SMILES IDX 39 67 65 68 66 69 74 70 67 71 68 72 72 73 75 74 69 75 70 76
REMARK SMILES IDX 73 77 71 78 50 79 51 80 59 81 52 82 53 83 57 84 60 85 54 86
REMARK SMILES IDX 55 87 58 88 56 89
REMARK H PARENT 4 13 80 42 48 53
REMARK Flexibility Score: inf
ROOT
ATOM      1  C   UNL A   1      31.537  29.791  25.389  1.00  0.00     0.274 C 
ENDROOT
BRANCH   1   2
ATOM      2  O   UNL A   1      32.187  28.683  26.052  1.00  0.00    -0.462 OA
BRANCH   2   3
ATOM      3  C   UNL A   1      31.402  27.818  26.742  1.00  0.00     0.306 C 
ATOM      4  O   UNL A   1      31.083  27.965  27.915  1.00  0.00    -0.252 OA
BRANCH   3   5
ATOM      5  C   UNL A   1      31.109  26.554  25.947  1.00  0.00     0.127 C 
BRANCH   5   6
ATOM      6  C   UNL A   1      31.514  25.108  26.371  1.00  0.00     0.014 C 
ATOM      7  C   UNL A   1      34.122  25.277  25.710  1.00  0.00     0.014 C 
ATOM      8  C   UNL A   1      33.004  24.649  26.534  1.00  0.00     0.045 C 
ATOM      9  C   UNL A   1      33.163  23.112  26.532  1.00  0.00     0.265 C 
ATOM     10  N   UNL A   1      32.393  22.400  25.525  1.00  0.00    -0.331 N 
ATOM     11  C   UNL A   1      30.526  24.063  25.772  1.00  0.00     0.066 C 
ATOM     12  C   UNL A   1      30.971  22.599  25.753  1.00  0.00     0.262 C 
ATOM     13  H   UNL A   1      32.543  21.401  25.666  1.00  0.00     0.348 HD
BRANCH  10  14
ATOM     14  C   UNL A   1      32.917  22.371  24.148  1.00  0.00     0.299 C 
BRANCH  14  15
ATOM     15  C   UNL A   1      34.393  22.064  24.003  1.00  0.00     0.006 A 
ATOM     16  C   UNL A   1      35.270  22.946  23.352  1.00  0.00     0.009 A 
ATOM     17  C   UNL A   1      34.939  20.985  24.687  1.00  0.00     0.009 A 
ATOM     18  C   UNL A   1      36.653  22.822  23.514  1.00  0.00     0.001 A 
ATOM     19  C   UNL A   1      36.300  20.942  24.948  1.00  0.00     0.001 A 
ATOM     20  C   UNL A   1      37.165  21.853  24.363  1.00  0.00     0.000 A 
ENDBRANCH  14  15
ENDBRANCH  10  14
ENDBRANCH   5   6
ENDBRANCH   3   5
ENDBRANCH   2   3
ENDBRANCH   1   2
BRANCH   1  21
ATOM     21  C   UNL A   1      31.735  31.120  26.134  1.00  0.00     0.275 C 
BRANCH  21  22
ATOM     22  O   UNL A   1      32.454  30.970  27.372  1.00  0.00    -0.458 OA
BRANCH  22  23
ATOM     23  C   UNL A   1      33.336  31.965  27.624  1.00  0.00     0.338 C 
ATOM     24  O   UNL A   1      33.109  33.168  27.600  1.00  0.00    -0.246 OA
BRANCH  23  25
ATOM     25  C   UNL A   1      34.682  31.415  27.847  1.00  0.00     0.060 A 
ATOM     26  C   UNL A   1      35.675  32.305  28.243  1.00  0.00     0.016 A 
ATOM     27  C   UNL A   1      34.959  30.046  27.759  1.00  0.00     0.016 A 
ATOM     28  C   UNL A   1      36.955  31.830  28.525  1.00  0.00     0.010 A 
ATOM     29  C   UNL A   1      36.212  29.560  28.175  1.00  0.00     0.010 A 
ATOM     30  C   UNL A   1      37.210  30.445  28.612  1.00  0.00    -0.014 A 
BRANCH  30  31
ATOM     31  C   UNL A   1      38.405  29.995  29.399  1.00  0.00     0.031 A 
ATOM     32  C   UNL A   1      39.483  29.095  28.862  1.00  0.00     0.074 A 
ATOM     33  C   UNL A   1      38.501  30.443  30.671  1.00  0.00     0.049 A 
ATOM     34  N   UNL A   1      40.521  28.592  29.493  1.00  0.00    -0.248 NA
ATOM     35  C   UNL A   1      39.397  28.697  27.451  1.00  0.00     0.031 C 
ATOM     36  C   UNL A   1      37.516  31.310  31.326  1.00  0.00     0.029 A 
ATOM     37  N   UNL A   1      39.472  30.284  31.628  1.00  0.00    -0.354 N 
ATOM     38  C   UNL A   1      41.190  27.795  28.574  1.00  0.00     0.074 A 
ATOM     39  C   UNL A   1      40.444  27.887  27.333  1.00  0.00     0.031 C 
ATOM     40  C   UNL A   1      37.991  31.715  32.505  1.00  0.00     0.029 A 
ATOM     41  C   UNL A   1      39.225  30.998  32.777  1.00  0.00     0.049 A 
ATOM     42  H   UNL A   1      40.266  29.716  31.504  1.00  0.00     0.167 HD
ATOM     43  C   UNL A   1      42.309  27.045  28.762  1.00  0.00     0.037 A 
ATOM     44  C   UNL A   1      39.868  31.038  33.957  1.00  0.00     0.037 A 
ATOM     45  C   UNL A   1      43.043  26.961  30.007  1.00  0.00     0.049 A 
ATOM     46  C   UNL A   1      41.058  30.157  34.152  1.00  0.00     0.074 A 
ATOM     47  C   UNL A   1      44.182  26.225  30.294  1.00  0.00     0.029 A 
ATOM     48  N   UNL A   1      42.707  27.632  31.177  1.00  0.00    -0.354 N 
ATOM     49  N   UNL A   1      41.648  29.370  33.288  1.00  0.00    -0.248 NA
ATOM     50  C   UNL A   1      41.645  30.136  35.496  1.00  0.00     0.031 C 
ATOM     51  C   UNL A   1      44.501  26.405  31.646  1.00  0.00     0.029 A 
ATOM     52  C   UNL A   1      43.598  27.303  32.191  1.00  0.00     0.049 A 
ATOM     53  H   UNL A   1      41.949  28.252  31.273  1.00  0.00     0.167 HD
ATOM     54  C   UNL A   1      42.674  28.751  33.981  1.00  0.00     0.074 A 
ATOM     55  C   UNL A   1      42.645  29.281  35.331  1.00  0.00     0.031 C 
ATOM     56  C   UNL A   1      43.551  27.819  33.537  1.00  0.00     0.037 A 
BRANCH  43  57
ATOM     57  C   UNL A   1      42.789  26.200  27.611  1.00  0.00     0.064 A 
ATOM     58  C   UNL A   1      42.264  24.925  27.349  1.00  0.00     0.173 A 
ATOM     59  C   UNL A   1      43.756  26.698  26.721  1.00  0.00     0.173 A 
ATOM     60  F   UNL A   1      41.336  24.397  28.161  1.00  0.00    -0.203 F 
ATOM     61  C   UNL A   1      42.712  24.171  26.264  1.00  0.00     0.198 A 
ATOM     62  C   UNL A   1      44.181  25.954  25.622  1.00  0.00     0.198 A 
ATOM     63  F   UNL A   1      44.281  27.919  26.909  1.00  0.00    -0.203 F 
ATOM     64  F   UNL A   1      42.228  22.937  26.062  1.00  0.00    -0.200 F 
ATOM     65  C   UNL A   1      43.666  24.687  25.400  1.00  0.00     0.200 A 
ATOM     66  F   UNL A   1      45.089  26.464  24.779  1.00  0.00    -0.200 F 
ATOM     67  F   UNL A   1      44.095  23.961  24.357  1.00  0.00    -0.200 F 
ENDBRANCH  43  57
BRANCH  44  68
ATOM     68  C   UNL A   1      39.337  31.898  35.047  1.00  0.00     0.064 A 
ATOM     69  C   UNL A   1      38.535  31.362  36.061  1.00  0.00     0.173 A 
ATOM     70  C   UNL A   1      39.687  33.256  35.140  1.00  0.00     0.173 A 
ATOM     71  F   UNL A   1      38.151  30.078  36.003  1.00  0.00    -0.203 F 
ATOM     72  C   UNL A   1      38.116  32.147  37.135  1.00  0.00     0.198 A 
ATOM     73  C   UNL A   1      39.305  34.026  36.234  1.00  0.00     0.198 A 
ATOM     74  F   UNL A   1      40.456  33.817  34.195  1.00  0.00    -0.203 F 
ATOM     75  F   UNL A   1      37.330  31.617  38.081  1.00  0.00    -0.200 F 
ATOM     76  C   UNL A   1      38.517  33.472  37.229  1.00  0.00     0.200 A 
ATOM     77  F   UNL A   1      39.721  35.296  36.333  1.00  0.00    -0.200 F 
ATOM     78  F   UNL A   1      38.144  34.214  38.281  1.00  0.00    -0.200 F 
ENDBRANCH  44  68
BRANCH  56  79
ATOM     79  C   UNL A   1      44.566  27.333  34.530  1.00  0.00     0.064 A 
ATOM     80  C   UNL A   1      44.336  26.195  35.319  1.00  0.00     0.173 A 
ATOM     81  C   UNL A   1      45.775  28.023  34.707  1.00  0.00     0.173 A 
ATOM     82  F   UNL A   1      43.185  25.517  35.206  1.00  0.00    -0.203 F 
ATOM     83  C   UNL A   1      45.266  25.786  36.271  1.00  0.00     0.198 A 
ATOM     84  C   UNL A   1      46.714  27.593  35.639  1.00  0.00     0.198 A 
ATOM     85  F   UNL A   1      46.041  29.118  33.980  1.00  0.00    -0.203 F 
ATOM     86  F   UNL A   1      44.999  24.732  37.056  1.00  0.00    -0.200 F 
ATOM     87  C   UNL A   1      46.456  26.481  36.427  1.00  0.00     0.200 A 
ATOM     88  F   UNL A   1      47.866  28.262  35.784  1.00  0.00    -0.200 F 
ATOM     89  F   UNL A   1      47.347  26.088  37.346  1.00  0.00    -0.200 F 
ENDBRANCH  56  79
ENDBRANCH  30  31
ENDBRANCH  23  25
ENDBRANCH  22  23
ENDBRANCH  21  22
ENDBRANCH   1  21
TORSDOF 14
ENDMDL
MODEL 3
REMARK VINA RESULT:     -11.9      4.784     10.030
REMARK SMILES C[C@@H]1C[N@H+](Cc2ccccc2)CC[C@@H]1CC(=O)OCCOC(=O)c1ccc(-c2c3nc(c(-c4c(F)c(F)c(F)c(F)c4F)c4ccc([nH]4)c(-c4c(F)c(F)c(F)c(F)c4F)c4nc(c(-c5c(F)c(F)c(F)c(F)c5F)c5ccc2[nH]5)C=C4)C=C3)cc1
REMARK SMILES IDX 19 1 18 2 16 3 17 4 15 5 14 6 1 7 2 8 3 9 4 10 13 11 12 12
REMARK SMILES IDX 5 14 6 15 7 16 11 17 8 18 10 19 9 20 20 21 21 22 22 23 23 24
REMARK SMILES IDX 24 25 25 26 86 27 26 28 85 29 27 30 28 31 29 32 79 33 30 34
REMARK SMILES IDX 84 35 78 36 80 37 31 38 83 39 77 40 76 41 32 43 64 44 44 45
REMARK SMILES IDX 63 46 45 47 48 48 62 49 81 50 46 51 47 52 61 54 82 55 49 56
REMARK SMILES IDX 33 57 34 58 42 59 35 60 36 61 40 62 43 63 37 64 38 65 41 66
REMARK SMILES IDX 39 67 65 68 66 69 74 70 67 71 68 72 72 73 75 74 69 75 70 76
REMARK SMILES IDX 73 77 71 78 50 79 51 80 59 81 52 82 53 83 57 84 60 85 54 86
REMARK SMILES IDX 55 87 58 88 56 89
REMARK H PARENT 4 13 80 42 48 53
REMARK Flexibility Score: inf
ROOT
ATOM      1  C   UNL A   1      36.305  19.871  25.001  1.00  0.00     0.274 C 
ENDROOT
BRANCH   1   2
ATOM      2  O   UNL A   1      35.650  21.104  24.624  1.00  0.00    -0.462 OA
BRANCH   2   3
ATOM      3  C   UNL A   1      34.314  21.195  24.838  1.00  0.00     0.306 C 
ATOM      4  O   UNL A   1      33.705  20.539  25.674  1.00  0.00    -0.252 OA
BRANCH   3   5
ATOM      5  C   UNL A   1      33.628  22.073  23.802  1.00  0.00     0.127 C 
BRANCH   5   6
ATOM      6  C   UNL A   1      33.915  23.590  23.574  1.00  0.00     0.014 C 
ATOM      7  C   UNL A   1      33.574  24.387  26.126  1.00  0.00     0.014 C 
ATOM      8  C   UNL A   1      34.186  24.595  24.746  1.00  0.00     0.045 C 
ATOM      9  C   UNL A   1      34.013  26.071  24.324  1.00  0.00     0.265 C 
ATOM     10  N   UNL A   1      32.848  26.361  23.504  1.00  0.00    -0.331 N 
ATOM     11  C   UNL A   1      33.086  24.130  22.371  1.00  0.00     0.066 C 
ATOM     12  C   UNL A   1      32.939  25.648  22.240  1.00  0.00     0.262 C 
ATOM     13  H   UNL A   1      32.881  27.348  23.251  1.00  0.00     0.348 HD
BRANCH  10  14
ATOM     14  C   UNL A   1      31.545  26.490  24.179  1.00  0.00     0.299 C 
BRANCH  14  15
ATOM     15  C   UNL A   1      31.451  27.559  25.248  1.00  0.00     0.006 A 
ATOM     16  C   UNL A   1      31.409  27.236  26.613  1.00  0.00     0.009 A 
ATOM     17  C   UNL A   1      31.602  28.895  24.896  1.00  0.00     0.009 A 
ATOM     18  C   UNL A   1      31.660  28.211  27.583  1.00  0.00     0.001 A 
ATOM     19  C   UNL A   1      31.974  29.829  25.852  1.00  0.00     0.001 A 
ATOM     20  C   UNL A   1      32.002  29.498  27.196  1.00  0.00     0.000 A 
ENDBRANCH  14  15
ENDBRANCH  10  14
ENDBRANCH   5   6
ENDBRANCH   3   5
ENDBRANCH   2   3
ENDBRANCH   1   2
BRANCH   1  21
ATOM     21  C   UNL A   1      37.837  19.976  24.940  1.00  0.00     0.275 C 
BRANCH  21  22
ATOM     22  O   UNL A   1      38.329  21.268  25.341  1.00  0.00    -0.458 OA
BRANCH  22  23
ATOM     23  C   UNL A   1      39.448  21.223  26.102  1.00  0.00     0.338 C 
ATOM     24  O   UNL A   1      40.160  20.246  26.298  1.00  0.00    -0.246 OA
BRANCH  23  25
ATOM     25  C   UNL A   1      39.666  22.514  26.772  1.00  0.00     0.060 A 
ATOM     26  C   UNL A   1      40.759  22.608  27.628  1.00  0.00     0.016 A 
ATOM     27  C   UNL A   1      38.880  23.640  26.509  1.00  0.00     0.016 A 
ATOM     28  C   UNL A   1      41.048  23.824  28.245  1.00  0.00     0.010 A 
ATOM     29  C   UNL A   1      39.259  24.893  27.027  1.00  0.00     0.010 A 
ATOM     30  C   UNL A   1      40.381  25.007  27.863  1.00  0.00    -0.014 A 
BRANCH  30  31
ATOM     31  C   UNL A   1      41.049  26.319  28.147  1.00  0.00     0.031 A 
ATOM     32  C   UNL A   1      40.431  27.426  28.955  1.00  0.00     0.074 A 
ATOM     33  C   UNL A   1      42.289  26.494  27.639  1.00  0.00     0.049 A 
ATOM     34  N   UNL A   1      40.906  28.629  29.195  1.00  0.00    -0.248 NA
ATOM     35  C   UNL A   1      39.121  27.173  29.569  1.00  0.00     0.031 C 
ATOM     36  C   UNL A   1      43.002  25.507  26.822  1.00  0.00     0.029 A 
ATOM     37  N   UNL A   1      43.192  27.521  27.758  1.00  0.00    -0.354 N 
ATOM     38  C   UNL A   1      39.945  29.286  29.953  1.00  0.00     0.074 A 
ATOM     39  C   UNL A   1      38.859  28.343  30.143  1.00  0.00     0.031 C 
ATOM     40  C   UNL A   1      44.260  25.907  26.634  1.00  0.00     0.029 A 
ATOM     41  C   UNL A   1      44.399  27.257  27.154  1.00  0.00     0.049 A 
ATOM     42  H   UNL A   1      42.995  28.363  28.228  1.00  0.00     0.167 HD
ATOM     43  C   UNL A   1      39.967  30.561  30.425  1.00  0.00     0.037 A 
ATOM     44  C   UNL A   1      45.489  28.021  26.967  1.00  0.00     0.037 A 
ATOM     45  C   UNL A   1      41.058  31.492  30.225  1.00  0.00     0.049 A 
ATOM     46  C   UNL A   1      45.458  29.437  27.443  1.00  0.00     0.074 A 
ATOM     47  C   UNL A   1      41.167  32.804  30.660  1.00  0.00     0.029 A 
ATOM     48  N   UNL A   1      42.228  31.213  29.529  1.00  0.00    -0.354 N 
ATOM     49  N   UNL A   1      44.520  30.057  28.113  1.00  0.00    -0.248 NA
ATOM     50  C   UNL A   1      46.615  30.269  27.099  1.00  0.00     0.031 C 
ATOM     51  C   UNL A   1      42.371  33.334  30.180  1.00  0.00     0.029 A 
ATOM     52  C   UNL A   1      43.046  32.336  29.497  1.00  0.00     0.049 A 
ATOM     53  H   UNL A   1      42.445  30.346  29.119  1.00  0.00     0.167 HD
ATOM     54  C   UNL A   1      44.967  31.359  28.269  1.00  0.00     0.074 A 
ATOM     55  C   UNL A   1      46.277  31.427  27.649  1.00  0.00     0.031 C 
ATOM     56  C   UNL A   1      44.339  32.402  28.863  1.00  0.00     0.037 A 
BRANCH  43  57
ATOM     57  C   UNL A   1      38.749  31.059  31.158  1.00  0.00     0.064 A 
ATOM     58  C   UNL A   1      38.638  30.996  32.555  1.00  0.00     0.173 A 
ATOM     59  C   UNL A   1      37.693  31.659  30.450  1.00  0.00     0.173 A 
ATOM     60  F   UNL A   1      39.615  30.436  33.285  1.00  0.00    -0.203 F 
ATOM     61  C   UNL A   1      37.507  31.482  33.210  1.00  0.00     0.198 A 
ATOM     62  C   UNL A   1      36.577  32.170  31.110  1.00  0.00     0.198 A 
ATOM     63  F   UNL A   1      37.750  31.766  29.114  1.00  0.00    -0.203 F 
ATOM     64  F   UNL A   1      37.405  31.369  34.542  1.00  0.00    -0.200 F 
ATOM     65  C   UNL A   1      36.480  32.072  32.489  1.00  0.00     0.200 A 
ATOM     66  F   UNL A   1      35.596  32.757  30.410  1.00  0.00    -0.200 F 
ATOM     67  F   UNL A   1      35.394  32.541  33.121  1.00  0.00    -0.200 F 
ENDBRANCH  43  57
BRANCH  44  68
ATOM     68  C   UNL A   1      46.655  27.461  26.234  1.00  0.00     0.064 A 
ATOM     69  C   UNL A   1      46.781  27.623  24.850  1.00  0.00     0.173 A 
ATOM     70  C   UNL A   1      47.705  26.824  26.916  1.00  0.00     0.173 A 
ATOM     71  F   UNL A   1      45.793  28.200  24.150  1.00  0.00    -0.203 F 
ATOM     72  C   UNL A   1      47.919  27.182  24.177  1.00  0.00     0.198 A 
ATOM     73  C   UNL A   1      48.859  26.424  26.250  1.00  0.00     0.198 A 
ATOM     74  F   UNL A   1      47.634  26.646  28.244  1.00  0.00    -0.203 F 
ATOM     75  F   UNL A   1      48.007  27.327  22.848  1.00  0.00    -0.200 F 
ATOM     76  C   UNL A   1      48.965  26.601  24.880  1.00  0.00     0.200 A 
ATOM     77  F   UNL A   1      49.876  25.890  26.941  1.00  0.00    -0.200 F 
ATOM     78  F   UNL A   1      50.074  26.211  24.238  1.00  0.00    -0.200 F 
ENDBRANCH  44  68
BRANCH  56  79
ATOM     79  C   UNL A   1      45.085  33.704  28.882  1.00  0.00     0.064 A 
ATOM     80  C   UNL A   1      44.917  34.663  27.871  1.00  0.00     0.173 A 
ATOM     81  C   UNL A   1      45.990  33.990  29.915  1.00  0.00     0.173 A 
ATOM     82  F   UNL A   1      44.083  34.426  26.847  1.00  0.00    -0.203 F 
ATOM     83  C   UNL A   1      45.652  35.845  27.877  1.00  0.00     0.198 A 
ATOM     84  C   UNL A   1      46.702  35.185  29.932  1.00  0.00     0.198 A 
ATOM     85  F   UNL A   1      46.189  33.105  30.903  1.00  0.00    -0.203 F 
ATOM     86  F   UNL A   1      45.521  36.719  26.868  1.00  0.00    -0.200 F 
ATOM     87  C   UNL A   1      46.540  36.107  28.909  1.00  0.00     0.200 A 
ATOM     88  F   UNL A   1      47.554  35.440  30.934  1.00  0.00    -0.200 F 
ATOM     89  F   UNL A   1      47.251  37.243  28.911  1.00  0.00    -0.200 F 
ENDBRANCH  56  79
ENDBRANCH  30  31
ENDBRANCH  23  25
ENDBRANCH  22  23
ENDBRANCH  21  22
ENDBRANCH   1  21
TORSDOF 14
ENDMDL
