MODEL 1
REMARK VINA RESULT:     -11.2      0.000      0.000
REMARK SMILES CCOc1cc(CO)cc(Br)c1OCC(C)(C)C(=O)OCCOC(=O)c1ccc(-c2c3nc(c(-c4c(F)c(F)c(F)c(F)c4F)c4ccc([nH]4)c(-c4c(F)c(F)c(F)c(F)c4F)c4nc(c(-c5c(F)c(F)c(F)c(F)c5F)c5ccc2[nH]5)C=C4)C=C3)cc1
REMARK SMILES IDX 20 1 18 2 19 3 15 4 16 5 17 6 14 7 13 8 12 9 4 10 5 11 6 12
REMARK SMILES IDX 10 13 9 14 11 15 3 16 2 17 1 18 7 19 8 20 21 22 22 23 23 24
REMARK SMILES IDX 24 25 25 26 26 27 27 28 88 29 28 30 87 31 29 32 30 33 31 34
REMARK SMILES IDX 81 35 32 36 86 37 80 38 82 39 33 40 85 41 79 42 78 43 34 45
REMARK SMILES IDX 66 46 46 47 65 48 47 49 50 50 64 51 83 52 48 53 49 54 63 56
REMARK SMILES IDX 84 57 51 58 35 59 36 60 44 61 37 62 38 63 42 64 45 65 39 66
REMARK SMILES IDX 40 67 43 68 41 69 67 70 68 71 76 72 69 73 70 74 74 75 77 76
REMARK SMILES IDX 71 77 72 78 75 79 73 80 52 81 53 82 61 83 54 84 55 85 59 86
REMARK SMILES IDX 62 87 56 88 57 89 60 90 58 91
REMARK H PARENT 8 21 82 44 50 55
REMARK Flexibility Score: inf
ROOT
ATOM      1  O   UNL A   1      31.477  28.219  25.494  1.00  0.00    -0.462 OA
ENDROOT
BRANCH   1   2
ATOM      2  C   UNL A   1      31.677  27.114  24.719  1.00  0.00     0.315 C 
ATOM      3  O   UNL A   1      30.769  26.467  24.214  1.00  0.00    -0.251 OA
BRANCH   2   4
ATOM      4  C   UNL A   1      33.158  26.719  24.667  1.00  0.00     0.096 C 
ATOM      5  C   UNL A   1      33.761  27.163  26.004  1.00  0.00     0.027 C 
ATOM      6  C   UNL A   1      33.898  27.480  23.538  1.00  0.00     0.027 C 
BRANCH   4   7
ATOM      7  C   UNL A   1      33.356  25.208  24.347  1.00  0.00     0.248 C 
BRANCH   7   8
ATOM      8  O   UNL A   1      33.622  24.254  25.379  1.00  0.00    -0.487 OA
BRANCH   8   9
ATOM      9  C   UNL A   1      33.469  22.914  25.153  1.00  0.00     0.175 A 
ATOM     10  C   UNL A   1      32.165  22.418  25.382  1.00  0.00     0.162 A 
ATOM     11  C   UNL A   1      31.925  21.042  25.354  1.00  0.00     0.056 A 
ATOM     12  C   UNL A   1      32.954  20.139  25.064  1.00  0.00    -0.018 A 
ATOM     13  C   UNL A   1      34.448  22.026  24.693  1.00  0.00     0.064 A 
ATOM     14  C   UNL A   1      34.199  20.645  24.683  1.00  0.00     0.026 A 
ATOM     15  Br  UNL A   1      36.100  22.557  23.914  1.00  0.00    -0.047 Br
BRANCH  10  16
ATOM     16  O   UNL A   1      31.163  23.349  25.514  1.00  0.00    -0.490 OA
BRANCH  16  17
ATOM     17  C   UNL A   1      30.679  23.647  26.823  1.00  0.00     0.226 C 
ATOM     18  C   UNL A   1      29.397  22.896  27.155  1.00  0.00     0.049 C 
ENDBRANCH  16  17
ENDBRANCH  10  16
BRANCH  12  19
ATOM     19  C   UNL A   1      32.694  18.656  25.060  1.00  0.00     0.191 C 
BRANCH  19  20
ATOM     20  O   UNL A   1      32.944  18.092  26.342  1.00  0.00    -0.392 OA
ATOM     21  H   UNL A   1      32.105  17.982  26.817  1.00  0.00     0.211 HD
ENDBRANCH  19  20
ENDBRANCH  12  19
ENDBRANCH   8   9
ENDBRANCH   7   8
ENDBRANCH   4   7
ENDBRANCH   2   4
ENDBRANCH   1   2
BRANCH   1  22
ATOM     22  C   UNL A   1      31.207  29.463  24.816  1.00  0.00     0.274 C 
BRANCH  22  23
ATOM     23  C   UNL A   1      31.458  30.640  25.752  1.00  0.00     0.275 C 
BRANCH  23  24
ATOM     24  O   UNL A   1      32.785  30.536  26.294  1.00  0.00    -0.458 OA
BRANCH  24  25
ATOM     25  C   UNL A   1      33.197  31.581  27.045  1.00  0.00     0.338 C 
ATOM     26  O   UNL A   1      32.611  32.626  27.265  1.00  0.00    -0.246 OA
BRANCH  25  27
ATOM     27  C   UNL A   1      34.508  31.262  27.623  1.00  0.00     0.060 A 
ATOM     28  C   UNL A   1      34.799  29.941  27.959  1.00  0.00     0.016 A 
ATOM     29  C   UNL A   1      35.398  32.284  27.941  1.00  0.00     0.016 A 
ATOM     30  C   UNL A   1      35.941  29.643  28.695  1.00  0.00     0.010 A 
ATOM     31  C   UNL A   1      36.594  31.969  28.595  1.00  0.00     0.010 A 
ATOM     32  C   UNL A   1      36.863  30.650  29.009  1.00  0.00    -0.014 A 
BRANCH  32  33
ATOM     33  C   UNL A   1      38.085  30.343  29.800  1.00  0.00     0.031 A 
ATOM     34  C   UNL A   1      39.168  29.484  29.206  1.00  0.00     0.074 A 
ATOM     35  C   UNL A   1      38.233  30.826  31.049  1.00  0.00     0.049 A 
ATOM     36  N   UNL A   1      40.193  28.916  29.790  1.00  0.00    -0.248 NA
ATOM     37  C   UNL A   1      39.079  29.218  27.761  1.00  0.00     0.031 C 
ATOM     38  C   UNL A   1      37.300  31.723  31.731  1.00  0.00     0.029 A 
ATOM     39  N   UNL A   1      39.234  30.630  31.968  1.00  0.00    -0.354 N 
ATOM     40  C   UNL A   1      40.828  28.174  28.802  1.00  0.00     0.074 A 
ATOM     41  C   UNL A   1      40.082  28.371  27.578  1.00  0.00     0.031 C 
ATOM     42  C   UNL A   1      37.788  32.029  32.942  1.00  0.00     0.029 A 
ATOM     43  C   UNL A   1      39.021  31.280  33.158  1.00  0.00     0.049 A 
ATOM     44  H   UNL A   1      40.028  30.076  31.790  1.00  0.00     0.167 HD
ATOM     45  C   UNL A   1      41.931  27.395  28.913  1.00  0.00     0.037 A 
ATOM     46  C   UNL A   1      39.716  31.245  34.311  1.00  0.00     0.037 A 
ATOM     47  C   UNL A   1      42.713  27.260  30.113  1.00  0.00     0.049 A 
ATOM     48  C   UNL A   1      40.923  30.357  34.416  1.00  0.00     0.074 A 
ATOM     49  C   UNL A   1      43.860  26.511  30.319  1.00  0.00     0.029 A 
ATOM     50  N   UNL A   1      42.440  27.910  31.307  1.00  0.00    -0.354 N 
ATOM     51  N   UNL A   1      41.470  29.593  33.503  1.00  0.00    -0.248 NA
ATOM     52  C   UNL A   1      41.590  30.302  35.725  1.00  0.00     0.031 C 
ATOM     53  C   UNL A   1      44.268  26.690  31.646  1.00  0.00     0.029 A 
ATOM     54  C   UNL A   1      43.393  27.573  32.257  1.00  0.00     0.049 A 
ATOM     55  H   UNL A   1      41.684  28.521  31.459  1.00  0.00     0.167 HD
ATOM     56  C   UNL A   1      42.546  28.973  34.121  1.00  0.00     0.074 A 
ATOM     57  C   UNL A   1      42.587  29.463  35.483  1.00  0.00     0.031 C 
ATOM     58  C   UNL A   1      43.416  28.071  33.606  1.00  0.00     0.037 A 
BRANCH  45  59
ATOM     59  C   UNL A   1      42.337  26.593  27.714  1.00  0.00     0.064 A 
ATOM     60  C   UNL A   1      43.318  27.038  26.818  1.00  0.00     0.173 A 
ATOM     61  C   UNL A   1      41.755  25.335  27.483  1.00  0.00     0.173 A 
ATOM     62  F   UNL A   1      43.892  28.238  26.989  1.00  0.00    -0.203 F 
ATOM     63  C   UNL A   1      43.690  26.262  25.723  1.00  0.00     0.198 A 
ATOM     64  C   UNL A   1      42.146  24.553  26.401  1.00  0.00     0.198 A 
ATOM     65  F   UNL A   1      40.813  24.864  28.314  1.00  0.00    -0.203 F 
ATOM     66  F   UNL A   1      44.604  26.721  24.858  1.00  0.00    -0.200 F 
ATOM     67  C   UNL A   1      43.109  25.019  25.518  1.00  0.00     0.200 A 
ATOM     68  F   UNL A   1      41.589  23.349  26.210  1.00  0.00    -0.200 F 
ATOM     69  F   UNL A   1      43.473  24.271  24.467  1.00  0.00    -0.200 F 
ENDBRANCH  45  59
BRANCH  46  70
ATOM     70  C   UNL A   1      39.258  32.051  35.471  1.00  0.00     0.064 A 
ATOM     71  C   UNL A   1      39.631  33.394  35.604  1.00  0.00     0.173 A 
ATOM     72  C   UNL A   1      38.429  31.499  36.459  1.00  0.00     0.173 A 
ATOM     73  F   UNL A   1      40.446  33.955  34.699  1.00  0.00    -0.203 F 
ATOM     74  C   UNL A   1      39.194  34.157  36.684  1.00  0.00     0.198 A 
ATOM     75  C   UNL A   1      37.971  32.269  37.525  1.00  0.00     0.198 A 
ATOM     76  F   UNL A   1      38.049  30.216  36.379  1.00  0.00    -0.203 F 
ATOM     77  F   UNL A   1      39.592  35.430  36.808  1.00  0.00    -0.200 F 
ATOM     78  C   UNL A   1      38.358  33.596  37.640  1.00  0.00     0.200 A 
ATOM     79  F   UNL A   1      37.155  31.727  38.439  1.00  0.00    -0.200 F 
ATOM     80  F   UNL A   1      37.930  34.332  38.674  1.00  0.00    -0.200 F 
ENDBRANCH  46  70
BRANCH  58  81
ATOM     81  C   UNL A   1      44.496  27.573  34.517  1.00  0.00     0.064 A 
ATOM     82  C   UNL A   1      44.374  26.349  35.190  1.00  0.00     0.173 A 
ATOM     83  C   UNL A   1      45.676  28.310  34.693  1.00  0.00     0.173 A 
ATOM     84  F   UNL A   1      43.255  25.619  35.065  1.00  0.00    -0.203 F 
ATOM     85  C   UNL A   1      45.389  25.889  36.023  1.00  0.00     0.198 A 
ATOM     86  C   UNL A   1      46.697  27.837  35.511  1.00  0.00     0.198 A 
ATOM     87  F   UNL A   1      45.838  29.485  34.067  1.00  0.00    -0.203 F 
ATOM     88  F   UNL A   1      45.238  24.735  36.686  1.00  0.00    -0.200 F 
ATOM     89  C   UNL A   1      46.552  26.630  36.178  1.00  0.00     0.200 A 
ATOM     90  F   UNL A   1      47.823  28.551  35.655  1.00  0.00    -0.200 F 
ATOM     91  F   UNL A   1      47.530  26.185  36.979  1.00  0.00    -0.200 F 
ENDBRANCH  58  81
ENDBRANCH  32  33
ENDBRANCH  25  27
ENDBRANCH  24  25
ENDBRANCH  23  24
ENDBRANCH  22  23
ENDBRANCH   1  22
TORSDOF 18
ENDMDL
MODEL 2
REMARK VINA RESULT:     -11.0      4.219      9.838
REMARK SMILES CCOc1cc(CO)cc(Br)c1OCC(C)(C)C(=O)OCCOC(=O)c1ccc(-c2c3nc(c(-c4c(F)c(F)c(F)c(F)c4F)c4ccc([nH]4)c(-c4c(F)c(F)c(F)c(F)c4F)c4nc(c(-c5c(F)c(F)c(F)c(F)c5F)c5ccc2[nH]5)C=C4)C=C3)cc1
REMARK SMILES IDX 20 1 18 2 19 3 15 4 16 5 17 6 14 7 13 8 12 9 4 10 5 11 6 12
REMARK SMILES IDX 10 13 9 14 11 15 3 16 2 17 1 18 7 19 8 20 21 22 22 23 23 24
REMARK SMILES IDX 24 25 25 26 26 27 27 28 88 29 28 30 87 31 29 32 30 33 31 34
REMARK SMILES IDX 81 35 32 36 86 37 80 38 82 39 33 40 85 41 79 42 78 43 34 45
REMARK SMILES IDX 66 46 46 47 65 48 47 49 50 50 64 51 83 52 48 53 49 54 63 56
REMARK SMILES IDX 84 57 51 58 35 59 36 60 44 61 37 62 38 63 42 64 45 65 39 66
REMARK SMILES IDX 40 67 43 68 41 69 67 70 68 71 76 72 69 73 70 74 74 75 77 76
REMARK SMILES IDX 71 77 72 78 75 79 73 80 52 81 53 82 61 83 54 84 55 85 59 86
REMARK SMILES IDX 62 87 56 88 57 89 60 90 58 91
REMARK H PARENT 8 21 82 44 50 55
REMARK Flexibility Score: inf
ROOT
ATOM      1  O   UNL A   1      34.552  21.514  25.706  1.00  0.00    -0.462 OA
ENDROOT
BRANCH   1   2
ATOM      2  C   UNL A   1      33.644  22.245  24.997  1.00  0.00     0.315 C 
ATOM      3  O   UNL A   1      33.212  21.912  23.902  1.00  0.00    -0.251 OA
BRANCH   2   4
ATOM      4  C   UNL A   1      33.335  23.582  25.683  1.00  0.00     0.096 C 
ATOM      5  C   UNL A   1      34.670  24.092  26.236  1.00  0.00     0.027 C 
ATOM      6  C   UNL A   1      32.371  23.385  26.880  1.00  0.00     0.027 C 
BRANCH   4   7
ATOM      7  C   UNL A   1      32.615  24.582  24.731  1.00  0.00     0.248 C 
BRANCH   7   8
ATOM      8  O   UNL A   1      33.066  25.931  24.582  1.00  0.00    -0.487 OA
BRANCH   8   9
ATOM      9  C   UNL A   1      32.285  26.869  23.967  1.00  0.00     0.175 A 
ATOM     10  C   UNL A   1      31.947  27.981  24.770  1.00  0.00     0.162 A 
ATOM     11  C   UNL A   1      31.016  28.918  24.314  1.00  0.00     0.056 A 
ATOM     12  C   UNL A   1      30.434  28.793  23.048  1.00  0.00    -0.018 A 
ATOM     13  C   UNL A   1      31.838  26.845  22.640  1.00  0.00     0.064 A 
ATOM     14  C   UNL A   1      30.892  27.783  22.199  1.00  0.00     0.026 A 
ATOM     15  Br  UNL A   1      32.533  25.698  21.292  1.00  0.00    -0.047 Br
BRANCH  10  16
ATOM     16  O   UNL A   1      32.654  28.139  25.938  1.00  0.00    -0.490 OA
BRANCH  16  17
ATOM     17  C   UNL A   1      33.562  29.235  26.042  1.00  0.00     0.226 C 
ATOM     18  C   UNL A   1      34.704  28.954  27.010  1.00  0.00     0.049 C 
ENDBRANCH  16  17
ENDBRANCH  10  16
BRANCH  12  19
ATOM     19  C   UNL A   1      29.413  29.792  22.572  1.00  0.00     0.191 C 
BRANCH  19  20
ATOM     20  O   UNL A   1      29.706  30.229  21.250  1.00  0.00    -0.392 OA
ATOM     21  H   UNL A   1      29.229  31.054  21.069  1.00  0.00     0.211 HD
ENDBRANCH  19  20
ENDBRANCH  12  19
ENDBRANCH   8   9
ENDBRANCH   7   8
ENDBRANCH   4   7
ENDBRANCH   2   4
ENDBRANCH   1   2
BRANCH   1  22
ATOM     22  C   UNL A   1      35.279  20.492  24.994  1.00  0.00     0.274 C 
BRANCH  22  23
ATOM     23  C   UNL A   1      36.668  20.996  24.619  1.00  0.00     0.275 C 
BRANCH  23  24
ATOM     24  O   UNL A   1      37.271  21.614  25.767  1.00  0.00    -0.458 OA
BRANCH  24  25
ATOM     25  C   UNL A   1      38.590  21.373  25.940  1.00  0.00     0.338 C 
ATOM     26  O   UNL A   1      39.211  20.362  25.669  1.00  0.00    -0.246 OA
BRANCH  25  27
ATOM     27  C   UNL A   1      39.221  22.574  26.501  1.00  0.00     0.060 A 
ATOM     28  C   UNL A   1      38.714  23.828  26.167  1.00  0.00     0.016 A 
ATOM     29  C   UNL A   1      40.384  22.462  27.258  1.00  0.00     0.016 A 
ATOM     30  C   UNL A   1      39.413  24.980  26.511  1.00  0.00     0.010 A 
ATOM     31  C   UNL A   1      41.033  23.623  27.688  1.00  0.00     0.010 A 
ATOM     32  C   UNL A   1      40.574  24.894  27.291  1.00  0.00    -0.014 A 
BRANCH  32  33
ATOM     33  C   UNL A   1      41.333  26.119  27.662  1.00  0.00     0.031 A 
ATOM     34  C   UNL A   1      40.681  27.182  28.503  1.00  0.00     0.074 A 
ATOM     35  C   UNL A   1      42.604  26.290  27.248  1.00  0.00     0.049 A 
ATOM     36  N   UNL A   1      41.073  28.407  28.748  1.00  0.00    -0.248 NA
ATOM     37  C   UNL A   1      39.406  26.822  29.146  1.00  0.00     0.031 C 
ATOM     38  C   UNL A   1      43.388  25.319  26.484  1.00  0.00     0.029 A 
ATOM     39  N   UNL A   1      43.464  27.347  27.420  1.00  0.00    -0.354 N 
ATOM     40  C   UNL A   1      40.066  28.982  29.513  1.00  0.00     0.074 A 
ATOM     41  C   UNL A   1      39.049  27.971  29.703  1.00  0.00     0.031 C 
ATOM     42  C   UNL A   1      44.622  25.807  26.285  1.00  0.00     0.029 A 
ATOM     43  C   UNL A   1      44.688  27.160  26.828  1.00  0.00     0.049 A 
ATOM     44  H   UNL A   1      43.225  28.160  27.920  1.00  0.00     0.167 HD
ATOM     45  C   UNL A   1      39.999  30.242  30.004  1.00  0.00     0.037 A 
ATOM     46  C   UNL A   1      45.733  27.999  26.696  1.00  0.00     0.037 A 
ATOM     47  C   UNL A   1      41.045  31.222  29.877  1.00  0.00     0.049 A 
ATOM     48  C   UNL A   1      45.626  29.398  27.231  1.00  0.00     0.074 A 
ATOM     49  C   UNL A   1      41.080  32.519  30.360  1.00  0.00     0.029 A 
ATOM     50  N   UNL A   1      42.256  31.001  29.237  1.00  0.00    -0.354 N 
ATOM     51  N   UNL A   1      44.638  29.962  27.881  1.00  0.00    -0.248 NA
ATOM     52  C   UNL A   1      46.770  30.288  26.984  1.00  0.00     0.031 C 
ATOM     53  C   UNL A   1      42.303  33.091  29.992  1.00  0.00     0.029 A 
ATOM     54  C   UNL A   1      43.041  32.141  29.305  1.00  0.00     0.049 A 
ATOM     55  H   UNL A   1      42.519  30.159  28.800  1.00  0.00     0.167 HD
ATOM     56  C   UNL A   1      45.040  31.266  28.126  1.00  0.00     0.074 A 
ATOM     57  C   UNL A   1      46.371  31.407  27.572  1.00  0.00     0.031 C 
ATOM     58  C   UNL A   1      44.362  32.261  28.748  1.00  0.00     0.037 A 
BRANCH  45  59
ATOM     59  C   UNL A   1      38.732  30.651  30.694  1.00  0.00     0.064 A 
ATOM     60  C   UNL A   1      38.601  30.621  32.088  1.00  0.00     0.173 A 
ATOM     61  C   UNL A   1      37.643  31.117  29.939  1.00  0.00     0.173 A 
ATOM     62  F   UNL A   1      39.608  30.170  32.851  1.00  0.00    -0.203 F 
ATOM     63  C   UNL A   1      37.418  31.026  32.704  1.00  0.00     0.198 A 
ATOM     64  C   UNL A   1      36.472  31.542  30.558  1.00  0.00     0.198 A 
ATOM     65  F   UNL A   1      37.721  31.167  28.601  1.00  0.00    -0.203 F 
ATOM     66  F   UNL A   1      37.300  30.956  34.036  1.00  0.00    -0.200 F 
ATOM     67  C   UNL A   1      36.358  31.491  31.939  1.00  0.00     0.200 A 
ATOM     68  F   UNL A   1      35.452  31.999  29.818  1.00  0.00    -0.200 F 
ATOM     69  F   UNL A   1      35.223  31.886  32.533  1.00  0.00    -0.200 F 
ENDBRANCH  45  59
BRANCH  46  70
ATOM     70  C   UNL A   1      46.958  27.543  25.990  1.00  0.00     0.064 A 
ATOM     71  C   UNL A   1      47.081  27.686  24.602  1.00  0.00     0.173 A 
ATOM     72  C   UNL A   1      48.030  26.970  26.689  1.00  0.00     0.173 A 
ATOM     73  F   UNL A   1      46.068  28.202  23.890  1.00  0.00    -0.203 F 
ATOM     74  C   UNL A   1      48.232  27.271  23.937  1.00  0.00     0.198 A 
ATOM     75  C   UNL A   1      49.191  26.578  26.026  1.00  0.00     0.198 A 
ATOM     76  F   UNL A   1      47.958  26.806  28.017  1.00  0.00    -0.203 F 
ATOM     77  F   UNL A   1      48.313  27.386  22.605  1.00  0.00    -0.200 F 
ATOM     78  C   UNL A   1      49.290  26.725  24.651  1.00  0.00     0.200 A 
ATOM     79  F   UNL A   1      50.215  26.062  26.720  1.00  0.00    -0.200 F 
ATOM     80  F   UNL A   1      50.401  26.333  24.012  1.00  0.00    -0.200 F 
ENDBRANCH  46  70
BRANCH  58  81
ATOM     81  C   UNL A   1      45.058  33.581  28.877  1.00  0.00     0.064 A 
ATOM     82  C   UNL A   1      45.932  33.843  29.942  1.00  0.00     0.173 A 
ATOM     83  C   UNL A   1      44.874  34.581  27.911  1.00  0.00     0.173 A 
ATOM     84  F   UNL A   1      46.124  32.922  30.899  1.00  0.00    -0.203 F 
ATOM     85  C   UNL A   1      46.583  35.068  30.045  1.00  0.00     0.198 A 
ATOM     86  C   UNL A   1      45.543  35.797  28.007  1.00  0.00     0.198 A 
ATOM     87  F   UNL A   1      44.050  34.373  26.874  1.00  0.00    -0.203 F 
ATOM     88  F   UNL A   1      47.386  35.312  31.090  1.00  0.00    -0.200 F 
ATOM     89  C   UNL A   1      46.393  36.041  29.074  1.00  0.00     0.200 A 
ATOM     90  F   UNL A   1      45.363  36.734  27.065  1.00  0.00    -0.200 F 
ATOM     91  F   UNL A   1      47.023  37.220  29.174  1.00  0.00    -0.200 F 
ENDBRANCH  58  81
ENDBRANCH  32  33
ENDBRANCH  25  27
ENDBRANCH  24  25
ENDBRANCH  23  24
ENDBRANCH  22  23
ENDBRANCH   1  22
TORSDOF 18
ENDMDL
MODEL 3
REMARK VINA RESULT:     -10.6      1.073      7.515
REMARK SMILES CCOc1cc(CO)cc(Br)c1OCC(C)(C)C(=O)OCCOC(=O)c1ccc(-c2c3nc(c(-c4c(F)c(F)c(F)c(F)c4F)c4ccc([nH]4)c(-c4c(F)c(F)c(F)c(F)c4F)c4nc(c(-c5c(F)c(F)c(F)c(F)c5F)c5ccc2[nH]5)C=C4)C=C3)cc1
REMARK SMILES IDX 20 1 18 2 19 3 15 4 16 5 17 6 14 7 13 8 12 9 4 10 5 11 6 12
REMARK SMILES IDX 10 13 9 14 11 15 3 16 2 17 1 18 7 19 8 20 21 22 22 23 23 24
REMARK SMILES IDX 24 25 25 26 26 27 27 28 88 29 28 30 87 31 29 32 30 33 31 34
REMARK SMILES IDX 81 35 32 36 86 37 80 38 82 39 33 40 85 41 79 42 78 43 34 45
REMARK SMILES IDX 66 46 46 47 65 48 47 49 50 50 64 51 83 52 48 53 49 54 63 56
REMARK SMILES IDX 84 57 51 58 35 59 36 60 44 61 37 62 38 63 42 64 45 65 39 66
REMARK SMILES IDX 40 67 43 68 41 69 67 70 68 71 76 72 69 73 70 74 74 75 77 76
REMARK SMILES IDX 71 77 72 78 75 79 73 80 52 81 53 82 61 83 54 84 55 85 59 86
REMARK SMILES IDX 62 87 56 88 57 89 60 90 58 91
REMARK H PARENT 8 21 82 44 50 55
REMARK Flexibility Score: inf
ROOT
ATOM      1  O   UNL A   1      31.702  28.338  25.453  1.00  0.00    -0.462 OA
ENDROOT
BRANCH   1   2
ATOM      2  C   UNL A   1      31.705  27.315  24.550  1.00  0.00     0.315 C 
ATOM      3  O   UNL A   1      30.691  26.751  24.162  1.00  0.00    -0.251 OA
BRANCH   2   4
ATOM      4  C   UNL A   1      33.131  26.886  24.186  1.00  0.00     0.096 C 
ATOM      5  C   UNL A   1      34.017  27.323  25.358  1.00  0.00     0.027 C 
ATOM      6  C   UNL A   1      33.628  27.623  22.917  1.00  0.00     0.027 C 
BRANCH   4   7
ATOM      7  C   UNL A   1      33.223  25.369  23.848  1.00  0.00     0.248 C 
BRANCH   7   8
ATOM      8  O   UNL A   1      34.109  24.497  24.555  1.00  0.00    -0.487 OA
BRANCH   8   9
ATOM      9  C   UNL A   1      33.738  23.217  24.864  1.00  0.00     0.175 A 
ATOM     10  C   UNL A   1      34.641  22.218  24.438  1.00  0.00     0.162 A 
ATOM     11  C   UNL A   1      34.292  20.869  24.540  1.00  0.00     0.056 A 
ATOM     12  C   UNL A   1      33.066  20.485  25.096  1.00  0.00    -0.018 A 
ATOM     13  C   UNL A   1      32.598  22.826  25.576  1.00  0.00     0.064 A 
ATOM     14  C   UNL A   1      32.251  21.470  25.659  1.00  0.00     0.026 A 
ATOM     15  Br  UNL A   1      31.515  24.006  26.602  1.00  0.00    -0.047 Br
BRANCH  10  16
ATOM     16  O   UNL A   1      35.887  22.637  24.039  1.00  0.00    -0.490 OA
BRANCH  16  17
ATOM     17  C   UNL A   1      37.007  22.333  24.870  1.00  0.00     0.226 C 
ATOM     18  C   UNL A   1      37.221  23.373  25.962  1.00  0.00     0.049 C 
ENDBRANCH  16  17
ENDBRANCH  10  16
BRANCH  12  19
ATOM     19  C   UNL A   1      32.684  19.031  25.180  1.00  0.00     0.191 C 
BRANCH  19  20
ATOM     20  O   UNL A   1      32.892  18.525  26.494  1.00  0.00    -0.392 OA
ATOM     21  H   UNL A   1      32.794  17.560  26.488  1.00  0.00     0.211 HD
ENDBRANCH  19  20
ENDBRANCH  12  19
ENDBRANCH   8   9
ENDBRANCH   7   8
ENDBRANCH   4   7
ENDBRANCH   2   4
ENDBRANCH   1   2
BRANCH   1  22
ATOM     22  C   UNL A   1      31.233  29.623  24.995  1.00  0.00     0.274 C 
BRANCH  22  23
ATOM     23  C   UNL A   1      31.564  30.702  26.021  1.00  0.00     0.275 C 
BRANCH  23  24
ATOM     24  O   UNL A   1      32.987  30.752  26.211  1.00  0.00    -0.458 OA
BRANCH  24  25
ATOM     25  C   UNL A   1      33.427  31.634  27.135  1.00  0.00     0.338 C 
ATOM     26  O   UNL A   1      32.895  32.666  27.502  1.00  0.00    -0.246 OA
BRANCH  25  27
ATOM     27  C   UNL A   1      34.690  31.141  27.698  1.00  0.00     0.060 A 
ATOM     28  C   UNL A   1      34.823  29.784  27.984  1.00  0.00     0.016 A 
ATOM     29  C   UNL A   1      35.693  32.038  28.051  1.00  0.00     0.016 A 
ATOM     30  C   UNL A   1      35.919  29.325  28.706  1.00  0.00     0.010 A 
ATOM     31  C   UNL A   1      36.842  31.561  28.690  1.00  0.00     0.010 A 
ATOM     32  C   UNL A   1      36.953  30.205  29.054  1.00  0.00    -0.014 A 
BRANCH  32  33
ATOM     33  C   UNL A   1      38.129  29.726  29.830  1.00  0.00     0.031 A 
ATOM     34  C   UNL A   1      38.353  30.216  31.234  1.00  0.00     0.074 A 
ATOM     35  C   UNL A   1      39.001  28.856  29.285  1.00  0.00     0.049 A 
ATOM     36  N   UNL A   1      39.413  30.107  31.995  1.00  0.00    -0.248 NA
ATOM     37  C   UNL A   1      37.236  30.939  31.866  1.00  0.00     0.031 C 
ATOM     38  C   UNL A   1      38.880  28.244  27.962  1.00  0.00     0.029 A 
ATOM     39  N   UNL A   1      40.167  28.330  29.786  1.00  0.00    -0.354 N 
ATOM     40  C   UNL A   1      39.117  30.802  33.160  1.00  0.00     0.074 A 
ATOM     41  C   UNL A   1      37.774  31.320  33.015  1.00  0.00     0.031 C 
ATOM     42  C   UNL A   1      39.905  27.401  27.770  1.00  0.00     0.029 A 
ATOM     43  C   UNL A   1      40.803  27.479  28.917  1.00  0.00     0.049 A 
ATOM     44  H   UNL A   1      40.513  28.543  30.683  1.00  0.00     0.167 HD
ATOM     45  C   UNL A   1      39.901  30.993  34.248  1.00  0.00     0.037 A 
ATOM     46  C   UNL A   1      41.997  26.864  29.011  1.00  0.00     0.037 A 
ATOM     47  C   UNL A   1      41.207  30.413  34.421  1.00  0.00     0.049 A 
ATOM     48  C   UNL A   1      42.858  27.108  30.218  1.00  0.00     0.074 A 
ATOM     49  C   UNL A   1      42.070  30.529  35.498  1.00  0.00     0.029 A 
ATOM     50  N   UNL A   1      41.829  29.585  33.498  1.00  0.00    -0.354 N 
ATOM     51  N   UNL A   1      42.607  27.833  31.280  1.00  0.00    -0.248 NA
ATOM     52  C   UNL A   1      44.183  26.472  30.223  1.00  0.00     0.031 C 
ATOM     53  C   UNL A   1      43.225  29.791  35.215  1.00  0.00     0.029 A 
ATOM     54  C   UNL A   1      43.068  29.191  33.977  1.00  0.00     0.049 A 
ATOM     55  H   UNL A   1      41.447  29.318  32.631  1.00  0.00     0.167 HD
ATOM     56  C   UNL A   1      43.735  27.738  32.081  1.00  0.00     0.074 A 
ATOM     57  C   UNL A   1      44.666  26.868  31.392  1.00  0.00     0.031 C 
ATOM     58  C   UNL A   1      43.980  28.325  33.277  1.00  0.00     0.037 A 
BRANCH  45  59
ATOM     59  C   UNL A   1      39.385  31.898  35.325  1.00  0.00     0.064 A 
ATOM     60  C   UNL A   1      39.678  33.268  35.351  1.00  0.00     0.173 A 
ATOM     61  C   UNL A   1      38.547  31.385  36.329  1.00  0.00     0.173 A 
ATOM     62  F   UNL A   1      40.486  33.801  34.422  1.00  0.00    -0.203 F 
ATOM     63  C   UNL A   1      39.168  34.090  36.353  1.00  0.00     0.198 A 
ATOM     64  C   UNL A   1      38.021  32.213  37.315  1.00  0.00     0.198 A 
ATOM     65  F   UNL A   1      38.234  30.080  36.347  1.00  0.00    -0.203 F 
ATOM     66  F   UNL A   1      39.490  35.390  36.380  1.00  0.00    -0.200 F 
ATOM     67  C   UNL A   1      38.335  33.564  37.330  1.00  0.00     0.200 A 
ATOM     68  F   UNL A   1      37.209  31.704  38.253  1.00  0.00    -0.200 F 
ATOM     69  F   UNL A   1      37.840  34.357  38.289  1.00  0.00    -0.200 F 
ENDBRANCH  45  59
BRANCH  46  70
ATOM     70  C   UNL A   1      42.463  25.989  27.906  1.00  0.00     0.064 A 
ATOM     71  C   UNL A   1      43.330  26.478  26.920  1.00  0.00     0.173 A 
ATOM     72  C   UNL A   1      42.063  24.647  27.821  1.00  0.00     0.173 A 
ATOM     73  F   UNL A   1      43.716  27.763  26.945  1.00  0.00    -0.203 F 
ATOM     74  C   UNL A   1      43.779  25.658  25.888  1.00  0.00     0.198 A 
ATOM     75  C   UNL A   1      42.533  23.821  26.803  1.00  0.00     0.198 A 
ATOM     76  F   UNL A   1      41.230  24.134  28.737  1.00  0.00    -0.203 F 
ATOM     77  F   UNL A   1      44.581  26.157  24.938  1.00  0.00    -0.200 F 
ATOM     78  C   UNL A   1      43.387  24.328  25.835  1.00  0.00     0.200 A 
ATOM     79  F   UNL A   1      42.161  22.534  26.761  1.00  0.00    -0.200 F 
ATOM     80  F   UNL A   1      43.826  23.536  24.847  1.00  0.00    -0.200 F 
ENDBRANCH  46  70
BRANCH  58  81
ATOM     81  C   UNL A   1      45.299  28.030  33.922  1.00  0.00     0.064 A 
ATOM     82  C   UNL A   1      46.415  28.850  33.705  1.00  0.00     0.173 A 
ATOM     83  C   UNL A   1      45.439  26.937  34.789  1.00  0.00     0.173 A 
ATOM     84  F   UNL A   1      46.332  29.897  32.869  1.00  0.00    -0.203 F 
ATOM     85  C   UNL A   1      47.633  28.575  34.320  1.00  0.00     0.198 A 
ATOM     86  C   UNL A   1      46.653  26.677  35.418  1.00  0.00     0.198 A 
ATOM     87  F   UNL A   1      44.398  26.128  35.029  1.00  0.00    -0.203 F 
ATOM     88  F   UNL A   1      48.698  29.349  34.071  1.00  0.00    -0.200 F 
ATOM     89  C   UNL A   1      47.749  27.492  35.181  1.00  0.00     0.200 A 
ATOM     90  F   UNL A   1      46.762  25.634  36.254  1.00  0.00    -0.200 F 
ATOM     91  F   UNL A   1      48.921  27.229  35.774  1.00  0.00    -0.200 F 
ENDBRANCH  58  81
ENDBRANCH  32  33
ENDBRANCH  25  27
ENDBRANCH  24  25
ENDBRANCH  23  24
ENDBRANCH  22  23
ENDBRANCH   1  22
TORSDOF 18
ENDMDL
