MODEL 1
REMARK VINA RESULT:     -13.4      0.000      0.000
REMARK SMILES CC[C@](C)(NC(=O)N[C@@H]1C=CS(=O)(=O)C1)C(=O)OCCOC(=O)c1ccc(-c2c3nc(c(-c4c(F)c(F)c(F)c(F)c4F)c4ccc([nH]4)c(-c4c(F)c(F)c(F)c(F)c4F)c4nc(c(-c5c(F)c(F)c(F)c(F)c5F)c5ccc2[nH]5)C=C4)C=C3)cc1
REMARK SMILES IDX 19 1 18 2 16 3 17 4 3 5 4 6 2 7 1 8 5 9 6 10 7 12 8 13 9 15
REMARK SMILES IDX 10 16 15 17 11 18 12 19 13 20 14 21 20 22 21 23 22 24 23 25
REMARK SMILES IDX 24 26 25 27 86 28 26 29 85 30 27 31 28 32 29 33 79 34 30 35
REMARK SMILES IDX 84 36 78 37 80 38 31 39 83 40 77 41 76 42 32 44 64 45 44 46
REMARK SMILES IDX 63 47 45 48 48 49 62 50 81 51 46 52 47 53 61 55 82 56 49 57
REMARK SMILES IDX 33 58 34 59 42 60 35 61 36 62 40 63 43 64 37 65 38 66 41 67
REMARK SMILES IDX 39 68 65 69 66 70 74 71 67 72 68 73 72 74 75 75 69 76 70 77
REMARK SMILES IDX 73 78 71 79 50 80 51 81 59 82 52 83 53 84 57 85 60 86 54 87
REMARK SMILES IDX 55 88 58 89 56 90
REMARK H PARENT 5 11 8 14 80 43 48 54
REMARK Flexibility Score: inf
ROOT
ATOM      1  C   UNL A   1      35.280  23.142  23.489  1.00  0.00     0.274 C 
ENDROOT
BRANCH   1   2
ATOM      2  O   UNL A   1      33.751  23.527  24.120  1.00  0.00    -0.460 OA
BRANCH   2   3
ATOM      3  C   UNL A   1      32.575  22.835  24.009  1.00  0.00     0.331 C 
ATOM      4  O   UNL A   1      31.941  22.791  22.959  1.00  0.00    -0.249 OA
BRANCH   3   5
ATOM      5  C   UNL A   1      32.096  22.140  25.363  1.00  0.00     0.136 C 
ATOM      6  C   UNL A   1      33.080  22.439  26.523  1.00  0.00     0.047 C 
BRANCH   5   7
ATOM      7  C   UNL A   1      32.166  20.615  25.043  1.00  0.00     0.037 C 
ATOM      8  C   UNL A   1      33.564  20.060  24.781  1.00  0.00     0.007 C 
ENDBRANCH   5   7
BRANCH   5   9
ATOM      9  N   UNL A   1      30.703  22.364  25.921  1.00  0.00    -0.322 N 
ATOM     10  C   UNL A   1      30.286  23.190  26.925  1.00  0.00     0.316 C 
ATOM     11  H   UNL A   1      29.992  21.833  25.496  1.00  0.00     0.166 HD
ATOM     12  O   UNL A   1      29.578  22.745  27.822  1.00  0.00    -0.249 OA
ATOM     13  N   UNL A   1      30.590  24.510  26.880  1.00  0.00    -0.331 N 
ATOM     14  H   UNL A   1      30.518  25.044  27.704  1.00  0.00     0.166 HD
BRANCH  13  15
ATOM     15  C   UNL A   1      31.012  25.150  25.677  1.00  0.00     0.123 C 
ATOM     16  C   UNL A   1      32.666  26.206  26.076  1.00  0.00     0.011 C 
ATOM     17  C   UNL A   1      29.905  26.206  24.346  1.00  0.00     0.170 C 
ATOM     18  C   UNL A   1      32.858  27.608  25.307  1.00  0.00     0.104 C 
ATOM     19  S   UNL A   1      31.235  28.079  23.802  1.00  0.00     0.173 S 
ATOM     20  O   UNL A   1      31.852  27.967  22.493  1.00  0.00    -0.224 OA
ATOM     21  O   UNL A   1      30.676  29.359  24.193  1.00  0.00    -0.224 OA
ENDBRANCH  13  15
ENDBRANCH   5   9
ENDBRANCH   3   5
ENDBRANCH   2   3
ENDBRANCH   1   2
BRANCH   1  22
ATOM     22  C   UNL A   1      36.786  21.813  24.397  1.00  0.00     0.275 C 
BRANCH  22  23
ATOM     23  O   UNL A   1      37.446  21.908  25.862  1.00  0.00    -0.458 OA
BRANCH  23  24
ATOM     24  C   UNL A   1      38.715  21.461  26.095  1.00  0.00     0.338 C 
ATOM     25  O   UNL A   1      39.187  20.405  25.709  1.00  0.00    -0.246 OA
BRANCH  24  26
ATOM     26  C   UNL A   1      39.531  22.622  26.547  1.00  0.00     0.060 A 
ATOM     27  C   UNL A   1      39.209  23.891  26.040  1.00  0.00     0.016 A 
ATOM     28  C   UNL A   1      40.525  22.503  27.510  1.00  0.00     0.016 A 
ATOM     29  C   UNL A   1      39.794  25.051  26.558  1.00  0.00     0.010 A 
ATOM     30  C   UNL A   1      41.164  23.662  27.983  1.00  0.00     0.010 A 
ATOM     31  C   UNL A   1      40.792  24.945  27.527  1.00  0.00    -0.014 A 
BRANCH  31  32
ATOM     32  C   UNL A   1      41.574  26.138  27.952  1.00  0.00     0.031 A 
ATOM     33  C   UNL A   1      40.855  27.206  28.728  1.00  0.00     0.074 A 
ATOM     34  C   UNL A   1      42.878  26.294  27.650  1.00  0.00     0.049 A 
ATOM     35  N   UNL A   1      41.215  28.435  28.988  1.00  0.00    -0.248 NA
ATOM     36  C   UNL A   1      39.545  26.829  29.281  1.00  0.00     0.031 C 
ATOM     37  C   UNL A   1      43.728  25.294  27.008  1.00  0.00     0.029 A 
ATOM     38  N   UNL A   1      43.712  27.378  27.823  1.00  0.00    -0.354 N 
ATOM     39  C   UNL A   1      40.154  28.993  29.689  1.00  0.00     0.074 A 
ATOM     40  C   UNL A   1      39.146  27.966  29.831  1.00  0.00     0.031 C 
ATOM     41  C   UNL A   1      44.949  25.824  26.802  1.00  0.00     0.029 A 
ATOM     42  C   UNL A   1      44.947  27.220  27.237  1.00  0.00     0.049 A 
ATOM     43  H   UNL A   1      43.449  28.187  28.318  1.00  0.00     0.167 HD
ATOM     44  C   UNL A   1      40.030  30.258  30.155  1.00  0.00     0.037 A 
ATOM     45  C   UNL A   1      45.931  28.119  27.016  1.00  0.00     0.037 A 
ATOM     46  C   UNL A   1      41.052  31.262  30.034  1.00  0.00     0.049 A 
ATOM     47  C   UNL A   1      45.731  29.550  27.463  1.00  0.00     0.074 A 
ATOM     48  C   UNL A   1      41.036  32.567  30.493  1.00  0.00     0.029 A 
ATOM     49  N   UNL A   1      42.273  31.071  29.406  1.00  0.00    -0.354 N 
ATOM     50  N   UNL A   1      44.721  30.085  28.105  1.00  0.00    -0.248 NA
ATOM     51  C   UNL A   1      46.801  30.508  27.138  1.00  0.00     0.031 C 
ATOM     52  C   UNL A   1      42.221  33.185  30.086  1.00  0.00     0.029 A 
ATOM     53  C   UNL A   1      43.002  32.248  29.429  1.00  0.00     0.049 A 
ATOM     54  H   UNL A   1      42.577  30.225  29.005  1.00  0.00     0.167 HD
ATOM     55  C   UNL A   1      45.038  31.429  28.274  1.00  0.00     0.074 A 
ATOM     56  C   UNL A   1      46.348  31.624  27.692  1.00  0.00     0.031 C 
ATOM     57  C   UNL A   1      44.310  32.416  28.850  1.00  0.00     0.037 A 
BRANCH  44  58
ATOM     58  C   UNL A   1      38.726  30.655  30.781  1.00  0.00     0.064 A 
ATOM     59  C   UNL A   1      38.538  30.673  32.170  1.00  0.00     0.173 A 
ATOM     60  C   UNL A   1      37.666  31.085  29.968  1.00  0.00     0.173 A 
ATOM     61  F   UNL A   1      39.514  30.254  32.989  1.00  0.00    -0.203 F 
ATOM     62  C   UNL A   1      37.333  31.101  32.722  1.00  0.00     0.198 A 
ATOM     63  C   UNL A   1      36.473  31.538  30.523  1.00  0.00     0.198 A 
ATOM     64  F   UNL A   1      37.795  31.085  28.632  1.00  0.00    -0.203 F 
ATOM     65  F   UNL A   1      37.162  31.082  34.051  1.00  0.00    -0.200 F 
ATOM     66  C   UNL A   1      36.307  31.543  31.898  1.00  0.00     0.200 A 
ATOM     67  F   UNL A   1      35.488  31.976  29.727  1.00  0.00    -0.200 F 
ATOM     68  F   UNL A   1      35.154  31.972  32.432  1.00  0.00    -0.200 F 
ENDBRANCH  44  58
BRANCH  45  69
ATOM     69  C   UNL A   1      47.159  27.738  26.256  1.00  0.00     0.064 A 
ATOM     70  C   UNL A   1      47.180  27.726  24.854  1.00  0.00     0.173 A 
ATOM     71  C   UNL A   1      48.318  27.301  26.920  1.00  0.00     0.173 A 
ATOM     72  F   UNL A   1      46.090  28.094  24.164  1.00  0.00    -0.203 F 
ATOM     73  C   UNL A   1      48.295  27.267  24.149  1.00  0.00     0.198 A 
ATOM     74  C   UNL A   1      49.444  26.880  26.214  1.00  0.00     0.198 A 
ATOM     75  F   UNL A   1      48.354  27.272  28.261  1.00  0.00    -0.203 F 
ATOM     76  F   UNL A   1      48.257  27.199  22.811  1.00  0.00    -0.200 F 
ATOM     77  C   UNL A   1      49.428  26.851  24.830  1.00  0.00     0.200 A 
ATOM     78  F   UNL A   1      50.539  26.487  26.879  1.00  0.00    -0.200 F 
ATOM     79  F   UNL A   1      50.495  26.405  24.153  1.00  0.00    -0.200 F 
ENDBRANCH  45  69
BRANCH  57  80
ATOM     80  C   UNL A   1      44.918  33.788  28.904  1.00  0.00     0.064 A 
ATOM     81  C   UNL A   1      44.664  34.742  27.909  1.00  0.00     0.173 A 
ATOM     82  C   UNL A   1      45.708  34.173  29.999  1.00  0.00     0.173 A 
ATOM     83  F   UNL A   1      43.926  34.419  26.836  1.00  0.00    -0.203 F 
ATOM     84  C   UNL A   1      45.196  36.026  27.997  1.00  0.00     0.198 A 
ATOM     85  C   UNL A   1      46.211  35.467  30.100  1.00  0.00     0.198 A 
ATOM     86  F   UNL A   1      45.971  33.301  30.983  1.00  0.00    -0.203 F 
ATOM     87  F   UNL A   1      44.975  36.909  27.013  1.00  0.00    -0.200 F 
ATOM     88  C   UNL A   1      45.959  36.391  29.096  1.00  0.00     0.200 A 
ATOM     89  F   UNL A   1      46.931  35.824  31.172  1.00  0.00    -0.200 F 
ATOM     90  F   UNL A   1      46.456  37.632  29.187  1.00  0.00    -0.200 F 
ENDBRANCH  57  80
ENDBRANCH  31  32
ENDBRANCH  24  26
ENDBRANCH  23  24
ENDBRANCH  22  23
ENDBRANCH   1  22
TORSDOF 14
ENDMDL
MODEL 2
REMARK VINA RESULT:     -13.4      0.735      1.776
REMARK SMILES CC[C@](C)(NC(=O)N[C@@H]1C=CS(=O)(=O)C1)C(=O)OCCOC(=O)c1ccc(-c2c3nc(c(-c4c(F)c(F)c(F)c(F)c4F)c4ccc([nH]4)c(-c4c(F)c(F)c(F)c(F)c4F)c4nc(c(-c5c(F)c(F)c(F)c(F)c5F)c5ccc2[nH]5)C=C4)C=C3)cc1
REMARK SMILES IDX 19 1 18 2 16 3 17 4 3 5 4 6 2 7 1 8 5 9 6 10 7 12 8 13 9 15
REMARK SMILES IDX 10 16 15 17 11 18 12 19 13 20 14 21 20 22 21 23 22 24 23 25
REMARK SMILES IDX 24 26 25 27 86 28 26 29 85 30 27 31 28 32 29 33 79 34 30 35
REMARK SMILES IDX 84 36 78 37 80 38 31 39 83 40 77 41 76 42 32 44 64 45 44 46
REMARK SMILES IDX 63 47 45 48 48 49 62 50 81 51 46 52 47 53 61 55 82 56 49 57
REMARK SMILES IDX 33 58 34 59 42 60 35 61 36 62 40 63 43 64 37 65 38 66 41 67
REMARK SMILES IDX 39 68 65 69 66 70 74 71 67 72 68 73 72 74 75 75 69 76 70 77
REMARK SMILES IDX 73 78 71 79 50 80 51 81 59 82 52 83 53 84 57 85 60 86 54 87
REMARK SMILES IDX 55 88 58 89 56 90
REMARK H PARENT 5 11 8 14 80 43 48 54
REMARK Flexibility Score: inf
ROOT
ATOM      1  C   UNL A   1      35.191  23.830  23.503  1.00  0.00     0.274 C 
ENDROOT
BRANCH   1   2
ATOM      2  O   UNL A   1      33.662  24.437  23.926  1.00  0.00    -0.460 OA
BRANCH   2   3
ATOM      3  C   UNL A   1      32.459  23.786  23.963  1.00  0.00     0.331 C 
ATOM      4  O   UNL A   1      31.694  23.771  23.003  1.00  0.00    -0.249 OA
BRANCH   3   5
ATOM      5  C   UNL A   1      32.132  23.096  25.365  1.00  0.00     0.136 C 
ATOM      6  C   UNL A   1      32.878  23.807  26.523  1.00  0.00     0.047 C 
BRANCH   5   7
ATOM      7  C   UNL A   1      32.716  21.658  25.216  1.00  0.00     0.037 C 
ATOM      8  C   UNL A   1      32.302  20.906  23.954  1.00  0.00     0.007 C 
ENDBRANCH   5   7
BRANCH   5   9
ATOM      9  N   UNL A   1      30.704  22.898  25.839  1.00  0.00    -0.322 N 
ATOM     10  C   UNL A   1      29.967  23.633  26.722  1.00  0.00     0.316 C 
ATOM     11  H   UNL A   1      30.240  22.120  25.453  1.00  0.00     0.166 HD
ATOM     12  O   UNL A   1      29.378  23.069  27.638  1.00  0.00    -0.249 OA
ATOM     13  N   UNL A   1      29.825  24.967  26.532  1.00  0.00    -0.331 N 
ATOM     14  H   UNL A   1      29.520  25.525  27.284  1.00  0.00     0.166 HD
BRANCH  13  15
ATOM     15  C   UNL A   1      30.103  25.588  25.279  1.00  0.00     0.123 C 
ATOM     16  C   UNL A   1      31.444  27.044  25.585  1.00  0.00     0.011 C 
ATOM     17  C   UNL A   1      28.801  26.230  23.863  1.00  0.00     0.170 C 
ATOM     18  C   UNL A   1      31.307  28.382  24.699  1.00  0.00     0.104 C 
ATOM     19  S   UNL A   1      29.648  28.318  23.161  1.00  0.00     0.173 S 
ATOM     20  O   UNL A   1      30.300  28.252  21.865  1.00  0.00    -0.224 OA
ATOM     21  O   UNL A   1      28.789  29.452  23.442  1.00  0.00    -0.224 OA
ENDBRANCH  13  15
ENDBRANCH   5   9
ENDBRANCH   3   5
ENDBRANCH   2   3
ENDBRANCH   1   2
BRANCH   1  22
ATOM     22  C   UNL A   1      36.179  22.044  24.334  1.00  0.00     0.275 C 
BRANCH  22  23
ATOM     23  O   UNL A   1      36.908  21.881  25.760  1.00  0.00    -0.458 OA
BRANCH  23  24
ATOM     24  C   UNL A   1      38.179  21.390  25.851  1.00  0.00     0.338 C 
ATOM     25  O   UNL A   1      38.587  20.355  25.352  1.00  0.00    -0.246 OA
BRANCH  24  26
ATOM     26  C   UNL A   1      39.064  22.497  26.310  1.00  0.00     0.060 A 
ATOM     27  C   UNL A   1      38.694  23.812  25.989  1.00  0.00     0.016 A 
ATOM     28  C   UNL A   1      40.175  22.277  27.113  1.00  0.00     0.016 A 
ATOM     29  C   UNL A   1      39.358  24.912  26.543  1.00  0.00     0.010 A 
ATOM     30  C   UNL A   1      40.887  23.380  27.616  1.00  0.00     0.010 A 
ATOM     31  C   UNL A   1      40.475  24.703  27.354  1.00  0.00    -0.014 A 
BRANCH  31  32
ATOM     32  C   UNL A   1      41.322  25.845  27.795  1.00  0.00     0.031 A 
ATOM     33  C   UNL A   1      40.670  26.928  28.608  1.00  0.00     0.074 A 
ATOM     34  C   UNL A   1      42.627  25.944  27.474  1.00  0.00     0.049 A 
ATOM     35  N   UNL A   1      41.094  28.130  28.892  1.00  0.00    -0.248 NA
ATOM     36  C   UNL A   1      39.351  26.603  29.174  1.00  0.00     0.031 C 
ATOM     37  C   UNL A   1      43.416  24.919  26.794  1.00  0.00     0.029 A 
ATOM     38  N   UNL A   1      43.517  26.980  27.659  1.00  0.00    -0.354 N 
ATOM     39  C   UNL A   1      40.073  28.723  29.624  1.00  0.00     0.074 A 
ATOM     40  C   UNL A   1      39.018  27.744  29.758  1.00  0.00     0.031 C 
ATOM     41  C   UNL A   1      44.658  25.393  26.580  1.00  0.00     0.029 A 
ATOM     42  C   UNL A   1      44.733  26.776  27.049  1.00  0.00     0.049 A 
ATOM     43  H   UNL A   1      43.302  27.789  28.179  1.00  0.00     0.167 HD
ATOM     44  C   UNL A   1      40.021  29.980  30.123  1.00  0.00     0.037 A 
ATOM     45  C   UNL A   1      45.757  27.630  26.833  1.00  0.00     0.037 A 
ATOM     46  C   UNL A   1      41.089  30.935  30.009  1.00  0.00     0.049 A 
ATOM     47  C   UNL A   1      45.636  29.058  27.319  1.00  0.00     0.074 A 
ATOM     48  C   UNL A   1      41.146  32.227  30.500  1.00  0.00     0.029 A 
ATOM     49  N   UNL A   1      42.289  30.699  29.356  1.00  0.00    -0.354 N 
ATOM     50  N   UNL A   1      44.664  29.626  27.991  1.00  0.00    -0.248 NA
ATOM     51  C   UNL A   1      46.747  29.969  26.999  1.00  0.00     0.031 C 
ATOM     52  C   UNL A   1      42.354  32.796  30.088  1.00  0.00     0.029 A 
ATOM     53  C   UNL A   1      43.076  31.837  29.395  1.00  0.00     0.049 A 
ATOM     54  H   UNL A   1      42.544  29.849  28.929  1.00  0.00     0.167 HD
ATOM     55  C   UNL A   1      45.051  30.947  28.187  1.00  0.00     0.074 A 
ATOM     56  C   UNL A   1      46.359  31.092  27.587  1.00  0.00     0.031 C 
ATOM     57  C   UNL A   1      44.382  31.955  28.799  1.00  0.00     0.037 A 
BRANCH  44  58
ATOM     58  C   UNL A   1      38.748  30.425  30.781  1.00  0.00     0.064 A 
ATOM     59  C   UNL A   1      38.589  30.434  32.173  1.00  0.00     0.173 A 
ATOM     60  C   UNL A   1      37.691  30.911  29.995  1.00  0.00     0.173 A 
ATOM     61  F   UNL A   1      39.562  29.962  32.966  1.00  0.00    -0.203 F 
ATOM     62  C   UNL A   1      37.415  30.906  32.754  1.00  0.00     0.198 A 
ATOM     63  C   UNL A   1      36.531  31.408  30.579  1.00  0.00     0.198 A 
ATOM     64  F   UNL A   1      37.793  30.923  28.656  1.00  0.00    -0.203 F 
ATOM     65  F   UNL A   1      37.269  30.877  34.086  1.00  0.00    -0.200 F 
ATOM     66  C   UNL A   1      36.392  31.403  31.958  1.00  0.00     0.200 A 
ATOM     67  F   UNL A   1      35.551  31.899  29.809  1.00  0.00    -0.200 F 
ATOM     68  F   UNL A   1      35.271  31.875  32.521  1.00  0.00    -0.200 F 
ENDBRANCH  44  58
BRANCH  45  69
ATOM     69  C   UNL A   1      46.952  27.208  26.044  1.00  0.00     0.064 A 
ATOM     70  C   UNL A   1      48.064  26.612  26.658  1.00  0.00     0.173 A 
ATOM     71  C   UNL A   1      47.039  27.463  24.665  1.00  0.00     0.173 A 
ATOM     72  F   UNL A   1      48.056  26.381  27.979  1.00  0.00    -0.203 F 
ATOM     73  C   UNL A   1      49.221  26.317  25.933  1.00  0.00     0.198 A 
ATOM     74  C   UNL A   1      48.180  27.131  23.935  1.00  0.00     0.198 A 
ATOM     75  F   UNL A   1      46.016  28.046  24.023  1.00  0.00    -0.203 F 
ATOM     76  F   UNL A   1      50.293  25.816  26.562  1.00  0.00    -0.200 F 
ATOM     77  C   UNL A   1      49.275  26.570  24.571  1.00  0.00     0.200 A 
ATOM     78  F   UNL A   1      48.222  27.371  22.618  1.00  0.00    -0.200 F 
ATOM     79  F   UNL A   1      50.387  26.293  23.878  1.00  0.00    -0.200 F 
ENDBRANCH  45  69
BRANCH  57  80
ATOM     80  C   UNL A   1      45.058  33.294  28.876  1.00  0.00     0.064 A 
ATOM     81  C   UNL A   1      45.975  33.596  29.892  1.00  0.00     0.173 A 
ATOM     82  C   UNL A   1      44.836  34.259  27.882  1.00  0.00     0.173 A 
ATOM     83  F   UNL A   1      46.212  32.712  30.873  1.00  0.00    -0.203 F 
ATOM     84  C   UNL A   1      46.630  34.824  29.922  1.00  0.00     0.198 A 
ATOM     85  C   UNL A   1      45.517  35.473  27.897  1.00  0.00     0.198 A 
ATOM     86  F   UNL A   1      43.976  34.015  26.881  1.00  0.00    -0.203 F 
ATOM     87  F   UNL A   1      47.471  35.108  30.926  1.00  0.00    -0.200 F 
ATOM     88  C   UNL A   1      46.409  35.757  28.920  1.00  0.00     0.200 A 
ATOM     89  F   UNL A   1      45.317  36.365  26.917  1.00  0.00    -0.200 F 
ATOM     90  F   UNL A   1      47.053  36.932  28.941  1.00  0.00    -0.200 F 
ENDBRANCH  57  80
ENDBRANCH  31  32
ENDBRANCH  24  26
ENDBRANCH  23  24
ENDBRANCH  22  23
ENDBRANCH   1  22
TORSDOF 14
ENDMDL
MODEL 3
REMARK VINA RESULT:     -13.2      4.373      9.570
REMARK SMILES CC[C@](C)(NC(=O)N[C@@H]1C=CS(=O)(=O)C1)C(=O)OCCOC(=O)c1ccc(-c2c3nc(c(-c4c(F)c(F)c(F)c(F)c4F)c4ccc([nH]4)c(-c4c(F)c(F)c(F)c(F)c4F)c4nc(c(-c5c(F)c(F)c(F)c(F)c5F)c5ccc2[nH]5)C=C4)C=C3)cc1
REMARK SMILES IDX 19 1 18 2 16 3 17 4 3 5 4 6 2 7 1 8 5 9 6 10 7 12 8 13 9 15
REMARK SMILES IDX 10 16 15 17 11 18 12 19 13 20 14 21 20 22 21 23 22 24 23 25
REMARK SMILES IDX 24 26 25 27 86 28 26 29 85 30 27 31 28 32 29 33 79 34 30 35
REMARK SMILES IDX 84 36 78 37 80 38 31 39 83 40 77 41 76 42 32 44 64 45 44 46
REMARK SMILES IDX 63 47 45 48 48 49 62 50 81 51 46 52 47 53 61 55 82 56 49 57
REMARK SMILES IDX 33 58 34 59 42 60 35 61 36 62 40 63 43 64 37 65 38 66 41 67
REMARK SMILES IDX 39 68 65 69 66 70 74 71 67 72 68 73 72 74 75 75 69 76 70 77
REMARK SMILES IDX 73 78 71 79 50 80 51 81 59 82 52 83 53 84 57 85 60 86 54 87
REMARK SMILES IDX 55 88 58 89 56 90
REMARK H PARENT 5 11 8 14 80 43 48 54
REMARK Flexibility Score: inf
ROOT
ATOM      1  C   UNL A   1      31.477  27.437  26.846  1.00  0.00     0.274 C 
ENDROOT
BRANCH   1   2
ATOM      2  O   UNL A   1      32.631  26.242  26.492  1.00  0.00    -0.460 OA
BRANCH   2   3
ATOM      3  C   UNL A   1      33.612  26.249  25.538  1.00  0.00     0.331 C 
ATOM      4  O   UNL A   1      34.196  27.278  25.211  1.00  0.00    -0.249 OA
BRANCH   3   5
ATOM      5  C   UNL A   1      33.889  24.825  24.875  1.00  0.00     0.136 C 
ATOM      6  C   UNL A   1      32.857  23.774  25.358  1.00  0.00     0.047 C 
BRANCH   5   7
ATOM      7  C   UNL A   1      35.291  24.424  25.427  1.00  0.00     0.037 C 
ATOM      8  C   UNL A   1      35.537  22.924  25.575  1.00  0.00     0.007 C 
ENDBRANCH   5   7
BRANCH   5   9
ATOM      9  N   UNL A   1      33.992  24.656  23.370  1.00  0.00    -0.322 N 
ATOM     10  C   UNL A   1      33.079  24.166  22.481  1.00  0.00     0.316 C 
ATOM     11  H   UNL A   1      34.847  24.942  22.975  1.00  0.00     0.166 HD
ATOM     12  O   UNL A   1      33.417  23.302  21.679  1.00  0.00    -0.249 OA
ATOM     13  N   UNL A   1      31.833  24.695  22.437  1.00  0.00    -0.331 N 
ATOM     14  H   UNL A   1      31.115  24.188  21.993  1.00  0.00     0.166 HD
BRANCH  13  15
ATOM     15  C   UNL A   1      31.526  25.963  23.015  1.00  0.00     0.123 C 
ATOM     16  C   UNL A   1      29.630  25.915  23.661  1.00  0.00     0.011 C 
ATOM     17  C   UNL A   1      31.885  27.816  22.275  1.00  0.00     0.170 C 
ATOM     18  C   UNL A   1      28.765  27.266  23.531  1.00  0.00     0.104 C 
ATOM     19  S   UNL A   1      29.916  29.040  22.722  1.00  0.00     0.173 S 
ATOM     20  O   UNL A   1      30.070  29.962  23.833  1.00  0.00    -0.224 OA
ATOM     21  O   UNL A   1      29.196  29.491  21.547  1.00  0.00    -0.224 OA
ENDBRANCH  13  15
ENDBRANCH   5   9
ENDBRANCH   3   5
ENDBRANCH   2   3
ENDBRANCH   1   2
BRANCH   1  22
ATOM     22  C   UNL A   1      31.767  29.619  26.758  1.00  0.00     0.275 C 
BRANCH  22  23
ATOM     23  O   UNL A   1      33.119  30.433  26.441  1.00  0.00    -0.458 OA
BRANCH  23  24
ATOM     24  C   UNL A   1      33.416  31.593  27.098  1.00  0.00     0.338 C 
ATOM     25  O   UNL A   1      32.652  32.522  27.297  1.00  0.00    -0.246 OA
BRANCH  24  26
ATOM     26  C   UNL A   1      34.676  31.374  27.862  1.00  0.00     0.060 A 
ATOM     27  C   UNL A   1      34.924  30.090  28.371  1.00  0.00     0.016 A 
ATOM     28  C   UNL A   1      35.643  32.362  28.002  1.00  0.00     0.016 A 
ATOM     29  C   UNL A   1      36.162  29.752  28.926  1.00  0.00     0.010 A 
ATOM     30  C   UNL A   1      36.863  32.044  28.622  1.00  0.00     0.010 A 
ATOM     31  C   UNL A   1      37.142  30.736  29.071  1.00  0.00    -0.014 A 
BRANCH  31  32
ATOM     32  C   UNL A   1      38.390  30.464  29.836  1.00  0.00     0.031 A 
ATOM     33  C   UNL A   1      39.384  29.509  29.237  1.00  0.00     0.074 A 
ATOM     34  C   UNL A   1      38.639  31.024  31.035  1.00  0.00     0.049 A 
ATOM     35  N   UNL A   1      40.402  28.907  29.791  1.00  0.00    -0.248 NA
ATOM     36  C   UNL A   1      39.195  29.191  27.813  1.00  0.00     0.031 C 
ATOM     37  C   UNL A   1      37.824  32.051  31.681  1.00  0.00     0.029 A 
ATOM     38  N   UNL A   1      39.648  30.780  31.943  1.00  0.00    -0.354 N 
ATOM     39  C   UNL A   1      40.942  28.098  28.799  1.00  0.00     0.074 A 
ATOM     40  C   UNL A   1      40.153  28.301  27.604  1.00  0.00     0.031 C 
ATOM     41  C   UNL A   1      38.339  32.319  32.896  1.00  0.00     0.029 A 
ATOM     42  C   UNL A   1      39.479  31.435  33.141  1.00  0.00     0.049 A 
ATOM     43  H   UNL A   1      40.415  30.193  31.752  1.00  0.00     0.167 HD
ATOM     44  C   UNL A   1      41.992  27.250  28.889  1.00  0.00     0.037 A 
ATOM     45  C   UNL A   1      40.127  31.288  34.318  1.00  0.00     0.037 A 
ATOM     46  C   UNL A   1      42.789  27.080  30.074  1.00  0.00     0.049 A 
ATOM     47  C   UNL A   1      41.238  30.266  34.419  1.00  0.00     0.074 A 
ATOM     48  C   UNL A   1      43.890  26.264  30.263  1.00  0.00     0.029 A 
ATOM     49  N   UNL A   1      42.565  27.738  31.274  1.00  0.00    -0.354 N 
ATOM     50  N   UNL A   1      41.734  29.485  33.490  1.00  0.00    -0.248 NA
ATOM     51  C   UNL A   1      41.866  30.090  35.739  1.00  0.00     0.031 C 
ATOM     52  C   UNL A   1      44.293  26.379  31.596  1.00  0.00     0.029 A 
ATOM     53  C   UNL A   1      43.482  27.314  32.220  1.00  0.00     0.049 A 
ATOM     54  H   UNL A   1      41.859  28.406  31.429  1.00  0.00     0.167 HD
ATOM     55  C   UNL A   1      42.738  28.743  34.105  1.00  0.00     0.074 A 
ATOM     56  C   UNL A   1      42.799  29.184  35.481  1.00  0.00     0.031 C 
ATOM     57  C   UNL A   1      43.531  27.776  33.583  1.00  0.00     0.037 A 
BRANCH  44  58
ATOM     58  C   UNL A   1      42.310  26.392  27.700  1.00  0.00     0.064 A 
ATOM     59  C   UNL A   1      43.314  26.727  26.782  1.00  0.00     0.173 A 
ATOM     60  C   UNL A   1      41.632  25.176  27.519  1.00  0.00     0.173 A 
ATOM     61  F   UNL A   1      43.978  27.886  26.901  1.00  0.00    -0.203 F 
ATOM     62  C   UNL A   1      43.622  25.880  25.720  1.00  0.00     0.198 A 
ATOM     63  C   UNL A   1      41.961  24.319  26.474  1.00  0.00     0.198 A 
ATOM     64  F   UNL A   1      40.661  24.809  28.370  1.00  0.00    -0.203 F 
ATOM     65  F   UNL A   1      44.564  26.233  24.835  1.00  0.00    -0.200 F 
ATOM     66  C   UNL A   1      42.953  24.672  25.574  1.00  0.00     0.200 A 
ATOM     67  F   UNL A   1      41.323  23.148  26.342  1.00  0.00    -0.200 F 
ATOM     68  F   UNL A   1      43.265  23.850  24.562  1.00  0.00    -0.200 F 
ENDBRANCH  44  58
BRANCH  45  69
ATOM     69  C   UNL A   1      39.695  32.045  35.529  1.00  0.00     0.064 A 
ATOM     70  C   UNL A   1      38.704  31.549  36.391  1.00  0.00     0.173 A 
ATOM     71  C   UNL A   1      40.210  33.322  35.810  1.00  0.00     0.173 A 
ATOM     72  F   UNL A   1      38.146  30.354  36.152  1.00  0.00    -0.203 F 
ATOM     73  C   UNL A   1      38.229  32.308  37.462  1.00  0.00     0.198 A 
ATOM     74  C   UNL A   1      39.762  34.062  36.903  1.00  0.00     0.198 A 
ATOM     75  F   UNL A   1      41.146  33.859  35.014  1.00  0.00    -0.203 F 
ATOM     76  F   UNL A   1      37.231  31.837  38.223  1.00  0.00    -0.200 F 
ATOM     77  C   UNL A   1      38.762  33.561  37.721  1.00  0.00     0.200 A 
ATOM     78  F   UNL A   1      40.288  35.269  37.152  1.00  0.00    -0.200 F 
ATOM     79  F   UNL A   1      38.301  34.292  38.744  1.00  0.00    -0.200 F 
ENDBRANCH  45  69
BRANCH  57  80
ATOM     80  C   UNL A   1      44.550  27.147  34.490  1.00  0.00     0.064 A 
ATOM     81  C   UNL A   1      44.276  25.966  35.193  1.00  0.00     0.173 A 
ATOM     82  C   UNL A   1      45.837  27.697  34.602  1.00  0.00     0.173 A 
ATOM     83  F   UNL A   1      43.057  25.409  35.129  1.00  0.00    -0.203 F 
ATOM     84  C   UNL A   1      45.247  25.368  35.992  1.00  0.00     0.198 A 
ATOM     85  C   UNL A   1      46.815  27.079  35.376  1.00  0.00     0.198 A 
ATOM     86  F   UNL A   1      46.153  28.820  33.941  1.00  0.00    -0.203 F 
ATOM     87  F   UNL A   1      44.950  24.262  36.689  1.00  0.00    -0.200 F 
ATOM     88  C   UNL A   1      46.517  25.918  36.075  1.00  0.00     0.200 A 
ATOM     89  F   UNL A   1      48.047  27.601  35.439  1.00  0.00    -0.200 F 
ATOM     90  F   UNL A   1      47.455  25.333  36.832  1.00  0.00    -0.200 F 
ENDBRANCH  57  80
ENDBRANCH  31  32
ENDBRANCH  24  26
ENDBRANCH  23  24
ENDBRANCH  22  23
ENDBRANCH   1  22
TORSDOF 14
ENDMDL
