MODEL 1
REMARK VINA RESULT:     -10.6      0.000      0.000
REMARK SMILES Nc1nnc(S[C@H](F)C(=O)OCCOC(=O)c2ccc(-c3c4nc(c(-c5c(F)c(F)c(F)c(F)c5F)c5ccc([nH]5)c(-c5c(F)c(F)c(F)c(F)c5F)c5nc(c(-c6c(F)c(F)c(F)c(F)c6F)c6ccc3[nH]6)C=C5)C=C4)cc2)s1
REMARK SMILES IDX 12 1 11 2 9 3 10 4 7 5 8 6 6 7 5 8 2 9 3 10 80 11 4 12 1 13
REMARK SMILES IDX 13 16 14 17 15 18 16 19 17 20 18 21 79 22 19 23 78 24 20 25
REMARK SMILES IDX 21 26 22 27 72 28 23 29 77 30 71 31 73 32 24 33 76 34 70 35
REMARK SMILES IDX 69 36 25 38 57 39 37 40 56 41 38 42 41 43 55 44 74 45 39 46
REMARK SMILES IDX 40 47 54 49 75 50 42 51 26 52 27 53 35 54 28 55 29 56 33 57
REMARK SMILES IDX 36 58 30 59 31 60 34 61 32 62 58 63 59 64 67 65 60 66 61 67
REMARK SMILES IDX 65 68 68 69 62 70 63 71 66 72 64 73 43 74 44 75 52 76 45 77
REMARK SMILES IDX 46 78 50 79 53 80 47 81 48 82 51 83 49 84
REMARK H PARENT 1 14 1 15 73 37 41 48
REMARK Flexibility Score: inf
ROOT
ATOM      1  C   UNL A   1      46.191  22.280  24.471  1.00  0.00     0.274 C 
ENDROOT
BRANCH   1   2
ATOM      2  O   UNL A   1      46.039  21.267  25.482  1.00  0.00    -0.459 OA
BRANCH   2   3
ATOM      3  C   UNL A   1      46.066  19.975  25.049  1.00  0.00     0.351 C 
ATOM      4  O   UNL A   1      47.053  19.243  25.081  1.00  0.00    -0.248 OA
BRANCH   3   5
ATOM      5  C   UNL A   1      44.721  19.517  24.529  1.00  0.00     0.340 C 
ATOM      6  F   UNL A   1      44.828  18.862  23.331  1.00  0.00    -0.222 F 
BRANCH   5   7
ATOM      7  S   UNL A   1      43.747  18.472  25.636  1.00  0.00    -0.044 SA
BRANCH   7   8
ATOM      8  C   UNL A   1      42.297  19.364  25.999  1.00  0.00     0.179 A 
ATOM      9  C   UNL A   1      40.618  20.993  26.428  1.00  0.00     0.203 A 
ATOM     10  N   UNL A   1      40.115  19.841  26.054  1.00  0.00    -0.120 NA
ATOM     11  S   UNL A   1      42.333  20.995  26.536  1.00  0.00    -0.069 S 
ATOM     12  N   UNL A   1      41.089  18.912  25.768  1.00  0.00    -0.130 NA
BRANCH   9  13
ATOM     13  N   UNL A   1      39.889  22.086  26.694  1.00  0.00    -0.374 N 
ATOM     14  H   UNL A   1      40.227  22.976  26.441  1.00  0.00     0.159 HD
ATOM     15  H   UNL A   1      39.017  21.999  27.139  1.00  0.00     0.159 HD
ENDBRANCH   9  13
ENDBRANCH   7   8
ENDBRANCH   5   7
ENDBRANCH   3   5
ENDBRANCH   2   3
ENDBRANCH   1   2
BRANCH   1  16
ATOM     16  C   UNL A   1      44.850  22.897  24.058  1.00  0.00     0.275 C 
BRANCH  16  17
ATOM     17  O   UNL A   1      44.276  23.703  25.106  1.00  0.00    -0.458 OA
BRANCH  17  18
ATOM     18  C   UNL A   1      44.843  24.921  25.271  1.00  0.00     0.338 C 
ATOM     19  O   UNL A   1      45.727  25.420  24.595  1.00  0.00    -0.246 OA
BRANCH  18  20
ATOM     20  C   UNL A   1      44.120  25.677  26.310  1.00  0.00     0.060 A 
ATOM     21  C   UNL A   1      44.458  27.025  26.481  1.00  0.00     0.016 A 
ATOM     22  C   UNL A   1      43.166  25.076  27.134  1.00  0.00     0.016 A 
ATOM     23  C   UNL A   1      43.845  27.780  27.475  1.00  0.00     0.010 A 
ATOM     24  C   UNL A   1      42.558  25.833  28.140  1.00  0.00     0.010 A 
ATOM     25  C   UNL A   1      42.904  27.185  28.322  1.00  0.00    -0.014 A 
BRANCH  25  26
ATOM     26  C   UNL A   1      42.347  27.965  29.449  1.00  0.00     0.031 A 
ATOM     27  C   UNL A   1      43.048  27.950  30.775  1.00  0.00     0.074 A 
ATOM     28  C   UNL A   1      41.236  28.703  29.275  1.00  0.00     0.049 A 
ATOM     29  N   UNL A   1      42.708  28.523  31.901  1.00  0.00    -0.248 NA
ATOM     30  C   UNL A   1      44.303  27.185  30.840  1.00  0.00     0.031 C 
ATOM     31  C   UNL A   1      40.493  28.820  28.022  1.00  0.00     0.029 A 
ATOM     32  N   UNL A   1      40.536  29.483  30.159  1.00  0.00    -0.354 N 
ATOM     33  C   UNL A   1      43.696  28.174  32.812  1.00  0.00     0.074 A 
ATOM     34  C   UNL A   1      44.637  27.324  32.114  1.00  0.00     0.031 C 
ATOM     35  C   UNL A   1      39.430  29.616  28.221  1.00  0.00     0.029 A 
ATOM     36  C   UNL A   1      39.398  30.031  29.621  1.00  0.00     0.049 A 
ATOM     37  H   UNL A   1      40.821  29.636  31.089  1.00  0.00     0.167 HD
ATOM     38  C   UNL A   1      43.805  28.535  34.114  1.00  0.00     0.037 A 
ATOM     39  C   UNL A   1      38.427  30.759  30.203  1.00  0.00     0.037 A 
ATOM     40  C   UNL A   1      42.867  29.386  34.797  1.00  0.00     0.049 A 
ATOM     41  C   UNL A   1      38.544  31.107  31.664  1.00  0.00     0.074 A 
ATOM     42  C   UNL A   1      42.903  29.837  36.105  1.00  0.00     0.029 A 
ATOM     43  N   UNL A   1      41.715  29.909  34.226  1.00  0.00    -0.354 N 
ATOM     44  N   UNL A   1      39.492  30.796  32.514  1.00  0.00    -0.248 NA
ATOM     45  C   UNL A   1      37.458  31.910  32.243  1.00  0.00     0.031 C 
ATOM     46  C   UNL A   1      41.745  30.586  36.342  1.00  0.00     0.029 A 
ATOM     47  C   UNL A   1      41.015  30.651  35.165  1.00  0.00     0.049 A 
ATOM     48  H   UNL A   1      41.435  29.772  33.293  1.00  0.00     0.167 HD
ATOM     49  C   UNL A   1      39.130  31.378  33.722  1.00  0.00     0.074 A 
ATOM     50  C   UNL A   1      37.882  32.076  33.489  1.00  0.00     0.031 C 
ATOM     51  C   UNL A   1      39.772  31.338  34.916  1.00  0.00     0.037 A 
BRANCH  38  52
ATOM     52  C   UNL A   1      44.960  27.975  34.890  1.00  0.00     0.064 A 
ATOM     53  C   UNL A   1      44.870  26.759  35.583  1.00  0.00     0.173 A 
ATOM     54  C   UNL A   1      46.184  28.662  34.928  1.00  0.00     0.173 A 
ATOM     55  F   UNL A   1      43.720  26.069  35.590  1.00  0.00    -0.203 F 
ATOM     56  C   UNL A   1      45.950  26.268  36.314  1.00  0.00     0.198 A 
ATOM     57  C   UNL A   1      47.270  28.154  35.635  1.00  0.00     0.198 A 
ATOM     58  F   UNL A   1      46.326  29.827  34.279  1.00  0.00    -0.203 F 
ATOM     59  F   UNL A   1      45.824  25.133  37.014  1.00  0.00    -0.200 F 
ATOM     60  C   UNL A   1      47.150  26.964  36.335  1.00  0.00     0.200 A 
ATOM     61  F   UNL A   1      48.433  28.821  35.644  1.00  0.00    -0.200 F 
ATOM     62  F   UNL A   1      48.189  26.491  37.037  1.00  0.00    -0.200 F 
ENDBRANCH  38  52
BRANCH  39  63
ATOM     63  C   UNL A   1      37.248  31.183  29.404  1.00  0.00     0.064 A 
ATOM     64  C   UNL A   1      36.227  30.281  29.079  1.00  0.00     0.173 A 
ATOM     65  C   UNL A   1      37.118  32.506  28.956  1.00  0.00     0.173 A 
ATOM     66  F   UNL A   1      36.319  29.000  29.461  1.00  0.00    -0.203 F 
ATOM     67  C   UNL A   1      35.124  30.684  28.327  1.00  0.00     0.198 A 
ATOM     68  C   UNL A   1      36.002  32.916  28.231  1.00  0.00     0.198 A 
ATOM     69  F   UNL A   1      38.070  33.408  29.240  1.00  0.00    -0.203 F 
ATOM     70  F   UNL A   1      34.180  29.793  27.996  1.00  0.00    -0.200 F 
ATOM     71  C   UNL A   1      35.009  32.003  27.911  1.00  0.00     0.200 A 
ATOM     72  F   UNL A   1      35.889  34.193  27.842  1.00  0.00    -0.200 F 
ATOM     73  F   UNL A   1      33.944  32.391  27.197  1.00  0.00    -0.200 F 
ENDBRANCH  39  63
BRANCH  51  74
ATOM     74  C   UNL A   1      39.150  32.091  36.057  1.00  0.00     0.064 A 
ATOM     75  C   UNL A   1      38.241  31.481  36.933  1.00  0.00     0.173 A 
ATOM     76  C   UNL A   1      39.501  33.428  36.301  1.00  0.00     0.173 A 
ATOM     77  F   UNL A   1      37.861  30.209  36.734  1.00  0.00    -0.203 F 
ATOM     78  C   UNL A   1      37.688  32.188  37.998  1.00  0.00     0.198 A 
ATOM     79  C   UNL A   1      38.970  34.123  37.384  1.00  0.00     0.198 A 
ATOM     80  F   UNL A   1      40.371  34.056  35.495  1.00  0.00    -0.203 F 
ATOM     81  F   UNL A   1      36.787  31.599  38.795  1.00  0.00    -0.200 F 
ATOM     82  C   UNL A   1      38.059  33.505  38.226  1.00  0.00     0.200 A 
ATOM     83  F   UNL A   1      39.340  35.391  37.611  1.00  0.00    -0.200 F 
ATOM     84  F   UNL A   1      37.533  34.182  39.257  1.00  0.00    -0.200 F 
ENDBRANCH  51  74
ENDBRANCH  25  26
ENDBRANCH  18  20
ENDBRANCH  17  18
ENDBRANCH  16  17
ENDBRANCH   1  16
TORSDOF 14
ENDMDL
MODEL 2
REMARK VINA RESULT:     -10.5      3.736      4.993
REMARK SMILES Nc1nnc(S[C@H](F)C(=O)OCCOC(=O)c2ccc(-c3c4nc(c(-c5c(F)c(F)c(F)c(F)c5F)c5ccc([nH]5)c(-c5c(F)c(F)c(F)c(F)c5F)c5nc(c(-c6c(F)c(F)c(F)c(F)c6F)c6ccc3[nH]6)C=C5)C=C4)cc2)s1
REMARK SMILES IDX 12 1 11 2 9 3 10 4 7 5 8 6 6 7 5 8 2 9 3 10 80 11 4 12 1 13
REMARK SMILES IDX 13 16 14 17 15 18 16 19 17 20 18 21 79 22 19 23 78 24 20 25
REMARK SMILES IDX 21 26 22 27 72 28 23 29 77 30 71 31 73 32 24 33 76 34 70 35
REMARK SMILES IDX 69 36 25 38 57 39 37 40 56 41 38 42 41 43 55 44 74 45 39 46
REMARK SMILES IDX 40 47 54 49 75 50 42 51 26 52 27 53 35 54 28 55 29 56 33 57
REMARK SMILES IDX 36 58 30 59 31 60 34 61 32 62 58 63 59 64 67 65 60 66 61 67
REMARK SMILES IDX 65 68 68 69 62 70 63 71 66 72 64 73 43 74 44 75 52 76 45 77
REMARK SMILES IDX 46 78 50 79 53 80 47 81 48 82 51 83 49 84
REMARK H PARENT 1 14 1 15 73 37 41 48
REMARK Flexibility Score: inf
ROOT
ATOM      1  C   UNL A   1      42.265  21.530  27.467  1.00  0.00     0.274 C 
ENDROOT
BRANCH   1   2
ATOM      2  O   UNL A   1      42.733  22.886  27.345  1.00  0.00    -0.459 OA
BRANCH   2   3
ATOM      3  C   UNL A   1      43.831  23.075  26.559  1.00  0.00     0.351 C 
ATOM      4  O   UNL A   1      44.990  23.117  26.969  1.00  0.00    -0.248 OA
BRANCH   3   5
ATOM      5  C   UNL A   1      43.470  23.217  25.097  1.00  0.00     0.340 C 
ATOM      6  F   UNL A   1      43.273  24.524  24.740  1.00  0.00    -0.222 F 
BRANCH   5   7
ATOM      7  S   UNL A   1      44.632  22.498  23.913  1.00  0.00    -0.044 SA
BRANCH   7   8
ATOM      8  C   UNL A   1      44.855  20.840  24.394  1.00  0.00     0.179 A 
ATOM      9  C   UNL A   1      45.600  18.749  25.248  1.00  0.00     0.203 A 
ATOM     10  N   UNL A   1      44.299  18.789  25.083  1.00  0.00    -0.120 NA
ATOM     11  S   UNL A   1      46.400  20.195  24.775  1.00  0.00    -0.069 S 
ATOM     12  N   UNL A   1      43.866  20.013  24.626  1.00  0.00    -0.130 NA
BRANCH   9  13
ATOM     13  N   UNL A   1      46.267  17.701  25.751  1.00  0.00    -0.374 N 
ATOM     14  H   UNL A   1      46.509  16.946  25.167  1.00  0.00     0.159 HD
ATOM     15  H   UNL A   1      46.516  17.687  26.703  1.00  0.00     0.159 HD
ENDBRANCH   9  13
ENDBRANCH   7   8
ENDBRANCH   5   7
ENDBRANCH   3   5
ENDBRANCH   2   3
ENDBRANCH   1   2
BRANCH   1  16
ATOM     16  C   UNL A   1      40.746  21.420  27.293  1.00  0.00     0.275 C 
BRANCH  16  17
ATOM     17  O   UNL A   1      40.280  22.123  26.125  1.00  0.00    -0.458 OA
BRANCH  17  18
ATOM     18  C   UNL A   1      39.116  22.796  26.283  1.00  0.00     0.338 C 
ATOM     19  O   UNL A   1      37.988  22.368  26.103  1.00  0.00    -0.246 OA
BRANCH  18  20
ATOM     20  C   UNL A   1      39.374  24.117  26.884  1.00  0.00     0.060 A 
ATOM     21  C   UNL A   1      40.107  25.039  26.127  1.00  0.00     0.016 A 
ATOM     22  C   UNL A   1      38.954  24.436  28.177  1.00  0.00     0.016 A 
ATOM     23  C   UNL A   1      40.423  26.286  26.657  1.00  0.00     0.010 A 
ATOM     24  C   UNL A   1      39.281  25.686  28.713  1.00  0.00     0.010 A 
ATOM     25  C   UNL A   1      40.028  26.610  27.959  1.00  0.00    -0.014 A 
BRANCH  25  26
ATOM     26  C   UNL A   1      40.471  27.891  28.553  1.00  0.00     0.031 A 
ATOM     27  C   UNL A   1      41.909  28.065  28.942  1.00  0.00     0.074 A 
ATOM     28  C   UNL A   1      39.595  28.898  28.717  1.00  0.00     0.049 A 
ATOM     29  N   UNL A   1      42.497  29.083  29.516  1.00  0.00    -0.248 NA
ATOM     30  C   UNL A   1      42.806  26.939  28.642  1.00  0.00     0.031 C 
ATOM     31  C   UNL A   1      38.183  28.853  28.342  1.00  0.00     0.029 A 
ATOM     32  N   UNL A   1      39.765  30.150  29.250  1.00  0.00    -0.354 N 
ATOM     33  C   UNL A   1      43.827  28.714  29.663  1.00  0.00     0.074 A 
ATOM     34  C   UNL A   1      43.957  27.373  29.136  1.00  0.00     0.031 C 
ATOM     35  C   UNL A   1      37.609  30.021  28.671  1.00  0.00     0.029 A 
ATOM     36  C   UNL A   1      38.603  30.879  29.311  1.00  0.00     0.049 A 
ATOM     37  H   UNL A   1      40.634  30.493  29.558  1.00  0.00     0.167 HD
ATOM     38  C   UNL A   1      44.847  29.436  30.189  1.00  0.00     0.037 A 
ATOM     39  C   UNL A   1      38.365  32.089  29.852  1.00  0.00     0.037 A 
ATOM     40  C   UNL A   1      44.709  30.772  30.705  1.00  0.00     0.049 A 
ATOM     41  C   UNL A   1      39.504  32.852  30.476  1.00  0.00     0.074 A 
ATOM     42  C   UNL A   1      45.685  31.600  31.231  1.00  0.00     0.029 A 
ATOM     43  N   UNL A   1      43.513  31.474  30.769  1.00  0.00    -0.354 N 
ATOM     44  N   UNL A   1      40.764  32.509  30.589  1.00  0.00    -0.248 NA
ATOM     45  C   UNL A   1      39.187  34.170  31.043  1.00  0.00     0.031 C 
ATOM     46  C   UNL A   1      45.071  32.781  31.663  1.00  0.00     0.029 A 
ATOM     47  C   UNL A   1      43.721  32.713  31.355  1.00  0.00     0.049 A 
ATOM     48  H   UNL A   1      42.645  31.141  30.447  1.00  0.00     0.167 HD
ATOM     49  C   UNL A   1      41.395  33.573  31.222  1.00  0.00     0.074 A 
ATOM     50  C   UNL A   1      40.380  34.580  31.452  1.00  0.00     0.031 C 
ATOM     51  C   UNL A   1      42.698  33.703  31.579  1.00  0.00     0.037 A 
BRANCH  38  52
ATOM     52  C   UNL A   1      46.191  28.773  30.266  1.00  0.00     0.064 A 
ATOM     53  C   UNL A   1      46.593  28.038  31.391  1.00  0.00     0.173 A 
ATOM     54  C   UNL A   1      47.087  28.866  29.189  1.00  0.00     0.173 A 
ATOM     55  F   UNL A   1      45.781  27.930  32.453  1.00  0.00    -0.203 F 
ATOM     56  C   UNL A   1      47.854  27.449  31.449  1.00  0.00     0.198 A 
ATOM     57  C   UNL A   1      48.334  28.251  29.238  1.00  0.00     0.198 A 
ATOM     58  F   UNL A   1      46.751  29.553  28.087  1.00  0.00    -0.203 F 
ATOM     59  F   UNL A   1      48.239  26.798  32.555  1.00  0.00    -0.200 F 
ATOM     60  C   UNL A   1      48.722  27.552  30.371  1.00  0.00     0.200 A 
ATOM     61  F   UNL A   1      49.166  28.341  28.191  1.00  0.00    -0.200 F 
ATOM     62  F   UNL A   1      49.933  26.984  30.427  1.00  0.00    -0.200 F 
ENDBRANCH  38  52
BRANCH  39  63
ATOM     63  C   UNL A   1      36.985  32.637  29.847  1.00  0.00     0.064 A 
ATOM     64  C   UNL A   1      36.132  32.473  30.946  1.00  0.00     0.173 A 
ATOM     65  C   UNL A   1      36.493  33.345  28.739  1.00  0.00     0.173 A 
ATOM     66  F   UNL A   1      36.546  31.781  32.017  1.00  0.00    -0.203 F 
ATOM     67  C   UNL A   1      34.837  32.987  30.935  1.00  0.00     0.198 A 
ATOM     68  C   UNL A   1      35.209  33.885  28.740  1.00  0.00     0.198 A 
ATOM     69  F   UNL A   1      37.270  33.528  27.661  1.00  0.00    -0.203 F 
ATOM     70  F   UNL A   1      34.028  32.783  31.983  1.00  0.00    -0.200 F 
ATOM     71  C   UNL A   1      34.379  33.700  29.835  1.00  0.00     0.200 A 
ATOM     72  F   UNL A   1      34.777  34.583  27.682  1.00  0.00    -0.200 F 
ATOM     73  F   UNL A   1      33.138  34.203  29.830  1.00  0.00    -0.200 F 
ENDBRANCH  39  63
BRANCH  51  74
ATOM     74  C   UNL A   1      43.104  34.992  32.235  1.00  0.00     0.064 A 
ATOM     75  C   UNL A   1      43.096  35.143  33.629  1.00  0.00     0.173 A 
ATOM     76  C   UNL A   1      43.549  36.073  31.459  1.00  0.00     0.173 A 
ATOM     77  F   UNL A   1      42.665  34.144  34.414  1.00  0.00    -0.203 F 
ATOM     78  C   UNL A   1      43.495  36.338  34.221  1.00  0.00     0.198 A 
ATOM     79  C   UNL A   1      43.977  37.256  32.056  1.00  0.00     0.198 A 
ATOM     80  F   UNL A   1      43.582  35.978  30.121  1.00  0.00    -0.203 F 
ATOM     81  F   UNL A   1      43.435  36.477  35.552  1.00  0.00    -0.200 F 
ATOM     82  C   UNL A   1      43.942  37.390  33.435  1.00  0.00     0.200 A 
ATOM     83  F   UNL A   1      44.421  38.266  31.295  1.00  0.00    -0.200 F 
ATOM     84  F   UNL A   1      44.334  38.537  34.008  1.00  0.00    -0.200 F 
ENDBRANCH  51  74
ENDBRANCH  25  26
ENDBRANCH  18  20
ENDBRANCH  17  18
ENDBRANCH  16  17
ENDBRANCH   1  16
TORSDOF 14
ENDMDL
MODEL 3
REMARK VINA RESULT:     -10.5      4.490      6.324
REMARK SMILES Nc1nnc(S[C@H](F)C(=O)OCCOC(=O)c2ccc(-c3c4nc(c(-c5c(F)c(F)c(F)c(F)c5F)c5ccc([nH]5)c(-c5c(F)c(F)c(F)c(F)c5F)c5nc(c(-c6c(F)c(F)c(F)c(F)c6F)c6ccc3[nH]6)C=C5)C=C4)cc2)s1
REMARK SMILES IDX 12 1 11 2 9 3 10 4 7 5 8 6 6 7 5 8 2 9 3 10 80 11 4 12 1 13
REMARK SMILES IDX 13 16 14 17 15 18 16 19 17 20 18 21 79 22 19 23 78 24 20 25
REMARK SMILES IDX 21 26 22 27 72 28 23 29 77 30 71 31 73 32 24 33 76 34 70 35
REMARK SMILES IDX 69 36 25 38 57 39 37 40 56 41 38 42 41 43 55 44 74 45 39 46
REMARK SMILES IDX 40 47 54 49 75 50 42 51 26 52 27 53 35 54 28 55 29 56 33 57
REMARK SMILES IDX 36 58 30 59 31 60 34 61 32 62 58 63 59 64 67 65 60 66 61 67
REMARK SMILES IDX 65 68 68 69 62 70 63 71 66 72 64 73 43 74 44 75 52 76 45 77
REMARK SMILES IDX 46 78 50 79 53 80 47 81 48 82 51 83 49 84
REMARK H PARENT 1 14 1 15 73 37 41 48
REMARK Flexibility Score: inf
ROOT
ATOM      1  C   UNL A   1      42.005  20.283  26.047  1.00  0.00     0.274 C 
ENDROOT
BRANCH   1   2
ATOM      2  O   UNL A   1      42.522  19.210  25.238  1.00  0.00    -0.459 OA
BRANCH   2   3
ATOM      3  C   UNL A   1      43.399  18.363  25.848  1.00  0.00     0.351 C 
ATOM      4  O   UNL A   1      43.079  17.371  26.501  1.00  0.00    -0.248 OA
BRANCH   3   5
ATOM      5  C   UNL A   1      44.838  18.770  25.624  1.00  0.00     0.340 C 
ATOM      6  F   UNL A   1      45.695  17.706  25.718  1.00  0.00    -0.222 F 
BRANCH   5   7
ATOM      7  S   UNL A   1      45.196  19.622  24.069  1.00  0.00    -0.044 SA
BRANCH   7   8
ATOM      8  C   UNL A   1      45.516  21.281  24.485  1.00  0.00     0.179 A 
ATOM      9  C   UNL A   1      45.467  23.620  24.909  1.00  0.00     0.203 A 
ATOM     10  N   UNL A   1      46.403  23.006  25.594  1.00  0.00    -0.120 NA
ATOM     11  S   UNL A   1      44.567  22.578  23.881  1.00  0.00    -0.069 S 
ATOM     12  N   UNL A   1      46.404  21.647  25.377  1.00  0.00    -0.130 NA
BRANCH   9  13
ATOM     13  N   UNL A   1      45.204  24.932  24.996  1.00  0.00    -0.374 N 
ATOM     14  H   UNL A   1      44.834  25.411  24.219  1.00  0.00     0.159 HD
ATOM     15  H   UNL A   1      45.381  25.415  25.834  1.00  0.00     0.159 HD
ENDBRANCH   9  13
ENDBRANCH   7   8
ENDBRANCH   5   7
ENDBRANCH   3   5
ENDBRANCH   2   3
ENDBRANCH   1   2
BRANCH   1  16
ATOM     16  C   UNL A   1      40.550  20.048  26.467  1.00  0.00     0.275 C 
BRANCH  16  17
ATOM     17  O   UNL A   1      40.027  21.138  27.251  1.00  0.00    -0.458 OA
BRANCH  17  18
ATOM     18  C   UNL A   1      39.435  22.127  26.542  1.00  0.00     0.338 C 
ATOM     19  O   UNL A   1      38.579  22.005  25.682  1.00  0.00    -0.246 OA
BRANCH  18  20
ATOM     20  C   UNL A   1      39.845  23.441  27.069  1.00  0.00     0.060 A 
ATOM     21  C   UNL A   1      39.271  24.577  26.488  1.00  0.00     0.016 A 
ATOM     22  C   UNL A   1      40.802  23.568  28.078  1.00  0.00     0.016 A 
ATOM     23  C   UNL A   1      39.650  25.848  26.909  1.00  0.00     0.010 A 
ATOM     24  C   UNL A   1      41.191  24.846  28.494  1.00  0.00     0.010 A 
ATOM     25  C   UNL A   1      40.625  25.990  27.903  1.00  0.00    -0.014 A 
BRANCH  25  26
ATOM     26  C   UNL A   1      41.105  27.344  28.259  1.00  0.00     0.031 A 
ATOM     27  C   UNL A   1      42.559  27.675  28.105  1.00  0.00     0.074 A 
ATOM     28  C   UNL A   1      40.237  28.276  28.691  1.00  0.00     0.049 A 
ATOM     29  N   UNL A   1      43.196  28.780  28.400  1.00  0.00    -0.248 NA
ATOM     30  C   UNL A   1      43.413  26.617  27.542  1.00  0.00     0.031 C 
ATOM     31  C   UNL A   1      38.797  28.076  28.845  1.00  0.00     0.029 A 
ATOM     32  N   UNL A   1      40.444  29.571  29.088  1.00  0.00    -0.354 N 
ATOM     33  C   UNL A   1      44.525  28.545  28.076  1.00  0.00     0.074 A 
ATOM     34  C   UNL A   1      44.608  27.187  27.581  1.00  0.00     0.031 C 
ATOM     35  C   UNL A   1      38.250  29.206  29.318  1.00  0.00     0.029 A 
ATOM     36  C   UNL A   1      39.304  30.193  29.535  1.00  0.00     0.049 A 
ATOM     37  H   UNL A   1      41.323  30.013  29.056  1.00  0.00     0.167 HD
ATOM     38  C   UNL A   1      45.578  29.391  28.181  1.00  0.00     0.037 A 
ATOM     39  C   UNL A   1      39.140  31.411  30.086  1.00  0.00     0.037 A 
ATOM     40  C   UNL A   1      45.484  30.741  28.670  1.00  0.00     0.049 A 
ATOM     41  C   UNL A   1      40.334  32.316  30.240  1.00  0.00     0.074 A 
ATOM     42  C   UNL A   1      46.485  31.689  28.787  1.00  0.00     0.029 A 
ATOM     43  N   UNL A   1      44.317  31.333  29.132  1.00  0.00    -0.354 N 
ATOM     44  N   UNL A   1      41.584  32.099  29.909  1.00  0.00    -0.248 NA
ATOM     45  C   UNL A   1      40.093  33.635  30.840  1.00  0.00     0.031 C 
ATOM     46  C   UNL A   1      45.936  32.835  29.372  1.00  0.00     0.029 A 
ATOM     47  C   UNL A   1      44.579  32.624  29.566  1.00  0.00     0.049 A 
ATOM     48  H   UNL A   1      43.433  30.901  29.151  1.00  0.00     0.167 HD
ATOM     49  C   UNL A   1      42.275  33.256  30.241  1.00  0.00     0.074 A 
ATOM     50  C   UNL A   1      41.301  34.180  30.785  1.00  0.00     0.031 C 
ATOM     51  C   UNL A   1      43.597  33.530  30.107  1.00  0.00     0.037 A 
BRANCH  38  52
ATOM     52  C   UNL A   1      46.928  28.860  27.797  1.00  0.00     0.064 A 
ATOM     53  C   UNL A   1      47.351  28.800  26.461  1.00  0.00     0.173 A 
ATOM     54  C   UNL A   1      47.820  28.416  28.787  1.00  0.00     0.173 A 
ATOM     55  F   UNL A   1      46.533  29.199  25.476  1.00  0.00    -0.203 F 
ATOM     56  C   UNL A   1      48.601  28.285  26.127  1.00  0.00     0.198 A 
ATOM     57  C   UNL A   1      49.080  27.929  28.452  1.00  0.00     0.198 A 
ATOM     58  F   UNL A   1      47.468  28.455  30.081  1.00  0.00    -0.203 F 
ATOM     59  F   UNL A   1      48.962  28.186  24.840  1.00  0.00    -0.200 F 
ATOM     60  C   UNL A   1      49.466  27.854  27.123  1.00  0.00     0.200 A 
ATOM     61  F   UNL A   1      49.918  27.525  29.416  1.00  0.00    -0.200 F 
ATOM     62  F   UNL A   1      50.668  27.359  26.800  1.00  0.00    -0.200 F 
ENDBRANCH  38  52
BRANCH  39  63
ATOM     63  C   UNL A   1      37.794  31.829  30.555  1.00  0.00     0.064 A 
ATOM     64  C   UNL A   1      36.834  32.326  29.663  1.00  0.00     0.173 A 
ATOM     65  C   UNL A   1      37.438  31.731  31.909  1.00  0.00     0.173 A 
ATOM     66  F   UNL A   1      37.136  32.464  28.364  1.00  0.00    -0.203 F 
ATOM     67  C   UNL A   1      35.573  32.718  30.109  1.00  0.00     0.198 A 
ATOM     68  C   UNL A   1      36.168  32.095  32.349  1.00  0.00     0.198 A 
ATOM     69  F   UNL A   1      38.321  31.263  32.803  1.00  0.00    -0.203 F 
ATOM     70  F   UNL A   1      34.687  33.226  29.242  1.00  0.00    -0.200 F 
ATOM     71  C   UNL A   1      35.238  32.594  31.450  1.00  0.00     0.200 A 
ATOM     72  F   UNL A   1      35.845  31.961  33.642  1.00  0.00    -0.200 F 
ATOM     73  F   UNL A   1      34.022  32.962  31.875  1.00  0.00    -0.200 F 
ENDBRANCH  39  63
BRANCH  51  74
ATOM     74  C   UNL A   1      44.064  34.892  30.534  1.00  0.00     0.064 A 
ATOM     75  C   UNL A   1      43.936  36.010  29.698  1.00  0.00     0.173 A 
ATOM     76  C   UNL A   1      44.606  35.087  31.814  1.00  0.00     0.173 A 
ATOM     77  F   UNL A   1      43.437  35.873  28.460  1.00  0.00    -0.203 F 
ATOM     78  C   UNL A   1      44.356  37.269  30.118  1.00  0.00     0.198 A 
ATOM     79  C   UNL A   1      44.997  36.353  32.242  1.00  0.00     0.198 A 
ATOM     80  F   UNL A   1      44.745  34.051  32.655  1.00  0.00    -0.203 F 
ATOM     81  F   UNL A   1      44.266  38.315  29.285  1.00  0.00    -0.200 F 
ATOM     82  C   UNL A   1      44.878  37.440  31.391  1.00  0.00     0.200 A 
ATOM     83  F   UNL A   1      45.489  36.518  33.477  1.00  0.00    -0.200 F 
ATOM     84  F   UNL A   1      45.274  38.655  31.797  1.00  0.00    -0.200 F 
ENDBRANCH  51  74
ENDBRANCH  25  26
ENDBRANCH  18  20
ENDBRANCH  17  18
ENDBRANCH  16  17
ENDBRANCH   1  16
TORSDOF 14
ENDMDL
