MODEL 1
REMARK VINA RESULT:     -10.7      0.000      0.000
REMARK SMILES COCc1cccc(C[NH2+][C@H](C)[C@H](C)C(=O)OCCOC(=O)c2ccc(-c3c4nc(c(-c5c(F)c(F)c(F)c(F)c5F)c5ccc([nH]5)c(-c5c(F)c(F)c(F)c(F)c5F)c5nc(c(-c6c(F)c(F)c(F)c(F)c6F)c6ccc3[nH]6)C=C5)C=C4)cc2)c1
REMARK SMILES IDX 15 1 16 2 13 3 14 4 11 5 12 6 10 7 9 10 8 11 4 12 5 13 86 14
REMARK SMILES IDX 6 15 7 16 3 17 2 18 1 19 17 20 18 21 19 22 20 23 21 24 22 25
REMARK SMILES IDX 23 26 24 27 85 28 25 29 84 30 26 31 27 32 28 33 78 34 29 35
REMARK SMILES IDX 83 36 77 37 79 38 30 39 82 40 76 41 75 42 31 44 63 45 43 46
REMARK SMILES IDX 62 47 44 48 47 49 61 50 80 51 45 52 46 53 60 55 81 56 48 57
REMARK SMILES IDX 32 58 33 59 41 60 34 61 35 62 39 63 42 64 36 65 37 66 40 67
REMARK SMILES IDX 38 68 64 69 65 70 73 71 66 72 67 73 71 74 74 75 68 76 69 77
REMARK SMILES IDX 72 78 70 79 49 80 50 81 58 82 51 83 52 84 56 85 59 86 53 87
REMARK SMILES IDX 54 88 57 89 55 90
REMARK H PARENT 10 8 10 9 79 43 47 54
REMARK Flexibility Score: inf
ROOT
ATOM      1  C   UNL A   1      32.291  27.753  25.669  1.00  0.00     0.314 C 
ATOM      2  O   UNL A   1      31.396  27.384  26.422  1.00  0.00    -0.252 OA
ENDROOT
BRANCH   1   3
ATOM      3  C   UNL A   1      33.170  26.773  24.905  1.00  0.00     0.154 C 
ATOM      4  C   UNL A   1      33.657  25.593  25.751  1.00  0.00     0.026 C 
BRANCH   3   5
ATOM      5  C   UNL A   1      32.600  26.285  23.541  1.00  0.00     0.193 C 
ATOM      6  C   UNL A   1      32.485  24.762  23.420  1.00  0.00     0.076 C 
BRANCH   5   7
ATOM      7  N   UNL A   1      31.285  26.924  23.354  1.00  0.00    -0.340 N 
ATOM      8  H   UNL A   1      30.612  26.192  23.125  1.00  0.00     0.346 HD
ATOM      9  H   UNL A   1      31.086  27.411  24.228  1.00  0.00     0.346 HD
BRANCH   7  10
ATOM     10  C   UNL A   1      31.216  27.940  22.309  1.00  0.00     0.297 C 
BRANCH  10  11
ATOM     11  C   UNL A   1      29.901  28.682  22.416  1.00  0.00     0.006 A 
ATOM     12  C   UNL A   1      28.509  30.644  21.985  1.00  0.00    -0.022 A 
ATOM     13  C   UNL A   1      27.471  30.050  22.717  1.00  0.00     0.006 A 
ATOM     14  C   UNL A   1      29.729  29.957  21.856  1.00  0.00     0.015 A 
ATOM     15  C   UNL A   1      27.629  28.782  23.272  1.00  0.00     0.001 A 
ATOM     16  C   UNL A   1      28.835  28.102  23.121  1.00  0.00     0.009 A 
BRANCH  12  17
ATOM     17  C   UNL A   1      28.364  32.031  21.399  1.00  0.00     0.195 C 
BRANCH  17  18
ATOM     18  O   UNL A   1      28.030  33.029  22.368  1.00  0.00    -0.380 OA
ATOM     19  C   UNL A   1      29.153  33.464  23.124  1.00  0.00     0.195 C 
ENDBRANCH  17  18
ENDBRANCH  12  17
ENDBRANCH  10  11
ENDBRANCH   7  10
ENDBRANCH   5   7
ENDBRANCH   3   5
ENDBRANCH   1   3
BRANCH   1  20
ATOM     20  O   UNL A   1      32.594  29.054  25.420  1.00  0.00    -0.462 OA
BRANCH  20  21
ATOM     21  C   UNL A   1      31.470  29.955  25.363  1.00  0.00     0.274 C 
BRANCH  21  22
ATOM     22  C   UNL A   1      31.705  31.229  26.182  1.00  0.00     0.275 C 
BRANCH  22  23
ATOM     23  O   UNL A   1      32.630  31.019  27.267  1.00  0.00    -0.458 OA
BRANCH  23  24
ATOM     24  C   UNL A   1      33.453  32.061  27.526  1.00  0.00     0.338 C 
ATOM     25  O   UNL A   1      33.183  33.248  27.472  1.00  0.00    -0.246 OA
BRANCH  24  26
ATOM     26  C   UNL A   1      34.753  31.576  28.020  1.00  0.00     0.060 A 
ATOM     27  C   UNL A   1      34.820  30.258  28.476  1.00  0.00     0.016 A 
ATOM     28  C   UNL A   1      35.854  32.424  28.148  1.00  0.00     0.016 A 
ATOM     29  C   UNL A   1      35.984  29.774  29.064  1.00  0.00     0.010 A 
ATOM     30  C   UNL A   1      37.026  31.941  28.747  1.00  0.00     0.010 A 
ATOM     31  C   UNL A   1      37.091  30.619  29.222  1.00  0.00    -0.014 A 
BRANCH  31  32
ATOM     32  C   UNL A   1      38.280  30.117  29.950  1.00  0.00     0.031 A 
ATOM     33  C   UNL A   1      38.531  30.553  31.365  1.00  0.00     0.074 A 
ATOM     34  C   UNL A   1      39.102  29.230  29.361  1.00  0.00     0.049 A 
ATOM     35  N   UNL A   1      39.524  30.253  32.162  1.00  0.00    -0.248 NA
ATOM     36  C   UNL A   1      37.527  31.447  31.962  1.00  0.00     0.031 C 
ATOM     37  C   UNL A   1      38.935  28.694  28.012  1.00  0.00     0.029 A 
ATOM     38  N   UNL A   1      40.237  28.616  29.830  1.00  0.00    -0.354 N 
ATOM     39  C   UNL A   1      39.277  30.933  33.346  1.00  0.00     0.074 A 
ATOM     40  C   UNL A   1      38.047  31.673  33.161  1.00  0.00     0.031 C 
ATOM     41  C   UNL A   1      39.931  27.830  27.759  1.00  0.00     0.029 A 
ATOM     42  C   UNL A   1      40.822  27.778  28.915  1.00  0.00     0.049 A 
ATOM     43  H   UNL A   1      40.596  28.765  30.735  1.00  0.00     0.167 HD
ATOM     44  C   UNL A   1      40.011  30.936  34.486  1.00  0.00     0.037 A 
ATOM     45  C   UNL A   1      41.962  27.064  28.995  1.00  0.00     0.037 A 
ATOM     46  C   UNL A   1      41.224  30.185  34.676  1.00  0.00     0.049 A 
ATOM     47  C   UNL A   1      42.775  27.112  30.260  1.00  0.00     0.074 A 
ATOM     48  C   UNL A   1      42.031  30.115  35.798  1.00  0.00     0.029 A 
ATOM     49  N   UNL A   1      41.805  29.369  33.716  1.00  0.00    -0.354 N 
ATOM     50  N   UNL A   1      42.540  27.765  31.371  1.00  0.00    -0.248 NA
ATOM     51  C   UNL A   1      44.015  26.324  30.279  1.00  0.00     0.031 C 
ATOM     52  C   UNL A   1      43.120  29.283  35.505  1.00  0.00     0.029 A 
ATOM     53  C   UNL A   1      42.969  28.805  34.214  1.00  0.00     0.049 A 
ATOM     54  H   UNL A   1      41.442  29.212  32.813  1.00  0.00     0.167 HD
ATOM     55  C   UNL A   1      43.591  27.459  32.224  1.00  0.00     0.074 A 
ATOM     56  C   UNL A   1      44.456  26.544  31.509  1.00  0.00     0.031 C 
ATOM     57  C   UNL A   1      43.821  27.901  33.486  1.00  0.00     0.037 A 
BRANCH  44  58
ATOM     58  C   UNL A   1      39.536  31.810  35.608  1.00  0.00     0.064 A 
ATOM     59  C   UNL A   1      40.019  33.114  35.783  1.00  0.00     0.173 A 
ATOM     60  C   UNL A   1      38.563  31.342  36.504  1.00  0.00     0.173 A 
ATOM     61  F   UNL A   1      40.961  33.603  34.961  1.00  0.00    -0.203 F 
ATOM     62  C   UNL A   1      39.561  33.912  36.829  1.00  0.00     0.198 A 
ATOM     63  C   UNL A   1      38.091  32.150  37.535  1.00  0.00     0.198 A 
ATOM     64  F   UNL A   1      38.067  30.102  36.377  1.00  0.00    -0.203 F 
ATOM     65  F   UNL A   1      40.066  35.141  37.004  1.00  0.00    -0.200 F 
ATOM     66  C   UNL A   1      38.594  33.431  37.700  1.00  0.00     0.200 A 
ATOM     67  F   UNL A   1      37.151  31.687  38.370  1.00  0.00    -0.200 F 
ATOM     68  F   UNL A   1      38.153  34.201  38.705  1.00  0.00    -0.200 F 
ENDBRANCH  44  58
BRANCH  45  69
ATOM     69  C   UNL A   1      42.406  26.255  27.832  1.00  0.00     0.064 A 
ATOM     70  C   UNL A   1      41.912  24.961  27.619  1.00  0.00     0.173 A 
ATOM     71  C   UNL A   1      43.334  26.763  26.912  1.00  0.00     0.173 A 
ATOM     72  F   UNL A   1      41.046  24.424  28.489  1.00  0.00    -0.203 F 
ATOM     73  C   UNL A   1      42.338  24.201  26.532  1.00  0.00     0.198 A 
ATOM     74  C   UNL A   1      43.739  26.012  25.812  1.00  0.00     0.198 A 
ATOM     75  F   UNL A   1      43.839  27.993  27.076  1.00  0.00    -0.203 F 
ATOM     76  F   UNL A   1      41.882  22.952  26.371  1.00  0.00    -0.200 F 
ATOM     77  C   UNL A   1      43.245  24.729  25.626  1.00  0.00     0.200 A 
ATOM     78  F   UNL A   1      44.610  26.528  24.934  1.00  0.00    -0.200 F 
ATOM     79  F   UNL A   1      43.651  23.999  24.578  1.00  0.00    -0.200 F 
ENDBRANCH  45  69
BRANCH  57  80
ATOM     80  C   UNL A   1      45.051  27.387  34.172  1.00  0.00     0.064 A 
ATOM     81  C   UNL A   1      45.024  26.215  34.942  1.00  0.00     0.173 A 
ATOM     82  C   UNL A   1      46.273  28.063  34.043  1.00  0.00     0.173 A 
ATOM     83  F   UNL A   1      43.875  25.543  35.108  1.00  0.00    -0.203 F 
ATOM     84  C   UNL A   1      46.172  25.751  35.579  1.00  0.00     0.198 A 
ATOM     85  C   UNL A   1      47.425  27.582  34.662  1.00  0.00     0.198 A 
ATOM     86  F   UNL A   1      46.352  29.185  33.314  1.00  0.00    -0.203 F 
ATOM     87  F   UNL A   1      46.113  24.654  36.346  1.00  0.00    -0.200 F 
ATOM     88  C   UNL A   1      47.371  26.432  35.434  1.00  0.00     0.200 A 
ATOM     89  F   UNL A   1      48.586  28.236  34.515  1.00  0.00    -0.200 F 
ATOM     90  F   UNL A   1      48.476  25.984  36.049  1.00  0.00    -0.200 F 
ENDBRANCH  57  80
ENDBRANCH  31  32
ENDBRANCH  24  26
ENDBRANCH  23  24
ENDBRANCH  22  23
ENDBRANCH  21  22
ENDBRANCH  20  21
ENDBRANCH   1  20
TORSDOF 17
ENDMDL
MODEL 2
REMARK VINA RESULT:     -10.5      6.518     12.410
REMARK SMILES COCc1cccc(C[NH2+][C@H](C)[C@H](C)C(=O)OCCOC(=O)c2ccc(-c3c4nc(c(-c5c(F)c(F)c(F)c(F)c5F)c5ccc([nH]5)c(-c5c(F)c(F)c(F)c(F)c5F)c5nc(c(-c6c(F)c(F)c(F)c(F)c6F)c6ccc3[nH]6)C=C5)C=C4)cc2)c1
REMARK SMILES IDX 15 1 16 2 13 3 14 4 11 5 12 6 10 7 9 10 8 11 4 12 5 13 86 14
REMARK SMILES IDX 6 15 7 16 3 17 2 18 1 19 17 20 18 21 19 22 20 23 21 24 22 25
REMARK SMILES IDX 23 26 24 27 85 28 25 29 84 30 26 31 27 32 28 33 78 34 29 35
REMARK SMILES IDX 83 36 77 37 79 38 30 39 82 40 76 41 75 42 31 44 63 45 43 46
REMARK SMILES IDX 62 47 44 48 47 49 61 50 80 51 45 52 46 53 60 55 81 56 48 57
REMARK SMILES IDX 32 58 33 59 41 60 34 61 35 62 39 63 42 64 36 65 37 66 40 67
REMARK SMILES IDX 38 68 64 69 65 70 73 71 66 72 67 73 71 74 74 75 68 76 69 77
REMARK SMILES IDX 72 78 70 79 49 80 50 81 58 82 51 83 52 84 56 85 59 86 53 87
REMARK SMILES IDX 54 88 57 89 55 90
REMARK H PARENT 10 8 10 9 79 43 47 54
REMARK Flexibility Score: inf
ROOT
ATOM      1  C   UNL A   1      44.165  20.027  25.083  1.00  0.00     0.314 C 
ATOM      2  O   UNL A   1      45.032  19.230  25.427  1.00  0.00    -0.252 OA
ENDROOT
BRANCH   1   3
ATOM      3  C   UNL A   1      44.484  21.465  24.701  1.00  0.00     0.154 C 
ATOM      4  C   UNL A   1      43.344  22.446  24.988  1.00  0.00     0.026 C 
BRANCH   3   5
ATOM      5  C   UNL A   1      45.840  22.014  25.232  1.00  0.00     0.193 C 
ATOM      6  C   UNL A   1      46.402  23.186  24.420  1.00  0.00     0.076 C 
BRANCH   5   7
ATOM      7  N   UNL A   1      45.643  22.402  26.640  1.00  0.00    -0.340 N 
ATOM      8  H   UNL A   1      44.656  22.624  26.768  1.00  0.00     0.346 HD
ATOM      9  H   UNL A   1      45.965  21.610  27.195  1.00  0.00     0.346 HD
BRANCH   7  10
ATOM     10  C   UNL A   1      46.423  23.548  27.097  1.00  0.00     0.297 C 
BRANCH  10  11
ATOM     11  C   UNL A   1      45.841  24.066  28.395  1.00  0.00     0.006 A 
ATOM     12  C   UNL A   1      45.771  25.707  30.205  1.00  0.00    -0.022 A 
ATOM     13  C   UNL A   1      44.789  24.936  30.845  1.00  0.00     0.006 A 
ATOM     14  C   UNL A   1      46.304  25.251  28.986  1.00  0.00     0.015 A 
ATOM     15  C   UNL A   1      44.318  23.761  30.263  1.00  0.00     0.001 A 
ATOM     16  C   UNL A   1      44.840  23.330  29.046  1.00  0.00     0.009 A 
BRANCH  12  17
ATOM     17  C   UNL A   1      46.313  26.970  30.835  1.00  0.00     0.195 C 
BRANCH  17  18
ATOM     18  O   UNL A   1      46.122  28.138  30.032  1.00  0.00    -0.380 OA
ATOM     19  C   UNL A   1      47.047  29.175  30.335  1.00  0.00     0.195 C 
ENDBRANCH  17  18
ENDBRANCH  12  17
ENDBRANCH  10  11
ENDBRANCH   7  10
ENDBRANCH   5   7
ENDBRANCH   3   5
ENDBRANCH   1   3
BRANCH   1  20
ATOM     20  O   UNL A   1      42.843  19.727  24.993  1.00  0.00    -0.462 OA
BRANCH  20  21
ATOM     21  C   UNL A   1      42.280  19.042  26.130  1.00  0.00     0.274 C 
BRANCH  21  22
ATOM     22  C   UNL A   1      41.838  20.012  27.232  1.00  0.00     0.275 C 
BRANCH  22  23
ATOM     23  O   UNL A   1      40.403  20.115  27.326  1.00  0.00    -0.458 OA
BRANCH  23  24
ATOM     24  C   UNL A   1      39.843  21.047  26.522  1.00  0.00     0.338 C 
ATOM     25  O   UNL A   1      39.044  20.861  25.621  1.00  0.00    -0.246 OA
BRANCH  24  26
ATOM     26  C   UNL A   1      40.236  22.398  26.954  1.00  0.00     0.060 A 
ATOM     27  C   UNL A   1      39.876  23.470  26.134  1.00  0.00     0.016 A 
ATOM     28  C   UNL A   1      41.041  22.607  28.075  1.00  0.00     0.016 A 
ATOM     29  C   UNL A   1      40.317  24.757  26.422  1.00  0.00     0.010 A 
ATOM     30  C   UNL A   1      41.493  23.902  28.363  1.00  0.00     0.010 A 
ATOM     31  C   UNL A   1      41.146  24.980  27.529  1.00  0.00    -0.014 A 
BRANCH  31  32
ATOM     32  C   UNL A   1      41.694  26.339  27.755  1.00  0.00     0.031 A 
ATOM     33  C   UNL A   1      43.030  26.712  27.180  1.00  0.00     0.074 A 
ATOM     34  C   UNL A   1      40.970  27.252  28.426  1.00  0.00     0.049 A 
ATOM     35  N   UNL A   1      43.696  27.833  27.287  1.00  0.00    -0.248 NA
ATOM     36  C   UNL A   1      43.707  25.683  26.376  1.00  0.00     0.031 C 
ATOM     37  C   UNL A   1      39.640  27.024  28.988  1.00  0.00     0.029 A 
ATOM     38  N   UNL A   1      41.250  28.558  28.741  1.00  0.00    -0.354 N 
ATOM     39  C   UNL A   1      44.876  27.641  26.582  1.00  0.00     0.074 A 
ATOM     40  C   UNL A   1      44.843  26.291  26.061  1.00  0.00     0.031 C 
ATOM     41  C   UNL A   1      39.216  28.153  29.579  1.00  0.00     0.029 A 
ATOM     42  C   UNL A   1      40.259  29.170  29.466  1.00  0.00     0.049 A 
ATOM     43  H   UNL A   1      42.082  29.011  28.473  1.00  0.00     0.167 HD
ATOM     44  C   UNL A   1      45.893  28.515  26.385  1.00  0.00     0.037 A 
ATOM     45  C   UNL A   1      40.207  30.407  29.997  1.00  0.00     0.037 A 
ATOM     46  C   UNL A   1      45.916  29.864  26.887  1.00  0.00     0.049 A 
ATOM     47  C   UNL A   1      41.365  31.346  29.792  1.00  0.00     0.074 A 
ATOM     48  C   UNL A   1      46.896  30.829  26.730  1.00  0.00     0.029 A 
ATOM     49  N   UNL A   1      44.907  30.441  27.644  1.00  0.00    -0.354 N 
ATOM     50  N   UNL A   1      42.480  31.153  29.133  1.00  0.00    -0.248 NA
ATOM     51  C   UNL A   1      41.255  32.675  30.409  1.00  0.00     0.031 C 
ATOM     52  C   UNL A   1      46.496  31.978  27.422  1.00  0.00     0.029 A 
ATOM     53  C   UNL A   1      45.249  31.743  27.977  1.00  0.00     0.049 A 
ATOM     54  H   UNL A   1      44.070  29.993  27.906  1.00  0.00     0.167 HD
ATOM     55  C   UNL A   1      43.199  32.335  29.243  1.00  0.00     0.074 A 
ATOM     56  C   UNL A   1      42.384  33.249  30.017  1.00  0.00     0.031 C 
ATOM     57  C   UNL A   1      44.427  32.636  28.753  1.00  0.00     0.037 A 
BRANCH  44  58
ATOM     58  C   UNL A   1      47.084  28.024  25.619  1.00  0.00     0.064 A 
ATOM     59  C   UNL A   1      47.094  27.982  24.217  1.00  0.00     0.173 A 
ATOM     60  C   UNL A   1      48.241  27.615  26.298  1.00  0.00     0.173 A 
ATOM     61  F   UNL A   1      46.006  28.349  23.522  1.00  0.00    -0.203 F 
ATOM     62  C   UNL A   1      48.212  27.527  23.523  1.00  0.00     0.198 A 
ATOM     63  C   UNL A   1      49.366  27.183  25.600  1.00  0.00     0.198 A 
ATOM     64  F   UNL A   1      48.284  27.639  27.638  1.00  0.00    -0.203 F 
ATOM     65  F   UNL A   1      48.187  27.456  22.185  1.00  0.00    -0.200 F 
ATOM     66  C   UNL A   1      49.349  27.133  24.215  1.00  0.00     0.200 A 
ATOM     67  F   UNL A   1      50.465  26.810  26.270  1.00  0.00    -0.200 F 
ATOM     68  F   UNL A   1      50.425  26.698  23.546  1.00  0.00    -0.200 F 
ENDBRANCH  44  58
BRANCH  45  69
ATOM     69  C   UNL A   1      39.020  30.819  30.787  1.00  0.00     0.064 A 
ATOM     70  C   UNL A   1      37.934  31.463  30.180  1.00  0.00     0.173 A 
ATOM     71  C   UNL A   1      38.951  30.576  32.167  1.00  0.00     0.173 A 
ATOM     72  F   UNL A   1      37.969  31.743  28.870  1.00  0.00    -0.203 F 
ATOM     73  C   UNL A   1      36.825  31.858  30.927  1.00  0.00     0.198 A 
ATOM     74  C   UNL A   1      37.832  30.948  32.907  1.00  0.00     0.198 A 
ATOM     75  F   UNL A   1      39.968  29.969  32.793  1.00  0.00    -0.203 F 
ATOM     76  F   UNL A   1      35.816  32.507  30.331  1.00  0.00    -0.200 F 
ATOM     77  C   UNL A   1      36.772  31.594  32.287  1.00  0.00     0.200 A 
ATOM     78  F   UNL A   1      37.780  30.684  34.219  1.00  0.00    -0.200 F 
ATOM     79  F   UNL A   1      35.703  31.969  33.003  1.00  0.00    -0.200 F 
ENDBRANCH  45  69
BRANCH  57  80
ATOM     80  C   UNL A   1      44.952  34.013  29.029  1.00  0.00     0.064 A 
ATOM     81  C   UNL A   1      45.777  34.274  30.133  1.00  0.00     0.173 A 
ATOM     82  C   UNL A   1      44.644  35.078  28.170  1.00  0.00     0.173 A 
ATOM     83  F   UNL A   1      46.086  33.290  30.991  1.00  0.00    -0.203 F 
ATOM     84  C   UNL A   1      46.255  35.558  30.381  1.00  0.00     0.198 A 
ATOM     85  C   UNL A   1      45.143  36.356  28.408  1.00  0.00     0.198 A 
ATOM     86  F   UNL A   1      43.863  34.879  27.098  1.00  0.00    -0.203 F 
ATOM     87  F   UNL A   1      47.004  35.793  31.466  1.00  0.00    -0.200 F 
ATOM     88  C   UNL A   1      45.941  36.596  29.516  1.00  0.00     0.200 A 
ATOM     89  F   UNL A   1      44.847  37.357  27.567  1.00  0.00    -0.200 F 
ATOM     90  F   UNL A   1      46.401  37.832  29.757  1.00  0.00    -0.200 F 
ENDBRANCH  57  80
ENDBRANCH  31  32
ENDBRANCH  24  26
ENDBRANCH  23  24
ENDBRANCH  22  23
ENDBRANCH  21  22
ENDBRANCH  20  21
ENDBRANCH   1  20
TORSDOF 17
ENDMDL
MODEL 3
REMARK VINA RESULT:     -10.3      0.818      2.300
REMARK SMILES COCc1cccc(C[NH2+][C@H](C)[C@H](C)C(=O)OCCOC(=O)c2ccc(-c3c4nc(c(-c5c(F)c(F)c(F)c(F)c5F)c5ccc([nH]5)c(-c5c(F)c(F)c(F)c(F)c5F)c5nc(c(-c6c(F)c(F)c(F)c(F)c6F)c6ccc3[nH]6)C=C5)C=C4)cc2)c1
REMARK SMILES IDX 15 1 16 2 13 3 14 4 11 5 12 6 10 7 9 10 8 11 4 12 5 13 86 14
REMARK SMILES IDX 6 15 7 16 3 17 2 18 1 19 17 20 18 21 19 22 20 23 21 24 22 25
REMARK SMILES IDX 23 26 24 27 85 28 25 29 84 30 26 31 27 32 28 33 78 34 29 35
REMARK SMILES IDX 83 36 77 37 79 38 30 39 82 40 76 41 75 42 31 44 63 45 43 46
REMARK SMILES IDX 62 47 44 48 47 49 61 50 80 51 45 52 46 53 60 55 81 56 48 57
REMARK SMILES IDX 32 58 33 59 41 60 34 61 35 62 39 63 42 64 36 65 37 66 40 67
REMARK SMILES IDX 38 68 64 69 65 70 73 71 66 72 67 73 71 74 74 75 68 76 69 77
REMARK SMILES IDX 72 78 70 79 49 80 50 81 58 82 51 83 52 84 56 85 59 86 53 87
REMARK SMILES IDX 54 88 57 89 55 90
REMARK H PARENT 10 8 10 9 79 43 47 54
REMARK Flexibility Score: inf
ROOT
ATOM      1  C   UNL A   1      33.380  27.467  25.469  1.00  0.00     0.314 C 
ATOM      2  O   UNL A   1      34.015  28.163  24.684  1.00  0.00    -0.252 OA
ENDROOT
BRANCH   1   3
ATOM      3  C   UNL A   1      33.613  25.969  25.604  1.00  0.00     0.154 C 
ATOM      4  C   UNL A   1      32.464  25.226  26.292  1.00  0.00     0.026 C 
BRANCH   3   5
ATOM      5  C   UNL A   1      34.049  25.239  24.301  1.00  0.00     0.193 C 
ATOM      6  C   UNL A   1      35.024  24.079  24.529  1.00  0.00     0.076 C 
BRANCH   5   7
ATOM      7  N   UNL A   1      32.828  24.767  23.624  1.00  0.00    -0.340 N 
ATOM      8  H   UNL A   1      32.988  23.806  23.322  1.00  0.00     0.346 HD
ATOM      9  H   UNL A   1      32.076  24.867  24.306  1.00  0.00     0.346 HD
BRANCH   7  10
ATOM     10  C   UNL A   1      32.410  25.540  22.458  1.00  0.00     0.297 C 
BRANCH  10  11
ATOM     11  C   UNL A   1      31.132  26.285  22.782  1.00  0.00     0.006 A 
ATOM     12  C   UNL A   1      29.743  28.294  22.687  1.00  0.00    -0.022 A 
ATOM     13  C   UNL A   1      28.784  27.649  23.481  1.00  0.00     0.006 A 
ATOM     14  C   UNL A   1      30.925  27.606  22.358  1.00  0.00     0.015 A 
ATOM     15  C   UNL A   1      28.976  26.335  23.901  1.00  0.00     0.001 A 
ATOM     16  C   UNL A   1      30.142  25.657  23.553  1.00  0.00     0.009 A 
BRANCH  12  17
ATOM     17  C   UNL A   1      29.563  29.729  22.245  1.00  0.00     0.195 C 
BRANCH  17  18
ATOM     18  O   UNL A   1      28.436  30.375  22.843  1.00  0.00    -0.380 OA
ATOM     19  C   UNL A   1      28.777  31.594  23.491  1.00  0.00     0.195 C 
ENDBRANCH  17  18
ENDBRANCH  12  17
ENDBRANCH  10  11
ENDBRANCH   7  10
ENDBRANCH   5   7
ENDBRANCH   3   5
ENDBRANCH   1   3
BRANCH   1  20
ATOM     20  O   UNL A   1      32.418  27.939  26.305  1.00  0.00    -0.462 OA
BRANCH  20  21
ATOM     21  C   UNL A   1      31.480  28.862  25.717  1.00  0.00     0.274 C 
BRANCH  21  22
ATOM     22  C   UNL A   1      31.868  30.323  25.966  1.00  0.00     0.275 C 
BRANCH  22  23
ATOM     23  O   UNL A   1      32.488  30.513  27.253  1.00  0.00    -0.458 OA
BRANCH  23  24
ATOM     24  C   UNL A   1      33.264  31.616  27.357  1.00  0.00     0.338 C 
ATOM     25  O   UNL A   1      32.934  32.773  27.164  1.00  0.00    -0.246 OA
BRANCH  24  26
ATOM     26  C   UNL A   1      34.597  31.257  27.869  1.00  0.00     0.060 A 
ATOM     27  C   UNL A   1      34.848  29.909  28.131  1.00  0.00     0.016 A 
ATOM     28  C   UNL A   1      35.545  32.229  28.197  1.00  0.00     0.016 A 
ATOM     29  C   UNL A   1      36.043  29.518  28.726  1.00  0.00     0.010 A 
ATOM     30  C   UNL A   1      36.746  31.837  28.804  1.00  0.00     0.010 A 
ATOM     31  C   UNL A   1      36.994  30.482  29.085  1.00  0.00    -0.014 A 
BRANCH  31  32
ATOM     32  C   UNL A   1      38.210  30.054  29.817  1.00  0.00     0.031 A 
ATOM     33  C   UNL A   1      38.445  30.530  31.221  1.00  0.00     0.074 A 
ATOM     34  C   UNL A   1      39.072  29.197  29.242  1.00  0.00     0.049 A 
ATOM     35  N   UNL A   1      39.455  30.296  32.019  1.00  0.00    -0.248 NA
ATOM     36  C   UNL A   1      37.400  31.385  31.806  1.00  0.00     0.031 C 
ATOM     37  C   UNL A   1      38.928  28.627  27.904  1.00  0.00     0.029 A 
ATOM     38  N   UNL A   1      40.239  28.651  29.717  1.00  0.00    -0.354 N 
ATOM     39  C   UNL A   1      39.179  30.987  33.191  1.00  0.00     0.074 A 
ATOM     40  C   UNL A   1      37.913  31.661  32.997  1.00  0.00     0.031 C 
ATOM     41  C   UNL A   1      39.964  27.809  27.663  1.00  0.00     0.029 A 
ATOM     42  C   UNL A   1      40.862  27.824  28.816  1.00  0.00     0.049 A 
ATOM     43  H   UNL A   1      40.594  28.835  30.617  1.00  0.00     0.167 HD
ATOM     44  C   UNL A   1      39.916  31.050  34.327  1.00  0.00     0.037 A 
ATOM     45  C   UNL A   1      42.035  27.170  28.904  1.00  0.00     0.037 A 
ATOM     46  C   UNL A   1      41.166  30.363  34.525  1.00  0.00     0.049 A 
ATOM     47  C   UNL A   1      42.851  27.283  30.164  1.00  0.00     0.074 A 
ATOM     48  C   UNL A   1      41.980  30.356  35.645  1.00  0.00     0.029 A 
ATOM     49  N   UNL A   1      41.783  29.558  33.579  1.00  0.00    -0.354 N 
ATOM     50  N   UNL A   1      42.587  27.946  31.263  1.00  0.00    -0.248 NA
ATOM     51  C   UNL A   1      44.128  26.558  30.192  1.00  0.00     0.031 C 
ATOM     52  C   UNL A   1      43.108  29.574  35.363  1.00  0.00     0.029 A 
ATOM     53  C   UNL A   1      42.976  29.063  34.082  1.00  0.00     0.049 A 
ATOM     54  H   UNL A   1      41.425  29.365  32.681  1.00  0.00     0.167 HD
ATOM     55  C   UNL A   1      43.656  27.710  32.117  1.00  0.00     0.074 A 
ATOM     56  C   UNL A   1      44.563  26.825  31.415  1.00  0.00     0.031 C 
ATOM     57  C   UNL A   1      43.869  28.187  33.368  1.00  0.00     0.037 A 
BRANCH  44  58
ATOM     58  C   UNL A   1      39.403  31.920  35.434  1.00  0.00     0.064 A 
ATOM     59  C   UNL A   1      38.532  31.428  36.417  1.00  0.00     0.173 A 
ATOM     60  C   UNL A   1      39.809  33.259  35.525  1.00  0.00     0.173 A 
ATOM     61  F   UNL A   1      38.103  30.158  36.365  1.00  0.00    -0.203 F 
ATOM     62  C   UNL A   1      38.070  32.252  37.440  1.00  0.00     0.198 A 
ATOM     63  C   UNL A   1      39.364  34.074  36.563  1.00  0.00     0.198 A 
ATOM     64  F   UNL A   1      40.643  33.778  34.612  1.00  0.00    -0.203 F 
ATOM     65  F   UNL A   1      37.207  31.773  38.347  1.00  0.00    -0.200 F 
ATOM     66  C   UNL A   1      38.490  33.572  37.515  1.00  0.00     0.200 A 
ATOM     67  F   UNL A   1      39.777  35.347  36.638  1.00  0.00    -0.200 F 
ATOM     68  F   UNL A   1      38.046  34.363  38.502  1.00  0.00    -0.200 F 
ENDBRANCH  44  58
BRANCH  45  69
ATOM     69  C   UNL A   1      42.515  26.361  27.755  1.00  0.00     0.064 A 
ATOM     70  C   UNL A   1      43.397  26.898  26.809  1.00  0.00     0.173 A 
ATOM     71  C   UNL A   1      42.099  25.032  27.584  1.00  0.00     0.173 A 
ATOM     72  F   UNL A   1      43.798  28.173  26.916  1.00  0.00    -0.203 F 
ATOM     73  C   UNL A   1      43.838  26.139  25.726  1.00  0.00     0.198 A 
ATOM     74  C   UNL A   1      42.560  24.267  26.516  1.00  0.00     0.198 A 
ATOM     75  F   UNL A   1      41.251  24.476  28.460  1.00  0.00    -0.203 F 
ATOM     76  F   UNL A   1      44.649  26.688  24.813  1.00  0.00    -0.200 F 
ATOM     77  C   UNL A   1      43.425  24.823  25.585  1.00  0.00     0.200 A 
ATOM     78  F   UNL A   1      42.165  22.993  26.387  1.00  0.00    -0.200 F 
ATOM     79  F   UNL A   1      43.853  24.092  24.546  1.00  0.00    -0.200 F 
ENDBRANCH  45  69
BRANCH  57  80
ATOM     80  C   UNL A   1      45.126  27.750  34.058  1.00  0.00     0.064 A 
ATOM     81  C   UNL A   1      46.311  28.494  33.964  1.00  0.00     0.173 A 
ATOM     82  C   UNL A   1      45.140  26.585  34.839  1.00  0.00     0.173 A 
ATOM     83  F   UNL A   1      46.350  29.607  33.215  1.00  0.00    -0.203 F 
ATOM     84  C   UNL A   1      47.472  28.074  34.606  1.00  0.00     0.198 A 
ATOM     85  C   UNL A   1      46.298  26.181  35.500  1.00  0.00     0.198 A 
ATOM     86  F   UNL A   1      44.031  25.841  34.965  1.00  0.00    -0.203 F 
ATOM     87  F   UNL A   1      48.604  28.776  34.465  1.00  0.00    -0.200 F 
ATOM     88  C   UNL A   1      47.463  26.921  35.377  1.00  0.00     0.200 A 
ATOM     89  F   UNL A   1      46.286  25.071  36.252  1.00  0.00    -0.200 F 
ATOM     90  F   UNL A   1      48.583  26.518  35.994  1.00  0.00    -0.200 F 
ENDBRANCH  57  80
ENDBRANCH  31  32
ENDBRANCH  24  26
ENDBRANCH  23  24
ENDBRANCH  22  23
ENDBRANCH  21  22
ENDBRANCH  20  21
ENDBRANCH   1  20
TORSDOF 17
ENDMDL
