MODEL 1
REMARK VINA RESULT:     -12.5      0.000      0.000
REMARK SMILES Cc1cc(NC(=O)[C@H]2[C@@H](C(=O)OCCOC(=O)c3ccc(-c4c5nc(c(-c6c(F)c(F)c(F)c(F)c6F)c6ccc([nH]6)c(-c6c(F)c(F)c(F)c(F)c6F)c6nc(c(-c7c(F)c(F)c(F)c(F)c7F)c7ccc4[nH]7)C=C6)C=C5)cc3)C2(C)C)n(-c2ccc(F)cc2)n1
REMARK SMILES IDX 13 1 12 2 10 3 11 4 9 5 8 6 81 7 82 8 83 9 6 10 5 11 7 13
REMARK SMILES IDX 4 14 1 15 2 16 3 17 92 18 84 19 85 20 86 21 91 22 87 23
REMARK SMILES IDX 90 24 88 25 89 26 14 27 15 28 16 29 17 30 18 31 19 32 80 33
REMARK SMILES IDX 20 34 79 35 21 36 22 37 23 38 73 39 24 40 78 41 72 42 74 43
REMARK SMILES IDX 25 44 77 45 71 46 70 47 26 49 58 50 38 51 57 52 39 53 42 54
REMARK SMILES IDX 56 55 75 56 40 57 41 58 55 60 76 61 43 62 27 63 28 64 36 65
REMARK SMILES IDX 29 66 30 67 34 68 37 69 31 70 32 71 35 72 33 73 59 74 60 75
REMARK SMILES IDX 68 76 61 77 62 78 66 79 69 80 63 81 64 82 67 83 65 84 44 85
REMARK SMILES IDX 45 86 53 87 46 88 47 89 51 90 54 91 48 92 49 93 52 94 50 95
REMARK H PARENT 5 12 74 48 42 59
REMARK Flexibility Score: inf
ROOT
ATOM      1  C   UNL A   1      36.272  22.252  24.515  1.00  0.00     0.274 C 
ENDROOT
BRANCH   1   2
ATOM      2  O   UNL A   1      35.051  21.976  25.203  1.00  0.00    -0.462 OA
BRANCH   2   3
ATOM      3  C   UNL A   1      34.680  22.945  26.058  1.00  0.00     0.310 C 
ATOM      4  O   UNL A   1      34.781  22.935  27.277  1.00  0.00    -0.252 OA
BRANCH   3   5
ATOM      5  C   UNL A   1      34.384  24.196  25.362  1.00  0.00     0.118 C 
ATOM      6  C   UNL A   1      33.280  25.054  25.817  1.00  0.00     0.100 C 
ATOM      7  C   UNL A   1      33.308  24.539  24.346  1.00  0.00    -0.009 C 
ATOM      8  C   UNL A   1      32.301  23.503  23.906  1.00  0.00     0.013 C 
ATOM      9  C   UNL A   1      33.645  25.465  23.178  1.00  0.00     0.013 C 
BRANCH   6  10
ATOM     10  C   UNL A   1      32.118  24.794  26.626  1.00  0.00     0.230 C 
ATOM     11  N   UNL A   1      31.199  25.875  26.752  1.00  0.00    -0.310 N 
ATOM     12  H   UNL A   1      30.591  25.896  27.527  1.00  0.00     0.171 HD
ATOM     13  O   UNL A   1      31.858  23.731  27.182  1.00  0.00    -0.274 OA
BRANCH  11  14
ATOM     14  C   UNL A   1      31.133  26.909  25.810  1.00  0.00     0.136 A 
ATOM     15  C   UNL A   1      29.903  27.997  22.548  1.00  0.00     0.069 C 
ATOM     16  C   UNL A   1      30.476  27.831  23.907  1.00  0.00     0.062 A 
ATOM     17  C   UNL A   1      30.257  26.742  24.760  1.00  0.00     0.072 A 
ATOM     18  N   UNL A   1      31.300  28.731  24.448  1.00  0.00    -0.171 NA
ATOM     19  N   UNL A   1      31.770  28.161  25.599  1.00  0.00    -0.217 N 
BRANCH  19  20
ATOM     20  C   UNL A   1      32.716  28.921  26.371  1.00  0.00     0.067 A 
ATOM     21  C   UNL A   1      34.027  28.479  26.580  1.00  0.00     0.031 A 
ATOM     22  C   UNL A   1      32.452  30.244  26.722  1.00  0.00     0.031 A 
ATOM     23  C   UNL A   1      34.981  29.187  27.309  1.00  0.00     0.041 A 
ATOM     24  C   UNL A   1      33.425  31.002  27.411  1.00  0.00     0.041 A 
ATOM     25  C   UNL A   1      34.664  30.454  27.732  1.00  0.00     0.123 A 
ATOM     26  F   UNL A   1      35.576  31.167  28.403  1.00  0.00    -0.207 F 
ENDBRANCH  19  20
ENDBRANCH  11  14
ENDBRANCH   6  10
ENDBRANCH   3   5
ENDBRANCH   2   3
ENDBRANCH   1   2
BRANCH   1  27
ATOM     27  C   UNL A   1      37.405  21.692  25.360  1.00  0.00     0.275 C 
BRANCH  27  28
ATOM     28  O   UNL A   1      38.023  22.716  26.157  1.00  0.00    -0.458 OA
BRANCH  28  29
ATOM     29  C   UNL A   1      39.283  22.417  26.541  1.00  0.00     0.338 C 
ATOM     30  O   UNL A   1      39.702  21.342  26.931  1.00  0.00    -0.246 OA
BRANCH  29  31
ATOM     31  C   UNL A   1      40.053  23.629  26.781  1.00  0.00     0.060 A 
ATOM     32  C   UNL A   1      41.137  23.564  27.665  1.00  0.00     0.016 A 
ATOM     33  C   UNL A   1      39.400  24.828  26.479  1.00  0.00     0.016 A 
ATOM     34  C   UNL A   1      41.475  24.705  28.363  1.00  0.00     0.010 A 
ATOM     35  C   UNL A   1      39.720  25.952  27.197  1.00  0.00     0.010 A 
ATOM     36  C   UNL A   1      40.711  25.865  28.172  1.00  0.00    -0.014 A 
BRANCH  36  37
ATOM     37  C   UNL A   1      41.101  27.083  28.858  1.00  0.00     0.031 A 
ATOM     38  C   UNL A   1      42.321  27.677  28.252  1.00  0.00     0.074 A 
ATOM     39  C   UNL A   1      40.324  27.674  29.789  1.00  0.00     0.049 A 
ATOM     40  N   UNL A   1      43.456  27.899  28.823  1.00  0.00    -0.248 NA
ATOM     41  C   UNL A   1      42.343  27.872  26.788  1.00  0.00     0.031 C 
ATOM     42  C   UNL A   1      38.984  27.270  30.229  1.00  0.00     0.029 A 
ATOM     43  N   UNL A   1      40.519  28.839  30.467  1.00  0.00    -0.354 N 
ATOM     44  C   UNL A   1      44.264  28.466  27.841  1.00  0.00     0.074 A 
ATOM     45  C   UNL A   1      43.608  28.237  26.584  1.00  0.00     0.031 C 
ATOM     46  C   UNL A   1      38.405  28.290  30.903  1.00  0.00     0.029 A 
ATOM     47  C   UNL A   1      39.368  29.366  31.050  1.00  0.00     0.049 A 
ATOM     48  H   UNL A   1      41.399  29.272  30.540  1.00  0.00     0.167 HD
ATOM     49  C   UNL A   1      45.247  29.338  28.187  1.00  0.00     0.037 A 
ATOM     50  C   UNL A   1      39.218  30.622  31.551  1.00  0.00     0.037 A 
ATOM     51  C   UNL A   1      45.609  29.168  29.571  1.00  0.00     0.049 A 
ATOM     52  C   UNL A   1      40.577  31.178  31.764  1.00  0.00     0.074 A 
ATOM     53  C   UNL A   1      46.122  28.132  30.326  1.00  0.00     0.029 A 
ATOM     54  N   UNL A   1      45.084  30.064  30.468  1.00  0.00    -0.354 N 
ATOM     55  N   UNL A   1      41.400  30.745  32.676  1.00  0.00    -0.248 NA
ATOM     56  C   UNL A   1      41.187  31.902  30.660  1.00  0.00     0.031 C 
ATOM     57  C   UNL A   1      45.480  28.240  31.595  1.00  0.00     0.029 A 
ATOM     58  C   UNL A   1      44.672  29.377  31.576  1.00  0.00     0.049 A 
ATOM     59  H   UNL A   1      45.015  31.037  30.336  1.00  0.00     0.167 HD
ATOM     60  C   UNL A   1      42.633  30.727  32.046  1.00  0.00     0.074 A 
ATOM     61  C   UNL A   1      42.458  31.537  30.842  1.00  0.00     0.031 C 
ATOM     62  C   UNL A   1      43.580  29.814  32.412  1.00  0.00     0.037 A 
BRANCH  49  63
ATOM     63  C   UNL A   1      45.522  30.623  27.433  1.00  0.00     0.064 A 
ATOM     64  C   UNL A   1      46.850  30.903  27.049  1.00  0.00     0.173 A 
ATOM     65  C   UNL A   1      44.632  31.719  27.366  1.00  0.00     0.173 A 
ATOM     66  F   UNL A   1      47.786  29.943  27.081  1.00  0.00    -0.203 F 
ATOM     67  C   UNL A   1      47.271  32.197  26.735  1.00  0.00     0.198 A 
ATOM     68  C   UNL A   1      45.046  32.998  27.001  1.00  0.00     0.198 A 
ATOM     69  F   UNL A   1      43.356  31.639  27.757  1.00  0.00    -0.203 F 
ATOM     70  F   UNL A   1      48.571  32.438  26.522  1.00  0.00    -0.200 F 
ATOM     71  C   UNL A   1      46.371  33.246  26.723  1.00  0.00     0.200 A 
ATOM     72  F   UNL A   1      44.158  34.003  27.016  1.00  0.00    -0.200 F 
ATOM     73  F   UNL A   1      46.783  34.498  26.493  1.00  0.00    -0.200 F 
ENDBRANCH  49  63
BRANCH  50  74
ATOM     74  C   UNL A   1      38.021  31.501  31.558  1.00  0.00     0.064 A 
ATOM     75  C   UNL A   1      37.355  31.809  32.759  1.00  0.00     0.173 A 
ATOM     76  C   UNL A   1      37.693  32.296  30.444  1.00  0.00     0.173 A 
ATOM     77  F   UNL A   1      37.642  31.132  33.882  1.00  0.00    -0.203 F 
ATOM     78  C   UNL A   1      36.444  32.869  32.847  1.00  0.00     0.198 A 
ATOM     79  C   UNL A   1      36.780  33.349  30.531  1.00  0.00     0.198 A 
ATOM     80  F   UNL A   1      38.327  32.132  29.274  1.00  0.00    -0.203 F 
ATOM     81  F   UNL A   1      35.883  33.173  34.025  1.00  0.00    -0.200 F 
ATOM     82  C   UNL A   1      36.167  33.645  31.735  1.00  0.00     0.200 A 
ATOM     83  F   UNL A   1      36.550  34.119  29.457  1.00  0.00    -0.200 F 
ATOM     84  F   UNL A   1      35.347  34.702  31.831  1.00  0.00    -0.200 F 
ENDBRANCH  50  74
BRANCH  62  85
ATOM     85  C   UNL A   1      43.364  29.073  33.701  1.00  0.00     0.064 A 
ATOM     86  C   UNL A   1      43.783  29.525  34.966  1.00  0.00     0.173 A 
ATOM     87  C   UNL A   1      42.601  27.898  33.657  1.00  0.00     0.173 A 
ATOM     88  F   UNL A   1      44.426  30.692  35.106  1.00  0.00    -0.203 F 
ATOM     89  C   UNL A   1      43.500  28.797  36.121  1.00  0.00     0.198 A 
ATOM     90  C   UNL A   1      42.285  27.198  34.814  1.00  0.00     0.198 A 
ATOM     91  F   UNL A   1      42.127  27.451  32.483  1.00  0.00    -0.203 F 
ATOM     92  F   UNL A   1      43.930  29.234  37.314  1.00  0.00    -0.200 F 
ATOM     93  C   UNL A   1      42.747  27.638  36.044  1.00  0.00     0.200 A 
ATOM     94  F   UNL A   1      41.512  26.106  34.740  1.00  0.00    -0.200 F 
ATOM     95  F   UNL A   1      42.443  26.956  37.158  1.00  0.00    -0.200 F 
ENDBRANCH  62  85
ENDBRANCH  36  37
ENDBRANCH  29  31
ENDBRANCH  28  29
ENDBRANCH  27  28
ENDBRANCH   1  27
TORSDOF 14
ENDMDL
MODEL 2
REMARK VINA RESULT:     -12.4      3.310      7.270
REMARK SMILES Cc1cc(NC(=O)[C@H]2[C@@H](C(=O)OCCOC(=O)c3ccc(-c4c5nc(c(-c6c(F)c(F)c(F)c(F)c6F)c6ccc([nH]6)c(-c6c(F)c(F)c(F)c(F)c6F)c6nc(c(-c7c(F)c(F)c(F)c(F)c7F)c7ccc4[nH]7)C=C6)C=C5)cc3)C2(C)C)n(-c2ccc(F)cc2)n1
REMARK SMILES IDX 13 1 12 2 10 3 11 4 9 5 8 6 81 7 82 8 83 9 6 10 5 11 7 13
REMARK SMILES IDX 4 14 1 15 2 16 3 17 92 18 84 19 85 20 86 21 91 22 87 23
REMARK SMILES IDX 90 24 88 25 89 26 14 27 15 28 16 29 17 30 18 31 19 32 80 33
REMARK SMILES IDX 20 34 79 35 21 36 22 37 23 38 73 39 24 40 78 41 72 42 74 43
REMARK SMILES IDX 25 44 77 45 71 46 70 47 26 49 58 50 38 51 57 52 39 53 42 54
REMARK SMILES IDX 56 55 75 56 40 57 41 58 55 60 76 61 43 62 27 63 28 64 36 65
REMARK SMILES IDX 29 66 30 67 34 68 37 69 31 70 32 71 35 72 33 73 59 74 60 75
REMARK SMILES IDX 68 76 61 77 62 78 66 79 69 80 63 81 64 82 67 83 65 84 44 85
REMARK SMILES IDX 45 86 53 87 46 88 47 89 51 90 54 91 48 92 49 93 52 94 50 95
REMARK H PARENT 5 12 74 48 42 59
REMARK Flexibility Score: inf
ROOT
ATOM      1  C   UNL A   1      33.791  31.800  27.625  1.00  0.00     0.274 C 
ENDROOT
BRANCH   1   2
ATOM      2  O   UNL A   1      32.948  30.715  27.232  1.00  0.00    -0.462 OA
BRANCH   2   3
ATOM      3  C   UNL A   1      33.618  29.590  26.931  1.00  0.00     0.310 C 
ATOM      4  O   UNL A   1      34.403  28.981  27.646  1.00  0.00    -0.252 OA
BRANCH   3   5
ATOM      5  C   UNL A   1      33.099  28.958  25.719  1.00  0.00     0.118 C 
ATOM      6  C   UNL A   1      31.905  28.102  25.782  1.00  0.00     0.100 C 
ATOM      7  C   UNL A   1      33.236  27.537  25.201  1.00  0.00    -0.009 C 
ATOM      8  C   UNL A   1      34.002  26.498  25.986  1.00  0.00     0.013 C 
ATOM      9  C   UNL A   1      33.419  27.296  23.704  1.00  0.00     0.013 C 
BRANCH   6  10
ATOM     10  C   UNL A   1      31.265  27.408  26.869  1.00  0.00     0.230 C 
ATOM     11  N   UNL A   1      30.326  26.405  26.493  1.00  0.00    -0.310 N 
ATOM     12  H   UNL A   1      29.626  26.141  27.135  1.00  0.00     0.171 HD
ATOM     13  O   UNL A   1      31.479  27.596  28.063  1.00  0.00    -0.274 OA
BRANCH  11  14
ATOM     14  C   UNL A   1      30.365  25.783  25.238  1.00  0.00     0.136 A 
ATOM     15  C   UNL A   1      31.610  22.982  23.254  1.00  0.00     0.069 C 
ATOM     16  C   UNL A   1      30.943  24.176  23.829  1.00  0.00     0.062 A 
ATOM     17  C   UNL A   1      30.897  24.513  25.188  1.00  0.00     0.072 A 
ATOM     18  N   UNL A   1      30.322  25.081  23.069  1.00  0.00    -0.171 NA
ATOM     19  N   UNL A   1      30.006  26.116  23.905  1.00  0.00    -0.217 N 
BRANCH  19  20
ATOM     20  C   UNL A   1      29.347  27.254  23.324  1.00  0.00     0.067 A 
ATOM     21  C   UNL A   1      28.015  27.570  23.615  1.00  0.00     0.031 A 
ATOM     22  C   UNL A   1      30.076  28.236  22.654  1.00  0.00     0.031 A 
ATOM     23  C   UNL A   1      27.340  28.669  23.087  1.00  0.00     0.041 A 
ATOM     24  C   UNL A   1      29.425  29.388  22.159  1.00  0.00     0.041 A 
ATOM     25  C   UNL A   1      28.059  29.575  22.346  1.00  0.00     0.123 A 
ATOM     26  F   UNL A   1      27.441  30.657  21.858  1.00  0.00    -0.207 F 
ENDBRANCH  19  20
ENDBRANCH  11  14
ENDBRANCH   6  10
ENDBRANCH   3   5
ENDBRANCH   2   3
ENDBRANCH   1   2
BRANCH   1  27
ATOM     27  C   UNL A   1      32.943  33.061  27.611  1.00  0.00     0.275 C 
BRANCH  27  28
ATOM     28  O   UNL A   1      32.601  33.480  28.943  1.00  0.00    -0.458 OA
BRANCH  28  29
ATOM     29  C   UNL A   1      33.152  34.660  29.299  1.00  0.00     0.338 C 
ATOM     30  O   UNL A   1      32.717  35.776  29.080  1.00  0.00    -0.246 OA
BRANCH  29  31
ATOM     31  C   UNL A   1      34.544  34.485  29.687  1.00  0.00     0.060 A 
ATOM     32  C   UNL A   1      35.540  34.820  28.762  1.00  0.00     0.016 A 
ATOM     33  C   UNL A   1      34.768  33.598  30.744  1.00  0.00     0.016 A 
ATOM     34  C   UNL A   1      36.739  34.139  28.821  1.00  0.00     0.010 A 
ATOM     35  C   UNL A   1      35.950  32.903  30.782  1.00  0.00     0.010 A 
ATOM     36  C   UNL A   1      36.897  33.135  29.788  1.00  0.00    -0.014 A 
BRANCH  36  37
ATOM     37  C   UNL A   1      38.177  32.460  29.894  1.00  0.00     0.031 A 
ATOM     38  C   UNL A   1      38.120  31.097  29.307  1.00  0.00     0.074 A 
ATOM     39  C   UNL A   1      39.299  33.090  30.299  1.00  0.00     0.049 A 
ATOM     40  N   UNL A   1      38.341  29.973  29.901  1.00  0.00    -0.248 NA
ATOM     41  C   UNL A   1      37.566  30.951  27.945  1.00  0.00     0.031 C 
ATOM     42  C   UNL A   1      39.462  34.508  30.635  1.00  0.00     0.029 A 
ATOM     43  N   UNL A   1      40.574  32.617  30.391  1.00  0.00    -0.354 N 
ATOM     44  C   UNL A   1      38.166  28.995  28.926  1.00  0.00     0.074 A 
ATOM     45  C   UNL A   1      37.501  29.626  27.821  1.00  0.00     0.031 C 
ATOM     46  C   UNL A   1      40.780  34.818  30.653  1.00  0.00     0.029 A 
ATOM     47  C   UNL A   1      41.553  33.606  30.456  1.00  0.00     0.049 A 
ATOM     48  H   UNL A   1      40.785  31.656  30.409  1.00  0.00     0.167 HD
ATOM     49  C   UNL A   1      38.860  27.828  28.998  1.00  0.00     0.037 A 
ATOM     50  C   UNL A   1      42.891  33.431  30.291  1.00  0.00     0.037 A 
ATOM     51  C   UNL A   1      39.314  27.593  30.346  1.00  0.00     0.049 A 
ATOM     52  C   UNL A   1      43.171  31.984  30.459  1.00  0.00     0.074 A 
ATOM     53  C   UNL A   1      38.695  27.421  31.568  1.00  0.00     0.029 A 
ATOM     54  N   UNL A   1      40.622  27.896  30.625  1.00  0.00    -0.354 N 
ATOM     55  N   UNL A   1      43.072  31.355  31.595  1.00  0.00    -0.248 NA
ATOM     56  C   UNL A   1      43.113  31.146  29.271  1.00  0.00     0.031 C 
ATOM     57  C   UNL A   1      39.545  28.068  32.512  1.00  0.00     0.029 A 
ATOM     58  C   UNL A   1      40.671  28.533  31.834  1.00  0.00     0.049 A 
ATOM     59  H   UNL A   1      41.395  27.689  30.052  1.00  0.00     0.167 HD
ATOM     60  C   UNL A   1      42.483  30.145  31.269  1.00  0.00     0.074 A 
ATOM     61  C   UNL A   1      42.618  30.033  29.818  1.00  0.00     0.031 C 
ATOM     62  C   UNL A   1      41.685  29.503  32.172  1.00  0.00     0.037 A 
BRANCH  49  63
ATOM     63  C   UNL A   1      39.519  27.176  27.800  1.00  0.00     0.064 A 
ATOM     64  C   UNL A   1      39.547  25.767  27.736  1.00  0.00     0.173 A 
ATOM     65  C   UNL A   1      40.393  27.838  26.908  1.00  0.00     0.173 A 
ATOM     66  F   UNL A   1      38.768  25.032  28.543  1.00  0.00    -0.203 F 
ATOM     67  C   UNL A   1      40.457  25.083  26.927  1.00  0.00     0.198 A 
ATOM     68  C   UNL A   1      41.262  27.150  26.064  1.00  0.00     0.198 A 
ATOM     69  F   UNL A   1      40.536  29.166  26.887  1.00  0.00    -0.203 F 
ATOM     70  F   UNL A   1      40.547  23.749  27.011  1.00  0.00    -0.200 F 
ATOM     71  C   UNL A   1      41.322  25.775  26.100  1.00  0.00     0.200 A 
ATOM     72  F   UNL A   1      42.105  27.843  25.285  1.00  0.00    -0.200 F 
ATOM     73  F   UNL A   1      42.243  25.126  25.377  1.00  0.00    -0.200 F 
ENDBRANCH  49  63
BRANCH  50  74
ATOM     74  C   UNL A   1      43.897  34.341  29.685  1.00  0.00     0.064 A 
ATOM     75  C   UNL A   1      45.178  34.485  30.252  1.00  0.00     0.173 A 
ATOM     76  C   UNL A   1      43.734  34.845  28.382  1.00  0.00     0.173 A 
ATOM     77  F   UNL A   1      45.435  33.991  31.472  1.00  0.00    -0.203 F 
ATOM     78  C   UNL A   1      46.236  35.067  29.543  1.00  0.00     0.198 A 
ATOM     79  C   UNL A   1      44.789  35.430  27.678  1.00  0.00     0.198 A 
ATOM     80  F   UNL A   1      42.575  34.688  27.726  1.00  0.00    -0.203 F 
ATOM     81  F   UNL A   1      47.457  35.124  30.092  1.00  0.00    -0.200 F 
ATOM     82  C   UNL A   1      46.042  35.528  28.252  1.00  0.00     0.200 A 
ATOM     83  F   UNL A   1      44.599  35.836  26.414  1.00  0.00    -0.200 F 
ATOM     84  F   UNL A   1      47.070  36.024  27.547  1.00  0.00    -0.200 F 
ENDBRANCH  50  74
BRANCH  62  85
ATOM     85  C   UNL A   1      41.735  29.976  33.597  1.00  0.00     0.064 A 
ATOM     86  C   UNL A   1      42.680  29.554  34.549  1.00  0.00     0.173 A 
ATOM     87  C   UNL A   1      40.840  30.984  33.980  1.00  0.00     0.173 A 
ATOM     88  F   UNL A   1      43.636  28.670  34.232  1.00  0.00    -0.203 F 
ATOM     89  C   UNL A   1      42.685  30.078  35.842  1.00  0.00     0.198 A 
ATOM     90  C   UNL A   1      40.875  31.535  35.255  1.00  0.00     0.198 A 
ATOM     91  F   UNL A   1      39.953  31.464  33.095  1.00  0.00    -0.203 F 
ATOM     92  F   UNL A   1      43.581  29.644  36.741  1.00  0.00    -0.200 F 
ATOM     93  C   UNL A   1      41.787  31.072  36.191  1.00  0.00     0.200 A 
ATOM     94  F   UNL A   1      40.038  32.532  35.571  1.00  0.00    -0.200 F 
ATOM     95  F   UNL A   1      41.814  31.603  37.421  1.00  0.00    -0.200 F 
ENDBRANCH  62  85
ENDBRANCH  36  37
ENDBRANCH  29  31
ENDBRANCH  28  29
ENDBRANCH  27  28
ENDBRANCH   1  27
TORSDOF 14
ENDMDL
MODEL 3
REMARK VINA RESULT:     -12.4      3.108      8.455
REMARK SMILES Cc1cc(NC(=O)[C@H]2[C@@H](C(=O)OCCOC(=O)c3ccc(-c4c5nc(c(-c6c(F)c(F)c(F)c(F)c6F)c6ccc([nH]6)c(-c6c(F)c(F)c(F)c(F)c6F)c6nc(c(-c7c(F)c(F)c(F)c(F)c7F)c7ccc4[nH]7)C=C6)C=C5)cc3)C2(C)C)n(-c2ccc(F)cc2)n1
REMARK SMILES IDX 13 1 12 2 10 3 11 4 9 5 8 6 81 7 82 8 83 9 6 10 5 11 7 13
REMARK SMILES IDX 4 14 1 15 2 16 3 17 92 18 84 19 85 20 86 21 91 22 87 23
REMARK SMILES IDX 90 24 88 25 89 26 14 27 15 28 16 29 17 30 18 31 19 32 80 33
REMARK SMILES IDX 20 34 79 35 21 36 22 37 23 38 73 39 24 40 78 41 72 42 74 43
REMARK SMILES IDX 25 44 77 45 71 46 70 47 26 49 58 50 38 51 57 52 39 53 42 54
REMARK SMILES IDX 56 55 75 56 40 57 41 58 55 60 76 61 43 62 27 63 28 64 36 65
REMARK SMILES IDX 29 66 30 67 34 68 37 69 31 70 32 71 35 72 33 73 59 74 60 75
REMARK SMILES IDX 68 76 61 77 62 78 66 79 69 80 63 81 64 82 67 83 65 84 44 85
REMARK SMILES IDX 45 86 53 87 46 88 47 89 51 90 54 91 48 92 49 93 52 94 50 95
REMARK H PARENT 5 12 74 48 42 59
REMARK Flexibility Score: inf
ROOT
ATOM      1  C   UNL A   1      32.301  29.288  27.237  1.00  0.00     0.274 C 
ENDROOT
BRANCH   1   2
ATOM      2  O   UNL A   1      32.955  28.136  26.701  1.00  0.00    -0.462 OA
BRANCH   2   3
ATOM      3  C   UNL A   1      32.114  27.240  26.157  1.00  0.00     0.310 C 
ATOM      4  O   UNL A   1      31.219  27.458  25.352  1.00  0.00    -0.252 OA
BRANCH   3   5
ATOM      5  C   UNL A   1      32.555  25.868  26.400  1.00  0.00     0.118 C 
ATOM      6  C   UNL A   1      33.420  25.182  25.428  1.00  0.00     0.100 C 
ATOM      7  C   UNL A   1      32.056  24.548  25.836  1.00  0.00    -0.009 C 
ATOM      8  C   UNL A   1      30.927  24.513  24.833  1.00  0.00     0.013 C 
ATOM      9  C   UNL A   1      31.981  23.322  26.745  1.00  0.00     0.013 C 
BRANCH   6  10
ATOM     10  C   UNL A   1      33.691  25.420  24.034  1.00  0.00     0.230 C 
ATOM     11  N   UNL A   1      34.381  24.376  23.353  1.00  0.00    -0.310 N 
ATOM     12  H   UNL A   1      34.886  24.593  22.535  1.00  0.00     0.171 HD
ATOM     13  O   UNL A   1      33.361  26.418  23.401  1.00  0.00    -0.274 OA
BRANCH  11  14
ATOM     14  C   UNL A   1      34.365  23.052  23.811  1.00  0.00     0.136 A 
ATOM     15  C   UNL A   1      32.462  19.952  24.130  1.00  0.00     0.069 C 
ATOM     16  C   UNL A   1      33.456  21.053  24.092  1.00  0.00     0.062 A 
ATOM     17  C   UNL A   1      33.311  22.264  23.404  1.00  0.00     0.072 A 
ATOM     18  N   UNL A   1      34.614  20.992  24.756  1.00  0.00    -0.171 NA
ATOM     19  N   UNL A   1      35.170  22.236  24.649  1.00  0.00    -0.217 N 
BRANCH  19  20
ATOM     20  C   UNL A   1      36.427  22.453  25.313  1.00  0.00     0.067 A 
ATOM     21  C   UNL A   1      37.488  21.547  25.207  1.00  0.00     0.031 A 
ATOM     22  C   UNL A   1      36.735  23.693  25.871  1.00  0.00     0.031 A 
ATOM     23  C   UNL A   1      38.728  21.723  25.820  1.00  0.00     0.041 A 
ATOM     24  C   UNL A   1      38.005  23.916  26.449  1.00  0.00     0.041 A 
ATOM     25  C   UNL A   1      38.975  22.917  26.452  1.00  0.00     0.123 A 
ATOM     26  F   UNL A   1      40.170  23.123  27.017  1.00  0.00    -0.207 F 
ENDBRANCH  19  20
ENDBRANCH  11  14
ENDBRANCH   6  10
ENDBRANCH   3   5
ENDBRANCH   2   3
ENDBRANCH   1   2
BRANCH   1  27
ATOM     27  C   UNL A   1      33.183  30.490  26.940  1.00  0.00     0.275 C 
BRANCH  27  28
ATOM     28  O   UNL A   1      34.573  30.184  27.138  1.00  0.00    -0.458 OA
BRANCH  28  29
ATOM     29  C   UNL A   1      35.261  31.167  27.759  1.00  0.00     0.338 C 
ATOM     30  O   UNL A   1      35.180  32.366  27.561  1.00  0.00    -0.246 OA
BRANCH  29  31
ATOM     31  C   UNL A   1      36.402  30.624  28.482  1.00  0.00     0.060 A 
ATOM     32  C   UNL A   1      37.324  31.520  29.037  1.00  0.00     0.016 A 
ATOM     33  C   UNL A   1      36.727  29.297  28.186  1.00  0.00     0.016 A 
ATOM     34  C   UNL A   1      38.635  31.108  29.163  1.00  0.00     0.010 A 
ATOM     35  C   UNL A   1      38.037  28.902  28.286  1.00  0.00     0.010 A 
ATOM     36  C   UNL A   1      38.986  29.826  28.714  1.00  0.00    -0.014 A 
BRANCH  36  37
ATOM     37  C   UNL A   1      40.349  29.366  28.902  1.00  0.00     0.031 A 
ATOM     38  C   UNL A   1      40.660  29.168  30.341  1.00  0.00     0.074 A 
ATOM     39  C   UNL A   1      41.137  28.990  27.874  1.00  0.00     0.049 A 
ATOM     40  N   UNL A   1      41.572  29.755  31.039  1.00  0.00    -0.248 NA
ATOM     41  C   UNL A   1      39.722  28.361  31.148  1.00  0.00     0.031 C 
ATOM     42  C   UNL A   1      40.784  28.914  26.452  1.00  0.00     0.029 A 
ATOM     43  N   UNL A   1      42.401  28.482  27.891  1.00  0.00    -0.354 N 
ATOM     44  C   UNL A   1      41.461  29.225  32.321  1.00  0.00     0.074 A 
ATOM     45  C   UNL A   1      40.199  28.542  32.379  1.00  0.00     0.031 C 
ATOM     46  C   UNL A   1      41.709  28.174  25.797  1.00  0.00     0.029 A 
ATOM     47  C   UNL A   1      42.778  27.832  26.718  1.00  0.00     0.049 A 
ATOM     48  H   UNL A   1      42.999  28.567  28.669  1.00  0.00     0.167 HD
ATOM     49  C   UNL A   1      42.557  29.139  33.121  1.00  0.00     0.037 A 
ATOM     50  C   UNL A   1      43.858  27.021  26.553  1.00  0.00     0.037 A 
ATOM     51  C   UNL A   1      43.576  30.060  32.683  1.00  0.00     0.049 A 
ATOM     52  C   UNL A   1      44.785  27.286  27.681  1.00  0.00     0.074 A 
ATOM     53  C   UNL A   1      43.657  31.431  32.544  1.00  0.00     0.029 A 
ATOM     54  N   UNL A   1      44.604  29.542  31.937  1.00  0.00    -0.354 N 
ATOM     55  N   UNL A   1      45.447  28.398  27.827  1.00  0.00    -0.248 NA
ATOM     56  C   UNL A   1      44.618  26.492  28.889  1.00  0.00     0.031 C 
ATOM     57  C   UNL A   1      44.441  31.641  31.371  1.00  0.00     0.029 A 
ATOM     58  C   UNL A   1      44.860  30.397  30.900  1.00  0.00     0.049 A 
ATOM     59  H   UNL A   1      45.078  28.699  32.117  1.00  0.00     0.167 HD
ATOM     60  C   UNL A   1      45.372  28.668  29.184  1.00  0.00     0.074 A 
ATOM     61  C   UNL A   1      44.933  27.417  29.798  1.00  0.00     0.031 C 
ATOM     62  C   UNL A   1      45.385  29.958  29.630  1.00  0.00     0.037 A 
BRANCH  49  63
ATOM     63  C   UNL A   1      42.878  27.922  33.965  1.00  0.00     0.064 A 
ATOM     64  C   UNL A   1      43.005  28.090  35.359  1.00  0.00     0.173 A 
ATOM     65  C   UNL A   1      43.385  26.706  33.455  1.00  0.00     0.173 A 
ATOM     66  F   UNL A   1      42.568  29.209  35.955  1.00  0.00    -0.203 F 
ATOM     67  C   UNL A   1      43.683  27.164  36.155  1.00  0.00     0.198 A 
ATOM     68  C   UNL A   1      44.015  25.761  34.262  1.00  0.00     0.198 A 
ATOM     69  F   UNL A   1      43.402  26.420  32.149  1.00  0.00    -0.203 F 
ATOM     70  F   UNL A   1      43.906  27.438  37.447  1.00  0.00    -0.200 F 
ATOM     71  C   UNL A   1      44.198  26.006  35.604  1.00  0.00     0.200 A 
ATOM     72  F   UNL A   1      44.523  24.654  33.701  1.00  0.00    -0.200 F 
ATOM     73  F   UNL A   1      44.910  25.152  36.349  1.00  0.00    -0.200 F 
ENDBRANCH  49  63
BRANCH  50  74
ATOM     74  C   UNL A   1      44.015  25.817  25.699  1.00  0.00     0.064 A 
ATOM     75  C   UNL A   1      45.272  25.460  25.174  1.00  0.00     0.173 A 
ATOM     76  C   UNL A   1      43.012  24.833  25.633  1.00  0.00     0.173 A 
ATOM     77  F   UNL A   1      46.298  26.321  25.238  1.00  0.00    -0.203 F 
ATOM     78  C   UNL A   1      45.516  24.186  24.648  1.00  0.00     0.198 A 
ATOM     79  C   UNL A   1      43.256  23.563  25.104  1.00  0.00     0.198 A 
ATOM     80  F   UNL A   1      41.804  25.047  26.174  1.00  0.00    -0.203 F 
ATOM     81  F   UNL A   1      46.745  23.862  24.221  1.00  0.00    -0.200 F 
ATOM     82  C   UNL A   1      44.511  23.235  24.625  1.00  0.00     0.200 A 
ATOM     83  F   UNL A   1      42.285  22.639  25.123  1.00  0.00    -0.200 F 
ATOM     84  F   UNL A   1      44.760  21.993  24.185  1.00  0.00    -0.200 F 
ENDBRANCH  50  74
BRANCH  62  85
ATOM     85  C   UNL A   1      45.803  31.022  28.655  1.00  0.00     0.064 A 
ATOM     86  C   UNL A   1      47.134  31.390  28.391  1.00  0.00     0.173 A 
ATOM     87  C   UNL A   1      44.802  31.623  27.880  1.00  0.00     0.173 A 
ATOM     88  F   UNL A   1      48.156  30.787  29.014  1.00  0.00    -0.203 F 
ATOM     89  C   UNL A   1      47.439  32.358  27.434  1.00  0.00     0.198 A 
ATOM     90  C   UNL A   1      45.112  32.557  26.897  1.00  0.00     0.198 A 
ATOM     91  F   UNL A   1      43.519  31.270  28.051  1.00  0.00    -0.203 F 
ATOM     92  F   UNL A   1      48.714  32.710  27.214  1.00  0.00    -0.200 F 
ATOM     93  C   UNL A   1      46.427  32.936  26.685  1.00  0.00     0.200 A 
ATOM     94  F   UNL A   1      44.134  33.073  26.141  1.00  0.00    -0.200 F 
ATOM     95  F   UNL A   1      46.721  33.840  25.740  1.00  0.00    -0.200 F 
ENDBRANCH  62  85
ENDBRANCH  36  37
ENDBRANCH  29  31
ENDBRANCH  28  29
ENDBRANCH  27  28
ENDBRANCH   1  27
TORSDOF 14
ENDMDL
