MODEL 1
REMARK VINA RESULT:      -9.0      0.000      0.000
REMARK SMILES COc1ccc(/C=C2/SC(=S)N(NS(=O)(=O)c3ccccc3)C2=O)c(C(=O)OCCOC(=O)c2ccc(-c3c4nc(c(-c5c(F)c(F)c(F)c(F)c5F)c5ccc([nH]5)c(-c5c(F)c(F)c(F)c(F)c5F)c5nc(c(-c6c(F)c(F)c(F)c(F)c6F)c6ccc3[nH]6)C=C5)C=C4)cc2)c1OC
REMARK SMILES IDX 29 1 28 2 26 3 27 4 25 5 3 6 4 7 97 8 5 9 6 10 2 11 1 12
REMARK SMILES IDX 98 13 99 14 7 15 8 16 9 17 23 18 10 19 12 20 24 21 11 22
REMARK SMILES IDX 13 23 14 25 15 26 16 27 17 28 18 29 22 30 19 31 21 32 20 33
REMARK SMILES IDX 30 34 31 35 32 36 33 37 34 38 35 39 96 40 36 41 95 42 37 43
REMARK SMILES IDX 38 44 39 45 89 46 40 47 94 48 88 49 90 50 41 51 93 52 87 53
REMARK SMILES IDX 86 54 42 56 74 57 54 58 73 59 55 60 58 61 72 62 91 63 56 64
REMARK SMILES IDX 57 65 71 67 92 68 59 69 43 70 44 71 52 72 45 73 46 74 50 75
REMARK SMILES IDX 53 76 47 77 48 78 51 79 49 80 75 81 76 82 84 83 77 84 78 85
REMARK SMILES IDX 82 86 85 87 79 88 80 89 83 90 81 91 60 92 61 93 69 94 62 95
REMARK SMILES IDX 63 96 67 97 70 98 64 99 65 100 68 101 66 102
REMARK H PARENT 13 24 90 55 58 66
REMARK Flexibility Score: inf
ROOT
ATOM      1  C   UNL A   1      40.936  35.477  40.733  1.00  0.00     0.275 C 
ENDROOT
BRANCH   1   2
ATOM      2  O   UNL A   1      40.160  35.131  39.561  1.00  0.00    -0.458 OA
BRANCH   2   3
ATOM      3  C   UNL A   1      40.310  33.900  38.998  1.00  0.00     0.342 C 
ATOM      4  O   UNL A   1      41.369  33.436  38.592  1.00  0.00    -0.246 OA
BRANCH   3   5
ATOM      5  C   UNL A   1      39.031  33.119  38.933  1.00  0.00     0.113 A 
ATOM      6  C   UNL A   1      37.354  31.968  40.258  1.00  0.00     0.161 A 
ATOM      7  C   UNL A   1      36.389  32.356  39.316  1.00  0.00     0.051 A 
ATOM      8  C   UNL A   1      38.690  32.346  40.083  1.00  0.00     0.175 A 
ATOM      9  C   UNL A   1      36.754  33.021  38.134  1.00  0.00     0.013 A 
ATOM     10  C   UNL A   1      38.090  33.357  37.883  1.00  0.00    -0.006 A 
BRANCH   6  11
ATOM     11  O   UNL A   1      36.938  31.105  41.238  1.00  0.00    -0.493 OA
ATOM     12  C   UNL A   1      35.986  31.667  42.140  1.00  0.00     0.278 C 
ENDBRANCH   6  11
BRANCH   8  13
ATOM     13  O   UNL A   1      39.744  32.053  40.898  1.00  0.00    -0.492 OA
ATOM     14  C   UNL A   1      39.736  32.258  42.292  1.00  0.00     0.278 C 
ENDBRANCH   8  13
BRANCH  10  15
ATOM     15  C   UNL A   1      38.402  34.076  36.594  1.00  0.00     0.030 C 
ATOM     16  C   UNL A   1      38.752  33.574  35.329  1.00  0.00     0.082 C 
ATOM     17  S   UNL A   1      39.820  34.317  33.189  1.00  0.00    -0.053 SA
ATOM     18  C   UNL A   1      38.591  31.627  35.220  1.00  0.00     0.281 C 
ATOM     19  C   UNL A   1      39.831  32.132  32.443  1.00  0.00     0.164 C 
ATOM     20  N   UNL A   1      39.115  31.077  33.650  1.00  0.00    -0.209 N 
ATOM     21  O   UNL A   1      38.494  30.925  36.218  1.00  0.00    -0.267 OA
ATOM     22  S   UNL A   1      40.514  31.745  30.970  1.00  0.00    -0.050 S 
BRANCH  20  23
ATOM     23  N   UNL A   1      39.167  29.630  33.484  1.00  0.00    -0.114 NA
ATOM     24  H   UNL A   1      39.150  29.209  34.413  1.00  0.00     0.168 HD
BRANCH  23  25
ATOM     25  S   UNL A   1      37.902  28.928  32.570  1.00  0.00     0.257 S 
ATOM     26  O   UNL A   1      37.714  27.603  33.133  1.00  0.00    -0.205 OA
ATOM     27  O   UNL A   1      36.822  29.891  32.580  1.00  0.00    -0.205 OA
BRANCH  25  28
ATOM     28  C   UNL A   1      38.439  28.722  30.888  1.00  0.00     0.084 A 
ATOM     29  C   UNL A   1      37.656  29.164  29.819  1.00  0.00     0.022 A 
ATOM     30  C   UNL A   1      39.664  28.080  30.633  1.00  0.00     0.022 A 
ATOM     31  C   UNL A   1      38.143  29.037  28.511  1.00  0.00     0.001 A 
ATOM     32  C   UNL A   1      40.159  27.989  29.333  1.00  0.00     0.001 A 
ATOM     33  C   UNL A   1      39.399  28.472  28.273  1.00  0.00     0.000 A 
ENDBRANCH  25  28
ENDBRANCH  23  25
ENDBRANCH  20  23
ENDBRANCH  10  15
ENDBRANCH   3   5
ENDBRANCH   2   3
ENDBRANCH   1   2
BRANCH   1  34
ATOM     34  C   UNL A   1      41.381  36.947  40.751  1.00  0.00     0.275 C 
BRANCH  34  35
ATOM     35  O   UNL A   1      42.795  37.046  40.472  1.00  0.00    -0.458 OA
BRANCH  35  36
ATOM     36  C   UNL A   1      42.944  37.833  39.402  1.00  0.00     0.338 C 
ATOM     37  O   UNL A   1      42.995  39.063  39.454  1.00  0.00    -0.246 OA
BRANCH  36  38
ATOM     38  C   UNL A   1      42.962  37.303  38.048  1.00  0.00     0.060 A 
ATOM     39  C   UNL A   1      41.708  36.878  36.954  1.00  0.00     0.016 A 
ATOM     40  C   UNL A   1      44.384  36.297  38.032  1.00  0.00     0.016 A 
ATOM     41  C   UNL A   1      41.790  35.448  35.883  1.00  0.00     0.010 A 
ATOM     42  C   UNL A   1      44.476  34.665  36.817  1.00  0.00     0.010 A 
ATOM     43  C   UNL A   1      43.139  34.318  35.720  1.00  0.00    -0.014 A 
BRANCH  43  44
ATOM     44  C   UNL A   1      43.378  33.480  34.414  1.00  0.00     0.031 A 
ATOM     45  C   UNL A   1      43.643  34.040  32.991  1.00  0.00     0.074 A 
ATOM     46  C   UNL A   1      43.133  32.146  34.414  1.00  0.00     0.049 A 
ATOM     47  N   UNL A   1      43.597  33.425  31.819  1.00  0.00    -0.248 NA
ATOM     48  C   UNL A   1      43.870  35.472  32.832  1.00  0.00     0.031 C 
ATOM     49  C   UNL A   1      42.511  31.400  35.494  1.00  0.00     0.029 A 
ATOM     50  N   UNL A   1      43.378  31.156  33.482  1.00  0.00    -0.354 N 
ATOM     51  C   UNL A   1      43.647  34.420  30.833  1.00  0.00     0.074 A 
ATOM     52  C   UNL A   1      43.636  35.676  31.543  1.00  0.00     0.031 C 
ATOM     53  C   UNL A   1      42.673  30.091  35.314  1.00  0.00     0.029 A 
ATOM     54  C   UNL A   1      43.180  29.882  33.971  1.00  0.00     0.049 A 
ATOM     55  H   UNL A   1      43.665  31.343  32.558  1.00  0.00     0.167 HD
ATOM     56  C   UNL A   1      43.763  34.327  29.476  1.00  0.00     0.037 A 
ATOM     57  C   UNL A   1      43.308  28.660  33.421  1.00  0.00     0.037 A 
ATOM     58  C   UNL A   1      43.939  33.083  28.763  1.00  0.00     0.049 A 
ATOM     59  C   UNL A   1      43.638  28.552  31.971  1.00  0.00     0.074 A 
ATOM     60  C   UNL A   1      44.225  32.881  27.422  1.00  0.00     0.029 A 
ATOM     61  N   UNL A   1      43.876  31.824  29.344  1.00  0.00    -0.354 N 
ATOM     62  N   UNL A   1      43.758  29.508  31.086  1.00  0.00    -0.248 NA
ATOM     63  C   UNL A   1      43.815  27.199  31.433  1.00  0.00     0.031 C 
ATOM     64  C   UNL A   1      44.292  31.504  27.183  1.00  0.00     0.029 A 
ATOM     65  C   UNL A   1      44.118  30.846  28.388  1.00  0.00     0.049 A 
ATOM     66  H   UNL A   1      43.687  31.650  30.293  1.00  0.00     0.167 HD
ATOM     67  C   UNL A   1      44.018  28.877  29.882  1.00  0.00     0.074 A 
ATOM     68  C   UNL A   1      44.080  27.456  30.160  1.00  0.00     0.031 C 
ATOM     69  C   UNL A   1      44.177  29.432  28.657  1.00  0.00     0.037 A 
BRANCH  56  70
ATOM     70  C   UNL A   1      43.764  35.606  28.652  1.00  0.00     0.064 A 
ATOM     71  C   UNL A   1      44.949  36.288  28.321  1.00  0.00     0.173 A 
ATOM     72  C   UNL A   1      42.566  36.133  28.130  1.00  0.00     0.173 A 
ATOM     73  F   UNL A   1      46.133  35.825  28.748  1.00  0.00    -0.203 F 
ATOM     74  C   UNL A   1      44.930  37.472  27.582  1.00  0.00     0.198 A 
ATOM     75  C   UNL A   1      42.555  37.289  27.344  1.00  0.00     0.198 A 
ATOM     76  F   UNL A   1      41.397  35.514  28.356  1.00  0.00    -0.203 F 
ATOM     77  F   UNL A   1      46.073  38.134  27.353  1.00  0.00    -0.200 F 
ATOM     78  C   UNL A   1      43.735  37.969  27.091  1.00  0.00     0.200 A 
ATOM     79  F   UNL A   1      41.403  37.741  26.832  1.00  0.00    -0.200 F 
ATOM     80  F   UNL A   1      43.721  39.099  26.368  1.00  0.00    -0.200 F 
ENDBRANCH  56  70
BRANCH  57  81
ATOM     81  C   UNL A   1      43.128  27.453  34.276  1.00  0.00     0.064 A 
ATOM     82  C   UNL A   1      44.204  26.941  35.015  1.00  0.00     0.173 A 
ATOM     83  C   UNL A   1      41.871  26.856  34.463  1.00  0.00     0.173 A 
ATOM     84  F   UNL A   1      45.431  27.460  34.858  1.00  0.00    -0.203 F 
ATOM     85  C   UNL A   1      44.027  25.889  35.913  1.00  0.00     0.198 A 
ATOM     86  C   UNL A   1      41.686  25.842  35.398  1.00  0.00     0.198 A 
ATOM     87  F   UNL A   1      40.803  27.320  33.796  1.00  0.00    -0.203 F 
ATOM     88  F   UNL A   1      45.079  25.404  36.588  1.00  0.00    -0.200 F 
ATOM     89  C   UNL A   1      42.765  25.355  36.119  1.00  0.00     0.200 A 
ATOM     90  F   UNL A   1      40.455  25.361  35.627  1.00  0.00    -0.200 F 
ATOM     91  F   UNL A   1      42.587  24.379  37.019  1.00  0.00    -0.200 F 
ENDBRANCH  57  81
BRANCH  69  92
ATOM     92  C   UNL A   1      44.488  28.497  27.528  1.00  0.00     0.064 A 
ATOM     93  C   UNL A   1      43.500  28.060  26.632  1.00  0.00     0.173 A 
ATOM     94  C   UNL A   1      45.793  28.012  27.356  1.00  0.00     0.173 A 
ATOM     95  F   UNL A   1      42.232  28.479  26.767  1.00  0.00    -0.203 F 
ATOM     96  C   UNL A   1      43.800  27.137  25.634  1.00  0.00     0.198 A 
ATOM     97  C   UNL A   1      46.096  27.119  26.334  1.00  0.00     0.198 A 
ATOM     98  F   UNL A   1      46.775  28.399  28.184  1.00  0.00    -0.203 F 
ATOM     99  F   UNL A   1      42.825  26.674  24.838  1.00  0.00    -0.200 F 
ATOM    100  C   UNL A   1      45.097  26.670  25.483  1.00  0.00     0.200 A 
ATOM    101  F   UNL A   1      47.352  26.677  26.183  1.00  0.00    -0.200 F 
ATOM    102  F   UNL A   1      45.381  25.776  24.527  1.00  0.00    -0.200 F 
ENDBRANCH  69  92
ENDBRANCH  43  44
ENDBRANCH  36  38
ENDBRANCH  35  36
ENDBRANCH  34  35
ENDBRANCH   1  34
TORSDOF 17
ENDMDL
MODEL 2
REMARK VINA RESULT:      -8.7      5.595     10.423
REMARK SMILES COc1ccc(/C=C2/SC(=S)N(NS(=O)(=O)c3ccccc3)C2=O)c(C(=O)OCCOC(=O)c2ccc(-c3c4nc(c(-c5c(F)c(F)c(F)c(F)c5F)c5ccc([nH]5)c(-c5c(F)c(F)c(F)c(F)c5F)c5nc(c(-c6c(F)c(F)c(F)c(F)c6F)c6ccc3[nH]6)C=C5)C=C4)cc2)c1OC
REMARK SMILES IDX 29 1 28 2 26 3 27 4 25 5 3 6 4 7 97 8 5 9 6 10 2 11 1 12
REMARK SMILES IDX 98 13 99 14 7 15 8 16 9 17 23 18 10 19 12 20 24 21 11 22
REMARK SMILES IDX 13 23 14 25 15 26 16 27 17 28 18 29 22 30 19 31 21 32 20 33
REMARK SMILES IDX 30 34 31 35 32 36 33 37 34 38 35 39 96 40 36 41 95 42 37 43
REMARK SMILES IDX 38 44 39 45 89 46 40 47 94 48 88 49 90 50 41 51 93 52 87 53
REMARK SMILES IDX 86 54 42 56 74 57 54 58 73 59 55 60 58 61 72 62 91 63 56 64
REMARK SMILES IDX 57 65 71 67 92 68 59 69 43 70 44 71 52 72 45 73 46 74 50 75
REMARK SMILES IDX 53 76 47 77 48 78 51 79 49 80 75 81 76 82 84 83 77 84 78 85
REMARK SMILES IDX 82 86 85 87 79 88 80 89 83 90 81 91 60 92 61 93 69 94 62 95
REMARK SMILES IDX 63 96 67 97 70 98 64 99 65 100 68 101 66 102
REMARK H PARENT 13 24 90 55 58 66
REMARK Flexibility Score: inf
ROOT
ATOM      1  C   UNL A   1      51.539  26.489  35.062  1.00  0.00     0.275 C 
ENDROOT
BRANCH   1   2
ATOM      2  O   UNL A   1      50.812  26.817  33.853  1.00  0.00    -0.458 OA
BRANCH   2   3
ATOM      3  C   UNL A   1      50.496  25.825  32.974  1.00  0.00     0.342 C 
ATOM      4  O   UNL A   1      51.307  25.147  32.355  1.00  0.00    -0.246 OA
BRANCH   3   5
ATOM      5  C   UNL A   1      49.018  25.607  32.836  1.00  0.00     0.113 A 
ATOM      6  C   UNL A   1      47.057  24.656  33.903  1.00  0.00     0.161 A 
ATOM      7  C   UNL A   1      46.287  25.681  33.332  1.00  0.00     0.051 A 
ATOM      8  C   UNL A   1      48.435  24.605  33.666  1.00  0.00     0.175 A 
ATOM      9  C   UNL A   1      46.853  26.596  32.428  1.00  0.00     0.013 A 
ATOM     10  C   UNL A   1      48.215  26.539  32.106  1.00  0.00    -0.006 A 
BRANCH   6  11
ATOM     11  O   UNL A   1      46.368  23.669  34.557  1.00  0.00    -0.493 OA
ATOM     12  C   UNL A   1      45.821  24.076  35.810  1.00  0.00     0.278 C 
ENDBRANCH   6  11
BRANCH   8  13
ATOM     13  O   UNL A   1      49.320  23.681  34.142  1.00  0.00    -0.492 OA
ATOM     14  C   UNL A   1      49.581  23.480  35.511  1.00  0.00     0.278 C 
ENDBRANCH   8  13
BRANCH  10  15
ATOM     15  C   UNL A   1      48.749  27.560  31.133  1.00  0.00     0.030 C 
ATOM     16  C   UNL A   1      48.735  27.578  29.727  1.00  0.00     0.082 C 
ATOM     17  S   UNL A   1      49.887  28.690  27.803  1.00  0.00    -0.053 SA
ATOM     18  C   UNL A   1      47.655  26.134  28.967  1.00  0.00     0.281 C 
ATOM     19  C   UNL A   1      48.805  27.268  26.341  1.00  0.00     0.164 C 
ATOM     20  N   UNL A   1      47.751  26.178  27.226  1.00  0.00    -0.209 N 
ATOM     21  O   UNL A   1      47.299  25.169  29.629  1.00  0.00    -0.267 OA
ATOM     22  S   UNL A   1      49.124  27.337  24.703  1.00  0.00    -0.050 S 
BRANCH  20  23
ATOM     23  N   UNL A   1      47.094  25.073  26.539  1.00  0.00    -0.114 NA
ATOM     24  H   UNL A   1      47.098  24.270  27.167  1.00  0.00     0.168 HD
BRANCH  23  25
ATOM     25  S   UNL A   1      45.477  25.344  26.046  1.00  0.00     0.257 S 
ATOM     26  O   UNL A   1      45.230  26.750  26.306  1.00  0.00    -0.205 OA
ATOM     27  O   UNL A   1      45.378  24.816  24.702  1.00  0.00    -0.205 OA
BRANCH  25  28
ATOM     28  C   UNL A   1      44.383  24.407  27.088  1.00  0.00     0.084 A 
ATOM     29  C   UNL A   1      44.116  24.807  28.400  1.00  0.00     0.022 A 
ATOM     30  C   UNL A   1      43.798  23.231  26.586  1.00  0.00     0.022 A 
ATOM     31  C   UNL A   1      43.202  24.074  29.168  1.00  0.00     0.001 A 
ATOM     32  C   UNL A   1      42.862  22.528  27.344  1.00  0.00     0.001 A 
ATOM     33  C   UNL A   1      42.561  22.953  28.633  1.00  0.00     0.000 A 
ENDBRANCH  25  28
ENDBRANCH  23  25
ENDBRANCH  20  23
ENDBRANCH  10  15
ENDBRANCH   3   5
ENDBRANCH   2   3
ENDBRANCH   1   2
BRANCH   1  34
ATOM     34  C   UNL A   1      50.808  26.926  36.342  1.00  0.00     0.275 C 
BRANCH  34  35
ATOM     35  O   UNL A   1      49.383  26.989  36.108  1.00  0.00    -0.458 OA
BRANCH  35  36
ATOM     36  C   UNL A   1      48.939  28.142  36.617  1.00  0.00     0.338 C 
ATOM     37  O   UNL A   1      49.576  28.832  37.414  1.00  0.00    -0.246 OA
BRANCH  36  38
ATOM     38  C   UNL A   1      47.601  28.643  36.346  1.00  0.00     0.060 A 
ATOM     39  C   UNL A   1      46.040  27.976  36.602  1.00  0.00     0.016 A 
ATOM     40  C   UNL A   1      47.816  29.590  34.899  1.00  0.00     0.016 A 
ATOM     41  C   UNL A   1      44.695  28.163  35.438  1.00  0.00     0.010 A 
ATOM     42  C   UNL A   1      46.286  29.799  33.570  1.00  0.00     0.010 A 
ATOM     43  C   UNL A   1      44.716  29.083  33.929  1.00  0.00    -0.014 A 
BRANCH  43  44
ATOM     44  C   UNL A   1      43.408  29.668  33.286  1.00  0.00     0.031 A 
ATOM     45  C   UNL A   1      42.495  30.769  33.887  1.00  0.00     0.074 A 
ATOM     46  C   UNL A   1      42.851  29.053  32.213  1.00  0.00     0.049 A 
ATOM     47  N   UNL A   1      41.266  31.127  33.546  1.00  0.00    -0.248 NA
ATOM     48  C   UNL A   1      42.943  31.479  35.079  1.00  0.00     0.031 C 
ATOM     49  C   UNL A   1      43.268  27.779  31.657  1.00  0.00     0.029 A 
ATOM     50  N   UNL A   1      41.812  29.409  31.374  1.00  0.00    -0.354 N 
ATOM     51  C   UNL A   1      40.789  31.971  34.557  1.00  0.00     0.074 A 
ATOM     52  C   UNL A   1      41.823  31.999  35.563  1.00  0.00     0.031 C 
ATOM     53  C   UNL A   1      42.726  27.590  30.455  1.00  0.00     0.029 A 
ATOM     54  C   UNL A   1      41.711  28.607  30.257  1.00  0.00     0.049 A 
ATOM     55  H   UNL A   1      41.203  30.161  31.557  1.00  0.00     0.167 HD
ATOM     56  C   UNL A   1      39.648  32.715  34.636  1.00  0.00     0.037 A 
ATOM     57  C   UNL A   1      40.871  28.605  29.205  1.00  0.00     0.037 A 
ATOM     58  C   UNL A   1      38.681  32.826  33.568  1.00  0.00     0.049 A 
ATOM     59  C   UNL A   1      39.729  29.563  29.190  1.00  0.00     0.074 A 
ATOM     60  C   UNL A   1      37.581  33.665  33.473  1.00  0.00     0.029 A 
ATOM     61  N   UNL A   1      38.715  32.091  32.391  1.00  0.00    -0.354 N 
ATOM     62  N   UNL A   1      39.353  30.401  30.122  1.00  0.00    -0.248 NA
ATOM     63  C   UNL A   1      38.873  29.553  27.999  1.00  0.00     0.031 C 
ATOM     64  C   UNL A   1      36.928  33.409  32.262  1.00  0.00     0.029 A 
ATOM     65  C   UNL A   1      37.659  32.460  31.568  1.00  0.00     0.049 A 
ATOM     66  H   UNL A   1      39.389  31.409  32.172  1.00  0.00     0.167 HD
ATOM     67  C   UNL A   1      38.212  31.017  29.637  1.00  0.00     0.074 A 
ATOM     68  C   UNL A   1      37.983  30.485  28.308  1.00  0.00     0.031 C 
ATOM     69  C   UNL A   1      37.423  31.932  30.249  1.00  0.00     0.037 A 
BRANCH  56  70
ATOM     70  C   UNL A   1      39.387  33.528  35.896  1.00  0.00     0.064 A 
ATOM     71  C   UNL A   1      38.639  33.024  36.975  1.00  0.00     0.173 A 
ATOM     72  C   UNL A   1      39.944  34.811  36.058  1.00  0.00     0.173 A 
ATOM     73  F   UNL A   1      38.110  31.793  36.912  1.00  0.00    -0.203 F 
ATOM     74  C   UNL A   1      38.391  33.791  38.115  1.00  0.00     0.198 A 
ATOM     75  C   UNL A   1      39.739  35.556  37.222  1.00  0.00     0.198 A 
ATOM     76  F   UNL A   1      40.713  35.344  35.096  1.00  0.00    -0.203 F 
ATOM     77  F   UNL A   1      37.608  33.306  39.089  1.00  0.00    -0.200 F 
ATOM     78  C   UNL A   1      38.945  35.054  38.240  1.00  0.00     0.200 A 
ATOM     79  F   UNL A   1      40.315  36.759  37.360  1.00  0.00    -0.200 F 
ATOM     80  F   UNL A   1      38.718  35.784  39.342  1.00  0.00    -0.200 F 
ENDBRANCH  56  70
BRANCH  57  81
ATOM     81  C   UNL A   1      41.111  27.654  28.083  1.00  0.00     0.064 A 
ATOM     82  C   UNL A   1      40.480  26.401  28.068  1.00  0.00     0.173 A 
ATOM     83  C   UNL A   1      41.874  28.009  26.959  1.00  0.00     0.173 A 
ATOM     84  F   UNL A   1      39.757  26.004  29.125  1.00  0.00    -0.203 F 
ATOM     85  C   UNL A   1      40.595  25.549  26.971  1.00  0.00     0.198 A 
ATOM     86  C   UNL A   1      41.944  27.179  25.844  1.00  0.00     0.198 A 
ATOM     87  F   UNL A   1      42.483  29.204  26.912  1.00  0.00    -0.203 F 
ATOM     88  F   UNL A   1      40.001  24.348  26.995  1.00  0.00    -0.200 F 
ATOM     89  C   UNL A   1      41.309  25.947  25.851  1.00  0.00     0.200 A 
ATOM     90  F   UNL A   1      42.597  27.590  24.746  1.00  0.00    -0.200 F 
ATOM     91  F   UNL A   1      41.376  25.149  24.778  1.00  0.00    -0.200 F 
ENDBRANCH  57  81
BRANCH  69  92
ATOM     92  C   UNL A   1      36.262  32.456  29.460  1.00  0.00     0.064 A 
ATOM     93  C   UNL A   1      36.189  33.796  29.048  1.00  0.00     0.173 A 
ATOM     94  C   UNL A   1      35.194  31.608  29.133  1.00  0.00     0.173 A 
ATOM     95  F   UNL A   1      37.176  34.652  29.355  1.00  0.00    -0.203 F 
ATOM     96  C   UNL A   1      35.068  34.276  28.377  1.00  0.00     0.198 A 
ATOM     97  C   UNL A   1      34.092  32.084  28.429  1.00  0.00     0.198 A 
ATOM     98  F   UNL A   1      35.214  30.319  29.502  1.00  0.00    -0.203 F 
ATOM     99  F   UNL A   1      34.985  35.576  28.061  1.00  0.00    -0.200 F 
ATOM    100  C   UNL A   1      34.023  33.420  28.065  1.00  0.00     0.200 A 
ATOM    101  F   UNL A   1      33.088  31.252  28.119  1.00  0.00    -0.200 F 
ATOM    102  F   UNL A   1      32.941  33.886  27.426  1.00  0.00    -0.200 F 
ENDBRANCH  69  92
ENDBRANCH  43  44
ENDBRANCH  36  38
ENDBRANCH  35  36
ENDBRANCH  34  35
ENDBRANCH   1  34
TORSDOF 17
ENDMDL
MODEL 3
REMARK VINA RESULT:      -8.6      7.387     12.773
REMARK SMILES COc1ccc(/C=C2/SC(=S)N(NS(=O)(=O)c3ccccc3)C2=O)c(C(=O)OCCOC(=O)c2ccc(-c3c4nc(c(-c5c(F)c(F)c(F)c(F)c5F)c5ccc([nH]5)c(-c5c(F)c(F)c(F)c(F)c5F)c5nc(c(-c6c(F)c(F)c(F)c(F)c6F)c6ccc3[nH]6)C=C5)C=C4)cc2)c1OC
REMARK SMILES IDX 29 1 28 2 26 3 27 4 25 5 3 6 4 7 97 8 5 9 6 10 2 11 1 12
REMARK SMILES IDX 98 13 99 14 7 15 8 16 9 17 23 18 10 19 12 20 24 21 11 22
REMARK SMILES IDX 13 23 14 25 15 26 16 27 17 28 18 29 22 30 19 31 21 32 20 33
REMARK SMILES IDX 30 34 31 35 32 36 33 37 34 38 35 39 96 40 36 41 95 42 37 43
REMARK SMILES IDX 38 44 39 45 89 46 40 47 94 48 88 49 90 50 41 51 93 52 87 53
REMARK SMILES IDX 86 54 42 56 74 57 54 58 73 59 55 60 58 61 72 62 91 63 56 64
REMARK SMILES IDX 57 65 71 67 92 68 59 69 43 70 44 71 52 72 45 73 46 74 50 75
REMARK SMILES IDX 53 76 47 77 48 78 51 79 49 80 75 81 76 82 84 83 77 84 78 85
REMARK SMILES IDX 82 86 85 87 79 88 80 89 83 90 81 91 60 92 61 93 69 94 62 95
REMARK SMILES IDX 63 96 67 97 70 98 64 99 65 100 68 101 66 102
REMARK H PARENT 13 24 90 55 58 66
REMARK Flexibility Score: inf
ROOT
ATOM      1  C   UNL A   1      49.311  40.317  27.968  1.00  0.00     0.275 C 
ENDROOT
BRANCH   1   2
ATOM      2  O   UNL A   1      48.621  41.587  27.881  1.00  0.00    -0.458 OA
BRANCH   2   3
ATOM      3  C   UNL A   1      47.550  41.710  27.049  1.00  0.00     0.342 C 
ATOM      4  O   UNL A   1      47.204  40.878  26.219  1.00  0.00    -0.246 OA
BRANCH   3   5
ATOM      5  C   UNL A   1      46.786  42.985  27.252  1.00  0.00     0.113 A 
ATOM      6  C   UNL A   1      45.276  44.162  28.744  1.00  0.00     0.161 A 
ATOM      7  C   UNL A   1      45.884  45.367  28.358  1.00  0.00     0.051 A 
ATOM      8  C   UNL A   1      45.720  42.953  28.199  1.00  0.00     0.175 A 
ATOM      9  C   UNL A   1      46.856  45.397  27.345  1.00  0.00     0.013 A 
ATOM     10  C   UNL A   1      47.281  44.218  26.721  1.00  0.00    -0.006 A 
BRANCH   6  11
ATOM     11  O   UNL A   1      44.167  44.267  29.542  1.00  0.00    -0.493 OA
ATOM     12  C   UNL A   1      44.455  44.245  30.939  1.00  0.00     0.278 C 
ENDBRANCH   6  11
BRANCH   8  13
ATOM     13  O   UNL A   1      45.239  41.703  28.464  1.00  0.00    -0.492 OA
ATOM     14  C   UNL A   1      43.963  41.255  28.069  1.00  0.00     0.278 C 
ENDBRANCH   8  13
BRANCH  10  15
ATOM     15  C   UNL A   1      48.333  44.332  25.647  1.00  0.00     0.030 C 
ATOM     16  C   UNL A   1      48.208  44.530  24.261  1.00  0.00     0.082 C 
ATOM     17  S   UNL A   1      49.525  44.259  22.149  1.00  0.00    -0.053 SA
ATOM     18  C   UNL A   1      46.369  44.923  23.721  1.00  0.00     0.281 C 
ATOM     19  C   UNL A   1      47.636  44.753  20.915  1.00  0.00     0.164 C 
ATOM     20  N   UNL A   1      46.283  45.077  21.985  1.00  0.00    -0.209 N 
ATOM     21  O   UNL A   1      45.414  44.716  24.459  1.00  0.00    -0.267 OA
ATOM     22  S   UNL A   1      47.680  44.709  19.247  1.00  0.00    -0.050 S 
BRANCH  20  23
ATOM     23  N   UNL A   1      44.940  45.242  21.442  1.00  0.00    -0.114 NA
ATOM     24  H   UNL A   1      45.023  45.733  20.552  1.00  0.00     0.168 HD
BRANCH  23  25
ATOM     25  S   UNL A   1      44.054  43.804  21.166  1.00  0.00     0.257 S 
ATOM     26  O   UNL A   1      45.037  42.828  20.733  1.00  0.00    -0.205 OA
ATOM     27  O   UNL A   1      43.275  43.581  22.365  1.00  0.00    -0.205 OA
BRANCH  25  28
ATOM     28  C   UNL A   1      42.926  44.061  19.816  1.00  0.00     0.084 A 
ATOM     29  C   UNL A   1      41.655  43.481  19.816  1.00  0.00     0.022 A 
ATOM     30  C   UNL A   1      43.335  44.842  18.721  1.00  0.00     0.022 A 
ATOM     31  C   UNL A   1      40.774  43.757  18.762  1.00  0.00     0.001 A 
ATOM     32  C   UNL A   1      42.441  45.141  17.693  1.00  0.00     0.001 A 
ATOM     33  C   UNL A   1      41.159  44.602  17.717  1.00  0.00     0.000 A 
ENDBRANCH  25  28
ENDBRANCH  23  25
ENDBRANCH  20  23
ENDBRANCH  10  15
ENDBRANCH   3   5
ENDBRANCH   2   3
ENDBRANCH   1   2
BRANCH   1  34
ATOM     34  C   UNL A   1      48.767  39.410  29.083  1.00  0.00     0.275 C 
BRANCH  34  35
ATOM     35  O   UNL A   1      47.864  38.426  28.531  1.00  0.00    -0.458 OA
BRANCH  35  36
ATOM     36  C   UNL A   1      46.825  38.316  29.364  1.00  0.00     0.338 C 
ATOM     37  O   UNL A   1      46.400  39.241  30.058  1.00  0.00    -0.246 OA
BRANCH  36  38
ATOM     38  C   UNL A   1      46.153  37.049  29.600  1.00  0.00     0.060 A 
ATOM     39  C   UNL A   1      46.582  35.665  30.523  1.00  0.00     0.016 A 
ATOM     40  C   UNL A   1      45.313  36.756  28.102  1.00  0.00     0.016 A 
ATOM     41  C   UNL A   1      46.260  33.992  29.980  1.00  0.00     0.010 A 
ATOM     42  C   UNL A   1      44.951  34.851  27.481  1.00  0.00     0.010 A 
ATOM     43  C   UNL A   1      45.422  33.495  28.505  1.00  0.00    -0.014 A 
BRANCH  43  44
ATOM     44  C   UNL A   1      44.688  32.112  28.384  1.00  0.00     0.031 A 
ATOM     45  C   UNL A   1      43.290  31.753  28.952  1.00  0.00     0.074 A 
ATOM     46  C   UNL A   1      45.368  31.025  27.940  1.00  0.00     0.049 A 
ATOM     47  N   UNL A   1      42.723  30.567  29.117  1.00  0.00    -0.248 NA
ATOM     48  C   UNL A   1      42.467  32.818  29.515  1.00  0.00     0.031 C 
ATOM     49  C   UNL A   1      46.797  30.964  27.691  1.00  0.00     0.029 A 
ATOM     50  N   UNL A   1      44.961  29.748  27.605  1.00  0.00    -0.354 N 
ATOM     51  C   UNL A   1      41.584  30.764  29.910  1.00  0.00     0.074 A 
ATOM     52  C   UNL A   1      41.591  32.163  30.264  1.00  0.00     0.031 C 
ATOM     53  C   UNL A   1      47.107  29.870  26.998  1.00  0.00     0.029 A 
ATOM     54  C   UNL A   1      45.940  29.009  26.976  1.00  0.00     0.049 A 
ATOM     55  H   UNL A   1      44.060  29.400  27.798  1.00  0.00     0.167 HD
ATOM     56  C   UNL A   1      40.582  29.907  30.261  1.00  0.00     0.037 A 
ATOM     57  C   UNL A   1      45.968  27.755  26.486  1.00  0.00     0.037 A 
ATOM     58  C   UNL A   1      40.475  28.549  29.780  1.00  0.00     0.049 A 
ATOM     59  C   UNL A   1      44.784  26.872  26.693  1.00  0.00     0.074 A 
ATOM     60  C   UNL A   1      39.432  27.649  29.939  1.00  0.00     0.029 A 
ATOM     61  N   UNL A   1      41.437  27.902  29.018  1.00  0.00    -0.354 N 
ATOM     62  N   UNL A   1      43.693  27.114  27.375  1.00  0.00    -0.248 NA
ATOM     63  C   UNL A   1      44.845  25.534  26.097  1.00  0.00     0.031 C 
ATOM     64  C   UNL A   1      39.780  26.448  29.311  1.00  0.00     0.029 A 
ATOM     65  C   UNL A   1      41.010  26.619  28.700  1.00  0.00     0.049 A 
ATOM     66  H   UNL A   1      42.296  28.295  28.744  1.00  0.00     0.167 HD
ATOM     67  C   UNL A   1      42.937  25.957  27.297  1.00  0.00     0.074 A 
ATOM     68  C   UNL A   1      43.677  25.028  26.466  1.00  0.00     0.031 C 
ATOM     69  C   UNL A   1      41.743  25.690  27.878  1.00  0.00     0.037 A 
BRANCH  56  70
ATOM     70  C   UNL A   1      39.472  30.412  31.171  1.00  0.00     0.064 A 
ATOM     71  C   UNL A   1      39.491  30.214  32.564  1.00  0.00     0.173 A 
ATOM     72  C   UNL A   1      38.395  31.159  30.654  1.00  0.00     0.173 A 
ATOM     73  F   UNL A   1      40.504  29.546  33.135  1.00  0.00    -0.203 F 
ATOM     74  C   UNL A   1      38.453  30.664  33.381  1.00  0.00     0.198 A 
ATOM     75  C   UNL A   1      37.385  31.656  31.482  1.00  0.00     0.198 A 
ATOM     76  F   UNL A   1      38.329  31.436  29.343  1.00  0.00    -0.203 F 
ATOM     77  F   UNL A   1      38.468  30.388  34.693  1.00  0.00    -0.200 F 
ATOM     78  C   UNL A   1      37.403  31.388  32.841  1.00  0.00     0.200 A 
ATOM     79  F   UNL A   1      36.395  32.396  30.963  1.00  0.00    -0.200 F 
ATOM     80  F   UNL A   1      36.415  31.833  33.630  1.00  0.00    -0.200 F 
ENDBRANCH  56  70
BRANCH  57  81
ATOM     81  C   UNL A   1      47.173  27.289  25.744  1.00  0.00     0.064 A 
ATOM     82  C   UNL A   1      47.327  27.591  24.383  1.00  0.00     0.173 A 
ATOM     83  C   UNL A   1      48.236  26.637  26.388  1.00  0.00     0.173 A 
ATOM     84  F   UNL A   1      46.333  28.193  23.714  1.00  0.00    -0.203 F 
ATOM     85  C   UNL A   1      48.501  27.271  23.702  1.00  0.00     0.198 A 
ATOM     86  C   UNL A   1      49.427  26.366  25.719  1.00  0.00     0.198 A 
ATOM     87  F   UNL A   1      48.149  26.342  27.694  1.00  0.00    -0.203 F 
ATOM     88  F   UNL A   1      48.611  27.550  22.395  1.00  0.00    -0.200 F 
ATOM     89  C   UNL A   1      49.557  26.678  24.375  1.00  0.00     0.200 A 
ATOM     90  F   UNL A   1      50.461  25.836  26.388  1.00  0.00    -0.200 F 
ATOM     91  F   UNL A   1      50.703  26.417  23.732  1.00  0.00    -0.200 F 
ENDBRANCH  57  81
BRANCH  69  92
ATOM     92  C   UNL A   1      41.135  24.352  27.587  1.00  0.00     0.064 A 
ATOM     93  C   UNL A   1      41.633  23.170  28.158  1.00  0.00     0.173 A 
ATOM     94  C   UNL A   1      40.051  24.249  26.704  1.00  0.00     0.173 A 
ATOM     95  F   UNL A   1      42.683  23.214  28.993  1.00  0.00    -0.203 F 
ATOM     96  C   UNL A   1      41.097  21.932  27.818  1.00  0.00     0.198 A 
ATOM     97  C   UNL A   1      39.493  23.012  26.396  1.00  0.00     0.198 A 
ATOM     98  F   UNL A   1      39.536  25.348  26.132  1.00  0.00    -0.203 F 
ATOM     99  F   UNL A   1      41.638  20.811  28.315  1.00  0.00    -0.200 F 
ATOM    100  C   UNL A   1      40.025  21.854  26.942  1.00  0.00     0.200 A 
ATOM    101  F   UNL A   1      38.450  22.940  25.557  1.00  0.00    -0.200 F 
ATOM    102  F   UNL A   1      39.515  20.660  26.610  1.00  0.00    -0.200 F 
ENDBRANCH  69  92
ENDBRANCH  43  44
ENDBRANCH  36  38
ENDBRANCH  35  36
ENDBRANCH  34  35
ENDBRANCH   1  34
TORSDOF 17
ENDMDL
