MODEL 1
REMARK VINA RESULT:     -14.2      0.000      0.000
REMARK SMILES O=C(OCCOC(=O)c1ccc(N2C(=O)[C@@H]3N=NC(c4ccccc4)=C3[C@H]2c2cccc(Br)c2)cc1)c1ccc(-c2c3nc(c(-c4c(F)c(F)c(F)c(F)c4F)c4ccc([nH]4)c(-c4c(F)c(F)c(F)c(F)c4F)c4nc(c(-c5c(F)c(F)c(F)c(F)c5F)c5ccc2[nH]5)C=C4)C=C3)cc1
REMARK SMILES IDX 4 1 3 2 2 3 1 4 37 5 38 6 99 7 39 8 98 9 40 10 41 11 42 12
REMARK SMILES IDX 92 13 43 14 97 15 91 16 93 17 44 18 96 19 90 20 89 21 45 23
REMARK SMILES IDX 77 24 57 25 76 26 58 27 61 28 75 29 94 30 59 31 60 32 74 34
REMARK SMILES IDX 95 35 62 36 46 37 47 38 55 39 48 40 49 41 53 42 56 43 50 44
REMARK SMILES IDX 51 45 54 46 52 47 78 48 79 49 87 50 80 51 81 52 85 53 88 54
REMARK SMILES IDX 82 55 83 56 86 57 84 58 63 59 64 60 72 61 65 62 66 63 70 64
REMARK SMILES IDX 73 65 67 66 68 67 71 68 69 69 5 70 6 71 7 72 8 73 9 74 10 75
REMARK SMILES IDX 36 76 11 77 35 78 12 79 13 80 14 81 27 82 16 83 15 84 26 85
REMARK SMILES IDX 17 86 19 87 18 88 28 89 29 90 34 91 30 92 32 93 31 94 33 95
REMARK SMILES IDX 20 96 21 97 25 98 22 99 24 100 23 101
REMARK H PARENT 93 22 61 33
REMARK Flexibility Score: inf
ROOT
ATOM      1  C   UNL A   1      42.836  19.411  26.031  1.00  0.00     0.275 C 
ENDROOT
BRANCH   1   2
ATOM      2  O   UNL A   1      43.391  19.974  24.825  1.00  0.00    -0.458 OA
BRANCH   2   3
ATOM      3  C   UNL A   1      44.514  20.721  24.911  1.00  0.00     0.338 C 
ATOM      4  O   UNL A   1      45.589  20.427  24.413  1.00  0.00    -0.246 OA
BRANCH   3   5
ATOM      5  C   UNL A   1      44.235  22.045  25.509  1.00  0.00     0.060 A 
ATOM      6  C   UNL A   1      44.782  22.423  26.739  1.00  0.00     0.016 A 
ATOM      7  C   UNL A   1      43.414  22.934  24.803  1.00  0.00     0.016 A 
ATOM      8  C   UNL A   1      44.460  23.655  27.286  1.00  0.00     0.010 A 
ATOM      9  C   UNL A   1      43.103  24.177  25.347  1.00  0.00     0.010 A 
ATOM     10  C   UNL A   1      43.598  24.523  26.605  1.00  0.00    -0.014 A 
BRANCH  10  11
ATOM     11  C   UNL A   1      43.322  25.814  27.234  1.00  0.00     0.031 A 
ATOM     12  C   UNL A   1      44.281  26.911  26.914  1.00  0.00     0.074 A 
ATOM     13  C   UNL A   1      42.237  26.093  27.980  1.00  0.00     0.049 A 
ATOM     14  N   UNL A   1      45.084  27.544  27.708  1.00  0.00    -0.248 NA
ATOM     15  C   UNL A   1      44.394  27.306  25.509  1.00  0.00     0.031 C 
ATOM     16  C   UNL A   1      41.031  25.295  28.187  1.00  0.00     0.029 A 
ATOM     17  N   UNL A   1      41.972  27.243  28.664  1.00  0.00    -0.354 N 
ATOM     18  C   UNL A   1      45.713  28.516  26.929  1.00  0.00     0.074 A 
ATOM     19  C   UNL A   1      45.330  28.253  25.572  1.00  0.00     0.031 C 
ATOM     20  C   UNL A   1      40.085  26.065  28.773  1.00  0.00     0.029 A 
ATOM     21  C   UNL A   1      40.667  27.355  29.111  1.00  0.00     0.049 A 
ATOM     22  H   UNL A   1      42.653  27.936  28.825  1.00  0.00     0.167 HD
ATOM     23  C   UNL A   1      46.375  29.576  27.474  1.00  0.00     0.037 A 
ATOM     24  C   UNL A   1      40.101  28.447  29.677  1.00  0.00     0.037 A 
ATOM     25  C   UNL A   1      46.708  29.335  28.850  1.00  0.00     0.049 A 
ATOM     26  C   UNL A   1      41.191  29.318  30.184  1.00  0.00     0.074 A 
ATOM     27  C   UNL A   1      47.451  28.376  29.513  1.00  0.00     0.029 A 
ATOM     28  N   UNL A   1      45.960  29.950  29.824  1.00  0.00    -0.354 N 
ATOM     29  N   UNL A   1      41.938  29.031  31.211  1.00  0.00    -0.248 NA
ATOM     30  C   UNL A   1      41.722  30.336  29.290  1.00  0.00     0.031 C 
ATOM     31  C   UNL A   1      46.713  28.109  30.704  1.00  0.00     0.029 A 
ATOM     32  C   UNL A   1      45.614  28.967  30.713  1.00  0.00     0.049 A 
ATOM     33  H   UNL A   1      45.722  30.903  29.872  1.00  0.00     0.167 HD
ATOM     34  C   UNL A   1      43.200  29.490  30.864  1.00  0.00     0.074 A 
ATOM     35  C   UNL A   1      42.984  30.374  29.724  1.00  0.00     0.031 C 
ATOM     36  C   UNL A   1      44.327  28.898  31.357  1.00  0.00     0.037 A 
BRANCH  23  37
ATOM     37  C   UNL A   1      46.443  30.957  26.864  1.00  0.00     0.064 A 
ATOM     38  C   UNL A   1      47.671  31.654  26.873  1.00  0.00     0.173 A 
ATOM     39  C   UNL A   1      45.307  31.736  26.561  1.00  0.00     0.173 A 
ATOM     40  F   UNL A   1      48.818  31.019  27.156  1.00  0.00    -0.203 F 
ATOM     41  C   UNL A   1      47.737  33.039  26.693  1.00  0.00     0.198 A 
ATOM     42  C   UNL A   1      45.384  33.109  26.326  1.00  0.00     0.198 A 
ATOM     43  F   UNL A   1      44.068  31.232  26.596  1.00  0.00    -0.203 F 
ATOM     44  F   UNL A   1      48.905  33.675  26.850  1.00  0.00    -0.200 F 
ATOM     45  C   UNL A   1      46.591  33.767  26.429  1.00  0.00     0.200 A 
ATOM     46  F   UNL A   1      44.262  33.801  26.084  1.00  0.00    -0.200 F 
ATOM     47  F   UNL A   1      46.641  35.100  26.326  1.00  0.00    -0.200 F 
ENDBRANCH  23  37
BRANCH  24  48
ATOM     48  C   UNL A   1      38.700  28.912  29.604  1.00  0.00     0.064 A 
ATOM     49  C   UNL A   1      37.943  29.121  30.768  1.00  0.00     0.173 A 
ATOM     50  C   UNL A   1      38.170  29.431  28.408  1.00  0.00     0.173 A 
ATOM     51  F   UNL A   1      38.397  28.692  31.955  1.00  0.00    -0.203 F 
ATOM     52  C   UNL A   1      36.742  29.836  30.742  1.00  0.00     0.198 A 
ATOM     53  C   UNL A   1      36.968  30.138  28.382  1.00  0.00     0.198 A 
ATOM     54  F   UNL A   1      38.855  29.346  27.259  1.00  0.00    -0.203 F 
ATOM     55  F   UNL A   1      36.081  30.073  31.883  1.00  0.00    -0.200 F 
ATOM     56  C   UNL A   1      36.263  30.354  29.551  1.00  0.00     0.200 A 
ATOM     57  F   UNL A   1      36.530  30.663  27.228  1.00  0.00    -0.200 F 
ATOM     58  F   UNL A   1      35.145  31.094  29.535  1.00  0.00    -0.200 F 
ENDBRANCH  24  48
BRANCH  36  59
ATOM     59  C   UNL A   1      44.181  27.917  32.484  1.00  0.00     0.064 A 
ATOM     60  C   UNL A   1      44.012  26.533  32.311  1.00  0.00     0.173 A 
ATOM     61  C   UNL A   1      44.357  28.385  33.794  1.00  0.00     0.173 A 
ATOM     62  F   UNL A   1      43.953  25.988  31.089  1.00  0.00    -0.203 F 
ATOM     63  C   UNL A   1      43.960  25.669  33.405  1.00  0.00     0.198 A 
ATOM     64  C   UNL A   1      44.349  27.516  34.880  1.00  0.00     0.198 A 
ATOM     65  F   UNL A   1      44.583  29.690  34.019  1.00  0.00    -0.203 F 
ATOM     66  F   UNL A   1      43.774  24.355  33.215  1.00  0.00    -0.200 F 
ATOM     67  C   UNL A   1      44.135  26.162  34.687  1.00  0.00     0.200 A 
ATOM     68  F   UNL A   1      44.575  27.989  36.114  1.00  0.00    -0.200 F 
ATOM     69  F   UNL A   1      44.126  25.326  35.735  1.00  0.00    -0.200 F 
ENDBRANCH  36  59
ENDBRANCH  10  11
ENDBRANCH   3   5
ENDBRANCH   2   3
ENDBRANCH   1   2
BRANCH   1  70
ATOM     70  C   UNL A   1      41.334  19.576  26.260  1.00  0.00     0.275 C 
BRANCH  70  71
ATOM     71  O   UNL A   1      40.851  20.783  25.637  1.00  0.00    -0.458 OA
BRANCH  71  72
ATOM     72  C   UNL A   1      40.395  21.724  26.502  1.00  0.00     0.338 C 
ATOM     73  O   UNL A   1      40.962  22.183  27.476  1.00  0.00    -0.246 OA
BRANCH  72  74
ATOM     74  C   UNL A   1      39.028  22.111  26.123  1.00  0.00     0.060 A 
ATOM     75  C   UNL A   1      38.565  23.402  26.382  1.00  0.00     0.018 A 
ATOM     76  C   UNL A   1      38.173  21.149  25.584  1.00  0.00     0.018 A 
ATOM     77  C   UNL A   1      37.237  23.731  26.083  1.00  0.00     0.027 A 
ATOM     78  C   UNL A   1      36.840  21.476  25.311  1.00  0.00     0.027 A 
ATOM     79  C   UNL A   1      36.358  22.762  25.573  1.00  0.00     0.045 A 
BRANCH  79  80
ATOM     80  N   UNL A   1      35.020  23.110  25.256  1.00  0.00    -0.299 N 
ATOM     81  C   UNL A   1      34.036  23.061  26.276  1.00  0.00     0.259 C 
ATOM     82  C   UNL A   1      34.425  22.812  23.937  1.00  0.00     0.152 C 
ATOM     83  C   UNL A   1      32.706  22.782  25.636  1.00  0.00     0.248 C 
ATOM     84  O   UNL A   1      34.236  23.202  27.474  1.00  0.00    -0.271 OA
ATOM     85  C   UNL A   1      33.241  22.070  24.450  1.00  0.00     0.021 C 
ATOM     86  N   UNL A   1      31.899  21.753  26.299  1.00  0.00    -0.170 NA
ATOM     87  C   UNL A   1      32.666  20.866  24.458  1.00  0.00     0.097 C 
ATOM     88  N   UNL A   1      31.805  20.750  25.535  1.00  0.00    -0.154 NA
BRANCH  82  89
ATOM     89  C   UNL A   1      34.002  24.106  23.205  1.00  0.00    -0.020 A 
ATOM     90  C   UNL A   1      33.355  24.073  21.949  1.00  0.00     0.006 A 
ATOM     91  C   UNL A   1      34.193  25.370  23.787  1.00  0.00     0.022 A 
ATOM     92  C   UNL A   1      32.822  25.226  21.364  1.00  0.00     0.002 A 
ATOM     93  C   UNL A   1      33.669  26.526  23.192  1.00  0.00     0.018 A 
ATOM     94  C   UNL A   1      32.965  26.456  21.994  1.00  0.00     0.016 A 
ATOM     95  Br  UNL A   1      33.895  28.204  24.037  1.00  0.00    -0.051 Br
ENDBRANCH  82  89
BRANCH  87  96
ATOM     96  C   UNL A   1      33.001  19.626  23.757  1.00  0.00     0.002 A 
ATOM     97  C   UNL A   1      32.151  19.113  22.771  1.00  0.00     0.010 A 
ATOM     98  C   UNL A   1      34.004  18.803  24.293  1.00  0.00     0.010 A 
ATOM     99  C   UNL A   1      32.262  17.774  22.378  1.00  0.00     0.001 A 
ATOM    100  C   UNL A   1      34.109  17.467  23.901  1.00  0.00     0.001 A 
ATOM    101  C   UNL A   1      33.225  16.948  22.960  1.00  0.00     0.000 A 
ENDBRANCH  87  96
ENDBRANCH  79  80
ENDBRANCH  72  74
ENDBRANCH  71  72
ENDBRANCH  70  71
ENDBRANCH   1  70
TORSDOF 14
ENDMDL
MODEL 2
REMARK VINA RESULT:     -13.9      3.747      8.792
REMARK SMILES O=C(OCCOC(=O)c1ccc(N2C(=O)[C@@H]3N=NC(c4ccccc4)=C3[C@H]2c2cccc(Br)c2)cc1)c1ccc(-c2c3nc(c(-c4c(F)c(F)c(F)c(F)c4F)c4ccc([nH]4)c(-c4c(F)c(F)c(F)c(F)c4F)c4nc(c(-c5c(F)c(F)c(F)c(F)c5F)c5ccc2[nH]5)C=C4)C=C3)cc1
REMARK SMILES IDX 4 1 3 2 2 3 1 4 37 5 38 6 99 7 39 8 98 9 40 10 41 11 42 12
REMARK SMILES IDX 92 13 43 14 97 15 91 16 93 17 44 18 96 19 90 20 89 21 45 23
REMARK SMILES IDX 77 24 57 25 76 26 58 27 61 28 75 29 94 30 59 31 60 32 74 34
REMARK SMILES IDX 95 35 62 36 46 37 47 38 55 39 48 40 49 41 53 42 56 43 50 44
REMARK SMILES IDX 51 45 54 46 52 47 78 48 79 49 87 50 80 51 81 52 85 53 88 54
REMARK SMILES IDX 82 55 83 56 86 57 84 58 63 59 64 60 72 61 65 62 66 63 70 64
REMARK SMILES IDX 73 65 67 66 68 67 71 68 69 69 5 70 6 71 7 72 8 73 9 74 10 75
REMARK SMILES IDX 36 76 11 77 35 78 12 79 13 80 14 81 27 82 16 83 15 84 26 85
REMARK SMILES IDX 17 86 19 87 18 88 28 89 29 90 34 91 30 92 32 93 31 94 33 95
REMARK SMILES IDX 20 96 21 97 25 98 22 99 24 100 23 101
REMARK H PARENT 93 22 61 33
REMARK Flexibility Score: inf
ROOT
ATOM      1  C   UNL A   1      34.979  33.587  30.158  1.00  0.00     0.275 C 
ENDROOT
BRANCH   1   2
ATOM      2  O   UNL A   1      34.941  32.359  30.914  1.00  0.00    -0.458 OA
BRANCH   2   3
ATOM      3  C   UNL A   1      35.711  32.250  32.018  1.00  0.00     0.338 C 
ATOM      4  O   UNL A   1      35.418  32.685  33.120  1.00  0.00    -0.246 OA
BRANCH   3   5
ATOM      5  C   UNL A   1      36.868  31.358  31.782  1.00  0.00     0.060 A 
ATOM      6  C   UNL A   1      38.181  31.834  31.824  1.00  0.00     0.016 A 
ATOM      7  C   UNL A   1      36.621  30.003  31.528  1.00  0.00     0.016 A 
ATOM      8  C   UNL A   1      39.234  30.976  31.553  1.00  0.00     0.010 A 
ATOM      9  C   UNL A   1      37.681  29.138  31.271  1.00  0.00     0.010 A 
ATOM     10  C   UNL A   1      38.985  29.632  31.248  1.00  0.00    -0.014 A 
BRANCH  10  11
ATOM     11  C   UNL A   1      40.147  28.782  30.996  1.00  0.00     0.031 A 
ATOM     12  C   UNL A   1      41.017  28.501  32.174  1.00  0.00     0.074 A 
ATOM     13  C   UNL A   1      40.419  28.173  29.826  1.00  0.00     0.049 A 
ATOM     14  N   UNL A   1      42.250  28.841  32.372  1.00  0.00    -0.248 NA
ATOM     15  C   UNL A   1      40.401  27.800  33.302  1.00  0.00     0.031 C 
ATOM     16  C   UNL A   1      39.582  28.051  28.635  1.00  0.00     0.029 A 
ATOM     17  N   UNL A   1      41.528  27.448  29.504  1.00  0.00    -0.354 N 
ATOM     18  C   UNL A   1      42.615  28.280  33.597  1.00  0.00     0.074 A 
ATOM     19  C   UNL A   1      41.413  27.745  34.168  1.00  0.00     0.031 C 
ATOM     20  C   UNL A   1      40.125  27.131  27.803  1.00  0.00     0.029 A 
ATOM     21  C   UNL A   1      41.413  26.714  28.336  1.00  0.00     0.049 A 
ATOM     22  H   UNL A   1      42.342  27.445  30.058  1.00  0.00     0.167 HD
ATOM     23  C   UNL A   1      43.915  28.145  33.982  1.00  0.00     0.037 A 
ATOM     24  C   UNL A   1      42.296  25.798  27.870  1.00  0.00     0.037 A 
ATOM     25  C   UNL A   1      44.780  29.006  33.225  1.00  0.00     0.049 A 
ATOM     26  C   UNL A   1      43.604  26.050  28.524  1.00  0.00     0.074 A 
ATOM     27  C   UNL A   1      44.853  30.372  33.027  1.00  0.00     0.029 A 
ATOM     28  N   UNL A   1      45.546  28.455  32.228  1.00  0.00    -0.354 N 
ATOM     29  N   UNL A   1      44.362  27.078  28.272  1.00  0.00    -0.248 NA
ATOM     30  C   UNL A   1      43.888  25.355  29.771  1.00  0.00     0.031 C 
ATOM     31  C   UNL A   1      45.184  30.520  31.647  1.00  0.00     0.029 A 
ATOM     32  C   UNL A   1      45.351  29.239  31.121  1.00  0.00     0.049 A 
ATOM     33  H   UNL A   1      46.119  27.659  32.295  1.00  0.00     0.167 HD
ATOM     34  C   UNL A   1      44.904  27.422  29.501  1.00  0.00     0.074 A 
ATOM     35  C   UNL A   1      44.663  26.268  30.361  1.00  0.00     0.031 C 
ATOM     36  C   UNL A   1      45.251  28.711  29.784  1.00  0.00     0.037 A 
BRANCH  23  37
ATOM     37  C   UNL A   1      44.454  27.009  34.821  1.00  0.00     0.064 A 
ATOM     38  C   UNL A   1      44.214  25.678  34.414  1.00  0.00     0.173 A 
ATOM     39  C   UNL A   1      44.912  27.163  36.147  1.00  0.00     0.173 A 
ATOM     40  F   UNL A   1      43.768  25.410  33.178  1.00  0.00    -0.203 F 
ATOM     41  C   UNL A   1      44.328  24.602  35.298  1.00  0.00     0.198 A 
ATOM     42  C   UNL A   1      45.079  26.079  37.010  1.00  0.00     0.198 A 
ATOM     43  F   UNL A   1      45.102  28.366  36.699  1.00  0.00    -0.203 F 
ATOM     44  F   UNL A   1      43.955  23.376  34.906  1.00  0.00    -0.200 F 
ATOM     45  C   UNL A   1      44.751  24.804  36.599  1.00  0.00     0.200 A 
ATOM     46  F   UNL A   1      45.478  26.296  38.271  1.00  0.00    -0.200 F 
ATOM     47  F   UNL A   1      44.795  23.786  37.466  1.00  0.00    -0.200 F 
ENDBRANCH  23  37
BRANCH  24  48
ATOM     48  C   UNL A   1      42.038  24.575  27.082  1.00  0.00     0.064 A 
ATOM     49  C   UNL A   1      42.870  24.214  26.010  1.00  0.00     0.173 A 
ATOM     50  C   UNL A   1      41.143  23.591  27.543  1.00  0.00     0.173 A 
ATOM     51  F   UNL A   1      43.777  25.081  25.537  1.00  0.00    -0.203 F 
ATOM     52  C   UNL A   1      42.831  22.932  25.454  1.00  0.00     0.198 A 
ATOM     53  C   UNL A   1      41.101  22.315  26.983  1.00  0.00     0.198 A 
ATOM     54  F   UNL A   1      40.362  23.818  28.609  1.00  0.00    -0.203 F 
ATOM     55  F   UNL A   1      43.686  22.603  24.475  1.00  0.00    -0.200 F 
ATOM     56  C   UNL A   1      41.955  21.981  25.948  1.00  0.00     0.200 A 
ATOM     57  F   UNL A   1      40.272  21.392  27.491  1.00  0.00    -0.200 F 
ATOM     58  F   UNL A   1      41.963  20.733  25.459  1.00  0.00    -0.200 F 
ENDBRANCH  24  48
BRANCH  36  59
ATOM     59  C   UNL A   1      45.287  29.703  28.657  1.00  0.00     0.064 A 
ATOM     60  C   UNL A   1      44.163  30.403  28.184  1.00  0.00     0.173 A 
ATOM     61  C   UNL A   1      46.536  30.056  28.127  1.00  0.00     0.173 A 
ATOM     62  F   UNL A   1      42.950  30.210  28.718  1.00  0.00    -0.203 F 
ATOM     63  C   UNL A   1      44.282  31.367  27.184  1.00  0.00     0.198 A 
ATOM     64  C   UNL A   1      46.656  31.050  27.161  1.00  0.00     0.198 A 
ATOM     65  F   UNL A   1      47.653  29.466  28.582  1.00  0.00    -0.203 F 
ATOM     66  F   UNL A   1      43.192  32.005  26.732  1.00  0.00    -0.200 F 
ATOM     67  C   UNL A   1      45.529  31.693  26.679  1.00  0.00     0.200 A 
ATOM     68  F   UNL A   1      47.871  31.401  26.715  1.00  0.00    -0.200 F 
ATOM     69  F   UNL A   1      45.648  32.649  25.747  1.00  0.00    -0.200 F 
ENDBRANCH  36  59
ENDBRANCH  10  11
ENDBRANCH   3   5
ENDBRANCH   2   3
ENDBRANCH   1   2
BRANCH   1  70
ATOM     70  C   UNL A   1      36.136  33.776  29.176  1.00  0.00     0.275 C 
BRANCH  70  71
ATOM     71  O   UNL A   1      35.922  33.000  27.980  1.00  0.00    -0.458 OA
BRANCH  71  72
ATOM     72  C   UNL A   1      36.304  31.701  28.070  1.00  0.00     0.338 C 
ATOM     73  O   UNL A   1      37.390  31.261  28.399  1.00  0.00    -0.246 OA
BRANCH  72  74
ATOM     74  C   UNL A   1      35.191  30.837  27.648  1.00  0.00     0.060 A 
ATOM     75  C   UNL A   1      35.425  29.503  27.315  1.00  0.00     0.018 A 
ATOM     76  C   UNL A   1      33.919  31.390  27.499  1.00  0.00     0.018 A 
ATOM     77  C   UNL A   1      34.368  28.714  26.843  1.00  0.00     0.027 A 
ATOM     78  C   UNL A   1      32.872  30.604  27.003  1.00  0.00     0.027 A 
ATOM     79  C   UNL A   1      33.091  29.268  26.656  1.00  0.00     0.045 A 
BRANCH  79  80
ATOM     80  N   UNL A   1      32.022  28.457  26.196  1.00  0.00    -0.299 N 
ATOM     81  C   UNL A   1      31.378  27.584  27.109  1.00  0.00     0.259 C 
ATOM     82  C   UNL A   1      31.996  27.900  24.828  1.00  0.00     0.152 C 
ATOM     83  C   UNL A   1      30.832  26.415  26.339  1.00  0.00     0.248 C 
ATOM     84  O   UNL A   1      31.295  27.744  28.318  1.00  0.00    -0.271 OA
ATOM     85  C   UNL A   1      31.813  26.478  25.228  1.00  0.00     0.021 C 
ATOM     86  N   UNL A   1      31.094  25.101  26.933  1.00  0.00    -0.170 NA
ATOM     87  C   UNL A   1      32.407  25.283  25.199  1.00  0.00     0.097 C 
ATOM     88  N   UNL A   1      31.885  24.461  26.183  1.00  0.00    -0.154 NA
BRANCH  82  89
ATOM     89  C   UNL A   1      30.777  28.419  24.032  1.00  0.00    -0.020 A 
ATOM     90  C   UNL A   1      29.886  27.539  23.378  1.00  0.00     0.006 A 
ATOM     91  C   UNL A   1      30.473  29.789  23.973  1.00  0.00     0.022 A 
ATOM     92  C   UNL A   1      28.694  27.991  22.802  1.00  0.00     0.002 A 
ATOM     93  C   UNL A   1      29.285  30.241  23.384  1.00  0.00     0.018 A 
ATOM     94  C   UNL A   1      28.383  29.345  22.818  1.00  0.00     0.016 A 
ATOM     95  Br  UNL A   1      28.881  32.090  23.378  1.00  0.00    -0.051 Br
ENDBRANCH  82  89
BRANCH  87  96
ATOM     96  C   UNL A   1      33.642  24.829  24.559  1.00  0.00     0.002 A 
ATOM     97  C   UNL A   1      33.602  24.130  23.348  1.00  0.00     0.010 A 
ATOM     98  C   UNL A   1      34.825  24.822  25.316  1.00  0.00     0.010 A 
ATOM     99  C   UNL A   1      34.710  23.380  22.935  1.00  0.00     0.001 A 
ATOM    100  C   UNL A   1      35.926  24.070  24.903  1.00  0.00     0.001 A 
ATOM    101  C   UNL A   1      35.861  23.333  23.723  1.00  0.00     0.000 A 
ENDBRANCH  87  96
ENDBRANCH  79  80
ENDBRANCH  72  74
ENDBRANCH  71  72
ENDBRANCH  70  71
ENDBRANCH   1  70
TORSDOF 14
ENDMDL
MODEL 3
REMARK VINA RESULT:     -13.6      2.690      4.434
REMARK SMILES O=C(OCCOC(=O)c1ccc(N2C(=O)[C@@H]3N=NC(c4ccccc4)=C3[C@H]2c2cccc(Br)c2)cc1)c1ccc(-c2c3nc(c(-c4c(F)c(F)c(F)c(F)c4F)c4ccc([nH]4)c(-c4c(F)c(F)c(F)c(F)c4F)c4nc(c(-c5c(F)c(F)c(F)c(F)c5F)c5ccc2[nH]5)C=C4)C=C3)cc1
REMARK SMILES IDX 4 1 3 2 2 3 1 4 37 5 38 6 99 7 39 8 98 9 40 10 41 11 42 12
REMARK SMILES IDX 92 13 43 14 97 15 91 16 93 17 44 18 96 19 90 20 89 21 45 23
REMARK SMILES IDX 77 24 57 25 76 26 58 27 61 28 75 29 94 30 59 31 60 32 74 34
REMARK SMILES IDX 95 35 62 36 46 37 47 38 55 39 48 40 49 41 53 42 56 43 50 44
REMARK SMILES IDX 51 45 54 46 52 47 78 48 79 49 87 50 80 51 81 52 85 53 88 54
REMARK SMILES IDX 82 55 83 56 86 57 84 58 63 59 64 60 72 61 65 62 66 63 70 64
REMARK SMILES IDX 73 65 67 66 68 67 71 68 69 69 5 70 6 71 7 72 8 73 9 74 10 75
REMARK SMILES IDX 36 76 11 77 35 78 12 79 13 80 14 81 27 82 16 83 15 84 26 85
REMARK SMILES IDX 17 86 19 87 18 88 28 89 29 90 34 91 30 92 32 93 31 94 33 95
REMARK SMILES IDX 20 96 21 97 25 98 22 99 24 100 23 101
REMARK H PARENT 93 22 61 33
REMARK Flexibility Score: inf
ROOT
ATOM      1  C   UNL A   1      43.170  22.147  26.399  1.00  0.00     0.275 C 
ENDROOT
BRANCH   1   2
ATOM      2  O   UNL A   1      42.821  23.143  25.415  1.00  0.00    -0.458 OA
BRANCH   2   3
ATOM      3  C   UNL A   1      43.670  24.171  25.199  1.00  0.00     0.338 C 
ATOM      4  O   UNL A   1      44.561  24.178  24.365  1.00  0.00    -0.246 OA
BRANCH   3   5
ATOM      5  C   UNL A   1      43.262  25.374  25.958  1.00  0.00     0.060 A 
ATOM      6  C   UNL A   1      42.194  26.175  25.542  1.00  0.00     0.016 A 
ATOM      7  C   UNL A   1      43.963  25.692  27.128  1.00  0.00     0.016 A 
ATOM      8  C   UNL A   1      41.873  27.319  26.256  1.00  0.00     0.010 A 
ATOM      9  C   UNL A   1      43.629  26.833  27.852  1.00  0.00     0.010 A 
ATOM     10  C   UNL A   1      42.607  27.665  27.396  1.00  0.00    -0.014 A 
BRANCH  10  11
ATOM     11  C   UNL A   1      42.195  28.872  28.110  1.00  0.00     0.031 A 
ATOM     12  C   UNL A   1      43.136  30.027  28.032  1.00  0.00     0.074 A 
ATOM     13  C   UNL A   1      41.011  29.037  28.731  1.00  0.00     0.049 A 
ATOM     14  N   UNL A   1      43.801  30.597  28.985  1.00  0.00    -0.248 NA
ATOM     15  C   UNL A   1      43.409  30.573  26.702  1.00  0.00     0.031 C 
ATOM     16  C   UNL A   1      39.826  28.183  28.696  1.00  0.00     0.029 A 
ATOM     17  N   UNL A   1      40.609  30.098  29.487  1.00  0.00    -0.354 N 
ATOM     18  C   UNL A   1      44.480  31.666  28.398  1.00  0.00     0.074 A 
ATOM     19  C   UNL A   1      44.286  31.537  26.983  1.00  0.00     0.031 C 
ATOM     20  C   UNL A   1      38.779  28.856  29.227  1.00  0.00     0.029 A 
ATOM     21  C   UNL A   1      39.255  30.120  29.767  1.00  0.00     0.049 A 
ATOM     22  H   UNL A   1      41.232  30.792  29.806  1.00  0.00     0.167 HD
ATOM     23  C   UNL A   1      45.018  32.683  29.129  1.00  0.00     0.037 A 
ATOM     24  C   UNL A   1      38.571  31.128  30.362  1.00  0.00     0.037 A 
ATOM     25  C   UNL A   1      45.183  32.309  30.506  1.00  0.00     0.049 A 
ATOM     26  C   UNL A   1      39.548  31.974  31.092  1.00  0.00     0.074 A 
ATOM     27  C   UNL A   1      45.878  31.308  31.160  1.00  0.00     0.029 A 
ATOM     28  N   UNL A   1      44.290  32.792  31.429  1.00  0.00    -0.354 N 
ATOM     29  N   UNL A   1      40.170  31.604  32.175  1.00  0.00    -0.248 NA
ATOM     30  C   UNL A   1      40.142  33.098  30.384  1.00  0.00     0.031 C 
ATOM     31  C   UNL A   1      45.007  30.893  32.211  1.00  0.00     0.029 A 
ATOM     32  C   UNL A   1      43.878  31.710  32.162  1.00  0.00     0.049 A 
ATOM     33  H   UNL A   1      44.004  33.726  31.542  1.00  0.00     0.167 HD
ATOM     34  C   UNL A   1      41.443  32.137  32.045  1.00  0.00     0.074 A 
ATOM     35  C   UNL A   1      41.335  33.130  30.982  1.00  0.00     0.031 C 
ATOM     36  C   UNL A   1      42.524  31.532  32.620  1.00  0.00     0.037 A 
BRANCH  23  37
ATOM     37  C   UNL A   1      45.101  34.122  28.676  1.00  0.00     0.064 A 
ATOM     38  C   UNL A   1      43.928  34.776  28.239  1.00  0.00     0.173 A 
ATOM     39  C   UNL A   1      46.311  34.774  28.358  1.00  0.00     0.173 A 
ATOM     40  F   UNL A   1      42.719  34.245  28.477  1.00  0.00    -0.203 F 
ATOM     41  C   UNL A   1      43.973  35.936  27.461  1.00  0.00     0.198 A 
ATOM     42  C   UNL A   1      46.350  35.963  27.629  1.00  0.00     0.198 A 
ATOM     43  F   UNL A   1      47.504  34.235  28.633  1.00  0.00    -0.203 F 
ATOM     44  F   UNL A   1      42.841  36.441  26.952  1.00  0.00    -0.200 F 
ATOM     45  C   UNL A   1      45.185  36.523  27.148  1.00  0.00     0.200 A 
ATOM     46  F   UNL A   1      47.534  36.512  27.324  1.00  0.00    -0.200 F 
ATOM     47  F   UNL A   1      45.235  37.593  26.345  1.00  0.00    -0.200 F 
ENDBRANCH  23  37
BRANCH  24  48
ATOM     48  C   UNL A   1      37.172  31.554  30.152  1.00  0.00     0.064 A 
ATOM     49  C   UNL A   1      36.285  31.687  31.232  1.00  0.00     0.173 A 
ATOM     50  C   UNL A   1      36.759  32.109  28.926  1.00  0.00     0.173 A 
ATOM     51  F   UNL A   1      36.619  31.219  32.443  1.00  0.00    -0.203 F 
ATOM     52  C   UNL A   1      35.070  32.366  31.101  1.00  0.00     0.198 A 
ATOM     53  C   UNL A   1      35.544  32.781  28.796  1.00  0.00     0.198 A 
ATOM     54  F   UNL A   1      37.570  32.097  27.859  1.00  0.00    -0.203 F 
ATOM     55  F   UNL A   1      34.279  32.531  32.170  1.00  0.00    -0.200 F 
ATOM     56  C   UNL A   1      34.706  32.922  29.887  1.00  0.00     0.200 A 
ATOM     57  F   UNL A   1      35.217  33.344  27.623  1.00  0.00    -0.200 F 
ATOM     58  F   UNL A   1      33.572  33.629  29.777  1.00  0.00    -0.200 F 
ENDBRANCH  24  48
BRANCH  36  59
ATOM     59  C   UNL A   1      42.280  30.433  33.614  1.00  0.00     0.064 A 
ATOM     60  C   UNL A   1      42.021  29.096  33.265  1.00  0.00     0.173 A 
ATOM     61  C   UNL A   1      42.451  30.723  34.974  1.00  0.00     0.173 A 
ATOM     62  F   UNL A   1      41.959  28.712  31.984  1.00  0.00    -0.203 F 
ATOM     63  C   UNL A   1      41.880  28.111  34.242  1.00  0.00     0.198 A 
ATOM     64  C   UNL A   1      42.353  29.730  35.943  1.00  0.00     0.198 A 
ATOM     65  F   UNL A   1      42.759  31.970  35.365  1.00  0.00    -0.203 F 
ATOM     66  F   UNL A   1      41.609  26.846  33.887  1.00  0.00    -0.200 F 
ATOM     67  C   UNL A   1      42.052  28.428  35.579  1.00  0.00     0.200 A 
ATOM     68  F   UNL A   1      42.576  30.030  37.230  1.00  0.00    -0.200 F 
ATOM     69  F   UNL A   1      41.957  27.473  36.514  1.00  0.00    -0.200 F 
ENDBRANCH  36  59
ENDBRANCH  10  11
ENDBRANCH   3   5
ENDBRANCH   2   3
ENDBRANCH   1   2
BRANCH   1  70
ATOM     70  C   UNL A   1      42.741  22.403  27.844  1.00  0.00     0.275 C 
BRANCH  70  71
ATOM     71  O   UNL A   1      41.307  22.331  27.971  1.00  0.00    -0.458 OA
BRANCH  71  72
ATOM     72  C   UNL A   1      40.665  23.518  27.832  1.00  0.00     0.338 C 
ATOM     73  O   UNL A   1      40.952  24.589  28.334  1.00  0.00    -0.246 OA
BRANCH  72  74
ATOM     74  C   UNL A   1      39.477  23.332  26.985  1.00  0.00     0.060 A 
ATOM     75  C   UNL A   1      38.531  24.350  26.867  1.00  0.00     0.018 A 
ATOM     76  C   UNL A   1      39.264  22.095  26.374  1.00  0.00     0.018 A 
ATOM     77  C   UNL A   1      37.369  24.129  26.117  1.00  0.00     0.027 A 
ATOM     78  C   UNL A   1      38.089  21.871  25.646  1.00  0.00     0.027 A 
ATOM     79  C   UNL A   1      37.127  22.878  25.526  1.00  0.00     0.045 A 
BRANCH  79  80
ATOM     80  N   UNL A   1      35.957  22.669  24.753  1.00  0.00    -0.299 N 
ATOM     81  C   UNL A   1      35.917  23.152  23.420  1.00  0.00     0.259 C 
ATOM     82  C   UNL A   1      34.609  22.678  25.356  1.00  0.00     0.152 C 
ATOM     83  C   UNL A   1      34.486  23.447  23.067  1.00  0.00     0.248 C 
ATOM     84  O   UNL A   1      36.881  23.320  22.688  1.00  0.00    -0.271 OA
ATOM     85  C   UNL A   1      34.026  23.709  24.452  1.00  0.00     0.021 C 
ATOM     86  N   UNL A   1      34.261  24.732  22.399  1.00  0.00    -0.170 NA
ATOM     87  C   UNL A   1      33.518  24.942  24.439  1.00  0.00     0.097 C 
ATOM     88  N   UNL A   1      33.601  25.485  23.169  1.00  0.00    -0.154 NA
BRANCH  82  89
ATOM     89  C   UNL A   1      33.903  21.315  25.178  1.00  0.00    -0.020 A 
ATOM     90  C   UNL A   1      32.495  21.202  25.164  1.00  0.00     0.006 A 
ATOM     91  C   UNL A   1      34.636  20.135  24.966  1.00  0.00     0.022 A 
ATOM     92  C   UNL A   1      31.855  20.001  24.837  1.00  0.00     0.002 A 
ATOM     93  C   UNL A   1      33.992  18.931  24.652  1.00  0.00     0.018 A 
ATOM     94  C   UNL A   1      32.605  18.865  24.563  1.00  0.00     0.016 A 
ATOM     95  Br  UNL A   1      35.017  17.377  24.313  1.00  0.00    -0.051 Br
ENDBRANCH  82  89
BRANCH  87  96
ATOM     96  C   UNL A   1      33.196  25.870  25.524  1.00  0.00     0.002 A 
ATOM     97  C   UNL A   1      31.902  25.932  26.050  1.00  0.00     0.010 A 
ATOM     98  C   UNL A   1      34.102  26.904  25.812  1.00  0.00     0.010 A 
ATOM     99  C   UNL A   1      31.500  27.046  26.797  1.00  0.00     0.001 A 
ATOM    100  C   UNL A   1      33.698  28.015  26.553  1.00  0.00     0.001 A 
ATOM    101  C   UNL A   1      32.392  28.096  27.028  1.00  0.00     0.000 A 
ENDBRANCH  87  96
ENDBRANCH  79  80
ENDBRANCH  72  74
ENDBRANCH  71  72
ENDBRANCH  70  71
ENDBRANCH   1  70
TORSDOF 14
ENDMDL
