MODEL 1
REMARK VINA RESULT:     -14.0      0.000      0.000
REMARK SMILES Cc1ccc(S(=O)(=O)n2cc(C(=O)C(=O)NCC(=O)N[C@H](Cc3c[nH]c4ccccc34)C(=O)OCCOC(=O)c3ccc(-c4c5nc(c(-c6c(F)c(F)c(F)c(F)c6F)c6ccc([nH]6)c(-c6c(F)c(F)c(F)c(F)c6F)c6nc(c(-c7c(F)c(F)c(F)c(F)c7F)c7ccc4[nH]7)C=C6)C=C5)cc3)c3ccccc32)cc1
REMARK SMILES IDX 32 1 33 2 21 3 20 4 18 5 19 6 17 8 16 9 14 10 15 11 12 13
REMARK SMILES IDX 13 14 11 15 9 16 10 17 108 18 103 19 107 20 104 21 106 22
REMARK SMILES IDX 105 23 6 24 7 25 8 26 5 27 1 28 2 29 3 30 110 31 4 32 109 33
REMARK SMILES IDX 22 34 23 35 24 36 31 37 25 38 26 39 30 40 27 42 29 43 28 44
REMARK SMILES IDX 34 45 35 46 36 47 37 48 38 49 39 50 40 51 41 52 102 53 42 54
REMARK SMILES IDX 101 55 43 56 44 57 45 58 95 59 46 60 100 61 94 62 96 63
REMARK SMILES IDX 47 64 99 65 93 66 92 67 48 69 80 70 60 71 79 72 61 73 64 74
REMARK SMILES IDX 78 75 97 76 62 77 63 78 77 80 98 81 65 82 49 83 50 84 58 85
REMARK SMILES IDX 51 86 52 87 56 88 59 89 53 90 54 91 57 92 55 93 81 94 82 95
REMARK SMILES IDX 90 96 83 97 84 98 88 99 91 100 85 101 86 102 89 103 87 104
REMARK SMILES IDX 66 105 67 106 75 107 68 108 69 109 73 110 76 111 70 112
REMARK SMILES IDX 71 113 74 114 72 115
REMARK H PARENT 20 7 16 12 25 41 96 68 64 79
REMARK Flexibility Score: inf
ROOT
ATOM      1  C   UNL A   1      41.212  21.735  26.417  1.00  0.00     0.329 C 
ATOM      2  O   UNL A   1      41.678  21.008  27.343  1.00  0.00    -0.250 OA
ENDROOT
BRANCH   1   3
ATOM      3  C   UNL A   1      39.301  22.814  26.195  1.00  0.00     0.196 C 
BRANCH   3   4
ATOM      4  N   UNL A   1      38.110  22.671  24.910  1.00  0.00    -0.341 N 
ATOM      5  C   UNL A   1      37.027  21.989  24.452  1.00  0.00     0.240 C 
ATOM      6  O   UNL A   1      36.513  22.595  23.482  1.00  0.00    -0.273 OA
ATOM      7  H   UNL A   1      38.309  23.374  24.251  1.00  0.00     0.164 HD
BRANCH   5   8
ATOM      8  C   UNL A   1      36.229  20.694  24.920  1.00  0.00     0.216 C 
BRANCH   8   9
ATOM      9  N   UNL A   1      35.046  20.384  25.759  1.00  0.00    -0.340 N 
ATOM     10  C   UNL A   1      33.711  20.161  25.397  1.00  0.00     0.292 C 
ATOM     11  O   UNL A   1      32.937  19.542  26.121  1.00  0.00    -0.265 OA
ATOM     12  H   UNL A   1      35.229  20.325  26.725  1.00  0.00     0.164 HD
BRANCH  10  13
ATOM     13  C   UNL A   1      33.196  20.761  24.100  1.00  0.00     0.252 C 
ATOM     14  O   UNL A   1      32.765  19.919  23.305  1.00  0.00    -0.283 OA
BRANCH  13  15
ATOM     15  C   UNL A   1      33.104  22.184  23.689  1.00  0.00     0.054 A 
ATOM     16  N   UNL A   1      32.372  24.091  22.690  1.00  0.00    -0.240 N 
ATOM     17  C   UNL A   1      33.243  22.986  22.536  1.00  0.00     0.117 A 
ATOM     18  C   UNL A   1      31.716  23.885  23.928  1.00  0.00     0.065 A 
ATOM     19  C   UNL A   1      32.574  23.070  24.644  1.00  0.00     0.012 A 
ATOM     20  C   UNL A   1      30.713  24.621  24.583  1.00  0.00     0.028 A 
ATOM     21  C   UNL A   1      32.591  23.117  26.044  1.00  0.00     0.011 A 
ATOM     22  C   UNL A   1      30.840  24.766  25.965  1.00  0.00     0.002 A 
ATOM     23  C   UNL A   1      31.795  24.056  26.684  1.00  0.00     0.001 A 
BRANCH  16  24
ATOM     24  S   UNL A   1      32.653  25.795  22.499  1.00  0.00     0.268 S 
ATOM     25  O   UNL A   1      31.536  26.140  21.626  1.00  0.00    -0.201 OA
ATOM     26  O   UNL A   1      34.026  25.747  22.001  1.00  0.00    -0.201 OA
BRANCH  24  27
ATOM     27  C   UNL A   1      32.825  27.260  23.443  1.00  0.00     0.088 A 
ATOM     28  C   UNL A   1      33.436  29.813  26.901  1.00  0.00     0.044 C 
ATOM     29  C   UNL A   1      33.240  28.992  25.658  1.00  0.00    -0.051 A 
ATOM     30  C   UNL A   1      33.847  27.752  25.649  1.00  0.00     0.005 A 
ATOM     31  C   UNL A   1      32.450  29.372  24.544  1.00  0.00     0.005 A 
ATOM     32  C   UNL A   1      33.652  26.929  24.561  1.00  0.00     0.022 A 
ATOM     33  C   UNL A   1      32.222  28.504  23.428  1.00  0.00     0.022 A 
ENDBRANCH  24  27
ENDBRANCH  16  24
ENDBRANCH  13  15
ENDBRANCH  10  13
ENDBRANCH   8   9
ENDBRANCH   5   8
ENDBRANCH   3   4
BRANCH   3  34
ATOM     34  C   UNL A   1      38.685  24.426  26.764  1.00  0.00     0.074 C 
BRANCH  34  35
ATOM     35  C   UNL A   1      39.499  25.439  27.556  1.00  0.00    -0.020 A 
ATOM     36  C   UNL A   1      39.316  25.844  28.868  1.00  0.00     0.087 A 
ATOM     37  C   UNL A   1      40.487  26.327  26.989  1.00  0.00     0.003 A 
ATOM     38  N   UNL A   1      39.899  27.085  29.000  1.00  0.00    -0.361 N 
ATOM     39  C   UNL A   1      40.559  27.431  27.842  1.00  0.00     0.046 A 
ATOM     40  C   UNL A   1      41.165  26.388  25.754  1.00  0.00     0.010 A 
ATOM     41  H   UNL A   1      39.850  27.646  29.808  1.00  0.00     0.166 HD
ATOM     42  C   UNL A   1      41.159  28.638  27.460  1.00  0.00     0.026 A 
ATOM     43  C   UNL A   1      41.840  27.560  25.394  1.00  0.00     0.001 A 
ATOM     44  C   UNL A   1      41.801  28.681  26.218  1.00  0.00     0.002 A 
ENDBRANCH  34  35
ENDBRANCH   3  34
ENDBRANCH   1   3
BRANCH   1  45
ATOM     45  O   UNL A   1      42.222  21.643  25.378  1.00  0.00    -0.461 OA
BRANCH  45  46
ATOM     46  C   UNL A   1      43.051  22.796  25.189  1.00  0.00     0.274 C 
BRANCH  46  47
ATOM     47  C   UNL A   1      44.022  22.575  24.017  1.00  0.00     0.275 C 
BRANCH  47  48
ATOM     48  O   UNL A   1      45.246  23.372  24.031  1.00  0.00    -0.458 OA
BRANCH  48  49
ATOM     49  C   UNL A   1      46.172  23.431  25.035  1.00  0.00     0.338 C 
ATOM     50  O   UNL A   1      46.391  22.510  25.808  1.00  0.00    -0.246 OA
BRANCH  49  51
ATOM     51  C   UNL A   1      46.567  24.804  25.414  1.00  0.00     0.060 A 
ATOM     52  C   UNL A   1      47.863  24.877  26.637  1.00  0.00     0.016 A 
ATOM     53  C   UNL A   1      45.275  26.021  25.419  1.00  0.00     0.016 A 
ATOM     54  C   UNL A   1      47.738  26.124  27.961  1.00  0.00     0.010 A 
ATOM     55  C   UNL A   1      45.202  27.311  26.649  1.00  0.00     0.010 A 
ATOM     56  C   UNL A   1      46.357  27.274  28.011  1.00  0.00    -0.014 A 
BRANCH  56  57
ATOM     57  C   UNL A   1      45.852  27.999  29.156  1.00  0.00     0.031 A 
ATOM     58  C   UNL A   1      45.185  27.175  30.199  1.00  0.00     0.074 A 
ATOM     59  C   UNL A   1      46.296  29.262  29.376  1.00  0.00     0.049 A 
ATOM     60  N   UNL A   1      44.452  27.661  31.135  1.00  0.00    -0.248 NA
ATOM     61  C   UNL A   1      45.195  25.708  30.242  1.00  0.00     0.031 C 
ATOM     62  C   UNL A   1      46.424  29.907  30.676  1.00  0.00     0.029 A 
ATOM     63  N   UNL A   1      46.725  30.259  28.479  1.00  0.00    -0.354 N 
ATOM     64  C   UNL A   1      44.214  26.647  32.045  1.00  0.00     0.074 A 
ATOM     65  C   UNL A   1      44.503  25.440  31.346  1.00  0.00     0.031 C 
ATOM     66  C   UNL A   1      46.651  31.221  30.516  1.00  0.00     0.029 A 
ATOM     67  C   UNL A   1      46.562  31.529  29.102  1.00  0.00     0.049 A 
ATOM     68  H   UNL A   1      47.078  30.104  27.574  1.00  0.00     0.167 HD
ATOM     69  C   UNL A   1      43.990  26.982  33.344  1.00  0.00     0.037 A 
ATOM     70  C   UNL A   1      45.715  32.492  28.608  1.00  0.00     0.037 A 
ATOM     71  C   UNL A   1      43.911  28.437  33.436  1.00  0.00     0.049 A 
ATOM     72  C   UNL A   1      44.418  32.582  29.391  1.00  0.00     0.074 A 
ATOM     73  C   UNL A   1      44.827  29.404  33.814  1.00  0.00     0.029 A 
ATOM     74  N   UNL A   1      42.920  29.087  32.713  1.00  0.00    -0.354 N 
ATOM     75  N   UNL A   1      44.072  31.705  30.294  1.00  0.00    -0.248 NA
ATOM     76  C   UNL A   1      43.418  33.636  29.242  1.00  0.00     0.031 C 
ATOM     77  C   UNL A   1      44.399  30.638  33.254  1.00  0.00     0.029 A 
ATOM     78  C   UNL A   1      43.217  30.424  32.564  1.00  0.00     0.049 A 
ATOM     79  H   UNL A   1      42.113  28.650  32.355  1.00  0.00     0.167 HD
ATOM     80  C   UNL A   1      42.872  32.048  30.852  1.00  0.00     0.074 A 
ATOM     81  C   UNL A   1      42.502  33.266  30.158  1.00  0.00     0.031 C 
ATOM     82  C   UNL A   1      42.302  31.304  31.848  1.00  0.00     0.037 A 
BRANCH  69  83
ATOM     83  C   UNL A   1      44.091  26.080  34.560  1.00  0.00     0.064 A 
ATOM     84  C   UNL A   1      42.968  25.945  35.410  1.00  0.00     0.173 A 
ATOM     85  C   UNL A   1      45.230  25.375  35.002  1.00  0.00     0.173 A 
ATOM     86  F   UNL A   1      41.796  26.522  35.115  1.00  0.00    -0.203 F 
ATOM     87  C   UNL A   1      43.000  25.219  36.605  1.00  0.00     0.198 A 
ATOM     88  C   UNL A   1      45.261  24.642  36.195  1.00  0.00     0.198 A 
ATOM     89  F   UNL A   1      46.374  25.348  34.317  1.00  0.00    -0.203 F 
ATOM     90  F   UNL A   1      41.907  25.166  37.378  1.00  0.00    -0.200 F 
ATOM     91  C   UNL A   1      44.149  24.570  37.001  1.00  0.00     0.200 A 
ATOM     92  F   UNL A   1      46.391  24.015  36.556  1.00  0.00    -0.200 F 
ATOM     93  F   UNL A   1      44.185  23.879  38.148  1.00  0.00    -0.200 F 
ENDBRANCH  69  83
BRANCH  70  94
ATOM     94  C   UNL A   1      45.849  32.703  27.135  1.00  0.00     0.064 A 
ATOM     95  C   UNL A   1      44.807  32.231  26.310  1.00  0.00     0.173 A 
ATOM     96  C   UNL A   1      46.473  33.885  26.761  1.00  0.00     0.173 A 
ATOM     97  F   UNL A   1      44.301  31.006  26.502  1.00  0.00    -0.203 F 
ATOM     98  C   UNL A   1      44.192  33.073  25.382  1.00  0.00     0.198 A 
ATOM     99  C   UNL A   1      45.819  34.724  25.863  1.00  0.00     0.198 A 
ATOM    100  F   UNL A   1      47.500  34.341  27.493  1.00  0.00    -0.203 F 
ATOM    101  F   UNL A   1      43.107  32.678  24.704  1.00  0.00    -0.200 F 
ATOM    102  C   UNL A   1      44.644  34.360  25.242  1.00  0.00     0.200 A 
ATOM    103  F   UNL A   1      46.234  35.970  25.677  1.00  0.00    -0.200 F 
ATOM    104  F   UNL A   1      43.942  35.270  24.549  1.00  0.00    -0.200 F 
ENDBRANCH  70  94
BRANCH  82 105
ATOM    105  C   UNL A   1      40.877  31.419  32.344  1.00  0.00     0.064 A 
ATOM    106  C   UNL A   1      40.462  32.330  33.326  1.00  0.00     0.173 A 
ATOM    107  C   UNL A   1      39.833  30.661  31.752  1.00  0.00     0.173 A 
ATOM    108  F   UNL A   1      41.296  33.250  33.827  1.00  0.00    -0.203 F 
ATOM    109  C   UNL A   1      39.145  32.365  33.790  1.00  0.00     0.198 A 
ATOM    110  C   UNL A   1      38.504  30.775  32.144  1.00  0.00     0.198 A 
ATOM    111  F   UNL A   1      40.053  29.792  30.756  1.00  0.00    -0.203 F 
ATOM    112  F   UNL A   1      38.828  33.173  34.810  1.00  0.00    -0.200 F 
ATOM    113  C   UNL A   1      38.166  31.592  33.198  1.00  0.00     0.200 A 
ATOM    114  F   UNL A   1      37.558  30.088  31.488  1.00  0.00    -0.200 F 
ATOM    115  F   UNL A   1      36.900  31.647  33.627  1.00  0.00    -0.200 F 
ENDBRANCH  82 105
ENDBRANCH  56  57
ENDBRANCH  49  51
ENDBRANCH  48  49
ENDBRANCH  47  48
ENDBRANCH  46  47
ENDBRANCH  45  46
ENDBRANCH   1  45
TORSDOF 20
ENDMDL
MODEL 2
REMARK VINA RESULT:     -13.5      3.710      8.883
REMARK SMILES Cc1ccc(S(=O)(=O)n2cc(C(=O)C(=O)NCC(=O)N[C@H](Cc3c[nH]c4ccccc34)C(=O)OCCOC(=O)c3ccc(-c4c5nc(c(-c6c(F)c(F)c(F)c(F)c6F)c6ccc([nH]6)c(-c6c(F)c(F)c(F)c(F)c6F)c6nc(c(-c7c(F)c(F)c(F)c(F)c7F)c7ccc4[nH]7)C=C6)C=C5)cc3)c3ccccc32)cc1
REMARK SMILES IDX 32 1 33 2 21 3 20 4 18 5 19 6 17 8 16 9 14 10 15 11 12 13
REMARK SMILES IDX 13 14 11 15 9 16 10 17 108 18 103 19 107 20 104 21 106 22
REMARK SMILES IDX 105 23 6 24 7 25 8 26 5 27 1 28 2 29 3 30 110 31 4 32 109 33
REMARK SMILES IDX 22 34 23 35 24 36 31 37 25 38 26 39 30 40 27 42 29 43 28 44
REMARK SMILES IDX 34 45 35 46 36 47 37 48 38 49 39 50 40 51 41 52 102 53 42 54
REMARK SMILES IDX 101 55 43 56 44 57 45 58 95 59 46 60 100 61 94 62 96 63
REMARK SMILES IDX 47 64 99 65 93 66 92 67 48 69 80 70 60 71 79 72 61 73 64 74
REMARK SMILES IDX 78 75 97 76 62 77 63 78 77 80 98 81 65 82 49 83 50 84 58 85
REMARK SMILES IDX 51 86 52 87 56 88 59 89 53 90 54 91 57 92 55 93 81 94 82 95
REMARK SMILES IDX 90 96 83 97 84 98 88 99 91 100 85 101 86 102 89 103 87 104
REMARK SMILES IDX 66 105 67 106 75 107 68 108 69 109 73 110 76 111 70 112
REMARK SMILES IDX 71 113 74 114 72 115
REMARK H PARENT 20 7 16 12 25 41 96 68 64 79
REMARK Flexibility Score: inf
ROOT
ATOM      1  C   UNL A   1      41.619  28.381  26.424  1.00  0.00     0.329 C 
ATOM      2  O   UNL A   1      41.828  29.167  25.454  1.00  0.00    -0.250 OA
ENDROOT
BRANCH   1   3
ATOM      3  C   UNL A   1      39.767  27.685  27.399  1.00  0.00     0.196 C 
BRANCH   3   4
ATOM      4  N   UNL A   1      38.635  28.609  28.377  1.00  0.00    -0.341 N 
ATOM      5  C   UNL A   1      37.361  29.072  28.487  1.00  0.00     0.240 C 
ATOM      6  O   UNL A   1      37.169  29.540  29.634  1.00  0.00    -0.273 OA
ATOM      7  H   UNL A   1      39.125  28.918  29.172  1.00  0.00     0.164 HD
BRANCH   5   8
ATOM      8  C   UNL A   1      36.072  29.060  27.553  1.00  0.00     0.216 C 
BRANCH   8   9
ATOM      9  N   UNL A   1      34.602  29.165  27.721  1.00  0.00    -0.340 N 
ATOM     10  C   UNL A   1      33.567  28.431  27.124  1.00  0.00     0.292 C 
ATOM     11  O   UNL A   1      32.453  28.351  27.632  1.00  0.00    -0.265 OA
ATOM     12  H   UNL A   1      34.306  29.860  28.352  1.00  0.00     0.164 HD
BRANCH  10  13
ATOM     13  C   UNL A   1      33.820  27.773  25.779  1.00  0.00     0.252 C 
ATOM     14  O   UNL A   1      33.919  28.580  24.848  1.00  0.00    -0.283 OA
BRANCH  13  15
ATOM     15  C   UNL A   1      34.002  26.338  25.448  1.00  0.00     0.054 A 
ATOM     16  N   UNL A   1      34.076  24.075  25.658  1.00  0.00    -0.240 N 
ATOM     17  C   UNL A   1      34.850  25.255  25.767  1.00  0.00     0.117 A 
ATOM     18  C   UNL A   1      32.774  24.508  25.307  1.00  0.00     0.065 A 
ATOM     19  C   UNL A   1      32.968  25.739  24.707  1.00  0.00     0.012 A 
ATOM     20  C   UNL A   1      31.578  23.796  25.109  1.00  0.00     0.028 A 
ATOM     21  C   UNL A   1      32.069  26.205  23.738  1.00  0.00     0.011 A 
ATOM     22  C   UNL A   1      30.772  24.200  24.044  1.00  0.00     0.002 A 
ATOM     23  C   UNL A   1      31.037  25.367  23.337  1.00  0.00     0.001 A 
BRANCH  16  24
ATOM     24  S   UNL A   1      34.394  22.580  24.833  1.00  0.00     0.268 S 
ATOM     25  O   UNL A   1      35.607  22.161  25.527  1.00  0.00    -0.201 OA
ATOM     26  O   UNL A   1      34.433  23.078  23.460  1.00  0.00    -0.201 OA
BRANCH  24  27
ATOM     27  C   UNL A   1      33.646  21.037  24.474  1.00  0.00     0.088 A 
ATOM     28  C   UNL A   1      33.303  16.822  23.494  1.00  0.00     0.044 C 
ATOM     29  C   UNL A   1      33.346  18.279  23.856  1.00  0.00    -0.051 A 
ATOM     30  C   UNL A   1      34.449  18.693  24.576  1.00  0.00     0.005 A 
ATOM     31  C   UNL A   1      32.381  19.245  23.475  1.00  0.00     0.005 A 
ATOM     32  C   UNL A   1      34.574  20.030  24.884  1.00  0.00     0.022 A 
ATOM     33  C   UNL A   1      32.527  20.639  23.768  1.00  0.00     0.022 A 
ENDBRANCH  24  27
ENDBRANCH  16  24
ENDBRANCH  13  15
ENDBRANCH  10  13
ENDBRANCH   8   9
ENDBRANCH   5   8
ENDBRANCH   3   4
BRANCH   3  34
ATOM     34  C   UNL A   1      39.190  26.077  28.017  1.00  0.00     0.074 C 
BRANCH  34  35
ATOM     35  C   UNL A   1      39.259  24.770  27.241  1.00  0.00    -0.020 A 
ATOM     36  C   UNL A   1      38.251  24.148  26.524  1.00  0.00     0.087 A 
ATOM     37  C   UNL A   1      40.354  23.830  27.305  1.00  0.00     0.003 A 
ATOM     38  N   UNL A   1      38.573  22.811  26.438  1.00  0.00    -0.361 N 
ATOM     39  C   UNL A   1      39.821  22.583  26.972  1.00  0.00     0.046 A 
ATOM     40  C   UNL A   1      41.674  23.885  27.800  1.00  0.00     0.010 A 
ATOM     41  H   UNL A   1      37.992  22.117  26.050  1.00  0.00     0.166 HD
ATOM     42  C   UNL A   1      40.493  21.382  27.239  1.00  0.00     0.026 A 
ATOM     43  C   UNL A   1      42.389  22.698  27.993  1.00  0.00     0.001 A 
ATOM     44  C   UNL A   1      41.791  21.464  27.755  1.00  0.00     0.002 A 
ENDBRANCH  34  35
ENDBRANCH   3  34
ENDBRANCH   1   3
BRANCH   1  45
ATOM     45  O   UNL A   1      42.955  28.063  26.892  1.00  0.00    -0.461 OA
BRANCH  45  46
ATOM     46  C   UNL A   1      43.576  29.024  27.754  1.00  0.00     0.274 C 
BRANCH  46  47
ATOM     47  C   UNL A   1      45.073  28.712  27.919  1.00  0.00     0.275 C 
BRANCH  47  48
ATOM     48  O   UNL A   1      45.613  27.661  27.060  1.00  0.00    -0.458 OA
BRANCH  48  49
ATOM     49  C   UNL A   1      46.809  27.015  27.210  1.00  0.00     0.338 C 
ATOM     50  O   UNL A   1      47.662  26.960  26.337  1.00  0.00    -0.246 OA
BRANCH  49  51
ATOM     51  C   UNL A   1      46.825  26.018  28.302  1.00  0.00     0.060 A 
ATOM     52  C   UNL A   1      45.370  24.990  28.369  1.00  0.00     0.016 A 
ATOM     53  C   UNL A   1      47.633  26.509  29.804  1.00  0.00     0.016 A 
ATOM     54  C   UNL A   1      44.661  24.595  30.002  1.00  0.00     0.010 A 
ATOM     55  C   UNL A   1      47.006  26.039  31.406  1.00  0.00     0.010 A 
ATOM     56  C   UNL A   1      45.432  25.201  31.508  1.00  0.00    -0.014 A 
BRANCH  56  57
ATOM     57  C   UNL A   1      44.818  25.379  32.805  1.00  0.00     0.031 A 
ATOM     58  C   UNL A   1      44.139  26.683  33.025  1.00  0.00     0.074 A 
ATOM     59  C   UNL A   1      44.599  24.285  33.578  1.00  0.00     0.049 A 
ATOM     60  N   UNL A   1      43.782  27.118  34.180  1.00  0.00    -0.248 NA
ATOM     61  C   UNL A   1      43.876  27.679  31.980  1.00  0.00     0.031 C 
ATOM     62  C   UNL A   1      43.523  24.128  34.548  1.00  0.00     0.029 A 
ATOM     63  N   UNL A   1      45.298  23.067  33.674  1.00  0.00    -0.354 N 
ATOM     64  C   UNL A   1      42.973  28.222  33.976  1.00  0.00     0.074 A 
ATOM     65  C   UNL A   1      43.242  28.643  32.641  1.00  0.00     0.031 C 
ATOM     66  C   UNL A   1      43.743  23.041  35.306  1.00  0.00     0.029 A 
ATOM     67  C   UNL A   1      45.040  22.496  34.952  1.00  0.00     0.049 A 
ATOM     68  H   UNL A   1      45.869  22.676  32.975  1.00  0.00     0.167 HD
ATOM     69  C   UNL A   1      42.028  28.514  34.910  1.00  0.00     0.037 A 
ATOM     70  C   UNL A   1      46.030  22.284  35.882  1.00  0.00     0.037 A 
ATOM     71  C   UNL A   1      42.208  27.611  36.043  1.00  0.00     0.049 A 
ATOM     72  C   UNL A   1      46.025  23.329  36.984  1.00  0.00     0.074 A 
ATOM     73  C   UNL A   1      41.573  26.441  36.420  1.00  0.00     0.029 A 
ATOM     74  N   UNL A   1      43.418  27.645  36.721  1.00  0.00    -0.354 N 
ATOM     75  N   UNL A   1      45.298  24.411  36.933  1.00  0.00    -0.248 NA
ATOM     76  C   UNL A   1      46.812  23.257  38.213  1.00  0.00     0.031 C 
ATOM     77  C   UNL A   1      42.450  25.741  37.292  1.00  0.00     0.029 A 
ATOM     78  C   UNL A   1      43.598  26.498  37.464  1.00  0.00     0.049 A 
ATOM     79  H   UNL A   1      44.062  28.389  36.679  1.00  0.00     0.167 HD
ATOM     80  C   UNL A   1      45.475  25.154  38.065  1.00  0.00     0.074 A 
ATOM     81  C   UNL A   1      46.435  24.389  38.837  1.00  0.00     0.031 C 
ATOM     82  C   UNL A   1      44.799  26.326  38.271  1.00  0.00     0.037 A 
BRANCH  69  83
ATOM     83  C   UNL A   1      40.805  29.397  34.740  1.00  0.00     0.064 A 
ATOM     84  C   UNL A   1      40.577  30.439  35.668  1.00  0.00     0.173 A 
ATOM     85  C   UNL A   1      39.792  29.266  33.766  1.00  0.00     0.173 A 
ATOM     86  F   UNL A   1      41.462  30.720  36.634  1.00  0.00    -0.203 F 
ATOM     87  C   UNL A   1      39.428  31.236  35.652  1.00  0.00     0.198 A 
ATOM     88  C   UNL A   1      38.644  30.067  33.746  1.00  0.00     0.198 A 
ATOM     89  F   UNL A   1      39.846  28.366  32.785  1.00  0.00    -0.203 F 
ATOM     90  F   UNL A   1      39.263  32.182  36.587  1.00  0.00    -0.200 F 
ATOM     91  C   UNL A   1      38.457  31.047  34.692  1.00  0.00     0.200 A 
ATOM     92  F   UNL A   1      37.716  29.867  32.798  1.00  0.00    -0.200 F 
ATOM     93  F   UNL A   1      37.352  31.804  34.678  1.00  0.00    -0.200 F 
ENDBRANCH  69  83
BRANCH  70  94
ATOM     94  C   UNL A   1      47.250  21.636  35.314  1.00  0.00     0.064 A 
ATOM     95  C   UNL A   1      48.293  22.478  34.876  1.00  0.00     0.173 A 
ATOM     96  C   UNL A   1      47.608  20.431  35.902  1.00  0.00     0.173 A 
ATOM     97  F   UNL A   1      48.018  23.554  34.128  1.00  0.00    -0.203 F 
ATOM     98  C   UNL A   1      49.601  22.290  35.325  1.00  0.00     0.198 A 
ATOM     99  C   UNL A   1      48.909  20.285  36.376  1.00  0.00     0.198 A 
ATOM    100  F   UNL A   1      46.644  19.581  36.288  1.00  0.00    -0.203 F 
ATOM    101  F   UNL A   1      50.565  23.172  35.034  1.00  0.00    -0.200 F 
ATOM    102  C   UNL A   1      49.877  21.242  36.166  1.00  0.00     0.200 A 
ATOM    103  F   UNL A   1      49.228  19.274  37.174  1.00  0.00    -0.200 F 
ATOM    104  F   UNL A   1      51.051  21.162  36.811  1.00  0.00    -0.200 F 
ENDBRANCH  70  94
BRANCH  82 105
ATOM    105  C   UNL A   1      45.107  27.359  39.333  1.00  0.00     0.064 A 
ATOM    106  C   UNL A   1      44.805  27.198  40.692  1.00  0.00     0.173 A 
ATOM    107  C   UNL A   1      45.833  28.538  39.017  1.00  0.00     0.173 A 
ATOM    108  F   UNL A   1      44.306  26.051  41.169  1.00  0.00    -0.203 F 
ATOM    109  C   UNL A   1      45.061  28.202  41.629  1.00  0.00     0.198 A 
ATOM    110  C   UNL A   1      46.181  29.487  39.972  1.00  0.00     0.198 A 
ATOM    111  F   UNL A   1      46.253  28.811  37.774  1.00  0.00    -0.203 F 
ATOM    112  F   UNL A   1      44.647  28.045  42.893  1.00  0.00    -0.200 F 
ATOM    113  C   UNL A   1      45.751  29.344  41.270  1.00  0.00     0.200 A 
ATOM    114  F   UNL A   1      46.935  30.537  39.619  1.00  0.00    -0.200 F 
ATOM    115  F   UNL A   1      46.019  30.292  42.176  1.00  0.00    -0.200 F 
ENDBRANCH  82 105
ENDBRANCH  56  57
ENDBRANCH  49  51
ENDBRANCH  48  49
ENDBRANCH  47  48
ENDBRANCH  46  47
ENDBRANCH  45  46
ENDBRANCH   1  45
TORSDOF 20
ENDMDL
MODEL 3
REMARK VINA RESULT:     -13.4      3.723      7.512
REMARK SMILES Cc1ccc(S(=O)(=O)n2cc(C(=O)C(=O)NCC(=O)N[C@H](Cc3c[nH]c4ccccc34)C(=O)OCCOC(=O)c3ccc(-c4c5nc(c(-c6c(F)c(F)c(F)c(F)c6F)c6ccc([nH]6)c(-c6c(F)c(F)c(F)c(F)c6F)c6nc(c(-c7c(F)c(F)c(F)c(F)c7F)c7ccc4[nH]7)C=C6)C=C5)cc3)c3ccccc32)cc1
REMARK SMILES IDX 32 1 33 2 21 3 20 4 18 5 19 6 17 8 16 9 14 10 15 11 12 13
REMARK SMILES IDX 13 14 11 15 9 16 10 17 108 18 103 19 107 20 104 21 106 22
REMARK SMILES IDX 105 23 6 24 7 25 8 26 5 27 1 28 2 29 3 30 110 31 4 32 109 33
REMARK SMILES IDX 22 34 23 35 24 36 31 37 25 38 26 39 30 40 27 42 29 43 28 44
REMARK SMILES IDX 34 45 35 46 36 47 37 48 38 49 39 50 40 51 41 52 102 53 42 54
REMARK SMILES IDX 101 55 43 56 44 57 45 58 95 59 46 60 100 61 94 62 96 63
REMARK SMILES IDX 47 64 99 65 93 66 92 67 48 69 80 70 60 71 79 72 61 73 64 74
REMARK SMILES IDX 78 75 97 76 62 77 63 78 77 80 98 81 65 82 49 83 50 84 58 85
REMARK SMILES IDX 51 86 52 87 56 88 59 89 53 90 54 91 57 92 55 93 81 94 82 95
REMARK SMILES IDX 90 96 83 97 84 98 88 99 91 100 85 101 86 102 89 103 87 104
REMARK SMILES IDX 66 105 67 106 75 107 68 108 69 109 73 110 76 111 70 112
REMARK SMILES IDX 71 113 74 114 72 115
REMARK H PARENT 20 7 16 12 25 41 96 68 64 79
REMARK Flexibility Score: inf
ROOT
ATOM      1  C   UNL A   1      38.248  29.208  27.858  1.00  0.00     0.329 C 
ATOM      2  O   UNL A   1      39.309  29.669  27.341  1.00  0.00    -0.250 OA
ENDROOT
BRANCH   1   3
ATOM      3  C   UNL A   1      36.250  30.086  28.177  1.00  0.00     0.196 C 
BRANCH   3   4
ATOM      4  N   UNL A   1      34.679  29.319  27.993  1.00  0.00    -0.341 N 
ATOM      5  C   UNL A   1      33.569  29.203  27.217  1.00  0.00     0.240 C 
ATOM      6  O   UNL A   1      32.860  28.250  27.618  1.00  0.00    -0.273 OA
ATOM      7  H   UNL A   1      34.551  28.732  28.772  1.00  0.00     0.164 HD
BRANCH   5   8
ATOM      8  C   UNL A   1      33.036  29.912  25.895  1.00  0.00     0.216 C 
BRANCH   8   9
ATOM      9  N   UNL A   1      33.054  29.654  24.436  1.00  0.00    -0.340 N 
ATOM     10  C   UNL A   1      32.075  29.097  23.602  1.00  0.00     0.292 C 
ATOM     11  O   UNL A   1      32.061  29.300  22.392  1.00  0.00    -0.265 OA
ATOM     12  H   UNL A   1      33.886  29.918  23.979  1.00  0.00     0.164 HD
BRANCH  10  13
ATOM     13  C   UNL A   1      31.043  28.163  24.210  1.00  0.00     0.252 C 
ATOM     14  O   UNL A   1      29.893  28.614  24.180  1.00  0.00    -0.283 OA
BRANCH  13  15
ATOM     15  C   UNL A   1      31.219  26.805  24.781  1.00  0.00     0.054 A 
ATOM     16  N   UNL A   1      30.777  24.670  25.427  1.00  0.00    -0.240 N 
ATOM     17  C   UNL A   1      30.758  26.018  25.858  1.00  0.00     0.117 A 
ATOM     18  C   UNL A   1      31.222  24.709  24.083  1.00  0.00     0.065 A 
ATOM     19  C   UNL A   1      31.936  25.890  23.989  1.00  0.00     0.012 A 
ATOM     20  C   UNL A   1      31.394  23.691  23.130  1.00  0.00     0.028 A 
ATOM     21  C   UNL A   1      32.982  26.014  23.065  1.00  0.00     0.011 A 
ATOM     22  C   UNL A   1      32.525  23.771  22.318  1.00  0.00     0.002 A 
ATOM     23  C   UNL A   1      33.336  24.900  22.315  1.00  0.00     0.001 A 
BRANCH  16  24
ATOM     24  S   UNL A   1      31.433  23.246  26.177  1.00  0.00     0.268 S 
ATOM     25  O   UNL A   1      30.295  22.343  26.044  1.00  0.00    -0.201 OA
ATOM     26  O   UNL A   1      31.807  23.818  27.468  1.00  0.00    -0.201 OA
BRANCH  24  27
ATOM     27  C   UNL A   1      32.780  22.134  26.042  1.00  0.00     0.088 A 
ATOM     28  C   UNL A   1      36.718  20.637  24.998  1.00  0.00     0.044 C 
ATOM     29  C   UNL A   1      35.348  21.095  25.410  1.00  0.00    -0.051 A 
ATOM     30  C   UNL A   1      35.210  22.446  25.658  1.00  0.00     0.005 A 
ATOM     31  C   UNL A   1      34.204  20.264  25.509  1.00  0.00     0.005 A 
ATOM     32  C   UNL A   1      33.963  22.935  25.980  1.00  0.00     0.022 A 
ATOM     33  C   UNL A   1      32.902  20.777  25.814  1.00  0.00     0.022 A 
ENDBRANCH  24  27
ENDBRANCH  16  24
ENDBRANCH  13  15
ENDBRANCH  10  13
ENDBRANCH   8   9
ENDBRANCH   5   8
ENDBRANCH   3   4
BRANCH   3  34
ATOM     34  C   UNL A   1      35.582  31.774  28.091  1.00  0.00     0.074 C 
BRANCH  34  35
ATOM     35  C   UNL A   1      35.255  32.643  29.296  1.00  0.00    -0.020 A 
ATOM     36  C   UNL A   1      35.108  32.252  30.617  1.00  0.00     0.087 A 
ATOM     37  C   UNL A   1      34.819  34.018  29.227  1.00  0.00     0.003 A 
ATOM     38  N   UNL A   1      34.335  33.205  31.243  1.00  0.00    -0.361 N 
ATOM     39  C   UNL A   1      34.087  34.258  30.391  1.00  0.00     0.046 A 
ATOM     40  C   UNL A   1      34.807  34.999  28.213  1.00  0.00     0.010 A 
ATOM     41  H   UNL A   1      34.005  33.141  32.169  1.00  0.00     0.166 HD
ATOM     42  C   UNL A   1      33.238  35.364  30.532  1.00  0.00     0.026 A 
ATOM     43  C   UNL A   1      34.029  36.151  28.376  1.00  0.00     0.001 A 
ATOM     44  C   UNL A   1      33.224  36.309  29.500  1.00  0.00     0.002 A 
ENDBRANCH  34  35
ENDBRANCH   3  34
ENDBRANCH   1   3
BRANCH   1  45
ATOM     45  O   UNL A   1      38.651  27.901  28.341  1.00  0.00    -0.461 OA
BRANCH  45  46
ATOM     46  C   UNL A   1      40.042  27.577  28.227  1.00  0.00     0.274 C 
BRANCH  46  47
ATOM     47  C   UNL A   1      40.221  26.105  27.819  1.00  0.00     0.275 C 
BRANCH  47  48
ATOM     48  O   UNL A   1      41.578  25.571  27.902  1.00  0.00    -0.458 OA
BRANCH  48  49
ATOM     49  C   UNL A   1      42.565  25.693  26.963  1.00  0.00     0.338 C 
ATOM     50  O   UNL A   1      42.758  24.876  26.076  1.00  0.00    -0.246 OA
BRANCH  49  51
ATOM     51  C   UNL A   1      43.652  26.619  27.344  1.00  0.00     0.060 A 
ATOM     52  C   UNL A   1      44.100  26.543  29.068  1.00  0.00     0.016 A 
ATOM     53  C   UNL A   1      43.703  28.170  26.483  1.00  0.00     0.016 A 
ATOM     54  C   UNL A   1      44.456  28.103  29.942  1.00  0.00     0.010 A 
ATOM     55  C   UNL A   1      44.153  29.688  27.306  1.00  0.00     0.010 A 
ATOM     56  C   UNL A   1      44.389  29.676  29.075  1.00  0.00    -0.014 A 
BRANCH  56  57
ATOM     57  C   UNL A   1      44.200  30.992  29.646  1.00  0.00     0.031 A 
ATOM     58  C   UNL A   1      42.790  31.385  29.909  1.00  0.00     0.074 A 
ATOM     59  C   UNL A   1      45.265  31.619  30.206  1.00  0.00     0.049 A 
ATOM     60  N   UNL A   1      42.416  32.590  30.153  1.00  0.00    -0.248 NA
ATOM     61  C   UNL A   1      41.638  30.479  29.830  1.00  0.00     0.031 C 
ATOM     62  C   UNL A   1      45.211  32.571  31.308  1.00  0.00     0.029 A 
ATOM     63  N   UNL A   1      46.638  31.550  29.908  1.00  0.00    -0.354 N 
ATOM     64  C   UNL A   1      41.104  32.537  30.587  1.00  0.00     0.074 A 
ATOM     65  C   UNL A   1      40.619  31.266  30.165  1.00  0.00     0.031 C 
ATOM     66  C   UNL A   1      46.400  33.180  31.447  1.00  0.00     0.029 A 
ATOM     67  C   UNL A   1      47.262  32.746  30.363  1.00  0.00     0.049 A 
ATOM     68  H   UNL A   1      47.092  30.801  29.460  1.00  0.00     0.167 HD
ATOM     69  C   UNL A   1      40.661  33.511  31.428  1.00  0.00     0.037 A 
ATOM     70  C   UNL A   1      47.877  33.631  29.510  1.00  0.00     0.037 A 
ATOM     71  C   UNL A   1      41.711  34.516  31.560  1.00  0.00     0.049 A 
ATOM     72  C   UNL A   1      47.027  34.858  29.234  1.00  0.00     0.074 A 
ATOM     73  C   UNL A   1      42.674  34.745  32.529  1.00  0.00     0.029 A 
ATOM     74  N   UNL A   1      42.130  35.181  30.417  1.00  0.00    -0.354 N 
ATOM     75  N   UNL A   1      45.779  34.955  29.601  1.00  0.00    -0.248 NA
ATOM     76  C   UNL A   1      47.487  36.060  28.542  1.00  0.00     0.031 C 
ATOM     77  C   UNL A   1      43.709  35.511  31.928  1.00  0.00     0.029 A 
ATOM     78  C   UNL A   1      43.362  35.767  30.611  1.00  0.00     0.049 A 
ATOM     79  H   UNL A   1      41.614  35.228  29.578  1.00  0.00     0.167 HD
ATOM     80  C   UNL A   1      45.272  36.172  29.243  1.00  0.00     0.074 A 
ATOM     81  C   UNL A   1      46.383  36.829  28.580  1.00  0.00     0.031 C 
ATOM     82  C   UNL A   1      43.988  36.533  29.542  1.00  0.00     0.037 A 
BRANCH  69  83
ATOM     83  C   UNL A   1      39.437  33.469  32.324  1.00  0.00     0.064 A 
ATOM     84  C   UNL A   1      38.362  34.348  32.059  1.00  0.00     0.173 A 
ATOM     85  C   UNL A   1      39.252  32.669  33.472  1.00  0.00     0.173 A 
ATOM     86  F   UNL A   1      38.363  35.150  30.986  1.00  0.00    -0.203 F 
ATOM     87  C   UNL A   1      37.240  34.452  32.889  1.00  0.00     0.198 A 
ATOM     88  C   UNL A   1      38.127  32.768  34.299  1.00  0.00     0.198 A 
ATOM     89  F   UNL A   1      40.137  31.753  33.864  1.00  0.00    -0.203 F 
ATOM     90  F   UNL A   1      36.277  35.336  32.594  1.00  0.00    -0.200 F 
ATOM     91  C   UNL A   1      37.124  33.665  34.013  1.00  0.00     0.200 A 
ATOM     92  F   UNL A   1      38.034  31.986  35.386  1.00  0.00    -0.200 F 
ATOM     93  F   UNL A   1      36.054  33.766  34.812  1.00  0.00    -0.200 F 
ENDBRANCH  69  83
BRANCH  70  94
ATOM     94  C   UNL A   1      48.786  32.972  28.524  1.00  0.00     0.064 A 
ATOM     95  C   UNL A   1      48.531  33.187  27.155  1.00  0.00     0.173 A 
ATOM     96  C   UNL A   1      50.113  32.873  28.918  1.00  0.00     0.173 A 
ATOM     97  F   UNL A   1      47.281  33.094  26.682  1.00  0.00    -0.203 F 
ATOM     98  C   UNL A   1      49.539  33.636  26.301  1.00  0.00     0.198 A 
ATOM     99  C   UNL A   1      51.096  33.365  28.063  1.00  0.00     0.198 A 
ATOM    100  F   UNL A   1      50.396  32.621  30.205  1.00  0.00    -0.203 F 
ATOM    101  F   UNL A   1      49.268  33.985  25.037  1.00  0.00    -0.200 F 
ATOM    102  C   UNL A   1      50.804  33.822  26.796  1.00  0.00     0.200 A 
ATOM    103  F   UNL A   1      52.339  33.540  28.491  1.00  0.00    -0.200 F 
ATOM    104  F   UNL A   1      51.737  34.474  26.087  1.00  0.00    -0.200 F 
ENDBRANCH  70  94
BRANCH  82 105
ATOM    105  C   UNL A   1      43.238  37.717  28.970  1.00  0.00     0.064 A 
ATOM    106  C   UNL A   1      42.446  37.657  27.814  1.00  0.00     0.173 A 
ATOM    107  C   UNL A   1      43.210  38.963  29.649  1.00  0.00     0.173 A 
ATOM    108  F   UNL A   1      42.212  36.500  27.183  1.00  0.00    -0.203 F 
ATOM    109  C   UNL A   1      41.814  38.789  27.293  1.00  0.00     0.198 A 
ATOM    110  C   UNL A   1      42.493  40.060  29.184  1.00  0.00     0.198 A 
ATOM    111  F   UNL A   1      43.863  39.166  30.802  1.00  0.00    -0.203 F 
ATOM    112  F   UNL A   1      41.166  38.702  26.124  1.00  0.00    -0.200 F 
ATOM    113  C   UNL A   1      41.834  39.988  27.979  1.00  0.00     0.200 A 
ATOM    114  F   UNL A   1      42.446  41.181  29.917  1.00  0.00    -0.200 F 
ATOM    115  F   UNL A   1      41.204  41.063  27.491  1.00  0.00    -0.200 F 
ENDBRANCH  82 105
ENDBRANCH  56  57
ENDBRANCH  49  51
ENDBRANCH  48  49
ENDBRANCH  47  48
ENDBRANCH  46  47
ENDBRANCH  45  46
ENDBRANCH   1  45
TORSDOF 20
ENDMDL
