MODEL 1
REMARK VINA RESULT:     -11.5      0.000      0.000
REMARK SMILES O=C(Cc1c(F)cc(Cl)cc1F)OCCOC(=O)c1ccc(-c2c3nc(c(-c4c(F)c(F)c(F)c(F)c4F)c4ccc([nH]4)c(-c4c(F)c(F)c(F)c(F)c4F)c4nc(c(-c5c(F)c(F)c(F)c(F)c5F)c5ccc2[nH]5)C=C4)C=C3)cc1
REMARK SMILES IDX 15 1 14 2 13 3 2 4 1 5 3 6 4 7 5 8 11 9 6 10 7 11 10 12
REMARK SMILES IDX 12 13 8 14 9 15 16 16 17 17 18 18 19 19 20 20 81 21 21 22
REMARK SMILES IDX 80 23 22 24 23 25 24 26 74 27 25 28 79 29 73 30 75 31 26 32
REMARK SMILES IDX 78 33 72 34 71 35 27 37 59 38 39 39 58 40 40 41 43 42 57 43
REMARK SMILES IDX 76 44 41 45 42 46 56 48 77 49 44 50 28 51 29 52 37 53 30 54
REMARK SMILES IDX 31 55 35 56 38 57 32 58 33 59 36 60 34 61 60 62 61 63 69 64
REMARK SMILES IDX 62 65 63 66 67 67 70 68 64 69 65 70 68 71 66 72 45 73 46 74
REMARK SMILES IDX 54 75 47 76 48 77 52 78 55 79 49 80 50 81 53 82 51 83
REMARK H PARENT 75 36 43 47
REMARK Flexibility Score: inf
ROOT
ATOM      1  C   UNL A   1      44.220  22.386  24.451  1.00  0.00     0.275 C 
ENDROOT
BRANCH   1   2
ATOM      2  C   UNL A   1      43.994  21.279  25.484  1.00  0.00     0.274 C 
BRANCH   2   3
ATOM      3  O   UNL A   1      43.078  20.264  25.031  1.00  0.00    -0.462 OA
BRANCH   3   4
ATOM      4  C   UNL A   1      42.705  19.236  25.838  1.00  0.00     0.310 C 
ATOM      5  O   UNL A   1      42.988  18.078  25.539  1.00  0.00    -0.252 OA
BRANCH   4   6
ATOM      6  C   UNL A   1      41.810  19.558  27.016  1.00  0.00     0.164 C 
BRANCH   6   7
ATOM      7  C   UNL A   1      40.703  20.523  26.699  1.00  0.00     0.035 A 
ATOM      8  C   UNL A   1      40.696  21.813  27.229  1.00  0.00     0.131 A 
ATOM      9  C   UNL A   1      39.641  20.149  25.875  1.00  0.00     0.131 A 
ATOM     10  F   UNL A   1      41.677  22.201  28.054  1.00  0.00    -0.207 F 
ATOM     11  C   UNL A   1      39.662  22.704  26.951  1.00  0.00     0.060 A 
ATOM     12  C   UNL A   1      38.602  21.021  25.580  1.00  0.00     0.060 A 
ATOM     13  F   UNL A   1      39.587  18.908  25.374  1.00  0.00    -0.207 F 
ATOM     14  C   UNL A   1      38.618  22.301  26.124  1.00  0.00     0.046 A 
ATOM     15  Cl  UNL A   1      37.325  23.382  25.784  1.00  0.00    -0.084 Cl
ENDBRANCH   6   7
ENDBRANCH   4   6
ENDBRANCH   3   4
ENDBRANCH   2   3
ENDBRANCH   1   2
BRANCH   1  16
ATOM     16  O   UNL A   1      43.456  23.559  24.770  1.00  0.00    -0.458 OA
BRANCH  16  17
ATOM     17  C   UNL A   1      44.203  24.640  25.107  1.00  0.00     0.338 C 
ATOM     18  O   UNL A   1      45.265  24.980  24.615  1.00  0.00    -0.246 OA
BRANCH  17  19
ATOM     19  C   UNL A   1      43.452  25.474  26.067  1.00  0.00     0.060 A 
ATOM     20  C   UNL A   1      43.865  26.801  26.238  1.00  0.00     0.016 A 
ATOM     21  C   UNL A   1      42.371  24.971  26.797  1.00  0.00     0.016 A 
ATOM     22  C   UNL A   1      43.226  27.617  27.172  1.00  0.00     0.010 A 
ATOM     23  C   UNL A   1      41.738  25.785  27.739  1.00  0.00     0.010 A 
ATOM     24  C   UNL A   1      42.184  27.100  27.954  1.00  0.00    -0.014 A 
BRANCH  24  25
ATOM     25  C   UNL A   1      41.677  27.870  29.113  1.00  0.00     0.031 A 
ATOM     26  C   UNL A   1      42.425  27.789  30.413  1.00  0.00     0.074 A 
ATOM     27  C   UNL A   1      40.586  28.646  29.014  1.00  0.00     0.049 A 
ATOM     28  N   UNL A   1      42.156  28.347  31.566  1.00  0.00    -0.248 NA
ATOM     29  C   UNL A   1      43.648  26.970  30.410  1.00  0.00     0.031 C 
ATOM     30  C   UNL A   1      39.809  28.860  27.797  1.00  0.00     0.029 A 
ATOM     31  N   UNL A   1      39.948  29.403  29.964  1.00  0.00    -0.354 N 
ATOM     32  C   UNL A   1      43.183  27.963  32.418  1.00  0.00     0.074 A 
ATOM     33  C   UNL A   1      44.056  27.088  31.664  1.00  0.00     0.031 C 
ATOM     34  C   UNL A   1      38.793  29.697  28.073  1.00  0.00     0.029 A 
ATOM     35  C   UNL A   1      38.835  30.054  29.491  1.00  0.00     0.049 A 
ATOM     36  H   UNL A   1      40.257  29.472  30.896  1.00  0.00     0.167 HD
ATOM     37  C   UNL A   1      43.391  28.321  33.707  1.00  0.00     0.037 A 
ATOM     38  C   UNL A   1      37.952  30.841  30.136  1.00  0.00     0.037 A 
ATOM     39  C   UNL A   1      42.508  29.158  34.472  1.00  0.00     0.049 A 
ATOM     40  C   UNL A   1      38.134  31.123  31.604  1.00  0.00     0.074 A 
ATOM     41  C   UNL A   1      42.609  29.537  35.799  1.00  0.00     0.029 A 
ATOM     42  N   UNL A   1      41.350  29.742  33.977  1.00  0.00    -0.354 N 
ATOM     43  N   UNL A   1      39.096  30.744  32.409  1.00  0.00    -0.248 NA
ATOM     44  C   UNL A   1      37.101  31.946  32.252  1.00  0.00     0.031 C 
ATOM     45  C   UNL A   1      41.491  30.315  36.119  1.00  0.00     0.029 A 
ATOM     46  C   UNL A   1      40.720  30.466  34.977  1.00  0.00     0.049 A 
ATOM     47  H   UNL A   1      41.025  29.656  33.052  1.00  0.00     0.167 HD
ATOM     48  C   UNL A   1      38.804  31.305  33.647  1.00  0.00     0.074 A 
ATOM     49  C   UNL A   1      37.575  32.054  33.485  1.00  0.00     0.031 C 
ATOM     50  C   UNL A   1      39.499  31.212  34.808  1.00  0.00     0.037 A 
BRANCH  37  51
ATOM     51  C   UNL A   1      44.622  27.779  34.370  1.00  0.00     0.064 A 
ATOM     52  C   UNL A   1      44.607  26.546  35.041  1.00  0.00     0.173 A 
ATOM     53  C   UNL A   1      45.828  28.493  34.334  1.00  0.00     0.173 A 
ATOM     54  F   UNL A   1      43.472  25.835  35.121  1.00  0.00    -0.203 F 
ATOM     55  C   UNL A   1      45.747  26.062  35.676  1.00  0.00     0.198 A 
ATOM     56  C   UNL A   1      46.974  27.992  34.946  1.00  0.00     0.198 A 
ATOM     57  F   UNL A   1      45.896  29.676  33.705  1.00  0.00    -0.203 F 
ATOM     58  F   UNL A   1      45.695  24.908  36.356  1.00  0.00    -0.200 F 
ATOM     59  C   UNL A   1      46.931  26.782  35.623  1.00  0.00     0.200 A 
ATOM     60  F   UNL A   1      48.120  28.686  34.888  1.00  0.00    -0.200 F 
ATOM     61  F   UNL A   1      48.028  26.316  36.234  1.00  0.00    -0.200 F 
ENDBRANCH  37  51
BRANCH  38  62
ATOM     62  C   UNL A   1      36.823  31.441  29.382  1.00  0.00     0.064 A 
ATOM     63  C   UNL A   1      35.746  30.651  28.959  1.00  0.00     0.173 A 
ATOM     64  C   UNL A   1      36.788  32.811  29.085  1.00  0.00     0.173 A 
ATOM     65  F   UNL A   1      35.751  29.331  29.196  1.00  0.00    -0.203 F 
ATOM     66  C   UNL A   1      34.674  31.210  28.265  1.00  0.00     0.198 A 
ATOM     67  C   UNL A   1      35.705  33.373  28.412  1.00  0.00     0.198 A 
ATOM     68  F   UNL A   1      37.799  33.607  29.464  1.00  0.00    -0.203 F 
ATOM     69  F   UNL A   1      33.669  30.429  27.848  1.00  0.00    -0.200 F 
ATOM     70  C   UNL A   1      34.651  32.571  28.000  1.00  0.00     0.200 A 
ATOM     71  F   UNL A   1      35.682  34.689  28.163  1.00  0.00    -0.200 F 
ATOM     72  F   UNL A   1      33.614  33.109  27.344  1.00  0.00    -0.200 F 
ENDBRANCH  38  62
BRANCH  50  73
ATOM     73  C   UNL A   1      38.973  31.966  35.996  1.00  0.00     0.064 A 
ATOM     74  C   UNL A   1      38.155  31.353  36.956  1.00  0.00     0.173 A 
ATOM     75  C   UNL A   1      39.340  33.305  36.205  1.00  0.00     0.173 A 
ATOM     76  F   UNL A   1      37.765  30.080  36.798  1.00  0.00    -0.203 F 
ATOM     77  C   UNL A   1      37.705  32.060  38.070  1.00  0.00     0.198 A 
ATOM     78  C   UNL A   1      38.913  33.999  37.334  1.00  0.00     0.198 A 
ATOM     79  F   UNL A   1      40.129  33.935  35.322  1.00  0.00    -0.203 F 
ATOM     80  F   UNL A   1      36.891  31.467  38.954  1.00  0.00    -0.200 F 
ATOM     81  C   UNL A   1      38.092  33.379  38.261  1.00  0.00     0.200 A 
ATOM     82  F   UNL A   1      39.299  35.269  37.524  1.00  0.00    -0.200 F 
ATOM     83  F   UNL A   1      37.666  34.053  39.339  1.00  0.00    -0.200 F 
ENDBRANCH  50  73
ENDBRANCH  24  25
ENDBRANCH  17  19
ENDBRANCH  16  17
ENDBRANCH   1  16
TORSDOF 12
ENDMDL
MODEL 2
REMARK VINA RESULT:     -11.2      0.182      2.052
REMARK SMILES O=C(Cc1c(F)cc(Cl)cc1F)OCCOC(=O)c1ccc(-c2c3nc(c(-c4c(F)c(F)c(F)c(F)c4F)c4ccc([nH]4)c(-c4c(F)c(F)c(F)c(F)c4F)c4nc(c(-c5c(F)c(F)c(F)c(F)c5F)c5ccc2[nH]5)C=C4)C=C3)cc1
REMARK SMILES IDX 15 1 14 2 13 3 2 4 1 5 3 6 4 7 5 8 11 9 6 10 7 11 10 12
REMARK SMILES IDX 12 13 8 14 9 15 16 16 17 17 18 18 19 19 20 20 81 21 21 22
REMARK SMILES IDX 80 23 22 24 23 25 24 26 74 27 25 28 79 29 73 30 75 31 26 32
REMARK SMILES IDX 78 33 72 34 71 35 27 37 59 38 39 39 58 40 40 41 43 42 57 43
REMARK SMILES IDX 76 44 41 45 42 46 56 48 77 49 44 50 28 51 29 52 37 53 30 54
REMARK SMILES IDX 31 55 35 56 38 57 32 58 33 59 36 60 34 61 60 62 61 63 69 64
REMARK SMILES IDX 62 65 63 66 67 67 70 68 64 69 65 70 68 71 66 72 45 73 46 74
REMARK SMILES IDX 54 75 47 76 48 77 52 78 55 79 49 80 50 81 53 82 51 83
REMARK H PARENT 75 36 43 47
REMARK Flexibility Score: inf
ROOT
ATOM      1  C   UNL A   1      44.151  22.335  24.590  1.00  0.00     0.275 C 
ENDROOT
BRANCH   1   2
ATOM      2  C   UNL A   1      43.989  21.137  25.530  1.00  0.00     0.274 C 
BRANCH   2   3
ATOM      3  O   UNL A   1      42.955  20.227  25.109  1.00  0.00    -0.462 OA
BRANCH   3   4
ATOM      4  C   UNL A   1      42.501  19.244  25.930  1.00  0.00     0.310 C 
ATOM      5  O   UNL A   1      42.701  18.063  25.653  1.00  0.00    -0.252 OA
BRANCH   4   6
ATOM      6  C   UNL A   1      41.623  19.651  27.094  1.00  0.00     0.164 C 
BRANCH   6   7
ATOM      7  C   UNL A   1      40.544  20.632  26.734  1.00  0.00     0.035 A 
ATOM      8  C   UNL A   1      40.554  21.933  27.236  1.00  0.00     0.131 A 
ATOM      9  C   UNL A   1      39.492  20.263  25.895  1.00  0.00     0.131 A 
ATOM     10  F   UNL A   1      41.527  22.319  28.073  1.00  0.00    -0.207 F 
ATOM     11  C   UNL A   1      39.546  22.840  26.918  1.00  0.00     0.060 A 
ATOM     12  C   UNL A   1      38.478  21.151  25.561  1.00  0.00     0.060 A 
ATOM     13  F   UNL A   1      39.421  19.014  25.420  1.00  0.00    -0.207 F 
ATOM     14  C   UNL A   1      38.510  22.441  26.078  1.00  0.00     0.046 A 
ATOM     15  Cl  UNL A   1      37.249  23.542  25.688  1.00  0.00    -0.084 Cl
ENDBRANCH   6   7
ENDBRANCH   4   6
ENDBRANCH   3   4
ENDBRANCH   2   3
ENDBRANCH   1   2
BRANCH   1  16
ATOM     16  O   UNL A   1      43.356  23.449  25.024  1.00  0.00    -0.458 OA
BRANCH  16  17
ATOM     17  C   UNL A   1      44.054  24.597  25.210  1.00  0.00     0.338 C 
ATOM     18  O   UNL A   1      45.043  24.962  24.597  1.00  0.00    -0.246 OA
BRANCH  17  19
ATOM     19  C   UNL A   1      43.336  25.457  26.173  1.00  0.00     0.060 A 
ATOM     20  C   UNL A   1      43.814  26.758  26.365  1.00  0.00     0.016 A 
ATOM     21  C   UNL A   1      42.222  25.000  26.884  1.00  0.00     0.016 A 
ATOM     22  C   UNL A   1      43.207  27.594  27.303  1.00  0.00     0.010 A 
ATOM     23  C   UNL A   1      41.620  25.834  27.830  1.00  0.00     0.010 A 
ATOM     24  C   UNL A   1      42.131  27.122  28.067  1.00  0.00    -0.014 A 
BRANCH  24  25
ATOM     25  C   UNL A   1      41.651  27.902  29.230  1.00  0.00     0.031 A 
ATOM     26  C   UNL A   1      42.410  27.807  30.523  1.00  0.00     0.074 A 
ATOM     27  C   UNL A   1      40.574  28.700  29.141  1.00  0.00     0.049 A 
ATOM     28  N   UNL A   1      42.163  28.370  31.679  1.00  0.00    -0.248 NA
ATOM     29  C   UNL A   1      43.616  26.964  30.508  1.00  0.00     0.031 C 
ATOM     30  C   UNL A   1      39.789  28.928  27.932  1.00  0.00     0.029 A 
ATOM     31  N   UNL A   1      39.960  29.470  30.097  1.00  0.00    -0.354 N 
ATOM     32  C   UNL A   1      43.190  27.967  32.520  1.00  0.00     0.074 A 
ATOM     33  C   UNL A   1      44.038  27.074  31.758  1.00  0.00     0.031 C 
ATOM     34  C   UNL A   1      38.794  29.786  28.217  1.00  0.00     0.029 A 
ATOM     35  C   UNL A   1      38.857  30.142  29.635  1.00  0.00     0.049 A 
ATOM     36  H   UNL A   1      40.281  29.533  31.026  1.00  0.00     0.167 HD
ATOM     37  C   UNL A   1      43.418  28.321  33.807  1.00  0.00     0.037 A 
ATOM     38  C   UNL A   1      37.996  30.947  30.287  1.00  0.00     0.037 A 
ATOM     39  C   UNL A   1      42.559  29.176  34.580  1.00  0.00     0.049 A 
ATOM     40  C   UNL A   1      38.197  31.226  31.753  1.00  0.00     0.074 A 
ATOM     41  C   UNL A   1      42.681  29.554  35.905  1.00  0.00     0.029 A 
ATOM     42  N   UNL A   1      41.409  29.783  34.096  1.00  0.00    -0.354 N 
ATOM     43  N   UNL A   1      39.159  30.828  32.550  1.00  0.00    -0.248 NA
ATOM     44  C   UNL A   1      37.187  32.069  32.411  1.00  0.00     0.031 C 
ATOM     45  C   UNL A   1      41.582  30.354  36.236  1.00  0.00     0.029 A 
ATOM     46  C   UNL A   1      40.803  30.519  35.102  1.00  0.00     0.049 A 
ATOM     47  H   UNL A   1      41.073  29.702  33.174  1.00  0.00     0.167 HD
ATOM     48  C   UNL A   1      38.891  31.396  33.790  1.00  0.00     0.074 A 
ATOM     49  C   UNL A   1      37.676  32.169  33.640  1.00  0.00     0.031 C 
ATOM     50  C   UNL A   1      39.595  31.289  34.944  1.00  0.00     0.037 A 
BRANCH  37  51
ATOM     51  C   UNL A   1      44.644  27.755  34.458  1.00  0.00     0.064 A 
ATOM     52  C   UNL A   1      45.868  28.443  34.434  1.00  0.00     0.173 A 
ATOM     53  C   UNL A   1      44.599  26.517  35.116  1.00  0.00     0.173 A 
ATOM     54  F   UNL A   1      45.967  29.621  33.799  1.00  0.00    -0.203 F 
ATOM     55  C   UNL A   1      47.007  27.898  35.019  1.00  0.00     0.198 A 
ATOM     56  C   UNL A   1      45.734  25.989  35.725  1.00  0.00     0.198 A 
ATOM     57  F   UNL A   1      43.454  25.820  35.168  1.00  0.00    -0.203 F 
ATOM     58  F   UNL A   1      48.177  28.548  34.937  1.00  0.00    -0.200 F 
ATOM     59  C   UNL A   1      46.939  26.675  35.669  1.00  0.00     0.200 A 
ATOM     60  F   UNL A   1      45.665  24.810  36.359  1.00  0.00    -0.200 F 
ATOM     61  F   UNL A   1      48.036  26.152  36.232  1.00  0.00    -0.200 F 
ENDBRANCH  37  51
BRANCH  38  62
ATOM     62  C   UNL A   1      36.871  31.569  29.544  1.00  0.00     0.064 A 
ATOM     63  C   UNL A   1      36.876  32.941  29.259  1.00  0.00     0.173 A 
ATOM     64  C   UNL A   1      35.783  30.808  29.092  1.00  0.00     0.173 A 
ATOM     65  F   UNL A   1      37.882  33.712  29.696  1.00  0.00    -0.203 F 
ATOM     66  C   UNL A   1      35.832  33.530  28.547  1.00  0.00     0.198 A 
ATOM     67  C   UNL A   1      34.752  31.394  28.362  1.00  0.00     0.198 A 
ATOM     68  F   UNL A   1      35.731  29.493  29.347  1.00  0.00    -0.203 F 
ATOM     69  F   UNL A   1      35.847  34.848  28.310  1.00  0.00    -0.200 F 
ATOM     70  C   UNL A   1      34.776  32.755  28.092  1.00  0.00     0.200 A 
ATOM     71  F   UNL A   1      33.737  30.642  27.918  1.00  0.00    -0.200 F 
ATOM     72  F   UNL A   1      33.779  33.320  27.398  1.00  0.00    -0.200 F 
ENDBRANCH  38  62
BRANCH  50  73
ATOM     73  C   UNL A   1      39.096  32.054  36.137  1.00  0.00     0.064 A 
ATOM     74  C   UNL A   1      39.481  33.380  36.377  1.00  0.00     0.173 A 
ATOM     75  C   UNL A   1      38.175  31.467  37.020  1.00  0.00     0.173 A 
ATOM     76  F   UNL A   1      40.367  33.983  35.571  1.00  0.00    -0.203 F 
ATOM     77  C   UNL A   1      38.980  34.084  37.471  1.00  0.00     0.198 A 
ATOM     78  C   UNL A   1      37.655  32.183  38.095  1.00  0.00     0.198 A 
ATOM     79  F   UNL A   1      37.767  30.203  36.830  1.00  0.00    -0.203 F 
ATOM     80  F   UNL A   1      39.392  35.338  37.705  1.00  0.00    -0.200 F 
ATOM     81  C   UNL A   1      38.061  33.488  38.323  1.00  0.00     0.200 A 
ATOM     82  F   UNL A   1      36.757  31.609  38.909  1.00  0.00    -0.200 F 
ATOM     83  F   UNL A   1      37.573  34.170  39.368  1.00  0.00    -0.200 F 
ENDBRANCH  50  73
ENDBRANCH  24  25
ENDBRANCH  17  19
ENDBRANCH  16  17
ENDBRANCH   1  16
TORSDOF 12
ENDMDL
MODEL 3
REMARK VINA RESULT:     -11.2      0.458      7.700
REMARK SMILES O=C(Cc1c(F)cc(Cl)cc1F)OCCOC(=O)c1ccc(-c2c3nc(c(-c4c(F)c(F)c(F)c(F)c4F)c4ccc([nH]4)c(-c4c(F)c(F)c(F)c(F)c4F)c4nc(c(-c5c(F)c(F)c(F)c(F)c5F)c5ccc2[nH]5)C=C4)C=C3)cc1
REMARK SMILES IDX 15 1 14 2 13 3 2 4 1 5 3 6 4 7 5 8 11 9 6 10 7 11 10 12
REMARK SMILES IDX 12 13 8 14 9 15 16 16 17 17 18 18 19 19 20 20 81 21 21 22
REMARK SMILES IDX 80 23 22 24 23 25 24 26 74 27 25 28 79 29 73 30 75 31 26 32
REMARK SMILES IDX 78 33 72 34 71 35 27 37 59 38 39 39 58 40 40 41 43 42 57 43
REMARK SMILES IDX 76 44 41 45 42 46 56 48 77 49 44 50 28 51 29 52 37 53 30 54
REMARK SMILES IDX 31 55 35 56 38 57 32 58 33 59 36 60 34 61 60 62 61 63 69 64
REMARK SMILES IDX 62 65 63 66 67 67 70 68 64 69 65 70 68 71 66 72 45 73 46 74
REMARK SMILES IDX 54 75 47 76 48 77 52 78 55 79 49 80 50 81 53 82 51 83
REMARK H PARENT 75 36 43 47
REMARK Flexibility Score: inf
ROOT
ATOM      1  C   UNL A   1      44.154  22.398  24.479  1.00  0.00     0.275 C 
ENDROOT
BRANCH   1   2
ATOM      2  C   UNL A   1      43.942  21.284  25.507  1.00  0.00     0.274 C 
BRANCH   2   3
ATOM      3  O   UNL A   1      43.082  20.233  25.028  1.00  0.00    -0.462 OA
BRANCH   3   4
ATOM      4  C   UNL A   1      42.692  19.213  25.839  1.00  0.00     0.310 C 
ATOM      5  O   UNL A   1      42.944  18.049  25.536  1.00  0.00    -0.252 OA
BRANCH   4   6
ATOM      6  C   UNL A   1      41.817  19.556  27.026  1.00  0.00     0.164 C 
BRANCH   6   7
ATOM      7  C   UNL A   1      40.686  20.491  26.704  1.00  0.00     0.035 A 
ATOM      8  C   UNL A   1      39.625  20.089  25.893  1.00  0.00     0.131 A 
ATOM      9  C   UNL A   1      40.673  21.795  27.200  1.00  0.00     0.131 A 
ATOM     10  F   UNL A   1      39.616  18.857  25.368  1.00  0.00    -0.207 F 
ATOM     11  C   UNL A   1      38.584  20.959  25.580  1.00  0.00     0.060 A 
ATOM     12  C   UNL A   1      39.643  22.679  26.904  1.00  0.00     0.060 A 
ATOM     13  F   UNL A   1      41.689  22.236  27.952  1.00  0.00    -0.207 F 
ATOM     14  C   UNL A   1      38.599  22.254  26.090  1.00  0.00     0.046 A 
ATOM     15  Cl  UNL A   1      37.331  23.346  25.699  1.00  0.00    -0.084 Cl
ENDBRANCH   6   7
ENDBRANCH   4   6
ENDBRANCH   3   4
ENDBRANCH   2   3
ENDBRANCH   1   2
BRANCH   1  16
ATOM     16  O   UNL A   1      43.424  23.582  24.837  1.00  0.00    -0.458 OA
BRANCH  16  17
ATOM     17  C   UNL A   1      44.203  24.643  25.167  1.00  0.00     0.338 C 
ATOM     18  O   UNL A   1      45.242  24.985  24.631  1.00  0.00    -0.246 OA
BRANCH  17  19
ATOM     19  C   UNL A   1      43.514  25.455  26.190  1.00  0.00     0.060 A 
ATOM     20  C   UNL A   1      43.999  26.747  26.430  1.00  0.00     0.016 A 
ATOM     21  C   UNL A   1      42.422  24.965  26.912  1.00  0.00     0.016 A 
ATOM     22  C   UNL A   1      43.422  27.537  27.424  1.00  0.00     0.010 A 
ATOM     23  C   UNL A   1      41.850  25.753  27.914  1.00  0.00     0.010 A 
ATOM     24  C   UNL A   1      42.368  27.028  28.196  1.00  0.00    -0.014 A 
BRANCH  24  25
ATOM     25  C   UNL A   1      41.924  27.753  29.409  1.00  0.00     0.031 A 
ATOM     26  C   UNL A   1      40.693  28.608  29.326  1.00  0.00     0.074 A 
ATOM     27  C   UNL A   1      42.586  27.640  30.573  1.00  0.00     0.049 A 
ATOM     28  N   UNL A   1      40.133  29.356  30.243  1.00  0.00    -0.248 NA
ATOM     29  C   UNL A   1      39.994  28.617  28.031  1.00  0.00     0.031 C 
ATOM     30  C   UNL A   1      43.754  26.796  30.802  1.00  0.00     0.029 A 
ATOM     31  N   UNL A   1      42.357  28.243  31.784  1.00  0.00    -0.354 N 
ATOM     32  C   UNL A   1      39.009  29.907  29.643  1.00  0.00     0.074 A 
ATOM     33  C   UNL A   1      38.990  29.446  28.271  1.00  0.00     0.031 C 
ATOM     34  C   UNL A   1      44.143  26.934  32.082  1.00  0.00     0.029 A 
ATOM     35  C   UNL A   1      43.267  27.896  32.751  1.00  0.00     0.049 A 
ATOM     36  H   UNL A   1      41.611  28.867  31.944  1.00  0.00     0.167 HD
ATOM     37  C   UNL A   1      38.066  30.711  30.190  1.00  0.00     0.037 A 
ATOM     38  C   UNL A   1      43.379  28.314  34.026  1.00  0.00     0.037 A 
ATOM     39  C   UNL A   1      38.100  31.203  31.540  1.00  0.00     0.049 A 
ATOM     40  C   UNL A   1      42.391  29.309  34.577  1.00  0.00     0.074 A 
ATOM     41  C   UNL A   1      37.216  32.060  32.171  1.00  0.00     0.029 A 
ATOM     42  N   UNL A   1      39.079  30.884  32.471  1.00  0.00    -0.354 N 
ATOM     43  N   UNL A   1      41.340  29.841  34.002  1.00  0.00    -0.248 NA
ATOM     44  C   UNL A   1      42.609  29.760  35.960  1.00  0.00     0.031 C 
ATOM     45  C   UNL A   1      37.683  32.295  33.469  1.00  0.00     0.029 A 
ATOM     46  C   UNL A   1      38.830  31.541  33.665  1.00  0.00     0.049 A 
ATOM     47  H   UNL A   1      39.839  30.280  32.307  1.00  0.00     0.167 HD
ATOM     48  C   UNL A   1      40.754  30.662  34.957  1.00  0.00     0.074 A 
ATOM     49  C   UNL A   1      41.565  30.556  36.152  1.00  0.00     0.031 C 
ATOM     50  C   UNL A   1      39.640  31.428  34.852  1.00  0.00     0.037 A 
BRANCH  37  51
ATOM     51  C   UNL A   1      36.929  31.122  29.304  1.00  0.00     0.064 A 
ATOM     52  C   UNL A   1      36.838  32.425  28.790  1.00  0.00     0.173 A 
ATOM     53  C   UNL A   1      35.922  30.208  28.961  1.00  0.00     0.173 A 
ATOM     54  F   UNL A   1      37.766  33.341  29.105  1.00  0.00    -0.203 F 
ATOM     55  C   UNL A   1      35.765  32.805  27.988  1.00  0.00     0.198 A 
ATOM     56  C   UNL A   1      34.865  30.584  28.136  1.00  0.00     0.198 A 
ATOM     57  F   UNL A   1      35.962  28.950  29.426  1.00  0.00    -0.203 F 
ATOM     58  F   UNL A   1      35.671  34.069  27.552  1.00  0.00    -0.200 F 
ATOM     59  C   UNL A   1      34.783  31.884  27.657  1.00  0.00     0.200 A 
ATOM     60  F   UNL A   1      33.920  29.690  27.811  1.00  0.00    -0.200 F 
ATOM     61  F   UNL A   1      33.751  32.251  26.886  1.00  0.00    -0.200 F 
ENDBRANCH  37  51
BRANCH  38  62
ATOM     62  C   UNL A   1      44.463  27.769  34.882  1.00  0.00     0.064 A 
ATOM     63  C   UNL A   1      44.272  26.588  35.611  1.00  0.00     0.173 A 
ATOM     64  C   UNL A   1      45.710  28.403  34.975  1.00  0.00     0.173 A 
ATOM     65  F   UNL A   1      43.086  25.963  35.574  1.00  0.00    -0.203 F 
ATOM     66  C   UNL A   1      45.290  26.060  36.403  1.00  0.00     0.198 A 
ATOM     67  C   UNL A   1      46.734  27.863  35.749  1.00  0.00     0.198 A 
ATOM     68  F   UNL A   1      45.938  29.539  34.301  1.00  0.00    -0.203 F 
ATOM     69  F   UNL A   1      45.074  24.945  37.112  1.00  0.00    -0.200 F 
ATOM     70  C   UNL A   1      46.523  26.693  36.465  1.00  0.00     0.200 A 
ATOM     71  F   UNL A   1      47.926  28.472  35.801  1.00  0.00    -0.200 F 
ATOM     72  F   UNL A   1      47.504  26.179  37.217  1.00  0.00    -0.200 F 
ENDBRANCH  38  62
BRANCH  50  73
ATOM     73  C   UNL A   1      39.201  32.190  36.070  1.00  0.00     0.064 A 
ATOM     74  C   UNL A   1      38.321  31.636  37.010  1.00  0.00     0.173 A 
ATOM     75  C   UNL A   1      39.714  33.472  36.327  1.00  0.00     0.173 A 
ATOM     76  F   UNL A   1      37.792  30.421  36.806  1.00  0.00    -0.203 F 
ATOM     77  C   UNL A   1      37.952  32.346  38.151  1.00  0.00     0.198 A 
ATOM     78  C   UNL A   1      39.367  34.166  37.483  1.00  0.00     0.198 A 
ATOM     79  F   UNL A   1      40.568  34.044  35.464  1.00  0.00    -0.203 F 
ATOM     80  F   UNL A   1      37.078  31.813  39.016  1.00  0.00    -0.200 F 
ATOM     81  C   UNL A   1      38.482  33.606  38.390  1.00  0.00     0.200 A 
ATOM     82  F   UNL A   1      39.891  35.377  37.718  1.00  0.00    -0.200 F 
ATOM     83  F   UNL A   1      38.134  34.282  39.494  1.00  0.00    -0.200 F 
ENDBRANCH  50  73
ENDBRANCH  24  25
ENDBRANCH  17  19
ENDBRANCH  16  17
ENDBRANCH   1  16
TORSDOF 12
ENDMDL
