MODEL 1
REMARK VINA RESULT:     -12.0      0.000      0.000
REMARK SMILES Nc1nc(Nc2ccc(C(=O)OCCOC(=O)c3ccc(-c4c5nc(c(-c6c(F)c(F)c(F)c(F)c6F)c6ccc([nH]6)c(-c6c(F)c(F)c(F)c(F)c6F)c6nc(c(-c7c(F)c(F)c(F)c(F)c7F)c7ccc4[nH]7)C=C6)C=C5)cc3)cc2)ccc1[N+](=O)[O-]
REMARK SMILES IDX 13 1 12 2 10 3 11 4 9 5 6 6 7 7 82 8 8 9 81 10 5 11 4 13
REMARK SMILES IDX 2 14 3 15 85 16 84 17 83 18 1 19 86 22 87 23 88 24 14 25
REMARK SMILES IDX 15 26 16 27 17 28 18 29 19 30 80 31 20 32 79 33 21 34 22 35
REMARK SMILES IDX 23 36 73 37 24 38 78 39 72 40 74 41 25 42 77 43 71 44 70 45
REMARK SMILES IDX 26 47 58 48 38 49 57 50 39 51 42 52 56 53 75 54 40 55 41 56
REMARK SMILES IDX 55 58 76 59 43 60 27 61 28 62 36 63 29 64 30 65 34 66 37 67
REMARK SMILES IDX 31 68 32 69 35 70 33 71 59 72 60 73 68 74 61 75 62 76 66 77
REMARK SMILES IDX 69 78 63 79 64 80 67 81 65 82 44 83 45 84 53 85 46 86 47 87
REMARK SMILES IDX 51 88 54 89 48 90 49 91 52 92 50 93
REMARK H PARENT 5 12 1 20 1 21 74 46 42 57
REMARK Flexibility Score: inf
ROOT
ATOM      1  C   UNL A   1      42.768  20.894  26.000  1.00  0.00     0.275 C 
ENDROOT
BRANCH   1   2
ATOM      2  O   UNL A   1      41.417  21.286  25.682  1.00  0.00    -0.458 OA
BRANCH   2   3
ATOM      3  C   UNL A   1      40.557  21.307  26.728  1.00  0.00     0.338 C 
ATOM      4  O   UNL A   1      40.795  20.957  27.875  1.00  0.00    -0.246 OA
BRANCH   3   5
ATOM      5  C   UNL A   1      39.259  21.900  26.339  1.00  0.00     0.060 A 
ATOM      6  C   UNL A   1      36.902  23.019  25.297  1.00  0.00     0.040 A 
ATOM      7  C   UNL A   1      37.192  21.671  25.084  1.00  0.00     0.027 A 
ATOM      8  C   UNL A   1      37.788  23.790  26.065  1.00  0.00     0.027 A 
ATOM      9  C   UNL A   1      38.377  21.130  25.572  1.00  0.00     0.018 A 
ATOM     10  C   UNL A   1      38.952  23.232  26.609  1.00  0.00     0.018 A 
BRANCH   6  11
ATOM     11  N   UNL A   1      35.851  23.603  24.562  1.00  0.00    -0.340 N 
ATOM     12  H   UNL A   1      36.035  23.891  23.639  1.00  0.00     0.168 HD
BRANCH  11  13
ATOM     13  C   UNL A   1      34.552  23.799  25.070  1.00  0.00     0.133 A 
ATOM     14  C   UNL A   1      32.468  22.910  25.677  1.00  0.00     0.204 A 
ATOM     15  N   UNL A   1      33.708  22.746  25.175  1.00  0.00    -0.207 NA
ATOM     16  C   UNL A   1      32.023  24.163  26.081  1.00  0.00     0.311 A 
ATOM     17  C   UNL A   1      32.879  25.264  25.964  1.00  0.00     0.093 A 
ATOM     18  C   UNL A   1      34.157  25.078  25.441  1.00  0.00     0.054 A 
BRANCH  14  19
ATOM     19  N   UNL A   1      31.708  21.761  25.646  1.00  0.00    -0.378 N 
ATOM     20  H   UNL A   1      31.606  21.262  24.804  1.00  0.00     0.158 HD
ATOM     21  H   UNL A   1      31.267  21.441  26.465  1.00  0.00     0.158 HD
ENDBRANCH  14  19
BRANCH  16  22
ATOM     22  N   UNL A   1      30.692  24.353  26.643  1.00  0.00     0.066 N 
ATOM     23  O   UNL A   1      30.137  25.441  26.432  1.00  0.00    -0.258 OA
ATOM     24  O   UNL A   1      30.202  23.444  27.331  1.00  0.00    -0.258 OA
ENDBRANCH  16  22
ENDBRANCH  11  13
ENDBRANCH   6  11
ENDBRANCH   3   5
ENDBRANCH   2   3
ENDBRANCH   1   2
BRANCH   1  25
ATOM     25  C   UNL A   1      43.789  21.746  25.245  1.00  0.00     0.275 C 
BRANCH  25  26
ATOM     26  O   UNL A   1      43.167  22.933  24.716  1.00  0.00    -0.458 OA
BRANCH  26  27
ATOM     27  C   UNL A   1      43.873  24.074  24.868  1.00  0.00     0.338 C 
ATOM     28  O   UNL A   1      44.921  24.383  24.327  1.00  0.00    -0.246 OA
BRANCH  27  29
ATOM     29  C   UNL A   1      43.170  24.992  25.780  1.00  0.00     0.060 A 
ATOM     30  C   UNL A   1      43.467  26.347  25.717  1.00  0.00     0.016 A 
ATOM     31  C   UNL A   1      42.383  24.500  26.817  1.00  0.00     0.016 A 
ATOM     32  C   UNL A   1      43.113  27.193  26.765  1.00  0.00     0.010 A 
ATOM     33  C   UNL A   1      41.905  25.383  27.796  1.00  0.00     0.010 A 
ATOM     34  C   UNL A   1      42.307  26.732  27.814  1.00  0.00    -0.014 A 
BRANCH  34  35
ATOM     35  C   UNL A   1      41.913  27.646  28.929  1.00  0.00     0.031 A 
ATOM     36  C   UNL A   1      42.754  27.733  30.180  1.00  0.00     0.074 A 
ATOM     37  C   UNL A   1      40.811  28.419  28.828  1.00  0.00     0.049 A 
ATOM     38  N   UNL A   1      42.484  28.308  31.327  1.00  0.00    -0.248 NA
ATOM     39  C   UNL A   1      44.069  27.073  30.143  1.00  0.00     0.031 C 
ATOM     40  C   UNL A   1      39.924  28.486  27.665  1.00  0.00     0.029 A 
ATOM     41  N   UNL A   1      40.249  29.305  29.717  1.00  0.00    -0.354 N 
ATOM     42  C   UNL A   1      43.559  28.024  32.161  1.00  0.00     0.074 A 
ATOM     43  C   UNL A   1      44.488  27.224  31.392  1.00  0.00     0.031 C 
ATOM     44  C   UNL A   1      38.964  29.394  27.890  1.00  0.00     0.029 A 
ATOM     45  C   UNL A   1      39.097  29.895  29.252  1.00  0.00     0.049 A 
ATOM     46  H   UNL A   1      40.635  29.499  30.602  1.00  0.00     0.167 HD
ATOM     47  C   UNL A   1      43.753  28.398  33.450  1.00  0.00     0.037 A 
ATOM     48  C   UNL A   1      38.211  30.703  29.864  1.00  0.00     0.037 A 
ATOM     49  C   UNL A   1      42.856  29.247  34.193  1.00  0.00     0.049 A 
ATOM     50  C   UNL A   1      38.427  31.070  31.304  1.00  0.00     0.074 A 
ATOM     51  C   UNL A   1      42.973  29.693  35.500  1.00  0.00     0.029 A 
ATOM     52  N   UNL A   1      41.685  29.793  33.690  1.00  0.00    -0.354 N 
ATOM     53  N   UNL A   1      39.415  30.746  32.101  1.00  0.00    -0.248 NA
ATOM     54  C   UNL A   1      37.392  31.898  31.937  1.00  0.00     0.031 C 
ATOM     55  C   UNL A   1      41.853  30.478  35.798  1.00  0.00     0.029 A 
ATOM     56  C   UNL A   1      41.064  30.562  34.663  1.00  0.00     0.049 A 
ATOM     57  H   UNL A   1      41.345  29.656  32.776  1.00  0.00     0.167 HD
ATOM     58  C   UNL A   1      39.131  31.340  33.321  1.00  0.00     0.074 A 
ATOM     59  C   UNL A   1      37.887  32.064  33.154  1.00  0.00     0.031 C 
ATOM     60  C   UNL A   1      39.832  31.285  34.479  1.00  0.00     0.037 A 
BRANCH  47  61
ATOM     61  C   UNL A   1      44.966  27.867  34.160  1.00  0.00     0.064 A 
ATOM     62  C   UNL A   1      44.955  26.642  34.842  1.00  0.00     0.173 A 
ATOM     63  C   UNL A   1      46.177  28.577  34.111  1.00  0.00     0.173 A 
ATOM     64  F   UNL A   1      43.823  25.928  34.928  1.00  0.00    -0.203 F 
ATOM     65  C   UNL A   1      46.102  26.159  35.468  1.00  0.00     0.198 A 
ATOM     66  C   UNL A   1      47.330  28.077  34.712  1.00  0.00     0.198 A 
ATOM     67  F   UNL A   1      46.247  29.750  33.465  1.00  0.00    -0.203 F 
ATOM     68  F   UNL A   1      46.056  25.006  36.150  1.00  0.00    -0.200 F 
ATOM     69  C   UNL A   1      47.290  26.873  35.396  1.00  0.00     0.200 A 
ATOM     70  F   UNL A   1      48.479  28.761  34.628  1.00  0.00    -0.200 F 
ATOM     71  F   UNL A   1      48.395  26.400  35.990  1.00  0.00    -0.200 F 
ENDBRANCH  47  61
BRANCH  48  72
ATOM     72  C   UNL A   1      37.008  31.178  29.128  1.00  0.00     0.064 A 
ATOM     73  C   UNL A   1      35.919  30.325  28.898  1.00  0.00     0.173 A 
ATOM     74  C   UNL A   1      36.922  32.490  28.641  1.00  0.00     0.173 A 
ATOM     75  F   UNL A   1      35.964  29.053  29.320  1.00  0.00    -0.203 F 
ATOM     76  C   UNL A   1      34.797  30.765  28.198  1.00  0.00     0.198 A 
ATOM     77  C   UNL A   1      35.785  32.939  27.972  1.00  0.00     0.198 A 
ATOM     78  F   UNL A   1      37.937  33.347  28.831  1.00  0.00    -0.203 F 
ATOM     79  F   UNL A   1      33.790  29.916  27.951  1.00  0.00    -0.200 F 
ATOM     80  C   UNL A   1      34.727  32.073  27.744  1.00  0.00     0.200 A 
ATOM     81  F   UNL A   1      35.716  34.209  27.551  1.00  0.00    -0.200 F 
ATOM     82  F   UNL A   1      33.643  32.498  27.081  1.00  0.00    -0.200 F 
ENDBRANCH  48  72
BRANCH  60  83
ATOM     83  C   UNL A   1      39.294  32.063  35.642  1.00  0.00     0.064 A 
ATOM     84  C   UNL A   1      38.414  31.487  36.570  1.00  0.00     0.173 A 
ATOM     85  C   UNL A   1      39.681  33.397  35.843  1.00  0.00     0.173 A 
ATOM     86  F   UNL A   1      37.999  30.221  36.411  1.00  0.00    -0.203 F 
ATOM     87  C   UNL A   1      37.920  32.225  37.642  1.00  0.00     0.198 A 
ATOM     88  C   UNL A   1      39.209  34.124  36.932  1.00  0.00     0.198 A 
ATOM     89  F   UNL A   1      40.523  33.992  34.986  1.00  0.00    -0.203 F 
ATOM     90  F   UNL A   1      37.041  31.670  38.488  1.00  0.00    -0.200 F 
ATOM     91  C   UNL A   1      38.323  33.541  37.825  1.00  0.00     0.200 A 
ATOM     92  F   UNL A   1      39.607  35.390  37.114  1.00  0.00    -0.200 F 
ATOM     93  F   UNL A   1      37.849  34.249  38.860  1.00  0.00    -0.200 F 
ENDBRANCH  60  83
ENDBRANCH  34  35
ENDBRANCH  27  29
ENDBRANCH  26  27
ENDBRANCH  25  26
ENDBRANCH   1  25
TORSDOF 15
ENDMDL
MODEL 2
REMARK VINA RESULT:     -11.9      3.503      8.295
REMARK SMILES Nc1nc(Nc2ccc(C(=O)OCCOC(=O)c3ccc(-c4c5nc(c(-c6c(F)c(F)c(F)c(F)c6F)c6ccc([nH]6)c(-c6c(F)c(F)c(F)c(F)c6F)c6nc(c(-c7c(F)c(F)c(F)c(F)c7F)c7ccc4[nH]7)C=C6)C=C5)cc3)cc2)ccc1[N+](=O)[O-]
REMARK SMILES IDX 13 1 12 2 10 3 11 4 9 5 6 6 7 7 82 8 8 9 81 10 5 11 4 13
REMARK SMILES IDX 2 14 3 15 85 16 84 17 83 18 1 19 86 22 87 23 88 24 14 25
REMARK SMILES IDX 15 26 16 27 17 28 18 29 19 30 80 31 20 32 79 33 21 34 22 35
REMARK SMILES IDX 23 36 73 37 24 38 78 39 72 40 74 41 25 42 77 43 71 44 70 45
REMARK SMILES IDX 26 47 58 48 38 49 57 50 39 51 42 52 56 53 75 54 40 55 41 56
REMARK SMILES IDX 55 58 76 59 43 60 27 61 28 62 36 63 29 64 30 65 34 66 37 67
REMARK SMILES IDX 31 68 32 69 35 70 33 71 59 72 60 73 68 74 61 75 62 76 66 77
REMARK SMILES IDX 69 78 63 79 64 80 67 81 65 82 44 83 45 84 53 85 46 86 47 87
REMARK SMILES IDX 51 88 54 89 48 90 49 91 52 92 50 93
REMARK H PARENT 5 12 1 20 1 21 74 46 42 57
REMARK Flexibility Score: inf
ROOT
ATOM      1  C   UNL A   1      31.732  29.385  24.635  1.00  0.00     0.275 C 
ENDROOT
BRANCH   1   2
ATOM      2  O   UNL A   1      33.006  28.709  24.675  1.00  0.00    -0.458 OA
BRANCH   2   3
ATOM      3  C   UNL A   1      33.328  28.011  23.559  1.00  0.00     0.338 C 
ATOM      4  O   UNL A   1      33.470  28.463  22.433  1.00  0.00    -0.246 OA
BRANCH   3   5
ATOM      5  C   UNL A   1      33.579  26.588  23.876  1.00  0.00     0.060 A 
ATOM      6  C   UNL A   1      34.344  23.978  24.579  1.00  0.00     0.040 A 
ATOM      7  C   UNL A   1      34.052  24.914  25.570  1.00  0.00     0.027 A 
ATOM      8  C   UNL A   1      34.216  24.354  23.233  1.00  0.00     0.027 A 
ATOM      9  C   UNL A   1      33.708  26.216  25.218  1.00  0.00     0.018 A 
ATOM     10  C   UNL A   1      33.809  25.645  22.875  1.00  0.00     0.018 A 
BRANCH   6  11
ATOM     11  N   UNL A   1      34.957  22.768  24.959  1.00  0.00    -0.340 N 
ATOM     12  H   UNL A   1      35.834  22.812  25.404  1.00  0.00     0.168 HD
BRANCH  11  13
ATOM     13  C   UNL A   1      34.390  21.497  24.740  1.00  0.00     0.133 A 
ATOM     14  C   UNL A   1      34.625  19.163  24.693  1.00  0.00     0.204 A 
ATOM     15  N   UNL A   1      35.154  20.389  24.879  1.00  0.00    -0.207 NA
ATOM     16  C   UNL A   1      33.290  19.011  24.340  1.00  0.00     0.311 A 
ATOM     17  C   UNL A   1      32.490  20.148  24.178  1.00  0.00     0.093 A 
ATOM     18  C   UNL A   1      33.054  21.407  24.371  1.00  0.00     0.054 A 
BRANCH  14  19
ATOM     19  N   UNL A   1      35.549  18.146  24.795  1.00  0.00    -0.378 N 
ATOM     20  H   UNL A   1      35.634  17.641  25.635  1.00  0.00     0.158 HD
ATOM     21  H   UNL A   1      36.123  17.926  24.027  1.00  0.00     0.158 HD
ENDBRANCH  14  19
BRANCH  16  22
ATOM     22  N   UNL A   1      32.698  17.692  24.155  1.00  0.00     0.066 N 
ATOM     23  O   UNL A   1      33.069  17.037  23.168  1.00  0.00    -0.258 OA
ATOM     24  O   UNL A   1      31.834  17.310  24.959  1.00  0.00    -0.258 OA
ENDBRANCH  16  22
ENDBRANCH  11  13
ENDBRANCH   6  11
ENDBRANCH   3   5
ENDBRANCH   2   3
ENDBRANCH   1   2
BRANCH   1  25
ATOM     25  C   UNL A   1      31.622  30.431  25.745  1.00  0.00     0.275 C 
BRANCH  25  26
ATOM     26  O   UNL A   1      32.653  30.236  26.732  1.00  0.00    -0.458 OA
BRANCH  26  27
ATOM     27  C   UNL A   1      33.242  31.363  27.186  1.00  0.00     0.338 C 
ATOM     28  O   UNL A   1      32.756  32.478  27.272  1.00  0.00    -0.246 OA
BRANCH  27  29
ATOM     29  C   UNL A   1      34.611  31.074  27.645  1.00  0.00     0.060 A 
ATOM     30  C   UNL A   1      34.940  29.764  27.968  1.00  0.00     0.016 A 
ATOM     31  C   UNL A   1      35.494  32.107  27.945  1.00  0.00     0.016 A 
ATOM     32  C   UNL A   1      36.074  29.492  28.727  1.00  0.00     0.010 A 
ATOM     33  C   UNL A   1      36.707  31.811  28.583  1.00  0.00     0.010 A 
ATOM     34  C   UNL A   1      36.991  30.507  29.030  1.00  0.00    -0.014 A 
BRANCH  34  35
ATOM     35  C   UNL A   1      38.218  30.210  29.831  1.00  0.00     0.031 A 
ATOM     36  C   UNL A   1      39.315  29.345  29.257  1.00  0.00     0.074 A 
ATOM     37  C   UNL A   1      38.371  30.722  31.071  1.00  0.00     0.049 A 
ATOM     38  N   UNL A   1      40.355  28.815  29.854  1.00  0.00    -0.248 NA
ATOM     39  C   UNL A   1      39.225  29.023  27.824  1.00  0.00     0.031 C 
ATOM     40  C   UNL A   1      37.425  31.613  31.744  1.00  0.00     0.029 A 
ATOM     41  N   UNL A   1      39.386  30.571  31.988  1.00  0.00    -0.354 N 
ATOM     42  C   UNL A   1      41.000  28.047  28.891  1.00  0.00     0.074 A 
ATOM     43  C   UNL A   1      40.236  28.178  27.668  1.00  0.00     0.031 C 
ATOM     44  C   UNL A   1      37.920  31.968  32.938  1.00  0.00     0.029 A 
ATOM     45  C   UNL A   1      39.165  31.245  33.166  1.00  0.00     0.049 A 
ATOM     46  H   UNL A   1      40.192  30.034  31.816  1.00  0.00     0.167 HD
ATOM     47  C   UNL A   1      42.126  27.303  29.015  1.00  0.00     0.037 A 
ATOM     48  C   UNL A   1      39.851  31.242  34.325  1.00  0.00     0.037 A 
ATOM     49  C   UNL A   1      42.920  27.224  30.216  1.00  0.00     0.049 A 
ATOM     50  C   UNL A   1      41.073  30.378  34.451  1.00  0.00     0.074 A 
ATOM     51  C   UNL A   1      44.085  26.508  30.436  1.00  0.00     0.029 A 
ATOM     52  N   UNL A   1      42.639  27.898  31.395  1.00  0.00    -0.354 N 
ATOM     53  N   UNL A   1      41.639  29.610  33.553  1.00  0.00    -0.248 NA
ATOM     54  C   UNL A   1      41.740  30.363  35.760  1.00  0.00     0.031 C 
ATOM     55  C   UNL A   1      44.487  26.720  31.759  1.00  0.00     0.029 A 
ATOM     56  C   UNL A   1      43.602  27.605  32.349  1.00  0.00     0.049 A 
ATOM     57  H   UNL A   1      41.869  28.497  31.534  1.00  0.00     0.167 HD
ATOM     58  C   UNL A   1      42.733  29.033  34.180  1.00  0.00     0.074 A 
ATOM     59  C   UNL A   1      42.766  29.557  35.530  1.00  0.00     0.031 C 
ATOM     60  C   UNL A   1      43.627  28.143  33.685  1.00  0.00     0.037 A 
BRANCH  47  61
ATOM     61  C   UNL A   1      42.559  26.482  27.833  1.00  0.00     0.064 A 
ATOM     62  C   UNL A   1      42.060  25.193  27.598  1.00  0.00     0.173 A 
ATOM     63  C   UNL A   1      43.452  27.019  26.892  1.00  0.00     0.173 A 
ATOM     64  F   UNL A   1      41.212  24.628  28.470  1.00  0.00    -0.203 F 
ATOM     65  C   UNL A   1      42.456  24.464  26.478  1.00  0.00     0.198 A 
ATOM     66  C   UNL A   1      43.824  26.300  25.758  1.00  0.00     0.198 A 
ATOM     67  F   UNL A   1      43.954  28.252  27.063  1.00  0.00    -0.203 F 
ATOM     68  F   UNL A   1      41.999  23.217  26.297  1.00  0.00    -0.200 F 
ATOM     69  C   UNL A   1      43.332  25.020  25.556  1.00  0.00     0.200 A 
ATOM     70  F   UNL A   1      44.656  26.846  24.862  1.00  0.00    -0.200 F 
ATOM     71  F   UNL A   1      43.702  24.321  24.475  1.00  0.00    -0.200 F 
ENDBRANCH  47  61
BRANCH  48  72
ATOM     72  C   UNL A   1      39.365  32.047  35.478  1.00  0.00     0.064 A 
ATOM     73  C   UNL A   1      39.754  33.384  35.639  1.00  0.00     0.173 A 
ATOM     74  C   UNL A   1      38.504  31.499  36.440  1.00  0.00     0.173 A 
ATOM     75  F   UNL A   1      40.598  33.947  34.762  1.00  0.00    -0.203 F 
ATOM     76  C   UNL A   1      39.311  34.136  36.726  1.00  0.00     0.198 A 
ATOM     77  C   UNL A   1      38.033  32.261  37.506  1.00  0.00     0.198 A 
ATOM     78  F   UNL A   1      38.103  30.222  36.334  1.00  0.00    -0.203 F 
ATOM     79  F   UNL A   1      39.735  35.397  36.882  1.00  0.00    -0.200 F 
ATOM     80  C   UNL A   1      38.443  33.577  37.653  1.00  0.00     0.200 A 
ATOM     81  F   UNL A   1      37.182  31.722  38.388  1.00  0.00    -0.200 F 
ATOM     82  F   UNL A   1      38.009  34.305  38.691  1.00  0.00    -0.200 F 
ENDBRANCH  48  72
BRANCH  60  83
ATOM     83  C   UNL A   1      44.739  27.714  34.594  1.00  0.00     0.064 A 
ATOM     84  C   UNL A   1      45.942  28.432  34.676  1.00  0.00     0.173 A 
ATOM     85  C   UNL A   1      44.591  26.582  35.411  1.00  0.00     0.173 A 
ATOM     86  F   UNL A   1      46.138  29.509  33.902  1.00  0.00    -0.203 F 
ATOM     87  C   UNL A   1      46.966  28.017  35.523  1.00  0.00     0.198 A 
ATOM     88  C   UNL A   1      45.606  26.187  36.277  1.00  0.00     0.198 A 
ATOM     89  F   UNL A   1      43.460  25.865  35.372  1.00  0.00    -0.203 F 
ATOM     90  F   UNL A   1      48.126  28.689  35.549  1.00  0.00    -0.200 F 
ATOM     91  C   UNL A   1      46.795  26.899  36.327  1.00  0.00     0.200 A 
ATOM     92  F   UNL A   1      45.435  25.114  37.062  1.00  0.00    -0.200 F 
ATOM     93  F   UNL A   1      47.781  26.504  37.144  1.00  0.00    -0.200 F 
ENDBRANCH  60  83
ENDBRANCH  34  35
ENDBRANCH  27  29
ENDBRANCH  26  27
ENDBRANCH  25  26
ENDBRANCH   1  25
TORSDOF 15
ENDMDL
MODEL 3
REMARK VINA RESULT:     -11.7      3.963      9.328
REMARK SMILES Nc1nc(Nc2ccc(C(=O)OCCOC(=O)c3ccc(-c4c5nc(c(-c6c(F)c(F)c(F)c(F)c6F)c6ccc([nH]6)c(-c6c(F)c(F)c(F)c(F)c6F)c6nc(c(-c7c(F)c(F)c(F)c(F)c7F)c7ccc4[nH]7)C=C6)C=C5)cc3)cc2)ccc1[N+](=O)[O-]
REMARK SMILES IDX 13 1 12 2 10 3 11 4 9 5 6 6 7 7 82 8 8 9 81 10 5 11 4 13
REMARK SMILES IDX 2 14 3 15 85 16 84 17 83 18 1 19 86 22 87 23 88 24 14 25
REMARK SMILES IDX 15 26 16 27 17 28 18 29 19 30 80 31 20 32 79 33 21 34 22 35
REMARK SMILES IDX 23 36 73 37 24 38 78 39 72 40 74 41 25 42 77 43 71 44 70 45
REMARK SMILES IDX 26 47 58 48 38 49 57 50 39 51 42 52 56 53 75 54 40 55 41 56
REMARK SMILES IDX 55 58 76 59 43 60 27 61 28 62 36 63 29 64 30 65 34 66 37 67
REMARK SMILES IDX 31 68 32 69 35 70 33 71 59 72 60 73 68 74 61 75 62 76 66 77
REMARK SMILES IDX 69 78 63 79 64 80 67 81 65 82 44 83 45 84 53 85 46 86 47 87
REMARK SMILES IDX 51 88 54 89 48 90 49 91 52 92 50 93
REMARK H PARENT 5 12 1 20 1 21 74 46 42 57
REMARK Flexibility Score: inf
ROOT
ATOM      1  C   UNL A   1      33.994  35.291  28.581  1.00  0.00     0.275 C 
ENDROOT
BRANCH   1   2
ATOM      2  O   UNL A   1      33.705  33.882  28.472  1.00  0.00    -0.458 OA
BRANCH   2   3
ATOM      3  C   UNL A   1      34.786  33.066  28.461  1.00  0.00     0.338 C 
ATOM      4  O   UNL A   1      35.889  33.312  28.926  1.00  0.00    -0.246 OA
BRANCH   3   5
ATOM      5  C   UNL A   1      34.455  31.752  27.869  1.00  0.00     0.060 A 
ATOM      6  C   UNL A   1      33.630  29.213  26.994  1.00  0.00     0.040 A 
ATOM      7  C   UNL A   1      32.759  30.299  26.914  1.00  0.00     0.027 A 
ATOM      8  C   UNL A   1      34.929  29.420  27.485  1.00  0.00     0.027 A 
ATOM      9  C   UNL A   1      33.159  31.547  27.381  1.00  0.00     0.018 A 
ATOM     10  C   UNL A   1      35.355  30.688  27.899  1.00  0.00     0.018 A 
BRANCH   6  11
ATOM     11  N   UNL A   1      33.111  27.920  26.783  1.00  0.00    -0.340 N 
ATOM     12  H   UNL A   1      32.700  27.455  27.546  1.00  0.00     0.168 HD
BRANCH  11  13
ATOM     13  C   UNL A   1      33.146  27.253  25.542  1.00  0.00     0.133 A 
ATOM     14  C   UNL A   1      32.409  27.084  23.321  1.00  0.00     0.204 A 
ATOM     15  N   UNL A   1      32.375  27.696  24.522  1.00  0.00    -0.207 NA
ATOM     16  C   UNL A   1      33.222  25.977  23.109  1.00  0.00     0.311 A 
ATOM     17  C   UNL A   1      34.014  25.499  24.159  1.00  0.00     0.093 A 
ATOM     18  C   UNL A   1      33.965  26.141  25.394  1.00  0.00     0.054 A 
BRANCH  14  19
ATOM     19  N   UNL A   1      31.511  27.604  22.415  1.00  0.00    -0.378 N 
ATOM     20  H   UNL A   1      31.239  28.549  22.479  1.00  0.00     0.158 HD
ATOM     21  H   UNL A   1      31.141  27.032  21.706  1.00  0.00     0.158 HD
ENDBRANCH  14  19
BRANCH  16  22
ATOM     22  N   UNL A   1      33.284  25.317  21.812  1.00  0.00     0.066 N 
ATOM     23  O   UNL A   1      33.350  24.078  21.809  1.00  0.00    -0.258 OA
ATOM     24  O   UNL A   1      33.309  26.017  20.789  1.00  0.00    -0.258 OA
ENDBRANCH  16  22
ENDBRANCH  11  13
ENDBRANCH   6  11
ENDBRANCH   3   5
ENDBRANCH   2   3
ENDBRANCH   1   2
BRANCH   1  25
ATOM     25  C   UNL A   1      32.920  36.020  29.389  1.00  0.00     0.275 C 
BRANCH  25  26
ATOM     26  O   UNL A   1      32.477  35.208  30.493  1.00  0.00    -0.458 OA
BRANCH  26  27
ATOM     27  C   UNL A   1      32.647  35.752  31.718  1.00  0.00     0.338 C 
ATOM     28  O   UNL A   1      32.001  36.646  32.236  1.00  0.00    -0.246 OA
BRANCH  27  29
ATOM     29  C   UNL A   1      33.739  35.069  32.431  1.00  0.00     0.060 A 
ATOM     30  C   UNL A   1      34.989  35.674  32.469  1.00  0.00     0.016 A 
ATOM     31  C   UNL A   1      33.588  33.760  32.880  1.00  0.00     0.016 A 
ATOM     32  C   UNL A   1      36.118  34.934  32.807  1.00  0.00     0.010 A 
ATOM     33  C   UNL A   1      34.706  33.063  33.358  1.00  0.00     0.010 A 
ATOM     34  C   UNL A   1      35.996  33.621  33.279  1.00  0.00    -0.014 A 
BRANCH  34  35
ATOM     35  C   UNL A   1      37.209  32.833  33.658  1.00  0.00     0.031 A 
ATOM     36  C   UNL A   1      37.874  33.049  34.996  1.00  0.00     0.074 A 
ATOM     37  C   UNL A   1      37.718  31.907  32.817  1.00  0.00     0.049 A 
ATOM     38  N   UNL A   1      39.033  32.615  35.429  1.00  0.00    -0.248 NA
ATOM     39  C   UNL A   1      37.146  33.873  35.974  1.00  0.00     0.031 C 
ATOM     40  C   UNL A   1      37.161  31.547  31.512  1.00  0.00     0.029 A 
ATOM     41  N   UNL A   1      38.818  31.090  32.938  1.00  0.00    -0.354 N 
ATOM     42  C   UNL A   1      39.199  33.165  36.695  1.00  0.00     0.074 A 
ATOM     43  C   UNL A   1      38.024  33.967  36.963  1.00  0.00     0.031 C 
ATOM     44  C   UNL A   1      37.888  30.557  30.976  1.00  0.00     0.029 A 
ATOM     45  C   UNL A   1      39.026  30.284  31.844  1.00  0.00     0.049 A 
ATOM     46  H   UNL A   1      39.401  31.083  33.732  1.00  0.00     0.167 HD
ATOM     47  C   UNL A   1      40.238  33.015  37.555  1.00  0.00     0.037 A 
ATOM     48  C   UNL A   1      40.044  29.458  31.538  1.00  0.00     0.037 A 
ATOM     49  C   UNL A   1      41.377  32.167  37.312  1.00  0.00     0.049 A 
ATOM     50  C   UNL A   1      41.202  29.339  32.489  1.00  0.00     0.074 A 
ATOM     51  C   UNL A   1      42.473  31.936  38.128  1.00  0.00     0.029 A 
ATOM     52  N   UNL A   1      41.560  31.394  36.174  1.00  0.00    -0.354 N 
ATOM     53  N   UNL A   1      41.377  29.911  33.654  1.00  0.00    -0.248 NA
ATOM     54  C   UNL A   1      42.314  28.476  32.070  1.00  0.00     0.031 C 
ATOM     55  C   UNL A   1      43.335  31.055  37.467  1.00  0.00     0.029 A 
ATOM     56  C   UNL A   1      42.755  30.697  36.262  1.00  0.00     0.049 A 
ATOM     57  H   UNL A   1      40.932  31.347  35.417  1.00  0.00     0.167 HD
ATOM     58  C   UNL A   1      42.608  29.467  34.115  1.00  0.00     0.074 A 
ATOM     59  C   UNL A   1      43.127  28.560  33.112  1.00  0.00     0.031 C 
ATOM     60  C   UNL A   1      43.254  29.789  35.261  1.00  0.00     0.037 A 
BRANCH  47  61
ATOM     61  C   UNL A   1      40.213  33.809  38.830  1.00  0.00     0.064 A 
ATOM     62  C   UNL A   1      39.550  33.354  39.979  1.00  0.00     0.173 A 
ATOM     63  C   UNL A   1      40.911  35.024  38.917  1.00  0.00     0.173 A 
ATOM     64  F   UNL A   1      38.860  32.205  39.949  1.00  0.00    -0.203 F 
ATOM     65  C   UNL A   1      39.567  34.096  41.158  1.00  0.00     0.198 A 
ATOM     66  C   UNL A   1      40.951  35.750  40.105  1.00  0.00     0.198 A 
ATOM     67  F   UNL A   1      41.571  35.502  37.851  1.00  0.00    -0.203 F 
ATOM     68  F   UNL A   1      38.890  33.663  42.230  1.00  0.00    -0.200 F 
ATOM     69  C   UNL A   1      40.273  35.289  41.223  1.00  0.00     0.200 A 
ATOM     70  F   UNL A   1      41.647  36.893  40.169  1.00  0.00    -0.200 F 
ATOM     71  F   UNL A   1      40.297  35.995  42.361  1.00  0.00    -0.200 F 
ENDBRANCH  47  61
BRANCH  48  72
ATOM     72  C   UNL A   1      40.039  28.717  30.248  1.00  0.00     0.064 A 
ATOM     73  C   UNL A   1      40.631  29.261  29.100  1.00  0.00     0.173 A 
ATOM     74  C   UNL A   1      39.442  27.452  30.136  1.00  0.00     0.173 A 
ATOM     75  F   UNL A   1      41.190  30.479  29.149  1.00  0.00    -0.203 F 
ATOM     76  C   UNL A   1      40.614  28.574  27.888  1.00  0.00     0.198 A 
ATOM     77  C   UNL A   1      39.457  26.751  28.932  1.00  0.00     0.198 A 
ATOM     78  F   UNL A   1      38.858  26.887  31.204  1.00  0.00    -0.203 F 
ATOM     79  F   UNL A   1      41.146  29.138  26.795  1.00  0.00    -0.200 F 
ATOM     80  C   UNL A   1      40.036  27.316  27.807  1.00  0.00     0.200 A 
ATOM     81  F   UNL A   1      38.912  25.529  28.865  1.00  0.00    -0.200 F 
ATOM     82  F   UNL A   1      40.031  26.652  26.643  1.00  0.00    -0.200 F 
ENDBRANCH  48  72
BRANCH  60  83
ATOM     83  C   UNL A   1      44.573  29.122  35.513  1.00  0.00     0.064 A 
ATOM     84  C   UNL A   1      44.661  27.893  36.184  1.00  0.00     0.173 A 
ATOM     85  C   UNL A   1      45.763  29.709  35.056  1.00  0.00     0.173 A 
ATOM     86  F   UNL A   1      43.553  27.302  36.656  1.00  0.00    -0.203 F 
ATOM     87  C   UNL A   1      45.895  27.289  36.412  1.00  0.00     0.198 A 
ATOM     88  C   UNL A   1      46.992  29.089  35.261  1.00  0.00     0.198 A 
ATOM     89  F   UNL A   1      45.732  30.881  34.406  1.00  0.00    -0.203 F 
ATOM     90  F   UNL A   1      45.960  26.141  37.099  1.00  0.00    -0.200 F 
ATOM     91  C   UNL A   1      47.058  27.885  35.945  1.00  0.00     0.200 A 
ATOM     92  F   UNL A   1      48.113  29.659  34.799  1.00  0.00    -0.200 F 
ATOM     93  F   UNL A   1      48.244  27.300  36.163  1.00  0.00    -0.200 F 
ENDBRANCH  60  83
ENDBRANCH  34  35
ENDBRANCH  27  29
ENDBRANCH  26  27
ENDBRANCH  25  26
ENDBRANCH   1  25
TORSDOF 15
ENDMDL
