MODEL 1
REMARK VINA RESULT:     -11.3      0.000      0.000
REMARK SMILES CC(C)CCOc1ccc(/C=C2\SC(=S)N(CC(=O)OCCOC(=O)c3ccc(-c4c5nc(c(-c6c(F)c(F)c(F)c(F)c6F)c6ccc([nH]6)c(-c6c(F)c(F)c(F)c(F)c6F)c6nc(c(-c7c(F)c(F)c(F)c(F)c7F)c7ccc4[nH]7)C=C6)C=C5)cc3)C2=O)cc1
REMARK SMILES IDX 18 1 19 2 17 3 16 4 11 5 12 6 13 7 89 8 14 9 90 10 15 11
REMARK SMILES IDX 10 12 7 13 8 14 92 15 9 16 91 17 6 18 5 19 4 20 2 21 1 22
REMARK SMILES IDX 3 23 20 24 21 25 22 26 23 27 24 28 25 29 26 30 27 31 88 32
REMARK SMILES IDX 28 33 87 34 29 35 30 36 31 37 81 38 32 39 86 40 80 41 82 42
REMARK SMILES IDX 33 43 85 44 79 45 78 46 34 48 66 49 46 50 65 51 47 52 50 53
REMARK SMILES IDX 64 54 83 55 48 56 49 57 63 59 84 60 51 61 35 62 36 63 44 64
REMARK SMILES IDX 37 65 38 66 42 67 45 68 39 69 40 70 43 71 41 72 67 73 68 74
REMARK SMILES IDX 76 75 69 76 70 77 74 78 77 79 71 80 72 81 75 82 73 83 52 84
REMARK SMILES IDX 53 85 61 86 54 87 55 88 59 89 62 90 56 91 57 92 60 93 58 94
REMARK H PARENT 82 47 50 58
REMARK Flexibility Score: inf
ROOT
ATOM      1  C   UNL A   1      33.741  21.902  24.254  1.00  0.00     0.326 C 
ATOM      2  O   UNL A   1      33.446  20.713  24.257  1.00  0.00    -0.250 OA
ENDROOT
BRANCH   1   3
ATOM      3  C   UNL A   1      32.862  22.960  23.595  1.00  0.00     0.250 C 
BRANCH   3   4
ATOM      4  N   UNL A   1      32.734  24.162  24.410  1.00  0.00    -0.282 N 
ATOM      5  C   UNL A   1      33.613  27.647  24.793  1.00  0.00     0.029 C 
ATOM      6  C   UNL A   1      33.052  26.435  24.920  1.00  0.00     0.081 C 
ATOM      7  S   UNL A   1      32.027  25.871  26.184  1.00  0.00    -0.054 SA
ATOM      8  C   UNL A   1      33.326  25.331  23.965  1.00  0.00     0.266 C 
ATOM      9  C   UNL A   1      32.013  24.228  25.581  1.00  0.00     0.148 C 
ATOM     10  O   UNL A   1      34.032  25.435  22.972  1.00  0.00    -0.268 OA
ATOM     11  S   UNL A   1      31.223  22.993  26.373  1.00  0.00    -0.052 S 
BRANCH   5  12
ATOM     12  C   UNL A   1      33.597  28.710  25.810  1.00  0.00    -0.024 A 
ATOM     13  C   UNL A   1      33.772  30.876  27.561  1.00  0.00     0.119 A 
ATOM     14  C   UNL A   1      32.683  30.776  26.697  1.00  0.00     0.047 A 
ATOM     15  C   UNL A   1      34.719  29.864  27.628  1.00  0.00     0.047 A 
ATOM     16  C   UNL A   1      32.596  29.690  25.818  1.00  0.00     0.012 A 
ATOM     17  C   UNL A   1      34.661  28.818  26.716  1.00  0.00     0.012 A 
BRANCH  13  18
ATOM     18  O   UNL A   1      33.951  31.974  28.353  1.00  0.00    -0.494 OA
BRANCH  18  19
ATOM     19  C   UNL A   1      33.244  33.119  27.835  1.00  0.00     0.230 C 
BRANCH  19  20
ATOM     20  C   UNL A   1      33.972  34.453  28.090  1.00  0.00     0.044 C 
BRANCH  20  21
ATOM     21  C   UNL A   1      33.233  35.418  29.046  1.00  0.00    -0.014 C 
ATOM     22  C   UNL A   1      33.583  35.161  30.511  1.00  0.00     0.007 C 
ATOM     23  C   UNL A   1      33.545  36.872  28.682  1.00  0.00     0.007 C 
ENDBRANCH  20  21
ENDBRANCH  19  20
ENDBRANCH  18  19
ENDBRANCH  13  18
ENDBRANCH   5  12
ENDBRANCH   3   4
ENDBRANCH   1   3
BRANCH   1  24
ATOM     24  O   UNL A   1      34.863  22.431  24.817  1.00  0.00    -0.461 OA
BRANCH  24  25
ATOM     25  C   UNL A   1      36.097  22.231  24.103  1.00  0.00     0.274 C 
BRANCH  25  26
ATOM     26  C   UNL A   1      36.950  21.184  24.815  1.00  0.00     0.275 C 
BRANCH  26  27
ATOM     27  O   UNL A   1      37.582  21.780  25.962  1.00  0.00    -0.458 OA
BRANCH  27  28
ATOM     28  C   UNL A   1      38.905  21.528  26.099  1.00  0.00     0.338 C 
ATOM     29  O   UNL A   1      39.492  20.482  25.891  1.00  0.00    -0.246 OA
BRANCH  28  30
ATOM     30  C   UNL A   1      39.560  22.749  26.594  1.00  0.00     0.060 A 
ATOM     31  C   UNL A   1      39.179  23.997  26.097  1.00  0.00     0.016 A 
ATOM     32  C   UNL A   1      40.611  22.640  27.503  1.00  0.00     0.016 A 
ATOM     33  C   UNL A   1      39.879  25.142  26.473  1.00  0.00     0.010 A 
ATOM     34  C   UNL A   1      41.273  23.795  27.924  1.00  0.00     0.010 A 
ATOM     35  C   UNL A   1      40.928  25.054  27.396  1.00  0.00    -0.014 A 
BRANCH  35  36
ATOM     36  C   UNL A   1      41.699  26.261  27.788  1.00  0.00     0.031 A 
ATOM     37  C   UNL A   1      41.044  27.326  28.622  1.00  0.00     0.074 A 
ATOM     38  C   UNL A   1      42.973  26.413  27.384  1.00  0.00     0.049 A 
ATOM     39  N   UNL A   1      41.467  28.529  28.913  1.00  0.00    -0.248 NA
ATOM     40  C   UNL A   1      39.732  26.991  29.200  1.00  0.00     0.031 C 
ATOM     41  C   UNL A   1      43.739  25.434  26.611  1.00  0.00     0.029 A 
ATOM     42  N   UNL A   1      43.846  27.460  27.554  1.00  0.00    -0.354 N 
ATOM     43  C   UNL A   1      40.463  29.108  29.677  1.00  0.00     0.074 A 
ATOM     44  C   UNL A   1      39.403  28.128  29.796  1.00  0.00     0.031 C 
ATOM     45  C   UNL A   1      44.963  25.928  26.369  1.00  0.00     0.029 A 
ATOM     46  C   UNL A   1      45.046  27.281  26.912  1.00  0.00     0.049 A 
ATOM     47  H   UNL A   1      43.630  28.261  28.085  1.00  0.00     0.167 HD
ATOM     48  C   UNL A   1      40.432  30.343  30.232  1.00  0.00     0.037 A 
ATOM     49  C   UNL A   1      46.078  28.128  26.740  1.00  0.00     0.037 A 
ATOM     50  C   UNL A   1      41.500  31.304  30.133  1.00  0.00     0.049 A 
ATOM     51  C   UNL A   1      45.999  29.513  27.321  1.00  0.00     0.074 A 
ATOM     52  C   UNL A   1      41.562  32.584  30.657  1.00  0.00     0.029 A 
ATOM     53  N   UNL A   1      42.697  31.086  29.470  1.00  0.00    -0.354 N 
ATOM     54  N   UNL A   1      45.033  30.066  28.012  1.00  0.00    -0.248 NA
ATOM     55  C   UNL A   1      47.150  30.396  27.088  1.00  0.00     0.031 C 
ATOM     56  C   UNL A   1      42.786  33.150  30.284  1.00  0.00     0.029 A 
ATOM     57  C   UNL A   1      43.502  32.210  29.563  1.00  0.00     0.049 A 
ATOM     58  H   UNL A   1      42.940  30.254  29.001  1.00  0.00     0.167 HD
ATOM     59  C   UNL A   1      45.464  31.351  28.313  1.00  0.00     0.074 A 
ATOM     60  C   UNL A   1      46.787  31.491  27.742  1.00  0.00     0.031 C 
ATOM     61  C   UNL A   1      44.821  32.328  28.998  1.00  0.00     0.037 A 
BRANCH  48  62
ATOM     62  C   UNL A   1      39.193  30.738  30.980  1.00  0.00     0.064 A 
ATOM     63  C   UNL A   1      39.028  30.440  32.341  1.00  0.00     0.173 A 
ATOM     64  C   UNL A   1      38.176  31.459  30.337  1.00  0.00     0.173 A 
ATOM     65  F   UNL A   1      39.966  29.741  32.998  1.00  0.00    -0.203 F 
ATOM     66  C   UNL A   1      37.880  30.832  33.025  1.00  0.00     0.198 A 
ATOM     67  C   UNL A   1      37.042  31.872  31.030  1.00  0.00     0.198 A 
ATOM     68  F   UNL A   1      38.288  31.774  29.038  1.00  0.00    -0.203 F 
ATOM     69  F   UNL A   1      37.725  30.502  34.315  1.00  0.00    -0.200 F 
ATOM     70  C   UNL A   1      36.891  31.554  32.372  1.00  0.00     0.200 A 
ATOM     71  F   UNL A   1      36.093  32.579  30.401  1.00  0.00    -0.200 F 
ATOM     72  F   UNL A   1      35.792  31.937  33.034  1.00  0.00    -0.200 F 
ENDBRANCH  48  62
BRANCH  49  73
ATOM     73  C   UNL A   1      47.260  27.701  25.947  1.00  0.00     0.064 A 
ATOM     74  C   UNL A   1      47.248  27.756  24.547  1.00  0.00     0.173 A 
ATOM     75  C   UNL A   1      48.422  27.227  26.573  1.00  0.00     0.173 A 
ATOM     76  F   UNL A   1      46.149  28.177  23.902  1.00  0.00    -0.203 F 
ATOM     77  C   UNL A   1      48.348  27.337  23.803  1.00  0.00     0.198 A 
ATOM     78  C   UNL A   1      49.532  26.836  25.828  1.00  0.00     0.198 A 
ATOM     79  F   UNL A   1      48.483  27.154  27.911  1.00  0.00    -0.203 F 
ATOM     80  F   UNL A   1      48.295  27.356  22.463  1.00  0.00    -0.200 F 
ATOM     81  C   UNL A   1      49.492  26.884  24.444  1.00  0.00     0.200 A 
ATOM     82  F   UNL A   1      50.639  26.411  26.454  1.00  0.00    -0.200 F 
ATOM     83  F   UNL A   1      50.551  26.486  23.727  1.00  0.00    -0.200 F 
ENDBRANCH  49  73
BRANCH  61  84
ATOM     84  C   UNL A   1      45.554  33.620  29.198  1.00  0.00     0.064 A 
ATOM     85  C   UNL A   1      45.431  34.682  28.292  1.00  0.00     0.173 A 
ATOM     86  C   UNL A   1      46.357  33.810  30.334  1.00  0.00     0.173 A 
ATOM     87  F   UNL A   1      44.688  34.541  27.183  1.00  0.00    -0.203 F 
ATOM     88  C   UNL A   1      46.103  35.883  28.504  1.00  0.00     0.198 A 
ATOM     89  C   UNL A   1      47.006  35.021  30.555  1.00  0.00     0.198 A 
ATOM     90  F   UNL A   1      46.502  32.825  31.232  1.00  0.00    -0.203 F 
ATOM     91  F   UNL A   1      46.004  36.872  27.604  1.00  0.00    -0.200 F 
ATOM     92  C   UNL A   1      46.884  36.054  29.637  1.00  0.00     0.200 A 
ATOM     93  F   UNL A   1      47.753  35.189  31.655  1.00  0.00    -0.200 F 
ATOM     94  F   UNL A   1      47.524  37.213  29.843  1.00  0.00    -0.200 F 
ENDBRANCH  61  84
ENDBRANCH  35  36
ENDBRANCH  28  30
ENDBRANCH  27  28
ENDBRANCH  26  27
ENDBRANCH  25  26
ENDBRANCH  24  25
ENDBRANCH   1  24
TORSDOF 17
ENDMDL
MODEL 2
REMARK VINA RESULT:     -10.9      5.078     11.264
REMARK SMILES CC(C)CCOc1ccc(/C=C2\SC(=S)N(CC(=O)OCCOC(=O)c3ccc(-c4c5nc(c(-c6c(F)c(F)c(F)c(F)c6F)c6ccc([nH]6)c(-c6c(F)c(F)c(F)c(F)c6F)c6nc(c(-c7c(F)c(F)c(F)c(F)c7F)c7ccc4[nH]7)C=C6)C=C5)cc3)C2=O)cc1
REMARK SMILES IDX 18 1 19 2 17 3 16 4 11 5 12 6 13 7 89 8 14 9 90 10 15 11
REMARK SMILES IDX 10 12 7 13 8 14 92 15 9 16 91 17 6 18 5 19 4 20 2 21 1 22
REMARK SMILES IDX 3 23 20 24 21 25 22 26 23 27 24 28 25 29 26 30 27 31 88 32
REMARK SMILES IDX 28 33 87 34 29 35 30 36 31 37 81 38 32 39 86 40 80 41 82 42
REMARK SMILES IDX 33 43 85 44 79 45 78 46 34 48 66 49 46 50 65 51 47 52 50 53
REMARK SMILES IDX 64 54 83 55 48 56 49 57 63 59 84 60 51 61 35 62 36 63 44 64
REMARK SMILES IDX 37 65 38 66 42 67 45 68 39 69 40 70 43 71 41 72 67 73 68 74
REMARK SMILES IDX 76 75 69 76 70 77 74 78 77 79 71 80 72 81 75 82 73 83 52 84
REMARK SMILES IDX 53 85 61 86 54 87 55 88 59 89 62 90 56 91 57 92 60 93 58 94
REMARK H PARENT 82 47 50 58
REMARK Flexibility Score: inf
ROOT
ATOM      1  C   UNL A   1      34.816  33.308  28.084  1.00  0.00     0.326 C 
ATOM      2  O   UNL A   1      35.927  33.095  27.614  1.00  0.00    -0.250 OA
ENDROOT
BRANCH   1   3
ATOM      3  C   UNL A   1      33.951  32.197  28.670  1.00  0.00     0.250 C 
BRANCH   3   4
ATOM      4  N   UNL A   1      33.771  31.086  27.743  1.00  0.00    -0.282 N 
ATOM      5  C   UNL A   1      31.709  29.627  25.158  1.00  0.00     0.029 C 
ATOM      6  C   UNL A   1      32.710  29.912  26.003  1.00  0.00     0.081 C 
ATOM      7  S   UNL A   1      34.116  28.974  26.333  1.00  0.00    -0.054 SA
ATOM      8  C   UNL A   1      32.691  31.113  26.878  1.00  0.00     0.266 C 
ATOM      9  C   UNL A   1      34.639  30.024  27.631  1.00  0.00     0.148 C 
ATOM     10  O   UNL A   1      31.807  31.958  26.872  1.00  0.00    -0.268 OA
ATOM     11  S   UNL A   1      35.996  29.705  28.546  1.00  0.00    -0.052 S 
BRANCH   5  12
ATOM     12  C   UNL A   1      31.525  28.354  24.444  1.00  0.00    -0.024 A 
ATOM     13  C   UNL A   1      31.456  25.857  23.198  1.00  0.00     0.119 A 
ATOM     14  C   UNL A   1      30.742  26.057  24.379  1.00  0.00     0.047 A 
ATOM     15  C   UNL A   1      32.122  26.909  22.585  1.00  0.00     0.047 A 
ATOM     16  C   UNL A   1      30.778  27.310  25.004  1.00  0.00     0.012 A 
ATOM     17  C   UNL A   1      32.203  28.133  23.236  1.00  0.00     0.012 A 
BRANCH  13  18
ATOM     18  O   UNL A   1      31.538  24.623  22.620  1.00  0.00    -0.494 OA
BRANCH  18  19
ATOM     19  C   UNL A   1      32.903  24.271  22.316  1.00  0.00     0.230 C 
BRANCH  19  20
ATOM     20  C   UNL A   1      33.637  23.601  23.494  1.00  0.00     0.044 C 
BRANCH  20  21
ATOM     21  C   UNL A   1      34.775  24.449  24.109  1.00  0.00    -0.014 C 
ATOM     22  C   UNL A   1      34.320  25.210  25.353  1.00  0.00     0.007 C 
ATOM     23  C   UNL A   1      35.976  23.563  24.449  1.00  0.00     0.007 C 
ENDBRANCH  20  21
ENDBRANCH  19  20
ENDBRANCH  18  19
ENDBRANCH  13  18
ENDBRANCH   5  12
ENDBRANCH   3   4
ENDBRANCH   1   3
BRANCH   1  24
ATOM     24  O   UNL A   1      34.212  34.528  28.144  1.00  0.00    -0.461 OA
BRANCH  24  25
ATOM     25  C   UNL A   1      32.923  34.577  28.783  1.00  0.00     0.274 C 
BRANCH  25  26
ATOM     26  C   UNL A   1      32.903  35.678  29.841  1.00  0.00     0.275 C 
BRANCH  26  27
ATOM     27  O   UNL A   1      32.342  35.160  31.060  1.00  0.00    -0.458 OA
BRANCH  27  28
ATOM     28  C   UNL A   1      32.873  35.651  32.204  1.00  0.00     0.338 C 
ATOM     29  O   UNL A   1      32.431  36.537  32.913  1.00  0.00    -0.246 OA
BRANCH  28  30
ATOM     30  C   UNL A   1      34.140  34.951  32.465  1.00  0.00     0.060 A 
ATOM     31  C   UNL A   1      34.132  33.689  33.061  1.00  0.00     0.016 A 
ATOM     32  C   UNL A   1      35.345  35.591  32.179  1.00  0.00     0.016 A 
ATOM     33  C   UNL A   1      35.332  33.078  33.420  1.00  0.00     0.010 A 
ATOM     34  C   UNL A   1      36.548  34.952  32.485  1.00  0.00     0.010 A 
ATOM     35  C   UNL A   1      36.553  33.700  33.128  1.00  0.00    -0.014 A 
BRANCH  35  36
ATOM     36  C   UNL A   1      37.839  33.072  33.524  1.00  0.00     0.031 A 
ATOM     37  C   UNL A   1      38.472  32.041  32.633  1.00  0.00     0.074 A 
ATOM     38  C   UNL A   1      38.429  33.410  34.685  1.00  0.00     0.049 A 
ATOM     39  N   UNL A   1      39.479  31.242  32.873  1.00  0.00    -0.248 NA
ATOM     40  C   UNL A   1      37.884  31.884  31.292  1.00  0.00     0.031 C 
ATOM     41  C   UNL A   1      37.943  34.428  35.617  1.00  0.00     0.029 A 
ATOM     42  N   UNL A   1      39.560  32.917  35.289  1.00  0.00    -0.354 N 
ATOM     43  C   UNL A   1      39.627  30.465  31.732  1.00  0.00     0.074 A 
ATOM     44  C   UNL A   1      38.597  30.880  30.802  1.00  0.00     0.031 C 
ATOM     45  C   UNL A   1      38.766  34.481  36.676  1.00  0.00     0.029 A 
ATOM     46  C   UNL A   1      39.798  33.459  36.527  1.00  0.00     0.049 A 
ATOM     47  H   UNL A   1      40.143  32.242  34.872  1.00  0.00     0.167 HD
ATOM     48  C   UNL A   1      40.541  29.498  31.483  1.00  0.00     0.037 A 
ATOM     49  C   UNL A   1      40.714  33.135  37.460  1.00  0.00     0.037 A 
ATOM     50  C   UNL A   1      41.579  29.107  32.402  1.00  0.00     0.049 A 
ATOM     51  C   UNL A   1      41.686  32.022  37.182  1.00  0.00     0.074 A 
ATOM     52  C   UNL A   1      42.552  28.134  32.244  1.00  0.00     0.029 A 
ATOM     53  N   UNL A   1      41.783  29.676  33.649  1.00  0.00    -0.354 N 
ATOM     54  N   UNL A   1      41.798  31.268  36.115  1.00  0.00    -0.248 NA
ATOM     55  C   UNL A   1      42.653  31.706  38.243  1.00  0.00     0.031 C 
ATOM     56  C   UNL A   1      43.325  28.096  33.410  1.00  0.00     0.029 A 
ATOM     57  C   UNL A   1      42.860  29.070  34.276  1.00  0.00     0.049 A 
ATOM     58  H   UNL A   1      41.241  30.404  34.033  1.00  0.00     0.167 HD
ATOM     59  C   UNL A   1      42.855  30.405  36.367  1.00  0.00     0.074 A 
ATOM     60  C   UNL A   1      43.362  30.737  37.681  1.00  0.00     0.031 C 
ATOM     61  C   UNL A   1      43.358  29.422  35.580  1.00  0.00     0.037 A 
BRANCH  48  62
ATOM     62  C   UNL A   1      40.449  28.775  30.172  1.00  0.00     0.064 A 
ATOM     63  C   UNL A   1      39.690  27.603  30.029  1.00  0.00     0.173 A 
ATOM     64  C   UNL A   1      41.094  29.283  29.035  1.00  0.00     0.173 A 
ATOM     65  F   UNL A   1      39.065  27.070  31.089  1.00  0.00    -0.203 F 
ATOM     66  C   UNL A   1      39.599  26.957  28.799  1.00  0.00     0.198 A 
ATOM     67  C   UNL A   1      40.979  28.649  27.801  1.00  0.00     0.198 A 
ATOM     68  F   UNL A   1      41.827  30.404  29.118  1.00  0.00    -0.203 F 
ATOM     69  F   UNL A   1      38.901  25.817  28.693  1.00  0.00    -0.200 F 
ATOM     70  C   UNL A   1      40.237  27.483  27.685  1.00  0.00     0.200 A 
ATOM     71  F   UNL A   1      41.586  29.165  26.724  1.00  0.00    -0.200 F 
ATOM     72  F   UNL A   1      40.140  26.864  26.501  1.00  0.00    -0.200 F 
ENDBRANCH  48  62
BRANCH  49  73
ATOM     73  C   UNL A   1      40.728  33.851  38.762  1.00  0.00     0.064 A 
ATOM     74  C   UNL A   1      41.568  34.952  38.972  1.00  0.00     0.173 A 
ATOM     75  C   UNL A   1      39.904  33.445  39.822  1.00  0.00     0.173 A 
ATOM     76  F   UNL A   1      42.393  35.361  37.997  1.00  0.00    -0.203 F 
ATOM     77  C   UNL A   1      41.595  35.610  40.200  1.00  0.00     0.198 A 
ATOM     78  C   UNL A   1      39.910  34.123  41.039  1.00  0.00     0.198 A 
ATOM     79  F   UNL A   1      39.082  32.396  39.672  1.00  0.00    -0.203 F 
ATOM     80  F   UNL A   1      42.440  36.633  40.391  1.00  0.00    -0.200 F 
ATOM     81  C   UNL A   1      40.761  35.200  41.230  1.00  0.00     0.200 A 
ATOM     82  F   UNL A   1      39.094  33.729  42.026  1.00  0.00    -0.200 F 
ATOM     83  F   UNL A   1      40.785  35.837  42.408  1.00  0.00    -0.200 F 
ENDBRANCH  49  73
BRANCH  61  84
ATOM     84  C   UNL A   1      44.539  28.662  36.105  1.00  0.00     0.064 A 
ATOM     85  C   UNL A   1      44.382  27.478  36.840  1.00  0.00     0.173 A 
ATOM     86  C   UNL A   1      45.843  29.103  35.834  1.00  0.00     0.173 A 
ATOM     87  F   UNL A   1      43.155  27.026  37.138  1.00  0.00    -0.203 F 
ATOM     88  C   UNL A   1      45.491  26.773  37.303  1.00  0.00     0.198 A 
ATOM     89  C   UNL A   1      46.948  28.382  36.276  1.00  0.00     0.198 A 
ATOM     90  F   UNL A   1      46.044  30.227  35.131  1.00  0.00    -0.203 F 
ATOM     91  F   UNL A   1      45.318  25.666  38.038  1.00  0.00    -0.200 F 
ATOM     92  C   UNL A   1      46.771  27.221  37.015  1.00  0.00     0.200 A 
ATOM     93  F   UNL A   1      48.185  28.810  35.990  1.00  0.00    -0.200 F 
ATOM     94  F   UNL A   1      47.836  26.538  37.456  1.00  0.00    -0.200 F 
ENDBRANCH  61  84
ENDBRANCH  35  36
ENDBRANCH  28  30
ENDBRANCH  27  28
ENDBRANCH  26  27
ENDBRANCH  25  26
ENDBRANCH  24  25
ENDBRANCH   1  24
TORSDOF 17
ENDMDL
MODEL 3
REMARK VINA RESULT:     -10.8      2.653      3.772
REMARK SMILES CC(C)CCOc1ccc(/C=C2\SC(=S)N(CC(=O)OCCOC(=O)c3ccc(-c4c5nc(c(-c6c(F)c(F)c(F)c(F)c6F)c6ccc([nH]6)c(-c6c(F)c(F)c(F)c(F)c6F)c6nc(c(-c7c(F)c(F)c(F)c(F)c7F)c7ccc4[nH]7)C=C6)C=C5)cc3)C2=O)cc1
REMARK SMILES IDX 18 1 19 2 17 3 16 4 11 5 12 6 13 7 89 8 14 9 90 10 15 11
REMARK SMILES IDX 10 12 7 13 8 14 92 15 9 16 91 17 6 18 5 19 4 20 2 21 1 22
REMARK SMILES IDX 3 23 20 24 21 25 22 26 23 27 24 28 25 29 26 30 27 31 88 32
REMARK SMILES IDX 28 33 87 34 29 35 30 36 31 37 81 38 32 39 86 40 80 41 82 42
REMARK SMILES IDX 33 43 85 44 79 45 78 46 34 48 66 49 46 50 65 51 47 52 50 53
REMARK SMILES IDX 64 54 83 55 48 56 49 57 63 59 84 60 51 61 35 62 36 63 44 64
REMARK SMILES IDX 37 65 38 66 42 67 45 68 39 69 40 70 43 71 41 72 67 73 68 74
REMARK SMILES IDX 76 75 69 76 70 77 74 78 77 79 71 80 72 81 75 82 73 83 52 84
REMARK SMILES IDX 53 85 61 86 54 87 55 88 59 89 62 90 56 91 57 92 60 93 58 94
REMARK H PARENT 82 47 50 58
REMARK Flexibility Score: inf
ROOT
ATOM      1  C   UNL A   1      36.329  20.902  25.062  1.00  0.00     0.326 C 
ATOM      2  O   UNL A   1      35.337  20.241  24.777  1.00  0.00    -0.250 OA
ENDROOT
BRANCH   1   3
ATOM      3  C   UNL A   1      36.282  22.060  26.054  1.00  0.00     0.250 C 
BRANCH   3   4
ATOM      4  N   UNL A   1      35.166  22.964  25.799  1.00  0.00    -0.282 N 
ATOM      5  C   UNL A   1      33.905  25.697  23.797  1.00  0.00     0.029 C 
ATOM      6  C   UNL A   1      34.022  24.666  24.647  1.00  0.00     0.081 C 
ATOM      7  S   UNL A   1      32.877  24.116  25.810  1.00  0.00    -0.054 SA
ATOM      8  C   UNL A   1      35.270  23.866  24.754  1.00  0.00     0.266 C 
ATOM      9  C   UNL A   1      33.983  22.949  26.500  1.00  0.00     0.148 C 
ATOM     10  O   UNL A   1      36.262  24.037  24.060  1.00  0.00    -0.268 OA
ATOM     11  S   UNL A   1      33.579  22.006  27.815  1.00  0.00    -0.052 S 
BRANCH   5  12
ATOM     12  C   UNL A   1      32.815  26.686  23.796  1.00  0.00    -0.024 A 
ATOM     13  C   UNL A   1      30.947  28.754  23.652  1.00  0.00     0.119 A 
ATOM     14  C   UNL A   1      30.881  27.703  22.739  1.00  0.00     0.047 A 
ATOM     15  C   UNL A   1      31.871  28.738  24.688  1.00  0.00     0.047 A 
ATOM     16  C   UNL A   1      31.819  26.665  22.812  1.00  0.00     0.012 A 
ATOM     17  C   UNL A   1      32.834  27.738  24.722  1.00  0.00     0.012 A 
BRANCH  13  18
ATOM     18  O   UNL A   1      30.123  29.838  23.545  1.00  0.00    -0.494 OA
BRANCH  18  19
ATOM     19  C   UNL A   1      28.787  29.451  23.169  1.00  0.00     0.230 C 
BRANCH  19  20
ATOM     20  C   UNL A   1      27.748  30.572  23.366  1.00  0.00     0.044 C 
BRANCH  20  21
ATOM     21  C   UNL A   1      27.911  31.776  22.409  1.00  0.00    -0.014 C 
ATOM     22  C   UNL A   1      28.740  32.899  23.031  1.00  0.00     0.007 C 
ATOM     23  C   UNL A   1      28.546  31.327  21.090  1.00  0.00     0.007 C 
ENDBRANCH  20  21
ENDBRANCH  19  20
ENDBRANCH  18  19
ENDBRANCH  13  18
ENDBRANCH   5  12
ENDBRANCH   3   4
ENDBRANCH   1   3
BRANCH   1  24
ATOM     24  O   UNL A   1      37.574  20.708  24.545  1.00  0.00    -0.461 OA
BRANCH  24  25
ATOM     25  C   UNL A   1      38.248  19.494  24.926  1.00  0.00     0.274 C 
BRANCH  25  26
ATOM     26  C   UNL A   1      39.405  19.810  25.870  1.00  0.00     0.275 C 
BRANCH  26  27
ATOM     27  O   UNL A   1      40.650  19.675  25.163  1.00  0.00    -0.458 OA
BRANCH  27  28
ATOM     28  C   UNL A   1      41.733  19.402  25.928  1.00  0.00     0.338 C 
ATOM     29  O   UNL A   1      42.184  18.309  26.222  1.00  0.00    -0.246 OA
BRANCH  28  30
ATOM     30  C   UNL A   1      42.295  20.674  26.406  1.00  0.00     0.060 A 
ATOM     31  C   UNL A   1      42.248  20.993  27.764  1.00  0.00     0.016 A 
ATOM     32  C   UNL A   1      42.804  21.586  25.483  1.00  0.00     0.016 A 
ATOM     33  C   UNL A   1      42.669  22.247  28.203  1.00  0.00     0.010 A 
ATOM     34  C   UNL A   1      43.280  22.820  25.931  1.00  0.00     0.010 A 
ATOM     35  C   UNL A   1      43.196  23.170  27.292  1.00  0.00    -0.014 A 
BRANCH  35  36
ATOM     36  C   UNL A   1      43.627  24.519  27.740  1.00  0.00     0.031 A 
ATOM     37  C   UNL A   1      42.595  25.549  28.104  1.00  0.00     0.074 A 
ATOM     38  C   UNL A   1      44.935  24.827  27.803  1.00  0.00     0.049 A 
ATOM     39  N   UNL A   1      42.744  26.828  28.334  1.00  0.00    -0.248 NA
ATOM     40  C   UNL A   1      41.207  25.074  28.216  1.00  0.00     0.031 C 
ATOM     41  C   UNL A   1      46.036  23.905  27.521  1.00  0.00     0.029 A 
ATOM     42  N   UNL A   1      45.561  26.011  28.108  1.00  0.00    -0.354 N 
ATOM     43  C   UNL A   1      41.470  27.318  28.585  1.00  0.00     0.074 A 
ATOM     44  C   UNL A   1      40.556  26.201  28.466  1.00  0.00     0.031 C 
ATOM     45  C   UNL A   1      47.201  24.559  27.661  1.00  0.00     0.029 A 
ATOM     46  C   UNL A   1      46.926  25.957  27.978  1.00  0.00     0.049 A 
ATOM     47  H   UNL A   1      45.076  26.820  28.393  1.00  0.00     0.167 HD
ATOM     48  C   UNL A   1      41.099  28.584  28.890  1.00  0.00     0.037 A 
ATOM     49  C   UNL A   1      47.849  26.934  28.058  1.00  0.00     0.037 A 
ATOM     50  C   UNL A   1      42.015  29.687  29.032  1.00  0.00     0.049 A 
ATOM     51  C   UNL A   1      47.408  28.343  28.346  1.00  0.00     0.074 A 
ATOM     52  C   UNL A   1      41.737  31.009  29.335  1.00  0.00     0.029 A 
ATOM     53  N   UNL A   1      43.391  29.591  28.887  1.00  0.00    -0.354 N 
ATOM     54  N   UNL A   1      46.198  28.806  28.547  1.00  0.00    -0.248 NA
ATOM     55  C   UNL A   1      48.460  29.367  28.407  1.00  0.00     0.031 C 
ATOM     56  C   UNL A   1      42.942  31.718  29.343  1.00  0.00     0.029 A 
ATOM     57  C   UNL A   1      43.975  30.832  29.085  1.00  0.00     0.049 A 
ATOM     58  H   UNL A   1      43.880  28.763  28.674  1.00  0.00     0.167 HD
ATOM     59  C   UNL A   1      46.344  30.167  28.777  1.00  0.00     0.074 A 
ATOM     60  C   UNL A   1      47.761  30.454  28.706  1.00  0.00     0.031 C 
ATOM     61  C   UNL A   1      45.388  31.097  29.022  1.00  0.00     0.037 A 
BRANCH  48  62
ATOM     62  C   UNL A   1      39.635  28.855  29.070  1.00  0.00     0.064 A 
ATOM     63  C   UNL A   1      39.008  28.718  30.318  1.00  0.00     0.173 A 
ATOM     64  C   UNL A   1      38.857  29.296  27.989  1.00  0.00     0.173 A 
ATOM     65  F   UNL A   1      39.706  28.287  31.380  1.00  0.00    -0.203 F 
ATOM     66  C   UNL A   1      37.652  28.994  30.472  1.00  0.00     0.198 A 
ATOM     67  C   UNL A   1      37.507  29.595  28.152  1.00  0.00     0.198 A 
ATOM     68  F   UNL A   1      39.409  29.448  26.776  1.00  0.00    -0.203 F 
ATOM     69  F   UNL A   1      37.065  28.818  31.664  1.00  0.00    -0.200 F 
ATOM     70  C   UNL A   1      36.904  29.438  29.391  1.00  0.00     0.200 A 
ATOM     71  F   UNL A   1      36.789  30.036  27.110  1.00  0.00    -0.200 F 
ATOM     72  F   UNL A   1      35.601  29.711  29.543  1.00  0.00    -0.200 F 
ENDBRANCH  48  62
BRANCH  49  73
ATOM     73  C   UNL A   1      49.282  26.618  27.821  1.00  0.00     0.064 A 
ATOM     74  C   UNL A   1      50.155  26.376  28.889  1.00  0.00     0.173 A 
ATOM     75  C   UNL A   1      49.806  26.557  26.521  1.00  0.00     0.173 A 
ATOM     76  F   UNL A   1      49.706  26.450  30.151  1.00  0.00    -0.203 F 
ATOM     77  C   UNL A   1      51.502  26.099  28.667  1.00  0.00     0.198 A 
ATOM     78  C   UNL A   1      51.146  26.251  26.299  1.00  0.00     0.198 A 
ATOM     79  F   UNL A   1      49.012  26.782  25.464  1.00  0.00    -0.203 F 
ATOM     80  F   UNL A   1      52.326  25.916  29.708  1.00  0.00    -0.200 F 
ATOM     81  C   UNL A   1      51.995  26.030  27.373  1.00  0.00     0.200 A 
ATOM     82  F   UNL A   1      51.615  26.173  25.046  1.00  0.00    -0.200 F 
ATOM     83  F   UNL A   1      53.290  25.759  27.160  1.00  0.00    -0.200 F 
ENDBRANCH  49  73
BRANCH  61  84
ATOM     84  C   UNL A   1      45.848  32.503  29.267  1.00  0.00     0.064 A 
ATOM     85  C   UNL A   1      45.952  33.433  28.223  1.00  0.00     0.173 A 
ATOM     86  C   UNL A   1      46.147  32.934  30.569  1.00  0.00     0.173 A 
ATOM     87  F   UNL A   1      45.694  33.063  26.960  1.00  0.00    -0.203 F 
ATOM     88  C   UNL A   1      46.362  34.741  28.472  1.00  0.00     0.198 A 
ATOM     89  C   UNL A   1      46.530  34.248  30.816  1.00  0.00     0.198 A 
ATOM     90  F   UNL A   1      46.056  32.081  31.600  1.00  0.00    -0.203 F 
ATOM     91  F   UNL A   1      46.495  35.603  27.455  1.00  0.00    -0.200 F 
ATOM     92  C   UNL A   1      46.643  35.149  29.767  1.00  0.00     0.200 A 
ATOM     93  F   UNL A   1      46.793  34.644  32.069  1.00  0.00    -0.200 F 
ATOM     94  F   UNL A   1      47.029  36.410  30.004  1.00  0.00    -0.200 F 
ENDBRANCH  61  84
ENDBRANCH  35  36
ENDBRANCH  28  30
ENDBRANCH  27  28
ENDBRANCH  26  27
ENDBRANCH  25  26
ENDBRANCH  24  25
ENDBRANCH   1  24
TORSDOF 17
ENDMDL
