MODEL 1
REMARK VINA RESULT:     -13.0      0.000      0.000
REMARK SMILES CN1C(=O)C[C@@H](C(=O)OCCOC(=O)c2ccc(-c3c4nc(c(-c5c(F)c(F)c(F)c(F)c5F)c5ccc([nH]5)c(-c5c(F)c(F)c(F)c(F)c5F)c5nc(c(-c6c(F)c(F)c(F)c(F)c6F)c6ccc3[nH]6)C=C5)C=C4)cc2)C12CCN(C(=O)c1ccccc1-n1cccn1)CC2
REMARK SMILES IDX 10 1 9 2 7 3 8 4 6 5 1 6 2 7 3 8 78 9 4 10 5 11 79 12 96 13
REMARK SMILES IDX 80 14 95 15 81 16 82 17 83 18 84 19 85 20 89 21 86 22 88 23
REMARK SMILES IDX 87 24 90 25 91 26 94 27 92 28 93 29 11 30 12 31 13 32 14 33
REMARK SMILES IDX 15 34 16 35 77 36 17 37 76 38 18 39 19 40 20 41 70 42 21 43
REMARK SMILES IDX 75 44 69 45 71 46 22 47 74 48 68 49 67 50 23 52 55 53 35 54
REMARK SMILES IDX 54 55 36 56 39 57 53 58 72 59 37 60 38 61 52 63 73 64 40 65
REMARK SMILES IDX 24 66 25 67 33 68 26 69 27 70 31 71 34 72 28 73 29 74 32 75
REMARK SMILES IDX 30 76 56 77 57 78 65 79 58 80 59 81 63 82 66 83 60 84 61 85
REMARK SMILES IDX 64 86 62 87 41 88 42 89 50 90 43 91 44 92 48 93 51 94 45 95
REMARK SMILES IDX 46 96 49 97 47 98
REMARK H PARENT 71 51 39 62
REMARK Flexibility Score: inf
ROOT
ATOM      1  C   UNL A   1      36.262  21.333  24.632  1.00  0.00     0.274 C 
ENDROOT
BRANCH   1   2
ATOM      2  O   UNL A   1      35.267  20.486  25.249  1.00  0.00    -0.462 OA
BRANCH   2   3
ATOM      3  C   UNL A   1      34.496  21.076  26.185  1.00  0.00     0.311 C 
ATOM      4  O   UNL A   1      34.915  21.476  27.269  1.00  0.00    -0.252 OA
BRANCH   3   5
ATOM      5  C   UNL A   1      33.025  21.219  25.830  1.00  0.00     0.134 C 
ATOM      6  C   UNL A   1      32.153  21.780  22.217  1.00  0.00     0.147 C 
ATOM      7  N   UNL A   1      32.536  21.350  23.548  1.00  0.00    -0.339 N 
ATOM      8  C   UNL A   1      32.557  19.990  23.842  1.00  0.00     0.223 C 
ATOM      9  C   UNL A   1      32.493  22.198  24.748  1.00  0.00     0.060 C 
ATOM     10  O   UNL A   1      32.475  19.074  23.047  1.00  0.00    -0.275 OA
ATOM     11  C   UNL A   1      32.595  19.831  25.335  1.00  0.00     0.118 C 
ATOM     12  C   UNL A   1      33.266  23.521  24.567  1.00  0.00     0.051 C 
ATOM     13  C   UNL A   1      31.004  22.574  25.055  1.00  0.00     0.051 C 
ATOM     14  C   UNL A   1      33.116  24.449  25.763  1.00  0.00     0.122 C 
ATOM     15  C   UNL A   1      30.835  23.617  26.167  1.00  0.00     0.122 C 
ATOM     16  N   UNL A   1      31.708  24.772  25.979  1.00  0.00    -0.338 N 
ATOM     17  C   UNL A   1      31.182  26.054  26.173  1.00  0.00     0.256 C 
ATOM     18  O   UNL A   1      30.014  26.256  26.502  1.00  0.00    -0.269 OA
BRANCH  17  19
ATOM     19  C   UNL A   1      32.050  27.249  26.036  1.00  0.00     0.065 A 
ATOM     20  C   UNL A   1      32.281  27.963  27.225  1.00  0.00     0.016 A 
ATOM     21  C   UNL A   1      32.682  27.656  24.852  1.00  0.00     0.077 A 
ATOM     22  C   UNL A   1      33.182  29.029  27.251  1.00  0.00     0.001 A 
ATOM     23  C   UNL A   1      33.634  28.691  24.903  1.00  0.00     0.029 A 
ATOM     24  C   UNL A   1      33.875  29.377  26.096  1.00  0.00     0.002 A 
BRANCH  21  25
ATOM     25  N   UNL A   1      32.394  27.084  23.587  1.00  0.00    -0.240 N 
ATOM     26  C   UNL A   1      31.177  26.954  22.955  1.00  0.00     0.115 A 
ATOM     27  N   UNL A   1      33.399  26.588  22.816  1.00  0.00    -0.177 NA
ATOM     28  C   UNL A   1      31.404  26.297  21.769  1.00  0.00     0.042 A 
ATOM     29  C   UNL A   1      32.788  26.079  21.747  1.00  0.00     0.135 A 
ENDBRANCH  21  25
ENDBRANCH  17  19
ENDBRANCH   3   5
ENDBRANCH   2   3
ENDBRANCH   1   2
BRANCH   1  30
ATOM     30  C   UNL A   1      37.671  20.812  24.921  1.00  0.00     0.275 C 
BRANCH  30  31
ATOM     31  O   UNL A   1      38.186  21.425  26.119  1.00  0.00    -0.458 OA
BRANCH  31  32
ATOM     32  C   UNL A   1      39.479  21.156  26.411  1.00  0.00     0.338 C 
ATOM     33  O   UNL A   1      40.026  20.067  26.366  1.00  0.00    -0.246 OA
BRANCH  32  34
ATOM     34  C   UNL A   1      40.211  22.398  26.745  1.00  0.00     0.060 A 
ATOM     35  C   UNL A   1      41.184  22.424  27.749  1.00  0.00     0.016 A 
ATOM     36  C   UNL A   1      39.830  23.589  26.126  1.00  0.00     0.016 A 
ATOM     37  C   UNL A   1      41.729  23.635  28.176  1.00  0.00     0.010 A 
ATOM     38  C   UNL A   1      40.448  24.789  26.486  1.00  0.00     0.010 A 
ATOM     39  C   UNL A   1      41.395  24.828  27.523  1.00  0.00    -0.014 A 
BRANCH  39  40
ATOM     40  C   UNL A   1      42.061  26.110  27.878  1.00  0.00     0.031 A 
ATOM     41  C   UNL A   1      41.324  27.167  28.653  1.00  0.00     0.074 A 
ATOM     42  C   UNL A   1      43.316  26.351  27.449  1.00  0.00     0.049 A 
ATOM     43  N   UNL A   1      41.641  28.422  28.849  1.00  0.00    -0.248 NA
ATOM     44  C   UNL A   1      40.056  26.762  29.277  1.00  0.00     0.031 C 
ATOM     45  C   UNL A   1      44.156  25.406  26.712  1.00  0.00     0.029 A 
ATOM     46  N   UNL A   1      44.097  27.475  27.557  1.00  0.00    -0.354 N 
ATOM     47  C   UNL A   1      40.590  28.971  29.574  1.00  0.00     0.074 A 
ATOM     48  C   UNL A   1      39.625  27.910  29.782  1.00  0.00     0.031 C 
ATOM     49  C   UNL A   1      45.337  25.981  26.446  1.00  0.00     0.029 A 
ATOM     50  C   UNL A   1      45.308  27.360  26.917  1.00  0.00     0.049 A 
ATOM     51  H   UNL A   1      43.818  28.284  28.044  1.00  0.00     0.167 HD
ATOM     52  C   UNL A   1      40.448  30.242  30.018  1.00  0.00     0.037 A 
ATOM     53  C   UNL A   1      46.269  28.274  26.689  1.00  0.00     0.037 A 
ATOM     54  C   UNL A   1      41.435  31.279  29.851  1.00  0.00     0.049 A 
ATOM     55  C   UNL A   1      46.077  29.682  27.171  1.00  0.00     0.074 A 
ATOM     56  C   UNL A   1      41.393  32.592  30.294  1.00  0.00     0.029 A 
ATOM     57  N   UNL A   1      42.649  31.119  29.199  1.00  0.00    -0.354 N 
ATOM     58  N   UNL A   1      45.064  30.201  27.820  1.00  0.00    -0.248 NA
ATOM     59  C   UNL A   1      47.155  30.635  26.876  1.00  0.00     0.031 C 
ATOM     60  C   UNL A   1      42.566  33.233  29.880  1.00  0.00     0.029 A 
ATOM     61  C   UNL A   1      43.358  32.310  29.218  1.00  0.00     0.049 A 
ATOM     62  H   UNL A   1      42.961  30.282  28.785  1.00  0.00     0.167 HD
ATOM     63  C   UNL A   1      45.390  31.534  28.029  1.00  0.00     0.074 A 
ATOM     64  C   UNL A   1      46.701  31.740  27.449  1.00  0.00     0.031 C 
ATOM     65  C   UNL A   1      44.666  32.499  28.643  1.00  0.00     0.037 A 
BRANCH  52  66
ATOM     66  C   UNL A   1      39.165  30.603  30.710  1.00  0.00     0.064 A 
ATOM     67  C   UNL A   1      39.031  30.543  32.104  1.00  0.00     0.173 A 
ATOM     68  C   UNL A   1      38.073  31.076  29.966  1.00  0.00     0.173 A 
ATOM     69  F   UNL A   1      40.043  30.091  32.859  1.00  0.00    -0.203 F 
ATOM     70  C   UNL A   1      37.845  30.925  32.727  1.00  0.00     0.198 A 
ATOM     71  C   UNL A   1      36.898  31.482  30.592  1.00  0.00     0.198 A 
ATOM     72  F   UNL A   1      38.151  31.162  28.629  1.00  0.00    -0.203 F 
ATOM     73  F   UNL A   1      37.726  30.827  34.057  1.00  0.00    -0.200 F 
ATOM     74  C   UNL A   1      36.783  31.402  31.971  1.00  0.00     0.200 A 
ATOM     75  F   UNL A   1      35.879  31.956  29.862  1.00  0.00    -0.200 F 
ATOM     76  F   UNL A   1      35.646  31.780  32.573  1.00  0.00    -0.200 F 
ENDBRANCH  52  66
BRANCH  53  77
ATOM     77  C   UNL A   1      47.490  27.882  25.939  1.00  0.00     0.064 A 
ATOM     78  C   UNL A   1      48.663  27.523  26.616  1.00  0.00     0.173 A 
ATOM     79  C   UNL A   1      47.503  27.836  24.537  1.00  0.00     0.173 A 
ATOM     80  F   UNL A   1      48.704  27.573  27.956  1.00  0.00    -0.203 F 
ATOM     81  C   UNL A   1      49.806  27.141  25.918  1.00  0.00     0.198 A 
ATOM     82  C   UNL A   1      48.637  27.426  23.842  1.00  0.00     0.198 A 
ATOM     83  F   UNL A   1      46.403  28.168  23.844  1.00  0.00    -0.203 F 
ATOM     84  F   UNL A   1      50.926  26.837  26.588  1.00  0.00    -0.200 F 
ATOM     85  C   UNL A   1      49.789  27.085  24.532  1.00  0.00     0.200 A 
ATOM     86  F   UNL A   1      48.611  27.358  22.504  1.00  0.00    -0.200 F 
ATOM     87  F   UNL A   1      50.886  26.706  23.862  1.00  0.00    -0.200 F 
ENDBRANCH  53  77
BRANCH  65  88
ATOM     88  C   UNL A   1      45.294  33.856  28.755  1.00  0.00     0.064 A 
ATOM     89  C   UNL A   1      45.082  34.846  27.786  1.00  0.00     0.173 A 
ATOM     90  C   UNL A   1      46.102  34.173  29.857  1.00  0.00     0.173 A 
ATOM     91  F   UNL A   1      44.332  34.584  26.706  1.00  0.00    -0.203 F 
ATOM     92  C   UNL A   1      45.678  36.099  27.904  1.00  0.00     0.198 A 
ATOM     93  C   UNL A   1      46.675  35.435  29.985  1.00  0.00     0.198 A 
ATOM     94  F   UNL A   1      46.333  33.260  30.812  1.00  0.00    -0.203 F 
ATOM     95  F   UNL A   1      45.500  37.016  26.943  1.00  0.00    -0.200 F 
ATOM     96  C   UNL A   1      46.469  36.395  29.005  1.00  0.00     0.200 A 
ATOM     97  F   UNL A   1      47.432  35.721  31.052  1.00  0.00    -0.200 F 
ATOM     98  F   UNL A   1      47.041  37.601  29.116  1.00  0.00    -0.200 F 
ENDBRANCH  65  88
ENDBRANCH  39  40
ENDBRANCH  32  34
ENDBRANCH  31  32
ENDBRANCH  30  31
ENDBRANCH   1  30
TORSDOF 13
ENDMDL
MODEL 2
REMARK VINA RESULT:     -13.0      0.093      1.536
REMARK SMILES CN1C(=O)C[C@@H](C(=O)OCCOC(=O)c2ccc(-c3c4nc(c(-c5c(F)c(F)c(F)c(F)c5F)c5ccc([nH]5)c(-c5c(F)c(F)c(F)c(F)c5F)c5nc(c(-c6c(F)c(F)c(F)c(F)c6F)c6ccc3[nH]6)C=C5)C=C4)cc2)C12CCN(C(=O)c1ccccc1-n1cccn1)CC2
REMARK SMILES IDX 10 1 9 2 7 3 8 4 6 5 1 6 2 7 3 8 78 9 4 10 5 11 79 12 96 13
REMARK SMILES IDX 80 14 95 15 81 16 82 17 83 18 84 19 85 20 89 21 86 22 88 23
REMARK SMILES IDX 87 24 90 25 91 26 94 27 92 28 93 29 11 30 12 31 13 32 14 33
REMARK SMILES IDX 15 34 16 35 77 36 17 37 76 38 18 39 19 40 20 41 70 42 21 43
REMARK SMILES IDX 75 44 69 45 71 46 22 47 74 48 68 49 67 50 23 52 55 53 35 54
REMARK SMILES IDX 54 55 36 56 39 57 53 58 72 59 37 60 38 61 52 63 73 64 40 65
REMARK SMILES IDX 24 66 25 67 33 68 26 69 27 70 31 71 34 72 28 73 29 74 32 75
REMARK SMILES IDX 30 76 56 77 57 78 65 79 58 80 59 81 63 82 66 83 60 84 61 85
REMARK SMILES IDX 64 86 62 87 41 88 42 89 50 90 43 91 44 92 48 93 51 94 45 95
REMARK SMILES IDX 46 96 49 97 47 98
REMARK H PARENT 71 51 39 62
REMARK Flexibility Score: inf
ROOT
ATOM      1  C   UNL A   1      36.190  21.124  24.627  1.00  0.00     0.274 C 
ENDROOT
BRANCH   1   2
ATOM      2  O   UNL A   1      35.190  20.346  25.321  1.00  0.00    -0.462 OA
BRANCH   2   3
ATOM      3  C   UNL A   1      34.424  21.026  26.198  1.00  0.00     0.311 C 
ATOM      4  O   UNL A   1      34.842  21.499  27.253  1.00  0.00    -0.252 OA
BRANCH   3   5
ATOM      5  C   UNL A   1      32.961  21.176  25.815  1.00  0.00     0.134 C 
ATOM      6  C   UNL A   1      32.162  21.748  22.187  1.00  0.00     0.147 C 
ATOM      7  N   UNL A   1      32.517  21.314  23.525  1.00  0.00    -0.339 N 
ATOM      8  C   UNL A   1      32.525  19.953  23.816  1.00  0.00     0.223 C 
ATOM      9  C   UNL A   1      32.455  22.160  24.725  1.00  0.00     0.060 C 
ATOM     10  O   UNL A   1      32.454  19.040  23.018  1.00  0.00    -0.275 OA
ATOM     11  C   UNL A   1      32.534  19.792  25.310  1.00  0.00     0.118 C 
ATOM     12  C   UNL A   1      33.238  23.480  24.562  1.00  0.00     0.051 C 
ATOM     13  C   UNL A   1      30.963  22.544  25.005  1.00  0.00     0.051 C 
ATOM     14  C   UNL A   1      33.070  24.406  25.756  1.00  0.00     0.122 C 
ATOM     15  C   UNL A   1      30.778  23.585  26.114  1.00  0.00     0.122 C 
ATOM     16  N   UNL A   1      31.660  24.736  25.945  1.00  0.00    -0.338 N 
ATOM     17  C   UNL A   1      31.137  26.020  26.132  1.00  0.00     0.256 C 
ATOM     18  O   UNL A   1      29.964  26.228  26.438  1.00  0.00    -0.269 OA
BRANCH  17  19
ATOM     19  C   UNL A   1      32.013  27.211  26.014  1.00  0.00     0.065 A 
ATOM     20  C   UNL A   1      32.235  27.915  27.211  1.00  0.00     0.016 A 
ATOM     21  C   UNL A   1      32.660  27.623  24.840  1.00  0.00     0.077 A 
ATOM     22  C   UNL A   1      33.142  28.975  27.255  1.00  0.00     0.001 A 
ATOM     23  C   UNL A   1      33.618  28.653  24.910  1.00  0.00     0.029 A 
ATOM     24  C   UNL A   1      33.849  29.328  26.111  1.00  0.00     0.002 A 
BRANCH  21  25
ATOM     25  N   UNL A   1      32.383  27.063  23.568  1.00  0.00    -0.240 N 
ATOM     26  C   UNL A   1      31.175  26.962  22.914  1.00  0.00     0.115 A 
ATOM     27  N   UNL A   1      33.391  26.550  22.813  1.00  0.00    -0.177 NA
ATOM     28  C   UNL A   1      31.409  26.305  21.728  1.00  0.00     0.042 A 
ATOM     29  C   UNL A   1      32.789  26.058  21.730  1.00  0.00     0.135 A 
ENDBRANCH  21  25
ENDBRANCH  17  19
ENDBRANCH   3   5
ENDBRANCH   2   3
ENDBRANCH   1   2
BRANCH   1  30
ATOM     30  C   UNL A   1      37.595  20.606  24.941  1.00  0.00     0.275 C 
BRANCH  30  31
ATOM     31  O   UNL A   1      38.168  21.366  26.023  1.00  0.00    -0.458 OA
BRANCH  31  32
ATOM     32  C   UNL A   1      39.462  21.098  26.312  1.00  0.00     0.338 C 
ATOM     33  O   UNL A   1      40.011  20.010  26.259  1.00  0.00    -0.246 OA
BRANCH  32  34
ATOM     34  C   UNL A   1      40.192  22.339  26.654  1.00  0.00     0.060 A 
ATOM     35  C   UNL A   1      41.209  22.347  27.613  1.00  0.00     0.016 A 
ATOM     36  C   UNL A   1      39.768  23.543  26.091  1.00  0.00     0.016 A 
ATOM     37  C   UNL A   1      41.756  23.551  28.054  1.00  0.00     0.010 A 
ATOM     38  C   UNL A   1      40.386  24.741  26.462  1.00  0.00     0.010 A 
ATOM     39  C   UNL A   1      41.378  24.760  27.456  1.00  0.00    -0.014 A 
BRANCH  39  40
ATOM     40  C   UNL A   1      42.042  26.039  27.824  1.00  0.00     0.031 A 
ATOM     41  C   UNL A   1      41.301  27.092  28.601  1.00  0.00     0.074 A 
ATOM     42  C   UNL A   1      43.299  26.282  27.404  1.00  0.00     0.049 A 
ATOM     43  N   UNL A   1      41.617  28.345  28.807  1.00  0.00    -0.248 NA
ATOM     44  C   UNL A   1      40.029  26.684  29.215  1.00  0.00     0.031 C 
ATOM     45  C   UNL A   1      44.143  25.342  26.665  1.00  0.00     0.029 A 
ATOM     46  N   UNL A   1      44.081  27.406  27.522  1.00  0.00    -0.354 N 
ATOM     47  C   UNL A   1      40.562  28.890  29.529  1.00  0.00     0.074 A 
ATOM     48  C   UNL A   1      39.596  27.829  29.725  1.00  0.00     0.031 C 
ATOM     49  C   UNL A   1      45.326  25.918  26.409  1.00  0.00     0.029 A 
ATOM     50  C   UNL A   1      45.295  27.294  26.889  1.00  0.00     0.049 A 
ATOM     51  H   UNL A   1      43.799  28.211  28.013  1.00  0.00     0.167 HD
ATOM     52  C   UNL A   1      40.418  30.159  29.980  1.00  0.00     0.037 A 
ATOM     53  C   UNL A   1      46.258  28.209  26.672  1.00  0.00     0.037 A 
ATOM     54  C   UNL A   1      41.406  31.197  29.825  1.00  0.00     0.049 A 
ATOM     55  C   UNL A   1      46.063  29.614  27.162  1.00  0.00     0.074 A 
ATOM     56  C   UNL A   1      41.363  32.506  30.276  1.00  0.00     0.029 A 
ATOM     57  N   UNL A   1      42.624  31.040  29.179  1.00  0.00    -0.354 N 
ATOM     58  N   UNL A   1      45.047  30.129  27.809  1.00  0.00    -0.248 NA
ATOM     59  C   UNL A   1      47.144  30.569  26.879  1.00  0.00     0.031 C 
ATOM     60  C   UNL A   1      42.538  33.150  29.872  1.00  0.00     0.029 A 
ATOM     61  C   UNL A   1      43.333  32.230  29.210  1.00  0.00     0.049 A 
ATOM     62  H   UNL A   1      42.938  30.205  28.761  1.00  0.00     0.167 HD
ATOM     63  C   UNL A   1      45.372  31.461  28.027  1.00  0.00     0.074 A 
ATOM     64  C   UNL A   1      46.687  31.670  27.456  1.00  0.00     0.031 C 
ATOM     65  C   UNL A   1      44.644  32.423  28.644  1.00  0.00     0.037 A 
BRANCH  52  66
ATOM     66  C   UNL A   1      39.132  30.516  30.667  1.00  0.00     0.064 A 
ATOM     67  C   UNL A   1      39.004  30.494  32.062  1.00  0.00     0.173 A 
ATOM     68  C   UNL A   1      38.028  30.947  29.914  1.00  0.00     0.173 A 
ATOM     69  F   UNL A   1      40.027  30.083  32.826  1.00  0.00    -0.203 F 
ATOM     70  C   UNL A   1      37.813  30.872  32.679  1.00  0.00     0.198 A 
ATOM     71  C   UNL A   1      36.848  31.349  30.533  1.00  0.00     0.198 A 
ATOM     72  F   UNL A   1      38.099  30.995  28.574  1.00  0.00    -0.203 F 
ATOM     73  F   UNL A   1      37.701  30.811  34.012  1.00  0.00    -0.200 F 
ATOM     74  C   UNL A   1      36.739  31.307  31.915  1.00  0.00     0.200 A 
ATOM     75  F   UNL A   1      35.817  31.782  29.794  1.00  0.00    -0.200 F 
ATOM     76  F   UNL A   1      35.599  31.681  32.510  1.00  0.00    -0.200 F 
ENDBRANCH  52  66
BRANCH  53  77
ATOM     77  C   UNL A   1      47.482  27.821  25.927  1.00  0.00     0.064 A 
ATOM     78  C   UNL A   1      47.494  27.803  24.526  1.00  0.00     0.173 A 
ATOM     79  C   UNL A   1      48.669  27.483  26.596  1.00  0.00     0.173 A 
ATOM     80  F   UNL A   1      46.376  28.096  23.845  1.00  0.00    -0.203 F 
ATOM     81  C   UNL A   1      48.643  27.453  23.823  1.00  0.00     0.198 A 
ATOM     82  C   UNL A   1      49.825  27.163  25.891  1.00  0.00     0.198 A 
ATOM     83  F   UNL A   1      48.709  27.489  27.937  1.00  0.00    -0.203 F 
ATOM     84  F   UNL A   1      48.618  27.408  22.483  1.00  0.00    -0.200 F 
ATOM     85  C   UNL A   1      49.810  27.142  24.505  1.00  0.00     0.200 A 
ATOM     86  F   UNL A   1      50.954  26.878  26.554  1.00  0.00    -0.200 F 
ATOM     87  F   UNL A   1      50.919  26.817  23.826  1.00  0.00    -0.200 F 
ENDBRANCH  53  77
BRANCH  65  88
ATOM     88  C   UNL A   1      45.273  33.778  28.767  1.00  0.00     0.064 A 
ATOM     89  C   UNL A   1      46.095  34.112  29.852  1.00  0.00     0.173 A 
ATOM     90  C   UNL A   1      45.064  34.748  27.775  1.00  0.00     0.173 A 
ATOM     91  F   UNL A   1      46.309  33.223  30.834  1.00  0.00    -0.203 F 
ATOM     92  C   UNL A   1      46.667  35.377  29.954  1.00  0.00     0.198 A 
ATOM     93  C   UNL A   1      45.658  36.004  27.866  1.00  0.00     0.198 A 
ATOM     94  F   UNL A   1      44.287  34.478  26.716  1.00  0.00    -0.203 F 
ATOM     95  F   UNL A   1      47.412  35.690  31.022  1.00  0.00    -0.200 F 
ATOM     96  C   UNL A   1      46.453  36.320  28.959  1.00  0.00     0.200 A 
ATOM     97  F   UNL A   1      45.457  36.911  26.901  1.00  0.00    -0.200 F 
ATOM     98  F   UNL A   1      47.004  37.537  29.058  1.00  0.00    -0.200 F 
ENDBRANCH  65  88
ENDBRANCH  39  40
ENDBRANCH  32  34
ENDBRANCH  31  32
ENDBRANCH  30  31
ENDBRANCH   1  30
TORSDOF 13
ENDMDL
MODEL 3
REMARK VINA RESULT:     -12.8      4.310      9.755
REMARK SMILES CN1C(=O)C[C@@H](C(=O)OCCOC(=O)c2ccc(-c3c4nc(c(-c5c(F)c(F)c(F)c(F)c5F)c5ccc([nH]5)c(-c5c(F)c(F)c(F)c(F)c5F)c5nc(c(-c6c(F)c(F)c(F)c(F)c6F)c6ccc3[nH]6)C=C5)C=C4)cc2)C12CCN(C(=O)c1ccccc1-n1cccn1)CC2
REMARK SMILES IDX 10 1 9 2 7 3 8 4 6 5 1 6 2 7 3 8 78 9 4 10 5 11 79 12 96 13
REMARK SMILES IDX 80 14 95 15 81 16 82 17 83 18 84 19 85 20 89 21 86 22 88 23
REMARK SMILES IDX 87 24 90 25 91 26 94 27 92 28 93 29 11 30 12 31 13 32 14 33
REMARK SMILES IDX 15 34 16 35 77 36 17 37 76 38 18 39 19 40 20 41 70 42 21 43
REMARK SMILES IDX 75 44 69 45 71 46 22 47 74 48 68 49 67 50 23 52 55 53 35 54
REMARK SMILES IDX 54 55 36 56 39 57 53 58 72 59 37 60 38 61 52 63 73 64 40 65
REMARK SMILES IDX 24 66 25 67 33 68 26 69 27 70 31 71 34 72 28 73 29 74 32 75
REMARK SMILES IDX 30 76 56 77 57 78 65 79 58 80 59 81 63 82 66 83 60 84 61 85
REMARK SMILES IDX 64 86 62 87 41 88 42 89 50 90 43 91 44 92 48 93 51 94 45 95
REMARK SMILES IDX 46 96 49 97 47 98
REMARK H PARENT 71 51 39 62
REMARK Flexibility Score: inf
ROOT
ATOM      1  C   UNL A   1      31.671  29.545  26.029  1.00  0.00     0.274 C 
ENDROOT
BRANCH   1   2
ATOM      2  O   UNL A   1      31.419  29.842  24.637  1.00  0.00    -0.462 OA
BRANCH   2   3
ATOM      3  C   UNL A   1      32.257  29.261  23.755  1.00  0.00     0.311 C 
ATOM      4  O   UNL A   1      33.446  29.551  23.641  1.00  0.00    -0.252 OA
BRANCH   3   5
ATOM      5  C   UNL A   1      31.637  28.197  22.863  1.00  0.00     0.134 C 
ATOM      6  C   UNL A   1      28.944  26.034  24.347  1.00  0.00     0.147 C 
ATOM      7  N   UNL A   1      29.826  27.033  23.773  1.00  0.00    -0.339 N 
ATOM      8  C   UNL A   1      29.274  28.163  23.177  1.00  0.00     0.223 C 
ATOM      9  C   UNL A   1      31.218  26.789  23.368  1.00  0.00     0.060 C 
ATOM     10  O   UNL A   1      28.116  28.526  23.243  1.00  0.00    -0.275 OA
ATOM     11  C   UNL A   1      30.335  28.819  22.340  1.00  0.00     0.118 C 
ATOM     12  C   UNL A   1      32.067  26.176  24.502  1.00  0.00     0.051 C 
ATOM     13  C   UNL A   1      31.234  25.770  22.180  1.00  0.00     0.051 C 
ATOM     14  C   UNL A   1      33.470  25.811  24.044  1.00  0.00     0.122 C 
ATOM     15  C   UNL A   1      32.633  25.278  21.791  1.00  0.00     0.122 C 
ATOM     16  N   UNL A   1      33.409  24.845  22.950  1.00  0.00    -0.338 N 
ATOM     17  C   UNL A   1      34.141  23.656  22.865  1.00  0.00     0.256 C 
ATOM     18  O   UNL A   1      34.167  22.955  21.855  1.00  0.00    -0.269 OA
BRANCH  17  19
ATOM     19  C   UNL A   1      34.977  23.207  24.005  1.00  0.00     0.065 A 
ATOM     20  C   UNL A   1      36.360  23.154  23.752  1.00  0.00     0.016 A 
ATOM     21  C   UNL A   1      34.498  22.908  25.289  1.00  0.00     0.077 A 
ATOM     22  C   UNL A   1      37.260  22.872  24.780  1.00  0.00     0.001 A 
ATOM     23  C   UNL A   1      35.418  22.686  26.331  1.00  0.00     0.029 A 
ATOM     24  C   UNL A   1      36.791  22.661  26.072  1.00  0.00     0.002 A 
BRANCH  21  25
ATOM     25  N   UNL A   1      33.118  22.798  25.592  1.00  0.00    -0.240 N 
ATOM     26  C   UNL A   1      32.140  22.096  24.920  1.00  0.00     0.115 A 
ATOM     27  N   UNL A   1      32.606  23.421  26.687  1.00  0.00    -0.177 NA
ATOM     28  C   UNL A   1      30.952  22.331  25.572  1.00  0.00     0.042 A 
ATOM     29  C   UNL A   1      31.297  23.170  26.641  1.00  0.00     0.135 A 
ENDBRANCH  21  25
ENDBRANCH  17  19
ENDBRANCH   3   5
ENDBRANCH   2   3
ENDBRANCH   1   2
BRANCH   1  30
ATOM     30  C   UNL A   1      31.919  30.831  26.821  1.00  0.00     0.275 C 
BRANCH  30  31
ATOM     31  O   UNL A   1      33.288  31.251  26.659  1.00  0.00    -0.458 OA
BRANCH  31  32
ATOM     32  C   UNL A   1      33.689  32.273  27.449  1.00  0.00     0.338 C 
ATOM     33  O   UNL A   1      33.124  33.342  27.603  1.00  0.00    -0.246 OA
BRANCH  32  34
ATOM     34  C   UNL A   1      34.915  31.910  28.194  1.00  0.00     0.060 A 
ATOM     35  C   UNL A   1      36.002  32.786  28.282  1.00  0.00     0.016 A 
ATOM     36  C   UNL A   1      35.029  30.619  28.711  1.00  0.00     0.016 A 
ATOM     37  C   UNL A   1      37.213  32.359  28.826  1.00  0.00     0.010 A 
ATOM     38  C   UNL A   1      36.210  30.225  29.345  1.00  0.00     0.010 A 
ATOM     39  C   UNL A   1      37.319  31.085  29.399  1.00  0.00    -0.014 A 
BRANCH  39  40
ATOM     40  C   UNL A   1      38.562  30.659  30.097  1.00  0.00     0.031 A 
ATOM     41  C   UNL A   1      39.495  29.665  29.463  1.00  0.00     0.074 A 
ATOM     42  C   UNL A   1      38.823  31.122  31.336  1.00  0.00     0.049 A 
ATOM     43  N   UNL A   1      40.484  28.997  30.001  1.00  0.00    -0.248 NA
ATOM     44  C   UNL A   1      39.276  29.371  28.039  1.00  0.00     0.031 C 
ATOM     45  C   UNL A   1      38.019  32.108  32.059  1.00  0.00     0.029 A 
ATOM     46  N   UNL A   1      39.831  30.808  32.214  1.00  0.00    -0.354 N 
ATOM     47  C   UNL A   1      40.973  28.169  28.999  1.00  0.00     0.074 A 
ATOM     48  C   UNL A   1      40.170  28.417  27.819  1.00  0.00     0.031 C 
ATOM     49  C   UNL A   1      38.570  32.330  33.261  1.00  0.00     0.029 A 
ATOM     50  C   UNL A   1      39.714  31.443  33.427  1.00  0.00     0.049 A 
ATOM     51  H   UNL A   1      40.566  30.190  31.996  1.00  0.00     0.167 HD
ATOM     52  C   UNL A   1      41.995  27.282  29.065  1.00  0.00     0.037 A 
ATOM     53  C   UNL A   1      40.415  31.293  34.566  1.00  0.00     0.037 A 
ATOM     54  C   UNL A   1      42.822  27.076  30.227  1.00  0.00     0.049 A 
ATOM     55  C   UNL A   1      41.527  30.287  34.620  1.00  0.00     0.074 A 
ATOM     56  C   UNL A   1      43.902  26.221  30.379  1.00  0.00     0.029 A 
ATOM     57  N   UNL A   1      42.670  27.742  31.435  1.00  0.00    -0.354 N 
ATOM     58  N   UNL A   1      41.957  29.481  33.681  1.00  0.00    -0.248 NA
ATOM     59  C   UNL A   1      42.243  30.160  35.897  1.00  0.00     0.031 C 
ATOM     60  C   UNL A   1      44.380  26.345  31.688  1.00  0.00     0.029 A 
ATOM     61  C   UNL A   1      43.628  27.308  32.338  1.00  0.00     0.049 A 
ATOM     62  H   UNL A   1      41.984  28.422  31.622  1.00  0.00     0.167 HD
ATOM     63  C   UNL A   1      43.004  28.766  34.245  1.00  0.00     0.074 A 
ATOM     64  C   UNL A   1      43.154  29.243  35.604  1.00  0.00     0.031 C 
ATOM     65  C   UNL A   1      43.770  27.798  33.686  1.00  0.00     0.037 A 
BRANCH  52  66
ATOM     66  C   UNL A   1      42.270  26.439  27.853  1.00  0.00     0.064 A 
ATOM     67  C   UNL A   1      43.235  26.799  26.902  1.00  0.00     0.173 A 
ATOM     68  C   UNL A   1      41.598  25.219  27.676  1.00  0.00     0.173 A 
ATOM     69  F   UNL A   1      43.899  27.957  27.021  1.00  0.00    -0.203 F 
ATOM     70  C   UNL A   1      43.503  25.979  25.808  1.00  0.00     0.198 A 
ATOM     71  C   UNL A   1      41.886  24.389  26.597  1.00  0.00     0.198 A 
ATOM     72  F   UNL A   1      40.670  24.824  28.562  1.00  0.00    -0.203 F 
ATOM     73  F   UNL A   1      44.405  26.358  24.893  1.00  0.00    -0.200 F 
ATOM     74  C   UNL A   1      42.835  24.771  25.662  1.00  0.00     0.200 A 
ATOM     75  F   UNL A   1      41.250  23.217  26.465  1.00  0.00    -0.200 F 
ATOM     76  F   UNL A   1      43.103  23.977  24.615  1.00  0.00    -0.200 F 
ENDBRANCH  52  66
BRANCH  53  77
ATOM     77  C   UNL A   1      40.058  32.103  35.758  1.00  0.00     0.064 A 
ATOM     78  C   UNL A   1      40.779  33.260  36.081  1.00  0.00     0.173 A 
ATOM     79  C   UNL A   1      38.978  31.752  36.584  1.00  0.00     0.173 A 
ATOM     80  F   UNL A   1      41.832  33.621  35.334  1.00  0.00    -0.203 F 
ATOM     81  C   UNL A   1      40.440  34.030  37.190  1.00  0.00     0.198 A 
ATOM     82  C   UNL A   1      38.623  32.540  37.674  1.00  0.00     0.198 A 
ATOM     83  F   UNL A   1      38.256  30.655  36.313  1.00  0.00    -0.203 F 
ATOM     84  F   UNL A   1      41.167  35.113  37.499  1.00  0.00    -0.200 F 
ATOM     85  C   UNL A   1      39.356  33.675  37.981  1.00  0.00     0.200 A 
ATOM     86  F   UNL A   1      37.566  32.201  38.425  1.00  0.00    -0.200 F 
ATOM     87  F   UNL A   1      39.023  34.424  39.041  1.00  0.00    -0.200 F 
ENDBRANCH  53  77
BRANCH  65  88
ATOM     88  C   UNL A   1      44.865  27.221  34.533  1.00  0.00     0.064 A 
ATOM     89  C   UNL A   1      46.141  27.798  34.577  1.00  0.00     0.173 A 
ATOM     90  C   UNL A   1      44.625  26.089  35.326  1.00  0.00     0.173 A 
ATOM     91  F   UNL A   1      46.423  28.871  33.823  1.00  0.00    -0.203 F 
ATOM     92  C   UNL A   1      47.148  27.247  35.366  1.00  0.00     0.198 A 
ATOM     93  C   UNL A   1      45.626  25.555  36.133  1.00  0.00     0.198 A 
ATOM     94  F   UNL A   1      43.419  25.502  35.320  1.00  0.00    -0.203 F 
ATOM     95  F   UNL A   1      48.374  27.786  35.358  1.00  0.00    -0.200 F 
ATOM     96  C   UNL A   1      46.888  26.130  36.147  1.00  0.00     0.200 A 
ATOM     97  F   UNL A   1      45.371  24.482  36.892  1.00  0.00    -0.200 F 
ATOM     98  F   UNL A   1      47.858  25.601  36.905  1.00  0.00    -0.200 F 
ENDBRANCH  65  88
ENDBRANCH  39  40
ENDBRANCH  32  34
ENDBRANCH  31  32
ENDBRANCH  30  31
ENDBRANCH   1  30
TORSDOF 13
ENDMDL
