MODEL 1
REMARK VINA RESULT:     -13.2      0.000      0.000
REMARK SMILES O=C(OCCOC(=O)c1cc(OC[C@@H]2Cc3cc(F)ccc3O2)cs1)c1ccc(-c2c3nc(c(-c4c(F)c(F)c(F)c(F)c4F)c4ccc([nH]4)c(-c4c(F)c(F)c(F)c(F)c4F)c4nc(c(-c5c(F)c(F)c(F)c(F)c5F)c5ccc2[nH]5)C=C4)C=C3)cc1
REMARK SMILES IDX 5 1 4 2 3 3 2 4 1 5 26 6 27 7 88 8 28 9 87 10 29 11 30 12
REMARK SMILES IDX 31 13 81 14 32 15 86 16 80 17 82 18 33 19 85 20 79 21 78 22
REMARK SMILES IDX 34 24 66 25 46 26 65 27 47 28 50 29 64 30 83 31 48 32 49 33
REMARK SMILES IDX 63 35 84 36 51 37 35 38 36 39 44 40 37 41 38 42 42 43 45 44
REMARK SMILES IDX 39 45 40 46 43 47 41 48 67 49 68 50 76 51 69 52 70 53 74 54
REMARK SMILES IDX 77 55 71 56 72 57 75 58 73 59 52 60 53 61 61 62 54 63 55 64
REMARK SMILES IDX 59 65 62 66 56 67 57 68 60 69 58 70 6 71 7 72 8 73 9 74
REMARK SMILES IDX 10 75 25 76 11 77 24 78 12 79 13 80 14 81 15 82 23 83 16 84
REMARK SMILES IDX 22 85 17 86 21 87 18 88 20 89 19 90
REMARK H PARENT 82 23 50 34
REMARK Flexibility Score: inf
ROOT
ATOM      1  C   UNL A   1      42.591  20.686  25.978  1.00  0.00     0.275 C 
ENDROOT
BRANCH   1   2
ATOM      2  C   UNL A   1      43.766  21.324  25.220  1.00  0.00     0.275 C 
BRANCH   2   3
ATOM      3  O   UNL A   1      43.523  22.652  24.736  1.00  0.00    -0.458 OA
BRANCH   3   4
ATOM      4  C   UNL A   1      44.184  23.807  24.984  1.00  0.00     0.338 C 
ATOM      5  O   UNL A   1      45.137  24.099  24.262  1.00  0.00    -0.246 OA
BRANCH   4   6
ATOM      6  C   UNL A   1      43.920  24.678  26.176  1.00  0.00     0.060 A 
ATOM      7  C   UNL A   1      43.056  24.139  27.144  1.00  0.00     0.016 A 
ATOM      8  C   UNL A   1      44.356  25.996  26.354  1.00  0.00     0.016 A 
ATOM      9  C   UNL A   1      42.491  24.956  28.119  1.00  0.00     0.010 A 
ATOM     10  C   UNL A   1      43.780  26.825  27.314  1.00  0.00     0.010 A 
ATOM     11  C   UNL A   1      42.783  26.330  28.141  1.00  0.00    -0.014 A 
BRANCH  11  12
ATOM     12  C   UNL A   1      42.149  27.230  29.104  1.00  0.00     0.031 A 
ATOM     13  C   UNL A   1      40.999  28.151  28.760  1.00  0.00     0.074 A 
ATOM     14  C   UNL A   1      42.658  27.196  30.351  1.00  0.00     0.049 A 
ATOM     15  N   UNL A   1      40.137  28.940  29.939  1.00  0.00    -0.248 NA
ATOM     16  C   UNL A   1      40.120  28.651  26.963  1.00  0.00     0.031 C 
ATOM     17  C   UNL A   1      43.770  26.322  30.737  1.00  0.00     0.029 A 
ATOM     18  N   UNL A   1      42.362  27.889  31.498  1.00  0.00    -0.354 N 
ATOM     19  C   UNL A   1      38.808  29.926  29.198  1.00  0.00     0.074 A 
ATOM     20  C   UNL A   1      38.884  29.654  27.304  1.00  0.00     0.031 C 
ATOM     21  C   UNL A   1      44.079  26.542  32.016  1.00  0.00     0.029 A 
ATOM     22  C   UNL A   1      43.224  27.605  32.531  1.00  0.00     0.049 A 
ATOM     23  H   UNL A   1      41.613  28.523  31.574  1.00  0.00     0.167 HD
ATOM     24  C   UNL A   1      37.914  30.721  29.821  1.00  0.00     0.037 A 
ATOM     25  C   UNL A   1      43.366  28.136  33.758  1.00  0.00     0.037 A 
ATOM     26  C   UNL A   1      38.011  31.133  31.193  1.00  0.00     0.049 A 
ATOM     27  C   UNL A   1      42.409  29.190  34.233  1.00  0.00     0.074 A 
ATOM     28  C   UNL A   1      37.180  32.012  31.865  1.00  0.00     0.029 A 
ATOM     29  N   UNL A   1      39.017  30.768  32.087  1.00  0.00    -0.354 N 
ATOM     30  N   UNL A   1      41.355  29.697  33.642  1.00  0.00    -0.248 NA
ATOM     31  C   UNL A   1      42.662  29.719  35.579  1.00  0.00     0.031 C 
ATOM     32  C   UNL A   1      37.725  32.252  33.127  1.00  0.00     0.029 A 
ATOM     33  C   UNL A   1      38.845  31.452  33.284  1.00  0.00     0.049 A 
ATOM     34  H   UNL A   1      39.739  30.125  31.898  1.00  0.00     0.167 HD
ATOM     35  C   UNL A   1      40.785  30.562  34.568  1.00  0.00     0.074 A 
ATOM     36  C   UNL A   1      41.607  30.497  35.759  1.00  0.00     0.031 C 
ATOM     37  C   UNL A   1      39.681  31.339  34.456  1.00  0.00     0.037 A 
BRANCH  24  38
ATOM     38  C   UNL A   1      36.759  31.172  28.995  1.00  0.00     0.064 A 
ATOM     39  C   UNL A   1      35.755  30.254  28.653  1.00  0.00     0.173 A 
ATOM     40  C   UNL A   1      36.566  32.516  28.651  1.00  0.00     0.173 A 
ATOM     41  F   UNL A   1      35.896  28.959  28.971  1.00  0.00    -0.203 F 
ATOM     42  C   UNL A   1      34.601  30.665  27.994  1.00  0.00     0.198 A 
ATOM     43  C   UNL A   1      35.405  32.928  28.001  1.00  0.00     0.198 A 
ATOM     44  F   UNL A   1      37.496  33.431  28.964  1.00  0.00    -0.203 F 
ATOM     45  F   UNL A   1      33.660  29.767  27.673  1.00  0.00    -0.200 F 
ATOM     46  C   UNL A   1      34.423  32.002  27.675  1.00  0.00     0.200 A 
ATOM     47  F   UNL A   1      35.230  34.222  27.700  1.00  0.00    -0.200 F 
ATOM     48  F   UNL A   1      33.305  32.400  27.052  1.00  0.00    -0.200 F 
ENDBRANCH  24  38
BRANCH  25  49
ATOM     49  C   UNL A   1      44.476  27.653  34.628  1.00  0.00     0.064 A 
ATOM     50  C   UNL A   1      44.297  26.563  35.490  1.00  0.00     0.173 A 
ATOM     51  C   UNL A   1      45.746  28.254  34.593  1.00  0.00     0.173 A 
ATOM     52  F   UNL A   1      43.101  25.960  35.566  1.00  0.00    -0.203 F 
ATOM     53  C   UNL A   1      45.332  26.113  36.304  1.00  0.00     0.198 A 
ATOM     54  C   UNL A   1      46.794  27.771  35.372  1.00  0.00     0.198 A 
ATOM     55  F   UNL A   1      45.979  29.289  33.772  1.00  0.00    -0.203 F 
ATOM     56  F   UNL A   1      45.115  25.107  37.162  1.00  0.00    -0.200 F 
ATOM     57  C   UNL A   1      46.582  26.709  36.238  1.00  0.00     0.200 A 
ATOM     58  F   UNL A   1      48.008  28.331  35.280  1.00  0.00    -0.200 F 
ATOM     59  F   UNL A   1      47.581  26.267  37.012  1.00  0.00    -0.200 F 
ENDBRANCH  25  49
BRANCH  37  60
ATOM     60  C   UNL A   1      39.274  32.130  35.673  1.00  0.00     0.064 A 
ATOM     61  C   UNL A   1      39.717  33.443  35.892  1.00  0.00     0.173 A 
ATOM     62  C   UNL A   1      38.380  31.578  36.605  1.00  0.00     0.173 A 
ATOM     63  F   UNL A   1      40.585  34.015  35.042  1.00  0.00    -0.203 F 
ATOM     64  C   UNL A   1      39.302  34.163  37.010  1.00  0.00     0.198 A 
ATOM     65  C   UNL A   1      37.929  32.317  37.694  1.00  0.00     0.198 A 
ATOM     66  F   UNL A   1      37.919  30.329  36.442  1.00  0.00    -0.203 F 
ATOM     67  F   UNL A   1      39.785  35.394  37.229  1.00  0.00    -0.200 F 
ATOM     68  C   UNL A   1      38.398  33.605  37.902  1.00  0.00     0.200 A 
ATOM     69  F   UNL A   1      37.034  31.786  38.537  1.00  0.00    -0.200 F 
ATOM     70  F   UNL A   1      37.979  34.309  38.962  1.00  0.00    -0.200 F 
ENDBRANCH  37  60
ENDBRANCH  11  12
ENDBRANCH   4   6
ENDBRANCH   3   4
ENDBRANCH   2   3
ENDBRANCH   1   2
BRANCH   1  71
ATOM     71  O   UNL A   1      41.331  21.366  25.816  1.00  0.00    -0.458 OA
BRANCH  71  72
ATOM     72  C   UNL A   1      40.485  21.473  26.900  1.00  0.00     0.348 C 
ATOM     73  O   UNL A   1      40.741  21.013  28.003  1.00  0.00    -0.245 OA
BRANCH  72  74
ATOM     74  C   UNL A   1      39.290  22.217  26.502  1.00  0.00     0.116 A 
ATOM     75  C   UNL A   1      38.283  21.772  25.676  1.00  0.00     0.074 A 
ATOM     76  S   UNL A   1      39.002  23.856  26.869  1.00  0.00    -0.133 S 
ATOM     77  C   UNL A   1      37.201  22.666  25.400  1.00  0.00     0.131 A 
ATOM     78  C   UNL A   1      37.570  23.906  25.882  1.00  0.00     0.112 A 
BRANCH  77  79
ATOM     79  O   UNL A   1      36.207  22.525  24.445  1.00  0.00    -0.489 OA
BRANCH  79  80
ATOM     80  C   UNL A   1      34.595  22.700  24.827  1.00  0.00     0.275 C 
BRANCH  80  81
ATOM     81  C   UNL A   1      33.661  24.452  25.956  1.00  0.00     0.215 C 
ATOM     82  C   UNL A   1      32.048  25.063  26.095  1.00  0.00     0.088 C 
ATOM     83  O   UNL A   1      34.375  25.977  25.766  1.00  0.00    -0.486 OA
ATOM     84  C   UNL A   1      32.118  26.435  25.507  1.00  0.00     0.001 A 
ATOM     85  C   UNL A   1      33.419  26.861  25.350  1.00  0.00     0.123 A 
ATOM     86  C   UNL A   1      31.077  27.283  25.151  1.00  0.00     0.047 A 
ATOM     87  C   UNL A   1      33.745  28.077  24.762  1.00  0.00     0.050 A 
ATOM     88  C   UNL A   1      31.387  28.524  24.586  1.00  0.00     0.123 A 
ATOM     89  C   UNL A   1      32.709  28.919  24.369  1.00  0.00     0.043 A 
ATOM     90  F   UNL A   1      30.396  29.356  24.239  1.00  0.00    -0.207 F 
ENDBRANCH  80  81
ENDBRANCH  79  80
ENDBRANCH  77  79
ENDBRANCH  72  74
ENDBRANCH  71  72
ENDBRANCH   1  71
TORSDOF 14
ENDMDL
MODEL 2
REMARK VINA RESULT:     -12.9      1.779      2.765
REMARK SMILES O=C(OCCOC(=O)c1cc(OC[C@@H]2Cc3cc(F)ccc3O2)cs1)c1ccc(-c2c3nc(c(-c4c(F)c(F)c(F)c(F)c4F)c4ccc([nH]4)c(-c4c(F)c(F)c(F)c(F)c4F)c4nc(c(-c5c(F)c(F)c(F)c(F)c5F)c5ccc2[nH]5)C=C4)C=C3)cc1
REMARK SMILES IDX 5 1 4 2 3 3 2 4 1 5 26 6 27 7 88 8 28 9 87 10 29 11 30 12
REMARK SMILES IDX 31 13 81 14 32 15 86 16 80 17 82 18 33 19 85 20 79 21 78 22
REMARK SMILES IDX 34 24 66 25 46 26 65 27 47 28 50 29 64 30 83 31 48 32 49 33
REMARK SMILES IDX 63 35 84 36 51 37 35 38 36 39 44 40 37 41 38 42 42 43 45 44
REMARK SMILES IDX 39 45 40 46 43 47 41 48 67 49 68 50 76 51 69 52 70 53 74 54
REMARK SMILES IDX 77 55 71 56 72 57 75 58 73 59 52 60 53 61 61 62 54 63 55 64
REMARK SMILES IDX 59 65 62 66 56 67 57 68 60 69 58 70 6 71 7 72 8 73 9 74
REMARK SMILES IDX 10 75 25 76 11 77 24 78 12 79 13 80 14 81 15 82 23 83 16 84
REMARK SMILES IDX 22 85 17 86 21 87 18 88 20 89 19 90
REMARK H PARENT 82 23 50 34
REMARK Flexibility Score: inf
ROOT
ATOM      1  C   UNL A   1      45.286  20.100  25.011  1.00  0.00     0.275 C 
ENDROOT
BRANCH   1   2
ATOM      2  C   UNL A   1      46.009  21.442  25.210  1.00  0.00     0.275 C 
BRANCH   2   3
ATOM      3  O   UNL A   1      45.152  22.591  25.235  1.00  0.00    -0.458 OA
BRANCH   3   4
ATOM      4  C   UNL A   1      45.386  23.845  25.689  1.00  0.00     0.338 C 
ATOM      5  O   UNL A   1      46.529  24.292  25.600  1.00  0.00    -0.246 OA
BRANCH   4   6
ATOM      6  C   UNL A   1      44.371  24.667  26.427  1.00  0.00     0.060 A 
ATOM      7  C   UNL A   1      44.485  26.058  26.269  1.00  0.00     0.016 A 
ATOM      8  C   UNL A   1      43.413  24.190  27.329  1.00  0.00     0.016 A 
ATOM      9  C   UNL A   1      43.820  26.924  27.133  1.00  0.00     0.010 A 
ATOM     10  C   UNL A   1      42.761  25.048  28.211  1.00  0.00     0.010 A 
ATOM     11  C   UNL A   1      43.029  26.408  28.173  1.00  0.00    -0.014 A 
BRANCH  11  12
ATOM     12  C   UNL A   1      42.378  27.286  29.145  1.00  0.00     0.031 A 
ATOM     13  C   UNL A   1      41.216  28.195  28.808  1.00  0.00     0.074 A 
ATOM     14  C   UNL A   1      42.882  27.244  30.393  1.00  0.00     0.049 A 
ATOM     15  N   UNL A   1      40.339  28.957  29.993  1.00  0.00    -0.248 NA
ATOM     16  C   UNL A   1      40.338  28.706  27.014  1.00  0.00     0.031 C 
ATOM     17  C   UNL A   1      44.005  26.381  30.773  1.00  0.00     0.029 A 
ATOM     18  N   UNL A   1      42.572  27.918  31.548  1.00  0.00    -0.354 N 
ATOM     19  C   UNL A   1      38.999  29.934  29.258  1.00  0.00     0.074 A 
ATOM     20  C   UNL A   1      39.087  29.688  27.361  1.00  0.00     0.031 C 
ATOM     21  C   UNL A   1      44.306  26.588  32.056  1.00  0.00     0.029 A 
ATOM     22  C   UNL A   1      43.434  27.632  32.581  1.00  0.00     0.049 A 
ATOM     23  H   UNL A   1      41.814  28.541  31.628  1.00  0.00     0.167 HD
ATOM     24  C   UNL A   1      38.091  30.708  29.888  1.00  0.00     0.037 A 
ATOM     25  C   UNL A   1      43.563  28.150  33.815  1.00  0.00     0.037 A 
ATOM     26  C   UNL A   1      38.177  31.104  31.266  1.00  0.00     0.049 A 
ATOM     27  C   UNL A   1      42.589  29.184  34.299  1.00  0.00     0.074 A 
ATOM     28  C   UNL A   1      37.331  31.962  31.945  1.00  0.00     0.029 A 
ATOM     29  N   UNL A   1      39.184  30.742  32.159  1.00  0.00    -0.354 N 
ATOM     30  N   UNL A   1      41.531  29.684  33.710  1.00  0.00    -0.248 NA
ATOM     31  C   UNL A   1      42.830  29.700  35.653  1.00  0.00     0.031 C 
ATOM     32  C   UNL A   1      37.867  32.194  33.212  1.00  0.00     0.029 A 
ATOM     33  C   UNL A   1      38.998  31.408  33.364  1.00  0.00     0.049 A 
ATOM     34  H   UNL A   1      39.916  30.112  31.964  1.00  0.00     0.167 HD
ATOM     35  C   UNL A   1      40.945  30.529  34.645  1.00  0.00     0.074 A 
ATOM     36  C   UNL A   1      41.763  30.461  35.838  1.00  0.00     0.031 C 
ATOM     37  C   UNL A   1      39.831  31.292  34.538  1.00  0.00     0.037 A 
BRANCH  24  38
ATOM     38  C   UNL A   1      36.933  31.154  29.063  1.00  0.00     0.064 A 
ATOM     39  C   UNL A   1      35.885  30.258  28.806  1.00  0.00     0.173 A 
ATOM     40  C   UNL A   1      36.785  32.480  28.637  1.00  0.00     0.173 A 
ATOM     41  F   UNL A   1      35.982  28.981  29.203  1.00  0.00    -0.203 F 
ATOM     42  C   UNL A   1      34.730  30.674  28.149  1.00  0.00     0.198 A 
ATOM     43  C   UNL A   1      35.625  32.897  27.990  1.00  0.00     0.198 A 
ATOM     44  F   UNL A   1      37.759  33.373  28.867  1.00  0.00    -0.203 F 
ATOM     45  F   UNL A   1      33.746  29.797  27.911  1.00  0.00    -0.200 F 
ATOM     46  C   UNL A   1      34.598  31.994  27.749  1.00  0.00     0.200 A 
ATOM     47  F   UNL A   1      35.494  34.176  27.610  1.00  0.00    -0.200 F 
ATOM     48  F   UNL A   1      33.481  32.398  27.129  1.00  0.00    -0.200 F 
ENDBRANCH  24  38
BRANCH  25  49
ATOM     49  C   UNL A   1      44.676  27.672  34.683  1.00  0.00     0.064 A 
ATOM     50  C   UNL A   1      45.929  28.299  34.664  1.00  0.00     0.173 A 
ATOM     51  C   UNL A   1      44.500  26.596  35.570  1.00  0.00     0.173 A 
ATOM     52  F   UNL A   1      46.150  29.325  33.829  1.00  0.00    -0.203 F 
ATOM     53  C   UNL A   1      46.970  27.851  35.472  1.00  0.00     0.198 A 
ATOM     54  C   UNL A   1      45.527  26.181  36.413  1.00  0.00     0.198 A 
ATOM     55  F   UNL A   1      43.315  25.971  35.644  1.00  0.00    -0.203 F 
ATOM     56  F   UNL A   1      48.174  28.431  35.389  1.00  0.00    -0.200 F 
ATOM     57  C   UNL A   1      46.766  26.800  36.354  1.00  0.00     0.200 A 
ATOM     58  F   UNL A   1      45.316  25.186  37.286  1.00  0.00    -0.200 F 
ATOM     59  F   UNL A   1      47.765  26.379  37.140  1.00  0.00    -0.200 F 
ENDBRANCH  25  49
BRANCH  37  60
ATOM     60  C   UNL A   1      39.407  32.061  35.763  1.00  0.00     0.064 A 
ATOM     61  C   UNL A   1      39.903  33.342  36.048  1.00  0.00     0.173 A 
ATOM     62  C   UNL A   1      38.446  31.524  36.635  1.00  0.00     0.173 A 
ATOM     63  F   UNL A   1      40.836  33.898  35.258  1.00  0.00    -0.203 F 
ATOM     64  C   UNL A   1      39.474  34.044  37.172  1.00  0.00     0.198 A 
ATOM     65  C   UNL A   1      37.982  32.249  37.729  1.00  0.00     0.198 A 
ATOM     66  F   UNL A   1      37.932  30.306  36.407  1.00  0.00    -0.203 F 
ATOM     67  F   UNL A   1      40.006  35.242  37.455  1.00  0.00    -0.200 F 
ATOM     68  C   UNL A   1      38.503  33.503  38.002  1.00  0.00     0.200 A 
ATOM     69  F   UNL A   1      37.025  31.736  38.512  1.00  0.00    -0.200 F 
ATOM     70  F   UNL A   1      38.071  34.192  39.067  1.00  0.00    -0.200 F 
ENDBRANCH  37  60
ENDBRANCH  11  12
ENDBRANCH   4   6
ENDBRANCH   3   4
ENDBRANCH   2   3
ENDBRANCH   1   2
BRANCH   1  71
ATOM     71  O   UNL A   1      43.872  20.210  24.760  1.00  0.00    -0.458 OA
BRANCH  71  72
ATOM     72  C   UNL A   1      43.005  19.388  25.448  1.00  0.00     0.348 C 
ATOM     73  O   UNL A   1      43.057  18.167  25.407  1.00  0.00    -0.245 OA
BRANCH  72  74
ATOM     74  C   UNL A   1      42.066  20.213  26.209  1.00  0.00     0.116 A 
ATOM     75  C   UNL A   1      41.455  21.369  25.779  1.00  0.00     0.074 A 
ATOM     76  S   UNL A   1      41.675  19.974  27.850  1.00  0.00    -0.133 S 
ATOM     77  C   UNL A   1      40.574  22.037  26.688  1.00  0.00     0.131 A 
ATOM     78  C   UNL A   1      40.740  21.439  27.921  1.00  0.00     0.112 A 
BRANCH  77  79
ATOM     79  O   UNL A   1      40.029  23.304  26.562  1.00  0.00    -0.489 OA
BRANCH  79  80
ATOM     80  C   UNL A   1      38.411  23.532  26.238  1.00  0.00     0.275 C 
BRANCH  80  81
ATOM     81  C   UNL A   1      37.197  22.467  24.623  1.00  0.00     0.215 C 
ATOM     82  C   UNL A   1      36.236  23.014  23.292  1.00  0.00     0.088 C 
ATOM     83  O   UNL A   1      36.087  21.289  25.125  1.00  0.00    -0.486 OA
ATOM     84  C   UNL A   1      34.856  22.536  23.607  1.00  0.00     0.001 A 
ATOM     85  C   UNL A   1      34.855  21.604  24.623  1.00  0.00     0.123 A 
ATOM     86  C   UNL A   1      33.655  22.888  23.006  1.00  0.00     0.047 A 
ATOM     87  C   UNL A   1      33.686  21.060  25.141  1.00  0.00     0.050 A 
ATOM     88  C   UNL A   1      32.471  22.325  23.494  1.00  0.00     0.123 A 
ATOM     89  C   UNL A   1      32.474  21.433  24.568  1.00  0.00     0.043 A 
ATOM     90  F   UNL A   1      31.303  22.651  22.924  1.00  0.00    -0.207 F 
ENDBRANCH  80  81
ENDBRANCH  79  80
ENDBRANCH  77  79
ENDBRANCH  72  74
ENDBRANCH  71  72
ENDBRANCH   1  71
TORSDOF 14
ENDMDL
MODEL 3
REMARK VINA RESULT:     -12.8      3.448      9.104
REMARK SMILES O=C(OCCOC(=O)c1cc(OC[C@@H]2Cc3cc(F)ccc3O2)cs1)c1ccc(-c2c3nc(c(-c4c(F)c(F)c(F)c(F)c4F)c4ccc([nH]4)c(-c4c(F)c(F)c(F)c(F)c4F)c4nc(c(-c5c(F)c(F)c(F)c(F)c5F)c5ccc2[nH]5)C=C4)C=C3)cc1
REMARK SMILES IDX 5 1 4 2 3 3 2 4 1 5 26 6 27 7 88 8 28 9 87 10 29 11 30 12
REMARK SMILES IDX 31 13 81 14 32 15 86 16 80 17 82 18 33 19 85 20 79 21 78 22
REMARK SMILES IDX 34 24 66 25 46 26 65 27 47 28 50 29 64 30 83 31 48 32 49 33
REMARK SMILES IDX 63 35 84 36 51 37 35 38 36 39 44 40 37 41 38 42 42 43 45 44
REMARK SMILES IDX 39 45 40 46 43 47 41 48 67 49 68 50 76 51 69 52 70 53 74 54
REMARK SMILES IDX 77 55 71 56 72 57 75 58 73 59 52 60 53 61 61 62 54 63 55 64
REMARK SMILES IDX 59 65 62 66 56 67 57 68 60 69 58 70 6 71 7 72 8 73 9 74
REMARK SMILES IDX 10 75 25 76 11 77 24 78 12 79 13 80 14 81 15 82 23 83 16 84
REMARK SMILES IDX 22 85 17 86 21 87 18 88 20 89 19 90
REMARK H PARENT 82 23 50 34
REMARK Flexibility Score: inf
ROOT
ATOM      1  C   UNL A   1      31.329  31.817  26.638  1.00  0.00     0.275 C 
ENDROOT
BRANCH   1   2
ATOM      2  C   UNL A   1      31.908  33.240  26.621  1.00  0.00     0.275 C 
BRANCH   2   3
ATOM      3  O   UNL A   1      32.270  33.760  27.907  1.00  0.00    -0.458 OA
BRANCH   3   4
ATOM      4  C   UNL A   1      33.443  34.276  28.343  1.00  0.00     0.338 C 
ATOM      5  O   UNL A   1      33.527  35.496  28.483  1.00  0.00    -0.246 OA
BRANCH   4   6
ATOM      6  C   UNL A   1      34.693  33.466  28.523  1.00  0.00     0.060 A 
ATOM      7  C   UNL A   1      34.501  32.131  28.914  1.00  0.00     0.016 A 
ATOM      8  C   UNL A   1      36.008  33.941  28.450  1.00  0.00     0.016 A 
ATOM      9  C   UNL A   1      35.563  31.381  29.413  1.00  0.00     0.010 A 
ATOM     10  C   UNL A   1      37.072  33.205  28.967  1.00  0.00     0.010 A 
ATOM     11  C   UNL A   1      36.838  31.960  29.529  1.00  0.00    -0.014 A 
BRANCH  11  12
ATOM     12  C   UNL A   1      37.958  31.226  30.119  1.00  0.00     0.031 A 
ATOM     13  C   UNL A   1      38.733  30.151  29.391  1.00  0.00     0.074 A 
ATOM     14  C   UNL A   1      38.272  31.567  31.384  1.00  0.00     0.049 A 
ATOM     15  N   UNL A   1      40.157  29.549  29.993  1.00  0.00    -0.248 NA
ATOM     16  C   UNL A   1      38.419  29.205  27.585  1.00  0.00     0.031 C 
ATOM     17  C   UNL A   1      37.555  32.603  32.134  1.00  0.00     0.029 A 
ATOM     18  N   UNL A   1      39.216  31.106  32.268  1.00  0.00    -0.354 N 
ATOM     19  C   UNL A   1      40.849  28.310  28.864  1.00  0.00     0.074 A 
ATOM     20  C   UNL A   1      39.668  28.185  27.362  1.00  0.00     0.031 C 
ATOM     21  C   UNL A   1      38.062  32.686  33.365  1.00  0.00     0.029 A 
ATOM     22  C   UNL A   1      39.107  31.680  33.513  1.00  0.00     0.049 A 
ATOM     23  H   UNL A   1      39.897  30.434  32.036  1.00  0.00     0.167 HD
ATOM     24  C   UNL A   1      41.976  27.583  29.013  1.00  0.00     0.037 A 
ATOM     25  C   UNL A   1      39.734  31.432  34.676  1.00  0.00     0.037 A 
ATOM     26  C   UNL A   1      42.718  27.479  30.238  1.00  0.00     0.049 A 
ATOM     27  C   UNL A   1      40.838  30.417  34.731  1.00  0.00     0.074 A 
ATOM     28  C   UNL A   1      43.826  26.687  30.481  1.00  0.00     0.029 A 
ATOM     29  N   UNL A   1      42.408  28.115  31.439  1.00  0.00    -0.354 N 
ATOM     30  N   UNL A   1      41.370  29.701  33.771  1.00  0.00    -0.248 NA
ATOM     31  C   UNL A   1      41.444  30.207  36.051  1.00  0.00     0.031 C 
ATOM     32  C   UNL A   1      44.134  26.768  31.839  1.00  0.00     0.029 A 
ATOM     33  C   UNL A   1      43.280  27.684  32.431  1.00  0.00     0.049 A 
ATOM     34  H   UNL A   1      41.681  28.768  31.564  1.00  0.00     0.167 HD
ATOM     35  C   UNL A   1      42.415  29.000  34.361  1.00  0.00     0.074 A 
ATOM     36  C   UNL A   1      42.441  29.389  35.757  1.00  0.00     0.031 C 
ATOM     37  C   UNL A   1      43.281  28.117  33.809  1.00  0.00     0.037 A 
BRANCH  24  38
ATOM     38  C   UNL A   1      42.451  26.863  27.798  1.00  0.00     0.064 A 
ATOM     39  C   UNL A   1      43.347  27.499  26.927  1.00  0.00     0.173 A 
ATOM     40  C   UNL A   1      42.138  25.520  27.555  1.00  0.00     0.173 A 
ATOM     41  F   UNL A   1      43.680  28.782  27.127  1.00  0.00    -0.203 F 
ATOM     42  C   UNL A   1      43.911  26.816  25.853  1.00  0.00     0.198 A 
ATOM     43  C   UNL A   1      42.711  24.834  26.488  1.00  0.00     0.198 A 
ATOM     44  F   UNL A   1      41.290  24.870  28.367  1.00  0.00    -0.203 F 
ATOM     45  F   UNL A   1      44.760  27.448  25.032  1.00  0.00    -0.200 F 
ATOM     46  C   UNL A   1      43.598  25.482  25.639  1.00  0.00     0.200 A 
ATOM     47  F   UNL A   1      42.415  23.543  26.286  1.00  0.00    -0.200 F 
ATOM     48  F   UNL A   1      44.152  24.821  24.614  1.00  0.00    -0.200 F 
ENDBRANCH  24  38
BRANCH  25  49
ATOM     49  C   UNL A   1      39.320  32.188  35.892  1.00  0.00     0.064 A 
ATOM     50  C   UNL A   1      38.370  31.665  36.779  1.00  0.00     0.173 A 
ATOM     51  C   UNL A   1      39.886  33.435  36.206  1.00  0.00     0.173 A 
ATOM     52  F   UNL A   1      37.793  30.482  36.521  1.00  0.00    -0.203 F 
ATOM     53  C   UNL A   1      37.980  32.371  37.914  1.00  0.00     0.198 A 
ATOM     54  C   UNL A   1      39.532  34.118  37.366  1.00  0.00     0.198 A 
ATOM     55  F   UNL A   1      40.815  33.974  35.401  1.00  0.00    -0.203 F 
ATOM     56  F   UNL A   1      37.026  31.875  38.712  1.00  0.00    -0.200 F 
ATOM     57  C   UNL A   1      38.568  33.592  38.213  1.00  0.00     0.200 A 
ATOM     58  F   UNL A   1      40.126  35.280  37.667  1.00  0.00    -0.200 F 
ATOM     59  F   UNL A   1      38.201  34.264  39.311  1.00  0.00    -0.200 F 
ENDBRANCH  25  49
BRANCH  37  60
ATOM     60  C   UNL A   1      44.360  27.564  34.705  1.00  0.00     0.064 A 
ATOM     61  C   UNL A   1      44.208  26.352  35.395  1.00  0.00     0.173 A 
ATOM     62  C   UNL A   1      45.587  28.236  34.827  1.00  0.00     0.173 A 
ATOM     63  F   UNL A   1      43.051  25.675  35.327  1.00  0.00    -0.203 F 
ATOM     64  C   UNL A   1      45.232  25.849  36.194  1.00  0.00     0.198 A 
ATOM     65  C   UNL A   1      46.626  27.706  35.586  1.00  0.00     0.198 A 
ATOM     66  F   UNL A   1      45.790  29.396  34.184  1.00  0.00    -0.203 F 
ATOM     67  F   UNL A   1      45.042  24.719  36.890  1.00  0.00    -0.200 F 
ATOM     68  C   UNL A   1      46.444  26.518  36.277  1.00  0.00     0.200 A 
ATOM     69  F   UNL A   1      47.804  28.339  35.641  1.00  0.00    -0.200 F 
ATOM     70  F   UNL A   1      47.437  26.017  37.023  1.00  0.00    -0.200 F 
ENDBRANCH  37  60
ENDBRANCH  11  12
ENDBRANCH   4   6
ENDBRANCH   3   4
ENDBRANCH   2   3
ENDBRANCH   1   2
BRANCH   1  71
ATOM     71  O   UNL A   1      32.244  30.790  26.208  1.00  0.00    -0.458 OA
BRANCH  71  72
ATOM     72  C   UNL A   1      31.858  29.469  26.298  1.00  0.00     0.348 C 
ATOM     73  O   UNL A   1      31.699  28.884  27.359  1.00  0.00    -0.245 OA
BRANCH  72  74
ATOM     74  C   UNL A   1      31.669  28.933  24.949  1.00  0.00     0.116 A 
ATOM     75  C   UNL A   1      32.512  28.075  24.282  1.00  0.00     0.074 A 
ATOM     76  S   UNL A   1      30.426  29.407  23.884  1.00  0.00    -0.133 S 
ATOM     77  C   UNL A   1      32.148  27.676  22.957  1.00  0.00     0.131 A 
ATOM     78  C   UNL A   1      31.090  28.476  22.572  1.00  0.00     0.112 A 
BRANCH  77  79
ATOM     79  O   UNL A   1      32.931  27.011  22.027  1.00  0.00    -0.489 OA
BRANCH  79  80
ATOM     80  C   UNL A   1      33.295  25.393  22.188  1.00  0.00     0.275 C 
BRANCH  80  81
ATOM     81  C   UNL A   1      33.894  24.334  24.121  1.00  0.00     0.215 C 
ATOM     82  C   UNL A   1      34.903  24.765  25.459  1.00  0.00     0.088 C 
ATOM     83  O   UNL A   1      34.492  22.754  23.995  1.00  0.00    -0.486 OA
ATOM     84  C   UNL A   1      36.008  23.760  25.432  1.00  0.00     0.001 A 
ATOM     85  C   UNL A   1      35.715  22.696  24.605  1.00  0.00     0.123 A 
ATOM     86  C   UNL A   1      37.210  23.769  26.127  1.00  0.00     0.047 A 
ATOM     87  C   UNL A   1      36.613  21.666  24.361  1.00  0.00     0.050 A 
ATOM     88  C   UNL A   1      38.113  22.722  25.918  1.00  0.00     0.123 A 
ATOM     89  C   UNL A   1      37.836  21.684  25.027  1.00  0.00     0.043 A 
ATOM     90  F   UNL A   1      39.277  22.713  26.584  1.00  0.00    -0.207 F 
ENDBRANCH  80  81
ENDBRANCH  79  80
ENDBRANCH  77  79
ENDBRANCH  72  74
ENDBRANCH  71  72
ENDBRANCH   1  71
TORSDOF 14
ENDMDL
