MODEL 1
REMARK VINA RESULT:     -12.1      0.000      0.000
REMARK SMILES NNC(=O)c1cccc([N+](=O)[O-])c1C(=O)OCCOC(=O)c1ccc(-c2c3nc(c(-c4c(F)c(F)c(F)c(F)c4F)c4ccc([nH]4)c(-c4c(F)c(F)c(F)c(F)c4F)c4nc(c(-c5c(F)c(F)c(F)c(F)c5F)c5ccc2[nH]5)C=C4)C=C3)cc1
REMARK SMILES IDX 17 1 16 2 14 3 15 4 13 5 5 6 6 7 7 8 9 9 8 10 3 11 2 12 4 14
REMARK SMILES IDX 1 15 10 18 11 19 12 20 18 21 19 22 20 23 21 24 22 25 23 26
REMARK SMILES IDX 84 27 24 28 83 29 25 30 26 31 27 32 77 33 28 34 82 35 76 36
REMARK SMILES IDX 78 37 29 38 81 39 75 40 74 41 30 43 62 44 42 45 61 46 43 47
REMARK SMILES IDX 46 48 60 49 79 50 44 51 45 52 59 54 80 55 47 56 31 57 32 58
REMARK SMILES IDX 40 59 33 60 34 61 38 62 41 63 35 64 36 65 39 66 37 67 63 68
REMARK SMILES IDX 64 69 72 70 65 71 66 72 70 73 73 74 67 75 68 76 71 77 69 78
REMARK SMILES IDX 48 79 49 80 57 81 50 82 51 83 55 84 58 85 52 86 53 87 56 88
REMARK SMILES IDX 54 89
REMARK H PARENT 2 13 1 16 1 17 78 42 46 53
REMARK Flexibility Score: inf
ROOT
ATOM      1  C   UNL A   1      31.307  29.518  24.925  1.00  0.00     0.275 C 
ENDROOT
BRANCH   1   2
ATOM      2  O   UNL A   1      31.453  28.756  23.704  1.00  0.00    -0.458 OA
BRANCH   2   3
ATOM      3  C   UNL A   1      31.022  27.475  23.746  1.00  0.00     0.346 C 
ATOM      4  O   UNL A   1      29.906  27.069  23.464  1.00  0.00    -0.246 OA
BRANCH   3   5
ATOM      5  C   UNL A   1      32.079  26.572  24.242  1.00  0.00     0.150 A 
ATOM      6  C   UNL A   1      33.197  26.269  23.452  1.00  0.00     0.062 A 
ATOM      7  C   UNL A   1      34.191  25.388  23.930  1.00  0.00     0.015 A 
ATOM      8  C   UNL A   1      34.110  24.828  25.205  1.00  0.00     0.008 A 
ATOM      9  C   UNL A   1      32.049  26.028  25.534  1.00  0.00     0.284 A 
ATOM     10  C   UNL A   1      33.038  25.154  26.017  1.00  0.00     0.086 A 
BRANCH   6  11
ATOM     11  C   UNL A   1      33.429  26.796  22.089  1.00  0.00     0.266 C 
ATOM     12  N   UNL A   1      33.966  28.053  21.880  1.00  0.00    -0.290 N 
ATOM     13  H   UNL A   1      34.093  28.323  20.943  1.00  0.00     0.184 HD
ATOM     14  O   UNL A   1      33.204  26.056  21.134  1.00  0.00    -0.268 OA
BRANCH  12  15
ATOM     15  N   UNL A   1      34.350  28.984  22.852  1.00  0.00    -0.248 NA
ATOM     16  H   UNL A   1      35.297  29.309  22.657  1.00  0.00     0.143 HD
ATOM     17  H   UNL A   1      34.323  28.546  23.773  1.00  0.00     0.143 HD
ENDBRANCH  12  15
ENDBRANCH   6  11
BRANCH   9  18
ATOM     18  N   UNL A   1      31.002  26.321  26.475  1.00  0.00     0.063 N 
ATOM     19  O   UNL A   1      30.038  25.545  26.478  1.00  0.00    -0.258 OA
ATOM     20  O   UNL A   1      31.205  27.232  27.285  1.00  0.00    -0.258 OA
ENDBRANCH   9  18
ENDBRANCH   3   5
ENDBRANCH   2   3
ENDBRANCH   1   2
BRANCH   1  21
ATOM     21  C   UNL A   1      32.649  30.028  25.443  1.00  0.00     0.275 C 
BRANCH  21  22
ATOM     22  O   UNL A   1      32.557  30.316  26.847  1.00  0.00    -0.458 OA
BRANCH  22  23
ATOM     23  C   UNL A   1      33.144  31.473  27.228  1.00  0.00     0.338 C 
ATOM     24  O   UNL A   1      32.639  32.579  27.298  1.00  0.00    -0.246 OA
BRANCH  23  25
ATOM     25  C   UNL A   1      34.514  31.202  27.674  1.00  0.00     0.060 A 
ATOM     26  C   UNL A   1      34.829  29.905  28.045  1.00  0.00     0.016 A 
ATOM     27  C   UNL A   1      35.410  32.239  27.926  1.00  0.00     0.016 A 
ATOM     28  C   UNL A   1      35.963  29.666  28.807  1.00  0.00     0.010 A 
ATOM     29  C   UNL A   1      36.632  31.958  28.555  1.00  0.00     0.010 A 
ATOM     30  C   UNL A   1      36.910  30.669  29.043  1.00  0.00    -0.014 A 
BRANCH  30  31
ATOM     31  C   UNL A   1      38.158  30.351  29.802  1.00  0.00     0.031 A 
ATOM     32  C   UNL A   1      39.230  29.485  29.191  1.00  0.00     0.074 A 
ATOM     33  C   UNL A   1      38.356  30.868  31.034  1.00  0.00     0.049 A 
ATOM     34  N   UNL A   1      40.237  28.879  29.771  1.00  0.00    -0.248 NA
ATOM     35  C   UNL A   1      39.157  29.257  27.740  1.00  0.00     0.031 C 
ATOM     36  C   UNL A   1      37.455  31.797  31.723  1.00  0.00     0.029 A 
ATOM     37  N   UNL A   1      39.387  30.702  31.929  1.00  0.00    -0.354 N 
ATOM     38  C   UNL A   1      40.866  28.140  28.774  1.00  0.00     0.074 A 
ATOM     39  C   UNL A   1      40.136  28.383  27.549  1.00  0.00     0.031 C 
ATOM     40  C   UNL A   1      38.003  32.178  32.880  1.00  0.00     0.029 A 
ATOM     41  C   UNL A   1      39.197  31.382  33.109  1.00  0.00     0.049 A 
ATOM     42  H   UNL A   1      40.180  30.149  31.744  1.00  0.00     0.167 HD
ATOM     43  C   UNL A   1      41.943  27.326  28.890  1.00  0.00     0.037 A 
ATOM     44  C   UNL A   1      39.844  31.311  34.287  1.00  0.00     0.037 A 
ATOM     45  C   UNL A   1      42.689  27.152  30.112  1.00  0.00     0.049 A 
ATOM     46  C   UNL A   1      40.969  30.330  34.420  1.00  0.00     0.074 A 
ATOM     47  C   UNL A   1      43.798  26.356  30.346  1.00  0.00     0.029 A 
ATOM     48  N   UNL A   1      42.407  27.801  31.307  1.00  0.00    -0.354 N 
ATOM     49  N   UNL A   1      41.499  29.554  33.508  1.00  0.00    -0.248 NA
ATOM     50  C   UNL A   1      41.560  30.184  35.755  1.00  0.00     0.031 C 
ATOM     51  C   UNL A   1      44.148  26.479  31.695  1.00  0.00     0.029 A 
ATOM     52  C   UNL A   1      43.297  27.396  32.290  1.00  0.00     0.049 A 
ATOM     53  H   UNL A   1      41.681  28.454  31.437  1.00  0.00     0.167 HD
ATOM     54  C   UNL A   1      42.484  28.824  34.153  1.00  0.00     0.074 A 
ATOM     55  C   UNL A   1      42.500  29.277  35.531  1.00  0.00     0.031 C 
ATOM     56  C   UNL A   1      43.292  27.859  33.655  1.00  0.00     0.037 A 
BRANCH  43  57
ATOM     57  C   UNL A   1      42.344  26.507  27.692  1.00  0.00     0.064 A 
ATOM     58  C   UNL A   1      43.348  26.911  26.800  1.00  0.00     0.173 A 
ATOM     59  C   UNL A   1      41.728  25.265  27.457  1.00  0.00     0.173 A 
ATOM     60  F   UNL A   1      43.969  28.088  26.970  1.00  0.00    -0.203 F 
ATOM     61  C   UNL A   1      43.697  26.121  25.705  1.00  0.00     0.198 A 
ATOM     62  C   UNL A   1      42.101  24.464  26.382  1.00  0.00     0.198 A 
ATOM     63  F   UNL A   1      40.767  24.820  28.282  1.00  0.00    -0.203 F 
ATOM     64  F   UNL A   1      44.625  26.550  24.839  1.00  0.00    -0.200 F 
ATOM     65  C   UNL A   1      43.078  24.896  25.500  1.00  0.00     0.200 A 
ATOM     66  F   UNL A   1      41.514  23.272  26.199  1.00  0.00    -0.200 F 
ATOM     67  F   UNL A   1      43.421  24.135  24.451  1.00  0.00    -0.200 F 
ENDBRANCH  43  57
BRANCH  44  68
ATOM     68  C   UNL A   1      39.357  32.106  35.448  1.00  0.00     0.064 A 
ATOM     69  C   UNL A   1      38.492  31.547  36.398  1.00  0.00     0.173 A 
ATOM     70  C   UNL A   1      39.770  33.434  35.648  1.00  0.00     0.173 A 
ATOM     71  F   UNL A   1      38.042  30.294  36.239  1.00  0.00    -0.203 F 
ATOM     72  C   UNL A   1      38.064  32.283  37.501  1.00  0.00     0.198 A 
ATOM     73  C   UNL A   1      39.376  34.153  36.773  1.00  0.00     0.198 A 
ATOM     74  F   UNL A   1      40.591  34.025  34.767  1.00  0.00    -0.203 F 
ATOM     75  F   UNL A   1      37.204  31.738  38.373  1.00  0.00    -0.200 F 
ATOM     76  C   UNL A   1      38.517  33.580  37.696  1.00  0.00     0.200 A 
ATOM     77  F   UNL A   1      39.837  35.397  36.967  1.00  0.00    -0.200 F 
ATOM     78  F   UNL A   1      38.121  34.278  38.768  1.00  0.00    -0.200 F 
ENDBRANCH  44  68
BRANCH  56  79
ATOM     79  C   UNL A   1      44.275  27.243  34.605  1.00  0.00     0.064 A 
ATOM     80  C   UNL A   1      45.525  27.833  34.848  1.00  0.00     0.173 A 
ATOM     81  C   UNL A   1      43.952  26.070  35.301  1.00  0.00     0.173 A 
ATOM     82  F   UNL A   1      45.889  28.942  34.188  1.00  0.00    -0.203 F 
ATOM     83  C   UNL A   1      46.422  27.257  35.743  1.00  0.00     0.198 A 
ATOM     84  C   UNL A   1      44.839  25.516  36.218  1.00  0.00     0.198 A 
ATOM     85  F   UNL A   1      42.769  25.470  35.101  1.00  0.00    -0.203 F 
ATOM     86  F   UNL A   1      47.629  27.810  35.925  1.00  0.00    -0.200 F 
ATOM     87  C   UNL A   1      46.075  26.105  36.433  1.00  0.00     0.200 A 
ATOM     88  F   UNL A   1      44.496  24.410  36.893  1.00  0.00    -0.200 F 
ATOM     89  F   UNL A   1      46.936  25.559  37.302  1.00  0.00    -0.200 F 
ENDBRANCH  56  79
ENDBRANCH  30  31
ENDBRANCH  23  25
ENDBRANCH  22  23
ENDBRANCH  21  22
ENDBRANCH   1  21
TORSDOF 14
ENDMDL
MODEL 2
REMARK VINA RESULT:     -11.8      1.496      2.688
REMARK SMILES NNC(=O)c1cccc([N+](=O)[O-])c1C(=O)OCCOC(=O)c1ccc(-c2c3nc(c(-c4c(F)c(F)c(F)c(F)c4F)c4ccc([nH]4)c(-c4c(F)c(F)c(F)c(F)c4F)c4nc(c(-c5c(F)c(F)c(F)c(F)c5F)c5ccc2[nH]5)C=C4)C=C3)cc1
REMARK SMILES IDX 17 1 16 2 14 3 15 4 13 5 5 6 6 7 7 8 9 9 8 10 3 11 2 12 4 14
REMARK SMILES IDX 1 15 10 18 11 19 12 20 18 21 19 22 20 23 21 24 22 25 23 26
REMARK SMILES IDX 84 27 24 28 83 29 25 30 26 31 27 32 77 33 28 34 82 35 76 36
REMARK SMILES IDX 78 37 29 38 81 39 75 40 74 41 30 43 62 44 42 45 61 46 43 47
REMARK SMILES IDX 46 48 60 49 79 50 44 51 45 52 59 54 80 55 47 56 31 57 32 58
REMARK SMILES IDX 40 59 33 60 34 61 38 62 41 63 35 64 36 65 39 66 37 67 63 68
REMARK SMILES IDX 64 69 72 70 65 71 66 72 70 73 73 74 67 75 68 76 71 77 69 78
REMARK SMILES IDX 48 79 49 80 57 81 50 82 51 83 55 84 58 85 52 86 53 87 56 88
REMARK SMILES IDX 54 89
REMARK H PARENT 2 13 1 16 1 17 78 42 46 53
REMARK Flexibility Score: inf
ROOT
ATOM      1  C   UNL A   1      31.720  29.139  25.298  1.00  0.00     0.275 C 
ENDROOT
BRANCH   1   2
ATOM      2  O   UNL A   1      31.508  29.403  23.892  1.00  0.00    -0.458 OA
BRANCH   2   3
ATOM      3  C   UNL A   1      31.065  28.363  23.150  1.00  0.00     0.346 C 
ATOM      4  O   UNL A   1      31.729  27.657  22.409  1.00  0.00    -0.246 OA
BRANCH   3   5
ATOM      5  C   UNL A   1      29.607  28.185  23.298  1.00  0.00     0.150 A 
ATOM      6  C   UNL A   1      28.709  29.136  22.793  1.00  0.00     0.062 A 
ATOM      7  C   UNL A   1      27.318  28.963  22.960  1.00  0.00     0.015 A 
ATOM      8  C   UNL A   1      26.799  27.833  23.590  1.00  0.00     0.008 A 
ATOM      9  C   UNL A   1      29.052  27.040  23.888  1.00  0.00     0.284 A 
ATOM     10  C   UNL A   1      27.668  26.860  24.052  1.00  0.00     0.086 A 
BRANCH   6  11
ATOM     11  C   UNL A   1      29.108  30.375  22.090  1.00  0.00     0.266 C 
ATOM     12  N   UNL A   1      29.408  31.534  22.780  1.00  0.00    -0.290 N 
ATOM     13  H   UNL A   1      29.671  32.311  22.237  1.00  0.00     0.184 HD
ATOM     14  O   UNL A   1      29.245  30.332  20.869  1.00  0.00    -0.268 OA
BRANCH  12  15
ATOM     15  N   UNL A   1      29.380  31.729  24.166  1.00  0.00    -0.248 NA
ATOM     16  H   UNL A   1      28.653  32.405  24.400  1.00  0.00     0.143 HD
ATOM     17  H   UNL A   1      30.285  32.081  24.479  1.00  0.00     0.143 HD
ENDBRANCH  12  15
ENDBRANCH   6  11
BRANCH   9  18
ATOM     18  N   UNL A   1      29.856  25.950  24.375  1.00  0.00     0.063 N 
ATOM     19  O   UNL A   1      30.133  25.068  23.553  1.00  0.00    -0.258 OA
ATOM     20  O   UNL A   1      30.309  26.046  25.520  1.00  0.00    -0.258 OA
ENDBRANCH   9  18
ENDBRANCH   3   5
ENDBRANCH   2   3
ENDBRANCH   1   2
BRANCH   1  21
ATOM     21  C   UNL A   1      31.769  30.425  26.119  1.00  0.00     0.275 C 
BRANCH  21  22
ATOM     22  O   UNL A   1      32.792  30.330  27.123  1.00  0.00    -0.458 OA
BRANCH  22  23
ATOM     23  C   UNL A   1      33.444  31.486  27.380  1.00  0.00     0.338 C 
ATOM     24  O   UNL A   1      32.995  32.617  27.361  1.00  0.00    -0.246 OA
BRANCH  23  25
ATOM     25  C   UNL A   1      34.813  31.188  27.811  1.00  0.00     0.060 A 
ATOM     26  C   UNL A   1      35.100  29.890  28.204  1.00  0.00     0.016 A 
ATOM     27  C   UNL A   1      35.739  32.206  28.030  1.00  0.00     0.016 A 
ATOM     28  C   UNL A   1      36.238  29.637  28.955  1.00  0.00     0.010 A 
ATOM     29  C   UNL A   1      36.962  31.906  28.648  1.00  0.00     0.010 A 
ATOM     30  C   UNL A   1      37.214  30.620  29.157  1.00  0.00    -0.014 A 
BRANCH  30  31
ATOM     31  C   UNL A   1      38.465  30.284  29.905  1.00  0.00     0.031 A 
ATOM     32  C   UNL A   1      39.522  29.408  29.282  1.00  0.00     0.074 A 
ATOM     33  C   UNL A   1      38.678  30.794  31.138  1.00  0.00     0.049 A 
ATOM     34  N   UNL A   1      40.526  28.788  29.851  1.00  0.00    -0.248 NA
ATOM     35  C   UNL A   1      39.434  29.187  27.830  1.00  0.00     0.031 C 
ATOM     36  C   UNL A   1      37.794  31.730  31.837  1.00  0.00     0.029 A 
ATOM     37  N   UNL A   1      39.714  30.612  32.024  1.00  0.00    -0.354 N 
ATOM     38  C   UNL A   1      41.138  28.047  28.847  1.00  0.00     0.074 A 
ATOM     39  C   UNL A   1      40.402  28.303  27.628  1.00  0.00     0.031 C 
ATOM     40  C   UNL A   1      38.355  32.100  32.992  1.00  0.00     0.029 A 
ATOM     41  C   UNL A   1      39.542  31.289  33.207  1.00  0.00     0.049 A 
ATOM     42  H   UNL A   1      40.499  30.051  31.830  1.00  0.00     0.167 HD
ATOM     43  C   UNL A   1      42.207  27.219  28.951  1.00  0.00     0.037 A 
ATOM     44  C   UNL A   1      40.197  31.206  34.380  1.00  0.00     0.037 A 
ATOM     45  C   UNL A   1      42.961  27.031  30.166  1.00  0.00     0.049 A 
ATOM     46  C   UNL A   1      41.312  30.212  34.501  1.00  0.00     0.074 A 
ATOM     47  C   UNL A   1      44.062  26.223  30.388  1.00  0.00     0.029 A 
ATOM     48  N   UNL A   1      42.696  27.680  31.365  1.00  0.00    -0.354 N 
ATOM     49  N   UNL A   1      41.825  29.433  33.581  1.00  0.00    -0.248 NA
ATOM     50  C   UNL A   1      41.911  30.054  35.830  1.00  0.00     0.031 C 
ATOM     51  C   UNL A   1      44.424  26.335  31.734  1.00  0.00     0.029 A 
ATOM     52  C   UNL A   1      43.589  27.260  32.340  1.00  0.00     0.049 A 
ATOM     53  H   UNL A   1      41.979  28.340  31.504  1.00  0.00     0.167 HD
ATOM     54  C   UNL A   1      42.807  28.690  34.215  1.00  0.00     0.074 A 
ATOM     55  C   UNL A   1      42.839  29.136  35.595  1.00  0.00     0.031 C 
ATOM     56  C   UNL A   1      43.600  27.717  33.707  1.00  0.00     0.037 A 
BRANCH  43  57
ATOM     57  C   UNL A   1      42.589  26.401  27.746  1.00  0.00     0.064 A 
ATOM     58  C   UNL A   1      43.587  26.799  26.845  1.00  0.00     0.173 A 
ATOM     59  C   UNL A   1      41.960  25.165  27.514  1.00  0.00     0.173 A 
ATOM     60  F   UNL A   1      44.219  27.970  27.012  1.00  0.00    -0.203 F 
ATOM     61  C   UNL A   1      43.918  26.009  25.744  1.00  0.00     0.198 A 
ATOM     62  C   UNL A   1      42.316  24.363  26.433  1.00  0.00     0.198 A 
ATOM     63  F   UNL A   1      41.004  24.725  28.348  1.00  0.00    -0.203 F 
ATOM     64  F   UNL A   1      44.841  26.434  24.870  1.00  0.00    -0.200 F 
ATOM     65  C   UNL A   1      43.287  24.790  25.542  1.00  0.00     0.200 A 
ATOM     66  F   UNL A   1      41.717  23.178  26.253  1.00  0.00    -0.200 F 
ATOM     67  F   UNL A   1      43.613  24.030  24.488  1.00  0.00    -0.200 F 
ENDBRANCH  43  57
BRANCH  44  68
ATOM     68  C   UNL A   1      39.728  32.002  35.548  1.00  0.00     0.064 A 
ATOM     69  C   UNL A   1      40.245  33.276  35.811  1.00  0.00     0.173 A 
ATOM     70  C   UNL A   1      38.731  31.514  36.411  1.00  0.00     0.173 A 
ATOM     71  F   UNL A   1      41.220  33.777  35.039  1.00  0.00    -0.203 F 
ATOM     72  C   UNL A   1      39.781  34.032  36.887  1.00  0.00     0.198 A 
ATOM     73  C   UNL A   1      38.239  32.287  37.458  1.00  0.00     0.198 A 
ATOM     74  F   UNL A   1      38.204  30.297  36.213  1.00  0.00    -0.203 F 
ATOM     75  F   UNL A   1      40.322  35.232  37.141  1.00  0.00    -0.200 F 
ATOM     76  C   UNL A   1      38.770  33.543  37.701  1.00  0.00     0.200 A 
ATOM     77  F   UNL A   1      37.244  31.819  38.225  1.00  0.00    -0.200 F 
ATOM     78  F   UNL A   1      38.311  34.281  38.721  1.00  0.00    -0.200 F 
ENDBRANCH  44  68
BRANCH  56  79
ATOM     79  C   UNL A   1      44.583  27.086  34.646  1.00  0.00     0.064 A 
ATOM     80  C   UNL A   1      44.276  25.908  35.344  1.00  0.00     0.173 A 
ATOM     81  C   UNL A   1      45.855  27.648  34.826  1.00  0.00     0.173 A 
ATOM     82  F   UNL A   1      43.064  25.348  35.223  1.00  0.00    -0.203 F 
ATOM     83  C   UNL A   1      45.204  25.326  36.203  1.00  0.00     0.198 A 
ATOM     84  C   UNL A   1      46.791  27.045  35.660  1.00  0.00     0.198 A 
ATOM     85  F   UNL A   1      46.195  28.773  34.180  1.00  0.00    -0.203 F 
ATOM     86  F   UNL A   1      44.873  24.229  36.897  1.00  0.00    -0.200 F 
ATOM     87  C   UNL A   1      46.463  25.890  36.353  1.00  0.00     0.200 A 
ATOM     88  F   UNL A   1      48.010  27.584  35.795  1.00  0.00    -0.200 F 
ATOM     89  F   UNL A   1      47.358  25.322  37.172  1.00  0.00    -0.200 F 
ENDBRANCH  56  79
ENDBRANCH  30  31
ENDBRANCH  23  25
ENDBRANCH  22  23
ENDBRANCH  21  22
ENDBRANCH   1  21
TORSDOF 14
ENDMDL
MODEL 3
REMARK VINA RESULT:     -11.8      4.626      9.992
REMARK SMILES NNC(=O)c1cccc([N+](=O)[O-])c1C(=O)OCCOC(=O)c1ccc(-c2c3nc(c(-c4c(F)c(F)c(F)c(F)c4F)c4ccc([nH]4)c(-c4c(F)c(F)c(F)c(F)c4F)c4nc(c(-c5c(F)c(F)c(F)c(F)c5F)c5ccc2[nH]5)C=C4)C=C3)cc1
REMARK SMILES IDX 17 1 16 2 14 3 15 4 13 5 5 6 6 7 7 8 9 9 8 10 3 11 2 12 4 14
REMARK SMILES IDX 1 15 10 18 11 19 12 20 18 21 19 22 20 23 21 24 22 25 23 26
REMARK SMILES IDX 84 27 24 28 83 29 25 30 26 31 27 32 77 33 28 34 82 35 76 36
REMARK SMILES IDX 78 37 29 38 81 39 75 40 74 41 30 43 62 44 42 45 61 46 43 47
REMARK SMILES IDX 46 48 60 49 79 50 44 51 45 52 59 54 80 55 47 56 31 57 32 58
REMARK SMILES IDX 40 59 33 60 34 61 38 62 41 63 35 64 36 65 39 66 37 67 63 68
REMARK SMILES IDX 64 69 72 70 65 71 66 72 70 73 73 74 67 75 68 76 71 77 69 78
REMARK SMILES IDX 48 79 49 80 57 81 50 82 51 83 55 84 58 85 52 86 53 87 56 88
REMARK SMILES IDX 54 89
REMARK H PARENT 2 13 1 16 1 17 78 42 46 53
REMARK Flexibility Score: inf
ROOT
ATOM      1  C   UNL A   1      35.177  21.177  25.636  1.00  0.00     0.275 C 
ENDROOT
BRANCH   1   2
ATOM      2  O   UNL A   1      34.288  21.133  24.496  1.00  0.00    -0.458 OA
BRANCH   2   3
ATOM      3  C   UNL A   1      33.080  21.719  24.659  1.00  0.00     0.346 C 
ATOM      4  O   UNL A   1      31.988  21.181  24.570  1.00  0.00    -0.246 OA
BRANCH   3   5
ATOM      5  C   UNL A   1      33.219  23.164  24.924  1.00  0.00     0.150 A 
ATOM      6  C   UNL A   1      32.785  23.720  26.135  1.00  0.00     0.062 A 
ATOM      7  C   UNL A   1      32.906  25.108  26.367  1.00  0.00     0.015 A 
ATOM      8  C   UNL A   1      33.490  25.951  25.423  1.00  0.00     0.008 A 
ATOM      9  C   UNL A   1      33.841  24.032  24.015  1.00  0.00     0.284 A 
ATOM     10  C   UNL A   1      33.969  25.412  24.242  1.00  0.00     0.086 A 
BRANCH   6  11
ATOM     11  C   UNL A   1      32.161  22.952  27.235  1.00  0.00     0.266 C 
ATOM     12  N   UNL A   1      30.830  22.580  27.193  1.00  0.00    -0.290 N 
ATOM     13  H   UNL A   1      30.495  22.065  27.962  1.00  0.00     0.184 HD
ATOM     14  O   UNL A   1      32.876  22.578  28.162  1.00  0.00    -0.268 OA
BRANCH  12  15
ATOM     15  N   UNL A   1      29.903  22.854  26.180  1.00  0.00    -0.248 NA
ATOM     16  H   UNL A   1      30.397  23.021  25.303  1.00  0.00     0.143 HD
ATOM     17  H   UNL A   1      29.362  23.682  26.429  1.00  0.00     0.143 HD
ENDBRANCH  12  15
ENDBRANCH   6  11
BRANCH   9  18
ATOM     18  N   UNL A   1      34.403  23.579  22.770  1.00  0.00     0.063 N 
ATOM     19  O   UNL A   1      33.650  23.607  21.789  1.00  0.00    -0.258 OA
ATOM     20  O   UNL A   1      35.613  23.327  22.751  1.00  0.00    -0.258 OA
ENDBRANCH   9  18
ENDBRANCH   3   5
ENDBRANCH   2   3
ENDBRANCH   1   2
BRANCH   1  21
ATOM     21  C   UNL A   1      36.582  20.698  25.283  1.00  0.00     0.275 C 
BRANCH  21  22
ATOM     22  O   UNL A   1      37.514  21.787  25.386  1.00  0.00    -0.458 OA
BRANCH  22  23
ATOM     23  C   UNL A   1      38.724  21.452  25.887  1.00  0.00     0.338 C 
ATOM     24  O   UNL A   1      39.325  20.402  25.751  1.00  0.00    -0.246 OA
BRANCH  23  25
ATOM     25  C   UNL A   1      39.308  22.613  26.567  1.00  0.00     0.060 A 
ATOM     26  C   UNL A   1      38.888  23.873  26.173  1.00  0.00     0.016 A 
ATOM     27  C   UNL A   1      40.399  22.474  27.422  1.00  0.00     0.016 A 
ATOM     28  C   UNL A   1      39.650  24.983  26.502  1.00  0.00     0.010 A 
ATOM     29  C   UNL A   1      41.066  23.620  27.881  1.00  0.00     0.010 A 
ATOM     30  C   UNL A   1      40.725  24.894  27.394  1.00  0.00    -0.014 A 
BRANCH  30  31
ATOM     31  C   UNL A   1      41.472  26.129  27.786  1.00  0.00     0.031 A 
ATOM     32  C   UNL A   1      40.819  27.184  28.643  1.00  0.00     0.074 A 
ATOM     33  C   UNL A   1      42.757  26.296  27.406  1.00  0.00     0.049 A 
ATOM     34  N   UNL A   1      41.188  28.422  28.859  1.00  0.00    -0.248 NA
ATOM     35  C   UNL A   1      39.580  26.805  29.339  1.00  0.00     0.031 C 
ATOM     36  C   UNL A   1      43.557  25.324  26.655  1.00  0.00     0.029 A 
ATOM     37  N   UNL A   1      43.631  27.338  27.609  1.00  0.00    -0.354 N 
ATOM     38  C   UNL A   1      40.192  28.989  29.647  1.00  0.00     0.074 A 
ATOM     39  C   UNL A   1      39.207  27.956  29.883  1.00  0.00     0.031 C 
ATOM     40  C   UNL A   1      44.810  25.772  26.533  1.00  0.00     0.029 A 
ATOM     41  C   UNL A   1      44.860  27.139  27.025  1.00  0.00     0.049 A 
ATOM     42  H   UNL A   1      43.400  28.147  28.120  1.00  0.00     0.167 HD
ATOM     43  C   UNL A   1      40.113  30.260  30.109  1.00  0.00     0.037 A 
ATOM     44  C   UNL A   1      45.887  27.981  26.811  1.00  0.00     0.037 A 
ATOM     45  C   UNL A   1      41.141  31.252  29.910  1.00  0.00     0.049 A 
ATOM     46  C   UNL A   1      45.736  29.408  27.244  1.00  0.00     0.074 A 
ATOM     47  C   UNL A   1      41.171  32.569  30.335  1.00  0.00     0.029 A 
ATOM     48  N   UNL A   1      42.335  31.024  29.238  1.00  0.00    -0.354 N 
ATOM     49  N   UNL A   1      44.751  29.972  27.897  1.00  0.00    -0.248 NA
ATOM     50  C   UNL A   1      46.819  30.326  26.873  1.00  0.00     0.031 C 
ATOM     51  C   UNL A   1      42.353  33.154  29.868  1.00  0.00     0.029 A 
ATOM     52  C   UNL A   1      43.090  32.187  29.204  1.00  0.00     0.049 A 
ATOM     53  H   UNL A   1      42.606  30.164  28.842  1.00  0.00     0.167 HD
ATOM     54  C   UNL A   1      45.089  31.310  28.017  1.00  0.00     0.074 A 
ATOM     55  C   UNL A   1      46.390  31.466  27.396  1.00  0.00     0.031 C 
ATOM     56  C   UNL A   1      44.382  32.319  28.578  1.00  0.00     0.037 A 
BRANCH  43  57
ATOM     57  C   UNL A   1      38.851  30.679  30.815  1.00  0.00     0.064 A 
ATOM     58  C   UNL A   1      38.714  30.637  32.210  1.00  0.00     0.173 A 
ATOM     59  C   UNL A   1      37.766  31.173  30.070  1.00  0.00     0.173 A 
ATOM     60  F   UNL A   1      39.713  30.171  32.973  1.00  0.00    -0.203 F 
ATOM     61  C   UNL A   1      37.530  31.042  32.828  1.00  0.00     0.198 A 
ATOM     62  C   UNL A   1      36.598  31.607  30.692  1.00  0.00     0.198 A 
ATOM     63  F   UNL A   1      37.842  31.248  28.732  1.00  0.00    -0.203 F 
ATOM     64  F   UNL A   1      37.404  30.946  34.159  1.00  0.00    -0.200 F 
ATOM     65  C   UNL A   1      36.477  31.532  32.070  1.00  0.00     0.200 A 
ATOM     66  F   UNL A   1      35.590  32.098  29.957  1.00  0.00    -0.200 F 
ATOM     67  F   UNL A   1      35.344  31.927  32.667  1.00  0.00    -0.200 F 
ENDBRANCH  43  57
BRANCH  44  68
ATOM     68  C   UNL A   1      47.082  27.515  26.054  1.00  0.00     0.064 A 
ATOM     69  C   UNL A   1      47.136  27.607  24.657  1.00  0.00     0.173 A 
ATOM     70  C   UNL A   1      48.208  26.995  26.715  1.00  0.00     0.173 A 
ATOM     71  F   UNL A   1      46.078  28.066  23.975  1.00  0.00    -0.203 F 
ATOM     72  C   UNL A   1      48.269  27.200  23.954  1.00  0.00     0.198 A 
ATOM     73  C   UNL A   1      49.354  26.630  26.015  1.00  0.00     0.198 A 
ATOM     74  F   UNL A   1      48.211  26.876  28.051  1.00  0.00    -0.203 F 
ATOM     75  F   UNL A   1      48.279  27.260  22.615  1.00  0.00    -0.200 F 
ATOM     76  C   UNL A   1      49.382  26.725  24.633  1.00  0.00     0.200 A 
ATOM     77  F   UNL A   1      50.434  26.195  26.680  1.00  0.00    -0.200 F 
ATOM     78  F   UNL A   1      50.477  26.355  23.956  1.00  0.00    -0.200 F 
ENDBRANCH  44  68
BRANCH  56  79
ATOM     79  C   UNL A   1      45.014  33.678  28.561  1.00  0.00     0.064 A 
ATOM     80  C   UNL A   1      44.745  34.598  27.537  1.00  0.00     0.173 A 
ATOM     81  C   UNL A   1      45.873  34.075  29.596  1.00  0.00     0.173 A 
ATOM     82  F   UNL A   1      43.949  34.255  26.513  1.00  0.00    -0.203 F 
ATOM     83  C   UNL A   1      45.329  35.861  27.541  1.00  0.00     0.198 A 
ATOM     84  C   UNL A   1      46.429  35.350  29.613  1.00  0.00     0.198 A 
ATOM     85  F   UNL A   1      46.160  33.231  30.598  1.00  0.00    -0.203 F 
ATOM     86  F   UNL A   1      45.097  36.707  26.528  1.00  0.00    -0.200 F 
ATOM     87  C   UNL A   1      46.163  36.239  28.584  1.00  0.00     0.200 A 
ATOM     88  F   UNL A   1      47.224  35.718  30.628  1.00  0.00    -0.200 F 
ATOM     89  F   UNL A   1      46.715  37.460  28.592  1.00  0.00    -0.200 F 
ENDBRANCH  56  79
ENDBRANCH  30  31
ENDBRANCH  23  25
ENDBRANCH  22  23
ENDBRANCH  21  22
ENDBRANCH   1  21
TORSDOF 14
ENDMDL
