MODEL 1
REMARK VINA RESULT:     -10.6      0.000      0.000
REMARK SMILES C[C@H]1CC[C@H]([NH2+]Cc2c(C(=O)OCCOC(=O)c3ccc(-c4c5nc(c(-c6c(F)c(F)c(F)c(F)c6F)c6ccc([nH]6)c(-c6c(F)c(F)c(F)c(F)c6F)c6nc(c(-c7c(F)c(F)c(F)c(F)c7F)c7ccc4[nH]7)C=C6)C=C5)cc3)n(Cc3ccccc3F)c3ccccc23)CC1
REMARK SMILES IDX 13 1 12 2 10 3 11 4 9 5 8 6 95 7 81 8 90 9 94 10 91 11 93 12
REMARK SMILES IDX 92 13 7 14 6 15 5 18 1 19 2 20 3 21 97 22 4 23 96 24 82 25
REMARK SMILES IDX 83 26 84 27 88 28 85 29 87 30 89 31 86 32 14 33 15 34 16 35
REMARK SMILES IDX 17 36 18 37 19 38 80 39 20 40 79 41 21 42 22 43 23 44 73 45
REMARK SMILES IDX 24 46 78 47 72 48 74 49 25 50 77 51 71 52 70 53 26 55 58 56
REMARK SMILES IDX 38 57 57 58 39 59 42 60 56 61 75 62 40 63 41 64 55 66 76 67
REMARK SMILES IDX 43 68 27 69 28 70 36 71 29 72 30 73 34 74 37 75 31 76 32 77
REMARK SMILES IDX 35 78 33 79 59 80 60 81 68 82 61 83 62 84 66 85 69 86 63 87
REMARK SMILES IDX 64 88 67 89 65 90 44 91 45 92 53 93 46 94 47 95 51 96 54 97
REMARK SMILES IDX 48 98 49 99 52 100 50 101
REMARK H PARENT 6 16 6 17 74 54 42 65
REMARK Flexibility Score: inf
ROOT
ATOM      1  C   UNL A   1      34.405  33.031  31.291  1.00  0.00     0.275 C 
ENDROOT
BRANCH   1   2
ATOM      2  O   UNL A   1      34.739  34.235  30.538  1.00  0.00    -0.457 OA
BRANCH   2   3
ATOM      3  C   UNL A   1      35.286  34.033  29.310  1.00  0.00     0.355 C 
ATOM      4  O   UNL A   1      35.092  34.775  28.367  1.00  0.00    -0.244 OA
BRANCH   3   5
ATOM      5  C   UNL A   1      36.027  32.792  29.176  1.00  0.00     0.137 A 
ATOM      6  C   UNL A   1      35.677  31.629  28.469  1.00  0.00     0.047 A 
ATOM      7  C   UNL A   1      36.839  30.772  28.492  1.00  0.00     0.009 A 
ATOM      8  N   UNL A   1      37.390  32.681  29.524  1.00  0.00    -0.330 N 
ATOM      9  C   UNL A   1      37.904  31.496  29.022  1.00  0.00     0.050 A 
ATOM     10  C   UNL A   1      37.094  29.476  27.983  1.00  0.00     0.011 A 
ATOM     11  C   UNL A   1      39.223  31.019  28.920  1.00  0.00     0.027 A 
ATOM     12  C   UNL A   1      38.395  28.965  27.968  1.00  0.00     0.001 A 
ATOM     13  C   UNL A   1      39.453  29.742  28.409  1.00  0.00     0.002 A 
BRANCH   6  14
ATOM     14  C   UNL A   1      34.443  31.221  27.674  1.00  0.00     0.300 C 
BRANCH  14  15
ATOM     15  N   UNL A   1      33.797  29.962  28.021  1.00  0.00    -0.340 N 
ATOM     16  H   UNL A   1      34.511  29.362  28.432  1.00  0.00     0.346 HD
ATOM     17  H   UNL A   1      33.030  30.242  28.633  1.00  0.00     0.346 HD
BRANCH  15  18
ATOM     18  C   UNL A   1      33.135  29.182  26.961  1.00  0.00     0.182 C 
ATOM     19  C   UNL A   1      31.931  25.073  25.705  1.00  0.00     0.007 C 
ATOM     20  C   UNL A   1      32.454  26.335  26.383  1.00  0.00    -0.014 C 
ATOM     21  C   UNL A   1      31.344  27.369  26.566  1.00  0.00     0.009 C 
ATOM     22  C   UNL A   1      33.582  27.003  25.598  1.00  0.00     0.009 C 
ATOM     23  C   UNL A   1      31.850  28.509  27.440  1.00  0.00     0.065 C 
ATOM     24  C   UNL A   1      34.169  28.192  26.369  1.00  0.00     0.065 C 
ENDBRANCH  15  18
ENDBRANCH  14  15
ENDBRANCH   6  14
BRANCH   8  25
ATOM     25  C   UNL A   1      38.257  33.793  29.957  1.00  0.00     0.161 C 
BRANCH  25  26
ATOM     26  C   UNL A   1      38.980  33.741  31.287  1.00  0.00     0.008 A 
ATOM     27  C   UNL A   1      40.274  33.215  31.423  1.00  0.00     0.008 A 
ATOM     28  C   UNL A   1      38.473  34.470  32.372  1.00  0.00     0.128 A 
ATOM     29  C   UNL A   1      41.039  33.444  32.574  1.00  0.00     0.001 A 
ATOM     30  C   UNL A   1      39.234  34.715  33.518  1.00  0.00     0.039 A 
ATOM     31  F   UNL A   1      37.258  35.030  32.290  1.00  0.00    -0.207 F 
ATOM     32  C   UNL A   1      40.527  34.210  33.616  1.00  0.00     0.003 A 
ENDBRANCH  25  26
ENDBRANCH   8  25
ENDBRANCH   3   5
ENDBRANCH   2   3
ENDBRANCH   1   2
BRANCH   1  33
ATOM     33  C   UNL A   1      34.852  32.949  32.762  1.00  0.00     0.275 C 
BRANCH  33  34
ATOM     34  O   UNL A   1      35.994  32.065  32.840  1.00  0.00    -0.458 OA
BRANCH  34  35
ATOM     35  C   UNL A   1      36.758  32.194  33.954  1.00  0.00     0.338 C 
ATOM     36  O   UNL A   1      36.484  32.871  34.936  1.00  0.00    -0.246 OA
BRANCH  35  37
ATOM     37  C   UNL A   1      37.789  31.123  33.927  1.00  0.00     0.060 A 
ATOM     38  C   UNL A   1      38.669  30.912  34.995  1.00  0.00     0.016 A 
ATOM     39  C   UNL A   1      38.064  30.555  32.680  1.00  0.00     0.016 A 
ATOM     40  C   UNL A   1      39.906  30.298  34.760  1.00  0.00     0.010 A 
ATOM     41  C   UNL A   1      39.295  29.932  32.460  1.00  0.00     0.010 A 
ATOM     42  C   UNL A   1      40.271  29.893  33.469  1.00  0.00    -0.014 A 
BRANCH  42  43
ATOM     43  C   UNL A   1      41.617  29.351  33.211  1.00  0.00     0.031 A 
ATOM     44  C   UNL A   1      42.649  30.256  32.673  1.00  0.00     0.074 A 
ATOM     45  C   UNL A   1      42.131  28.139  33.513  1.00  0.00     0.049 A 
ATOM     46  N   UNL A   1      42.942  30.432  31.429  1.00  0.00    -0.248 NA
ATOM     47  C   UNL A   1      43.466  31.029  33.616  1.00  0.00     0.031 C 
ATOM     48  C   UNL A   1      41.672  27.161  34.481  1.00  0.00     0.029 A 
ATOM     49  N   UNL A   1      43.260  27.556  32.984  1.00  0.00    -0.354 N 
ATOM     50  C   UNL A   1      44.058  31.250  31.417  1.00  0.00     0.074 A 
ATOM     51  C   UNL A   1      44.271  31.685  32.778  1.00  0.00     0.031 C 
ATOM     52  C   UNL A   1      42.540  26.122  34.532  1.00  0.00     0.029 A 
ATOM     53  C   UNL A   1      43.553  26.302  33.500  1.00  0.00     0.049 A 
ATOM     54  H   UNL A   1      43.812  27.991  32.297  1.00  0.00     0.167 HD
ATOM     55  C   UNL A   1      44.835  31.390  30.311  1.00  0.00     0.037 A 
ATOM     56  C   UNL A   1      44.535  25.459  33.092  1.00  0.00     0.037 A 
ATOM     57  C   UNL A   1      44.295  30.716  29.162  1.00  0.00     0.049 A 
ATOM     58  C   UNL A   1      44.939  25.853  31.718  1.00  0.00     0.074 A 
ATOM     59  C   UNL A   1      43.138  30.829  28.416  1.00  0.00     0.029 A 
ATOM     60  N   UNL A   1      44.828  29.490  28.849  1.00  0.00    -0.354 N 
ATOM     61  N   UNL A   1      44.203  25.685  30.655  1.00  0.00    -0.248 NA
ATOM     62  C   UNL A   1      46.135  26.661  31.522  1.00  0.00     0.031 C 
ATOM     63  C   UNL A   1      42.815  29.500  28.001  1.00  0.00     0.029 A 
ATOM     64  C   UNL A   1      43.788  28.649  28.524  1.00  0.00     0.049 A 
ATOM     65  H   UNL A   1      45.783  29.254  28.855  1.00  0.00     0.167 HD
ATOM     66  C   UNL A   1      44.614  26.677  29.784  1.00  0.00     0.074 A 
ATOM     67  C   UNL A   1      45.907  27.112  30.286  1.00  0.00     0.031 C 
ATOM     68  C   UNL A   1      43.731  27.257  28.921  1.00  0.00     0.037 A 
BRANCH  55  69
ATOM     69  C   UNL A   1      46.219  31.945  30.337  1.00  0.00     0.064 A 
ATOM     70  C   UNL A   1      46.505  33.151  29.678  1.00  0.00     0.173 A 
ATOM     71  C   UNL A   1      47.319  31.235  30.860  1.00  0.00     0.173 A 
ATOM     72  F   UNL A   1      45.524  33.855  29.094  1.00  0.00    -0.203 F 
ATOM     73  C   UNL A   1      47.810  33.635  29.579  1.00  0.00     0.198 A 
ATOM     74  C   UNL A   1      48.614  31.744  30.804  1.00  0.00     0.198 A 
ATOM     75  F   UNL A   1      47.168  30.006  31.374  1.00  0.00    -0.203 F 
ATOM     76  F   UNL A   1      48.053  34.763  28.897  1.00  0.00    -0.200 F 
ATOM     77  C   UNL A   1      48.861  32.941  30.157  1.00  0.00     0.200 A 
ATOM     78  F   UNL A   1      49.623  31.049  31.347  1.00  0.00    -0.200 F 
ATOM     79  F   UNL A   1      50.114  33.404  30.060  1.00  0.00    -0.200 F 
ENDBRANCH  55  69
BRANCH  56  80
ATOM     80  C   UNL A   1      45.181  24.316  33.778  1.00  0.00     0.064 A 
ATOM     81  C   UNL A   1      46.312  24.489  34.597  1.00  0.00     0.173 A 
ATOM     82  C   UNL A   1      44.560  23.057  33.831  1.00  0.00     0.173 A 
ATOM     83  F   UNL A   1      46.940  25.672  34.649  1.00  0.00    -0.203 F 
ATOM     84  C   UNL A   1      46.784  23.467  35.426  1.00  0.00     0.198 A 
ATOM     85  C   UNL A   1      45.041  22.031  34.648  1.00  0.00     0.198 A 
ATOM     86  F   UNL A   1      43.424  22.829  33.160  1.00  0.00    -0.203 F 
ATOM     87  F   UNL A   1      47.830  23.691  36.235  1.00  0.00    -0.200 F 
ATOM     88  C   UNL A   1      46.146  22.238  35.454  1.00  0.00     0.200 A 
ATOM     89  F   UNL A   1      44.393  20.858  34.692  1.00  0.00    -0.200 F 
ATOM     90  F   UNL A   1      46.568  21.275  36.283  1.00  0.00    -0.200 F 
ENDBRANCH  56  80
BRANCH  68  91
ATOM     91  C   UNL A   1      42.473  26.493  28.614  1.00  0.00     0.064 A 
ATOM     92  C   UNL A   1      41.251  26.692  29.281  1.00  0.00     0.173 A 
ATOM     93  C   UNL A   1      42.484  25.585  27.546  1.00  0.00     0.173 A 
ATOM     94  F   UNL A   1      41.136  27.614  30.246  1.00  0.00    -0.203 F 
ATOM     95  C   UNL A   1      40.111  25.973  28.932  1.00  0.00     0.198 A 
ATOM     96  C   UNL A   1      41.332  24.895  27.172  1.00  0.00     0.198 A 
ATOM     97  F   UNL A   1      43.607  25.390  26.838  1.00  0.00    -0.203 F 
ATOM     98  F   UNL A   1      38.965  26.164  29.603  1.00  0.00    -0.200 F 
ATOM     99  C   UNL A   1      40.150  25.078  27.873  1.00  0.00     0.200 A 
ATOM    100  F   UNL A   1      41.361  24.066  26.119  1.00  0.00    -0.200 F 
ATOM    101  F   UNL A   1      39.044  24.411  27.515  1.00  0.00    -0.200 F 
ENDBRANCH  68  91
ENDBRANCH  42  43
ENDBRANCH  35  37
ENDBRANCH  34  35
ENDBRANCH  33  34
ENDBRANCH   1  33
TORSDOF 16
ENDMDL
MODEL 2
REMARK VINA RESULT:     -10.5      3.811      9.202
REMARK SMILES C[C@H]1CC[C@H]([NH2+]Cc2c(C(=O)OCCOC(=O)c3ccc(-c4c5nc(c(-c6c(F)c(F)c(F)c(F)c6F)c6ccc([nH]6)c(-c6c(F)c(F)c(F)c(F)c6F)c6nc(c(-c7c(F)c(F)c(F)c(F)c7F)c7ccc4[nH]7)C=C6)C=C5)cc3)n(Cc3ccccc3F)c3ccccc23)CC1
REMARK SMILES IDX 13 1 12 2 10 3 11 4 9 5 8 6 95 7 81 8 90 9 94 10 91 11 93 12
REMARK SMILES IDX 92 13 7 14 6 15 5 18 1 19 2 20 3 21 97 22 4 23 96 24 82 25
REMARK SMILES IDX 83 26 84 27 88 28 85 29 87 30 89 31 86 32 14 33 15 34 16 35
REMARK SMILES IDX 17 36 18 37 19 38 80 39 20 40 79 41 21 42 22 43 23 44 73 45
REMARK SMILES IDX 24 46 78 47 72 48 74 49 25 50 77 51 71 52 70 53 26 55 58 56
REMARK SMILES IDX 38 57 57 58 39 59 42 60 56 61 75 62 40 63 41 64 55 66 76 67
REMARK SMILES IDX 43 68 27 69 28 70 36 71 29 72 30 73 34 74 37 75 31 76 32 77
REMARK SMILES IDX 35 78 33 79 59 80 60 81 68 82 61 83 62 84 66 85 69 86 63 87
REMARK SMILES IDX 64 88 67 89 65 90 44 91 45 92 53 93 46 94 47 95 51 96 54 97
REMARK SMILES IDX 48 98 49 99 52 100 50 101
REMARK H PARENT 6 16 6 17 74 54 42 65
REMARK Flexibility Score: inf
ROOT
ATOM      1  C   UNL A   1      33.780  29.551  27.303  1.00  0.00     0.275 C 
ENDROOT
BRANCH   1   2
ATOM      2  O   UNL A   1      32.719  28.629  26.914  1.00  0.00    -0.457 OA
BRANCH   2   3
ATOM      3  C   UNL A   1      32.209  28.805  25.666  1.00  0.00     0.355 C 
ATOM      4  O   UNL A   1      31.397  29.668  25.396  1.00  0.00    -0.244 OA
BRANCH   3   5
ATOM      5  C   UNL A   1      32.617  27.801  24.700  1.00  0.00     0.137 A 
ATOM      6  C   UNL A   1      33.120  26.509  24.930  1.00  0.00     0.047 A 
ATOM      7  C   UNL A   1      33.180  25.858  23.643  1.00  0.00     0.009 A 
ATOM      8  N   UNL A   1      32.287  27.888  23.330  1.00  0.00    -0.330 N 
ATOM      9  C   UNL A   1      32.539  26.673  22.713  1.00  0.00     0.050 A 
ATOM     10  C   UNL A   1      33.618  24.578  23.227  1.00  0.00     0.011 A 
ATOM     11  C   UNL A   1      32.201  26.186  21.437  1.00  0.00     0.027 A 
ATOM     12  C   UNL A   1      33.363  24.130  21.927  1.00  0.00     0.001 A 
ATOM     13  C   UNL A   1      32.637  24.919  21.050  1.00  0.00     0.002 A 
BRANCH   6  14
ATOM     14  C   UNL A   1      33.469  25.734  26.194  1.00  0.00     0.300 C 
BRANCH  14  15
ATOM     15  N   UNL A   1      32.397  25.013  26.867  1.00  0.00    -0.340 N 
ATOM     16  H   UNL A   1      32.403  25.308  27.844  1.00  0.00     0.346 HD
ATOM     17  H   UNL A   1      31.565  25.251  26.326  1.00  0.00     0.346 HD
BRANCH  15  18
ATOM     18  C   UNL A   1      32.412  23.540  26.861  1.00  0.00     0.182 C 
ATOM     19  C   UNL A   1      33.692  19.942  24.553  1.00  0.00     0.007 C 
ATOM     20  C   UNL A   1      33.381  21.328  25.109  1.00  0.00    -0.014 C 
ATOM     21  C   UNL A   1      33.962  21.509  26.509  1.00  0.00     0.009 C 
ATOM     22  C   UNL A   1      31.880  21.607  25.192  1.00  0.00     0.009 C 
ATOM     23  C   UNL A   1      33.826  22.965  26.932  1.00  0.00     0.065 C 
ATOM     24  C   UNL A   1      31.606  23.051  25.632  1.00  0.00     0.065 C 
ENDBRANCH  15  18
ENDBRANCH  14  15
ENDBRANCH   6  14
BRANCH   8  25
ATOM     25  C   UNL A   1      31.420  28.914  22.722  1.00  0.00     0.161 C 
BRANCH  25  26
ATOM     26  C   UNL A   1      29.916  28.742  22.694  1.00  0.00     0.008 A 
ATOM     27  C   UNL A   1      29.272  27.636  23.271  1.00  0.00     0.008 A 
ATOM     28  C   UNL A   1      29.108  29.827  22.327  1.00  0.00     0.128 A 
ATOM     29  C   UNL A   1      27.890  27.635  23.505  1.00  0.00     0.001 A 
ATOM     30  C   UNL A   1      27.732  29.841  22.568  1.00  0.00     0.039 A 
ATOM     31  F   UNL A   1      29.668  30.928  21.805  1.00  0.00    -0.207 F 
ATOM     32  C   UNL A   1      27.121  28.745  23.171  1.00  0.00     0.003 A 
ENDBRANCH  25  26
ENDBRANCH   8  25
ENDBRANCH   3   5
ENDBRANCH   2   3
ENDBRANCH   1   2
BRANCH   1  33
ATOM     33  C   UNL A   1      35.233  29.044  27.262  1.00  0.00     0.275 C 
BRANCH  33  34
ATOM     34  O   UNL A   1      36.106  30.138  27.623  1.00  0.00    -0.458 OA
BRANCH  34  35
ATOM     35  C   UNL A   1      36.982  29.880  28.627  1.00  0.00     0.338 C 
ATOM     36  O   UNL A   1      36.792  30.090  29.817  1.00  0.00    -0.246 OA
BRANCH  35  37
ATOM     37  C   UNL A   1      38.047  28.994  28.085  1.00  0.00     0.060 A 
ATOM     38  C   UNL A   1      38.517  27.881  28.792  1.00  0.00     0.016 A 
ATOM     39  C   UNL A   1      38.785  29.493  27.010  1.00  0.00     0.016 A 
ATOM     40  C   UNL A   1      39.806  27.395  28.540  1.00  0.00     0.010 A 
ATOM     41  C   UNL A   1      40.065  28.993  26.758  1.00  0.00     0.010 A 
ATOM     42  C   UNL A   1      40.630  28.012  27.588  1.00  0.00    -0.014 A 
BRANCH  42  43
ATOM     43  C   UNL A   1      42.023  27.567  27.409  1.00  0.00     0.031 A 
ATOM     44  C   UNL A   1      42.267  26.223  26.854  1.00  0.00     0.074 A 
ATOM     45  C   UNL A   1      43.175  28.257  27.556  1.00  0.00     0.049 A 
ATOM     46  N   UNL A   1      42.452  25.137  27.525  1.00  0.00    -0.248 NA
ATOM     47  C   UNL A   1      42.344  26.069  25.396  1.00  0.00     0.031 C 
ATOM     48  C   UNL A   1      43.393  29.691  27.566  1.00  0.00     0.029 A 
ATOM     49  N   UNL A   1      44.444  27.744  27.696  1.00  0.00    -0.354 N 
ATOM     50  C   UNL A   1      42.785  24.170  26.593  1.00  0.00     0.074 A 
ATOM     51  C   UNL A   1      42.590  24.762  25.289  1.00  0.00     0.031 C 
ATOM     52  C   UNL A   1      44.720  29.955  27.640  1.00  0.00     0.029 A 
ATOM     53  C   UNL A   1      45.441  28.702  27.815  1.00  0.00     0.049 A 
ATOM     54  H   UNL A   1      44.629  26.778  27.712  1.00  0.00     0.167 HD
ATOM     55  C   UNL A   1      43.355  22.991  26.953  1.00  0.00     0.037 A 
ATOM     56  C   UNL A   1      46.756  28.485  28.067  1.00  0.00     0.037 A 
ATOM     57  C   UNL A   1      43.438  22.825  28.379  1.00  0.00     0.049 A 
ATOM     58  C   UNL A   1      46.894  27.135  28.671  1.00  0.00     0.074 A 
ATOM     59  C   UNL A   1      42.523  22.747  29.410  1.00  0.00     0.029 A 
ATOM     60  N   UNL A   1      44.650  23.093  28.969  1.00  0.00    -0.354 N 
ATOM     61  N   UNL A   1      46.499  26.819  29.873  1.00  0.00    -0.248 NA
ATOM     62  C   UNL A   1      47.305  26.012  27.839  1.00  0.00     0.031 C 
ATOM     63  C   UNL A   1      43.149  23.374  30.531  1.00  0.00     0.029 A 
ATOM     64  C   UNL A   1      44.409  23.808  30.119  1.00  0.00     0.049 A 
ATOM     65  H   UNL A   1      45.532  22.820  28.630  1.00  0.00     0.167 HD
ATOM     66  C   UNL A   1      46.230  25.464  29.809  1.00  0.00     0.074 A 
ATOM     67  C   UNL A   1      46.914  24.998  28.615  1.00  0.00     0.031 C 
ATOM     68  C   UNL A   1      45.232  24.915  30.559  1.00  0.00     0.037 A 
BRANCH  55  69
ATOM     69  C   UNL A   1      44.060  22.087  26.000  1.00  0.00     0.064 A 
ATOM     70  C   UNL A   1      43.560  20.798  25.753  1.00  0.00     0.173 A 
ATOM     71  C   UNL A   1      45.315  22.395  25.438  1.00  0.00     0.173 A 
ATOM     72  F   UNL A   1      42.404  20.401  26.304  1.00  0.00    -0.203 F 
ATOM     73  C   UNL A   1      44.258  19.885  24.962  1.00  0.00     0.198 A 
ATOM     74  C   UNL A   1      45.987  21.500  24.609  1.00  0.00     0.198 A 
ATOM     75  F   UNL A   1      45.945  23.541  25.736  1.00  0.00    -0.203 F 
ATOM     76  F   UNL A   1      43.777  18.646  24.791  1.00  0.00    -0.200 F 
ATOM     77  C   UNL A   1      45.463  20.243  24.376  1.00  0.00     0.200 A 
ATOM     78  F   UNL A   1      47.163  21.852  24.069  1.00  0.00    -0.200 F 
ATOM     79  F   UNL A   1      46.134  19.365  23.619  1.00  0.00    -0.200 F 
ENDBRANCH  55  69
BRANCH  56  80
ATOM     80  C   UNL A   1      47.943  29.343  27.841  1.00  0.00     0.064 A 
ATOM     81  C   UNL A   1      48.363  30.289  28.793  1.00  0.00     0.173 A 
ATOM     82  C   UNL A   1      48.830  29.089  26.781  1.00  0.00     0.173 A 
ATOM     83  F   UNL A   1      47.604  30.560  29.865  1.00  0.00    -0.203 F 
ATOM     84  C   UNL A   1      49.601  30.932  28.696  1.00  0.00     0.198 A 
ATOM     85  C   UNL A   1      50.060  29.742  26.676  1.00  0.00     0.198 A 
ATOM     86  F   UNL A   1      48.559  28.136  25.880  1.00  0.00    -0.203 F 
ATOM     87  F   UNL A   1      49.989  31.784  29.656  1.00  0.00    -0.200 F 
ATOM     88  C   UNL A   1      50.451  30.655  27.639  1.00  0.00     0.200 A 
ATOM     89  F   UNL A   1      50.889  29.439  25.667  1.00  0.00    -0.200 F 
ATOM     90  F   UNL A   1      51.657  31.235  27.570  1.00  0.00    -0.200 F 
ENDBRANCH  56  80
BRANCH  68  91
ATOM     91  C   UNL A   1      44.775  25.693  31.762  1.00  0.00     0.064 A 
ATOM     92  C   UNL A   1      43.783  26.689  31.721  1.00  0.00     0.173 A 
ATOM     93  C   UNL A   1      45.300  25.357  33.018  1.00  0.00     0.173 A 
ATOM     94  F   UNL A   1      43.162  26.996  30.575  1.00  0.00    -0.203 F 
ATOM     95  C   UNL A   1      43.380  27.356  32.876  1.00  0.00     0.198 A 
ATOM     96  C   UNL A   1      44.867  25.998  34.177  1.00  0.00     0.198 A 
ATOM     97  F   UNL A   1      46.213  24.379  33.127  1.00  0.00    -0.203 F 
ATOM     98  F   UNL A   1      42.450  28.320  32.804  1.00  0.00    -0.200 F 
ATOM     99  C   UNL A   1      43.919  27.006  34.105  1.00  0.00     0.200 A 
ATOM    100  F   UNL A   1      45.356  25.625  35.369  1.00  0.00    -0.200 F 
ATOM    101  F   UNL A   1      43.506  27.624  35.220  1.00  0.00    -0.200 F 
ENDBRANCH  68  91
ENDBRANCH  42  43
ENDBRANCH  35  37
ENDBRANCH  34  35
ENDBRANCH  33  34
ENDBRANCH   1  33
TORSDOF 16
ENDMDL
MODEL 3
REMARK VINA RESULT:     -10.4      4.434      9.813
REMARK SMILES C[C@H]1CC[C@H]([NH2+]Cc2c(C(=O)OCCOC(=O)c3ccc(-c4c5nc(c(-c6c(F)c(F)c(F)c(F)c6F)c6ccc([nH]6)c(-c6c(F)c(F)c(F)c(F)c6F)c6nc(c(-c7c(F)c(F)c(F)c(F)c7F)c7ccc4[nH]7)C=C6)C=C5)cc3)n(Cc3ccccc3F)c3ccccc23)CC1
REMARK SMILES IDX 13 1 12 2 10 3 11 4 9 5 8 6 95 7 81 8 90 9 94 10 91 11 93 12
REMARK SMILES IDX 92 13 7 14 6 15 5 18 1 19 2 20 3 21 97 22 4 23 96 24 82 25
REMARK SMILES IDX 83 26 84 27 88 28 85 29 87 30 89 31 86 32 14 33 15 34 16 35
REMARK SMILES IDX 17 36 18 37 19 38 80 39 20 40 79 41 21 42 22 43 23 44 73 45
REMARK SMILES IDX 24 46 78 47 72 48 74 49 25 50 77 51 71 52 70 53 26 55 58 56
REMARK SMILES IDX 38 57 57 58 39 59 42 60 56 61 75 62 40 63 41 64 55 66 76 67
REMARK SMILES IDX 43 68 27 69 28 70 36 71 29 72 30 73 34 74 37 75 31 76 32 77
REMARK SMILES IDX 35 78 33 79 59 80 60 81 68 82 61 83 62 84 66 85 69 86 63 87
REMARK SMILES IDX 64 88 67 89 65 90 44 91 45 92 53 93 46 94 47 95 51 96 54 97
REMARK SMILES IDX 48 98 49 99 52 100 50 101
REMARK H PARENT 6 16 6 17 74 54 42 65
REMARK Flexibility Score: inf
ROOT
ATOM      1  C   UNL A   1      44.133  21.820  25.228  1.00  0.00     0.275 C 
ENDROOT
BRANCH   1   2
ATOM      2  O   UNL A   1      42.901  21.090  25.507  1.00  0.00    -0.457 OA
BRANCH   2   3
ATOM      3  C   UNL A   1      42.383  21.257  26.752  1.00  0.00     0.355 C 
ATOM      4  O   UNL A   1      42.342  20.367  27.579  1.00  0.00    -0.244 OA
BRANCH   3   5
ATOM      5  C   UNL A   1      41.768  22.552  26.981  1.00  0.00     0.137 A 
ATOM      6  C   UNL A   1      40.413  22.913  26.884  1.00  0.00     0.047 A 
ATOM      7  C   UNL A   1      40.311  24.257  27.403  1.00  0.00     0.009 A 
ATOM      8  N   UNL A   1      42.441  23.606  27.635  1.00  0.00    -0.330 N 
ATOM      9  C   UNL A   1      41.533  24.597  27.976  1.00  0.00     0.050 A 
ATOM     10  C   UNL A   1      39.229  25.159  27.542  1.00  0.00     0.011 A 
ATOM     11  C   UNL A   1      41.656  25.732  28.798  1.00  0.00     0.027 A 
ATOM     12  C   UNL A   1      39.379  26.336  28.282  1.00  0.00     0.001 A 
ATOM     13  C   UNL A   1      40.575  26.604  28.926  1.00  0.00     0.002 A 
BRANCH   6  14
ATOM     14  C   UNL A   1      39.158  22.158  26.468  1.00  0.00     0.300 C 
BRANCH  14  15
ATOM     15  N   UNL A   1      38.529  22.527  25.206  1.00  0.00    -0.340 N 
ATOM     16  H   UNL A   1      38.844  23.470  24.979  1.00  0.00     0.346 HD
ATOM     17  H   UNL A   1      38.814  21.785  24.565  1.00  0.00     0.346 HD
BRANCH  15  18
ATOM     18  C   UNL A   1      37.059  22.528  25.113  1.00  0.00     0.182 C 
ATOM     19  C   UNL A   1      33.520  24.865  23.723  1.00  0.00     0.007 C 
ATOM     20  C   UNL A   1      34.891  24.304  24.088  1.00  0.00    -0.014 C 
ATOM     21  C   UNL A   1      35.111  22.925  23.470  1.00  0.00     0.009 C 
ATOM     22  C   UNL A   1      35.091  24.170  25.598  1.00  0.00     0.009 C 
ATOM     23  C   UNL A   1      36.560  22.503  23.669  1.00  0.00     0.065 C 
ATOM     24  C   UNL A   1      36.521  23.726  25.933  1.00  0.00     0.065 C 
ENDBRANCH  15  18
ENDBRANCH  14  15
ENDBRANCH   6  14
BRANCH   8  25
ATOM     25  C   UNL A   1      43.777  23.517  28.254  1.00  0.00     0.161 C 
BRANCH  25  26
ATOM     26  C   UNL A   1      44.010  23.998  29.670  1.00  0.00     0.008 A 
ATOM     27  C   UNL A   1      43.664  23.231  30.795  1.00  0.00     0.008 A 
ATOM     28  C   UNL A   1      44.829  25.114  29.890  1.00  0.00     0.128 A 
ATOM     29  C   UNL A   1      44.151  23.544  32.071  1.00  0.00     0.001 A 
ATOM     30  C   UNL A   1      45.330  25.426  31.157  1.00  0.00     0.039 A 
ATOM     31  F   UNL A   1      45.224  25.865  28.853  1.00  0.00    -0.207 F 
ATOM     32  C   UNL A   1      44.999  24.632  32.250  1.00  0.00     0.003 A 
ENDBRANCH  25  26
ENDBRANCH   8  25
ENDBRANCH   3   5
ENDBRANCH   2   3
ENDBRANCH   1   2
BRANCH   1  33
ATOM     33  C   UNL A   1      44.093  22.927  24.158  1.00  0.00     0.275 C 
BRANCH  33  34
ATOM     34  O   UNL A   1      44.114  24.207  24.830  1.00  0.00    -0.458 OA
BRANCH  34  35
ATOM     35  C   UNL A   1      45.318  24.832  24.859  1.00  0.00     0.338 C 
ATOM     36  O   UNL A   1      46.357  24.410  24.371  1.00  0.00    -0.246 OA
BRANCH  35  37
ATOM     37  C   UNL A   1      45.089  26.244  25.267  1.00  0.00     0.060 A 
ATOM     38  C   UNL A   1      46.137  27.167  25.367  1.00  0.00     0.016 A 
ATOM     39  C   UNL A   1      43.856  26.529  25.859  1.00  0.00     0.016 A 
ATOM     40  C   UNL A   1      46.004  28.275  26.214  1.00  0.00     0.010 A 
ATOM     41  C   UNL A   1      43.730  27.643  26.692  1.00  0.00     0.010 A 
ATOM     42  C   UNL A   1      44.834  28.467  26.962  1.00  0.00    -0.014 A 
BRANCH  42  43
ATOM     43  C   UNL A   1      44.746  29.571  27.935  1.00  0.00     0.031 A 
ATOM     44  C   UNL A   1      45.192  29.328  29.319  1.00  0.00     0.074 A 
ATOM     45  C   UNL A   1      44.427  30.869  27.739  1.00  0.00     0.049 A 
ATOM     46  N   UNL A   1      44.453  28.958  30.309  1.00  0.00    -0.248 NA
ATOM     47  C   UNL A   1      46.605  29.547  29.649  1.00  0.00     0.031 C 
ATOM     48  C   UNL A   1      44.439  31.645  26.514  1.00  0.00     0.029 A 
ATOM     49  N   UNL A   1      44.043  31.787  28.690  1.00  0.00    -0.354 N 
ATOM     50  C   UNL A   1      45.270  29.002  31.426  1.00  0.00     0.074 A 
ATOM     51  C   UNL A   1      46.611  29.255  30.951  1.00  0.00     0.031 C 
ATOM     52  C   UNL A   1      44.144  32.939  26.785  1.00  0.00     0.029 A 
ATOM     53  C   UNL A   1      43.791  33.058  28.193  1.00  0.00     0.049 A 
ATOM     54  H   UNL A   1      43.954  31.561  29.643  1.00  0.00     0.167 HD
ATOM     55  C   UNL A   1      44.765  28.988  32.686  1.00  0.00     0.037 A 
ATOM     56  C   UNL A   1      43.301  34.121  28.878  1.00  0.00     0.037 A 
ATOM     57  C   UNL A   1      43.341  28.790  32.714  1.00  0.00     0.049 A 
ATOM     58  C   UNL A   1      42.626  33.612  30.099  1.00  0.00     0.074 A 
ATOM     59  C   UNL A   1      42.486  27.783  32.314  1.00  0.00     0.029 A 
ATOM     60  N   UNL A   1      42.559  29.906  32.880  1.00  0.00    -0.354 N 
ATOM     61  N   UNL A   1      41.501  32.953  30.101  1.00  0.00    -0.248 NA
ATOM     62  C   UNL A   1      43.324  33.649  31.377  1.00  0.00     0.031 C 
ATOM     63  C   UNL A   1      41.299  28.439  31.864  1.00  0.00     0.029 A 
ATOM     64  C   UNL A   1      41.500  29.812  32.006  1.00  0.00     0.049 A 
ATOM     65  H   UNL A   1      42.725  30.642  33.512  1.00  0.00     0.167 HD
ATOM     66  C   UNL A   1      41.554  32.171  31.240  1.00  0.00     0.074 A 
ATOM     67  C   UNL A   1      42.588  32.773  32.066  1.00  0.00     0.031 C 
ATOM     68  C   UNL A   1      40.969  30.939  31.269  1.00  0.00     0.037 A 
BRANCH  55  69
ATOM     69  C   UNL A   1      45.540  29.397  33.893  1.00  0.00     0.064 A 
ATOM     70  C   UNL A   1      45.865  28.447  34.875  1.00  0.00     0.173 A 
ATOM     71  C   UNL A   1      45.837  30.741  34.194  1.00  0.00     0.173 A 
ATOM     72  F   UNL A   1      45.556  27.154  34.697  1.00  0.00    -0.203 F 
ATOM     73  C   UNL A   1      46.481  28.816  36.071  1.00  0.00     0.198 A 
ATOM     74  C   UNL A   1      46.497  31.102  35.366  1.00  0.00     0.198 A 
ATOM     75  F   UNL A   1      45.433  31.736  33.390  1.00  0.00    -0.203 F 
ATOM     76  F   UNL A   1      46.729  27.891  37.007  1.00  0.00    -0.200 F 
ATOM     77  C   UNL A   1      46.813  30.141  36.307  1.00  0.00     0.200 A 
ATOM     78  F   UNL A   1      46.789  32.391  35.591  1.00  0.00    -0.200 F 
ATOM     79  F   UNL A   1      47.403  30.497  37.456  1.00  0.00    -0.200 F 
ENDBRANCH  55  69
BRANCH  56  80
ATOM     80  C   UNL A   1      43.351  35.572  28.585  1.00  0.00     0.064 A 
ATOM     81  C   UNL A   1      44.502  36.340  28.845  1.00  0.00     0.173 A 
ATOM     82  C   UNL A   1      42.347  36.194  27.824  1.00  0.00     0.173 A 
ATOM     83  F   UNL A   1      45.533  35.813  29.521  1.00  0.00    -0.203 F 
ATOM     84  C   UNL A   1      44.642  37.644  28.362  1.00  0.00     0.198 A 
ATOM     85  C   UNL A   1      42.481  37.503  27.354  1.00  0.00     0.198 A 
ATOM     86  F   UNL A   1      41.259  35.511  27.445  1.00  0.00    -0.203 F 
ATOM     87  F   UNL A   1      45.778  38.320  28.582  1.00  0.00    -0.200 F 
ATOM     88  C   UNL A   1      43.632  38.224  27.613  1.00  0.00     0.200 A 
ATOM     89  F   UNL A   1      41.511  38.040  26.600  1.00  0.00    -0.200 F 
ATOM     90  F   UNL A   1      43.785  39.456  27.109  1.00  0.00    -0.200 F 
ENDBRANCH  56  80
BRANCH  68  91
ATOM     91  C   UNL A   1      39.899  30.667  30.248  1.00  0.00     0.064 A 
ATOM     92  C   UNL A   1      40.152  30.130  28.972  1.00  0.00     0.173 A 
ATOM     93  C   UNL A   1      38.560  30.878  30.605  1.00  0.00     0.173 A 
ATOM     94  F   UNL A   1      41.395  29.809  28.594  1.00  0.00    -0.203 F 
ATOM     95  C   UNL A   1      39.115  29.872  28.078  1.00  0.00     0.198 A 
ATOM     96  C   UNL A   1      37.522  30.582  29.724  1.00  0.00     0.198 A 
ATOM     97  F   UNL A   1      38.254  31.340  31.828  1.00  0.00    -0.203 F 
ATOM     98  F   UNL A   1      39.386  29.385  26.858  1.00  0.00    -0.200 F 
ATOM     99  C   UNL A   1      37.800  30.093  28.457  1.00  0.00     0.200 A 
ATOM    100  F   UNL A   1      36.249  30.752  30.110  1.00  0.00    -0.200 F 
ATOM    101  F   UNL A   1      36.800  29.813  27.609  1.00  0.00    -0.200 F 
ENDBRANCH  68  91
ENDBRANCH  42  43
ENDBRANCH  35  37
ENDBRANCH  34  35
ENDBRANCH  33  34
ENDBRANCH   1  33
TORSDOF 16
ENDMDL
