MODEL 1
REMARK VINA RESULT:     -15.1      0.000      0.000
REMARK SMILES Cc1ccc(C)c(S(=O)(=O)N[C@H](CC2=c3ccccc3=NC2)C(=O)OCCOC(=O)c2ccc(-c3c4nc(c(-c5c(F)c(F)c(F)c(F)c5F)c5ccc([nH]5)c(-c5c(F)c(F)c(F)c(F)c5F)c5nc(c(-c6c(F)c(F)c(F)c(F)c6F)c6ccc3[nH]6)C=C5)C=C4)cc2)c1
REMARK SMILES IDX 26 1 25 2 23 3 24 4 12 5 11 6 8 8 9 9 10 10 7 11 1 12 2 13
REMARK SMILES IDX 3 14 94 15 4 16 5 17 6 18 13 19 14 20 15 21 22 22 16 23
REMARK SMILES IDX 20 24 21 25 17 26 19 27 18 28 27 29 28 30 29 31 30 32 31 33
REMARK SMILES IDX 32 34 93 35 33 36 92 37 34 38 35 39 36 40 86 41 37 42 91 43
REMARK SMILES IDX 85 44 87 45 38 46 90 47 84 48 83 49 39 51 71 52 51 53 70 54
REMARK SMILES IDX 52 55 55 56 69 57 88 58 53 59 54 60 68 62 89 63 56 64 40 65
REMARK SMILES IDX 41 66 49 67 42 68 43 69 47 70 50 71 44 72 45 73 48 74 46 75
REMARK SMILES IDX 72 76 73 77 81 78 74 79 75 80 79 81 82 82 76 83 77 84 80 85
REMARK SMILES IDX 78 86 57 87 58 88 66 89 59 90 60 91 64 92 67 93 61 94 62 95
REMARK SMILES IDX 65 96 63 97
REMARK H PARENT 11 7 87 50 55 61
REMARK Flexibility Score: inf
ROOT
ATOM      1  C   UNL A   1      33.496  29.534  27.242  1.00  0.00     0.274 C 
ENDROOT
BRANCH   1   2
ATOM      2  O   UNL A   1      32.285  28.975  26.714  1.00  0.00    -0.461 OA
BRANCH   2   3
ATOM      3  C   UNL A   1      32.240  27.520  26.610  1.00  0.00     0.324 C 
ATOM      4  O   UNL A   1      31.227  27.211  27.289  1.00  0.00    -0.250 OA
BRANCH   3   5
ATOM      5  C   UNL A   1      33.683  26.344  25.428  1.00  0.00     0.183 C 
BRANCH   5   6
ATOM      6  N   UNL A   1      34.048  26.279  23.785  1.00  0.00    -0.197 NA
ATOM      7  H   UNL A   1      35.032  26.540  23.727  1.00  0.00     0.142 HD
BRANCH   6   8
ATOM      8  S   UNL A   1      33.286  27.148  22.499  1.00  0.00     0.241 S 
ATOM      9  O   UNL A   1      33.300  26.283  21.339  1.00  0.00    -0.207 OA
ATOM     10  O   UNL A   1      34.010  28.406  22.486  1.00  0.00    -0.207 OA
BRANCH   8  11
ATOM     11  C   UNL A   1      31.537  27.681  22.661  1.00  0.00     0.085 A 
ATOM     12  C   UNL A   1      29.185  30.711  22.246  1.00  0.00     0.044 C 
ATOM     13  C   UNL A   1      29.717  29.337  22.553  1.00  0.00    -0.050 A 
ATOM     14  C   UNL A   1      28.821  28.428  23.120  1.00  0.00     0.004 A 
ATOM     15  C   UNL A   1      31.061  28.949  22.294  1.00  0.00     0.025 A 
ATOM     16  C   UNL A   1      29.247  27.146  23.418  1.00  0.00     0.005 A 
ATOM     17  C   UNL A   1      30.587  26.750  23.193  1.00  0.00    -0.031 A 
ATOM     18  C   UNL A   1      30.853  25.306  23.537  1.00  0.00     0.046 C 
ENDBRANCH   8  11
ENDBRANCH   6   8
ENDBRANCH   5   6
BRANCH   5  19
ATOM     19  C   UNL A   1      34.371  24.603  25.716  1.00  0.00     0.065 C 
BRANCH  19  20
ATOM     20  C   UNL A   1      33.704  23.261  26.103  1.00  0.00    -0.037 C 
ATOM     21  C   UNL A   1      33.116  22.342  25.321  1.00  0.00     0.001 A 
ATOM     22  C   UNL A   1      33.854  22.693  27.494  1.00  0.00     0.174 C 
ATOM     23  C   UNL A   1      32.635  22.265  23.976  1.00  0.00     0.010 A 
ATOM     24  C   UNL A   1      33.331  21.099  26.104  1.00  0.00     0.065 A 
ATOM     25  N   UNL A   1      33.761  21.224  27.324  1.00  0.00    -0.280 NA
ATOM     26  C   UNL A   1      32.417  21.059  23.421  1.00  0.00     0.001 A 
ATOM     27  C   UNL A   1      33.196  19.813  25.379  1.00  0.00     0.028 A 
ATOM     28  C   UNL A   1      32.767  19.828  24.108  1.00  0.00     0.002 A 
ENDBRANCH  19  20
ENDBRANCH   5  19
ENDBRANCH   3   5
ENDBRANCH   2   3
ENDBRANCH   1   2
BRANCH   1  29
ATOM     29  C   UNL A   1      33.489  31.070  27.166  1.00  0.00     0.275 C 
BRANCH  29  30
ATOM     30  O   UNL A   1      34.018  31.795  28.319  1.00  0.00    -0.458 OA
BRANCH  30  31
ATOM     31  C   UNL A   1      35.158  32.539  28.362  1.00  0.00     0.338 C 
ATOM     32  O   UNL A   1      35.517  33.319  27.495  1.00  0.00    -0.246 OA
BRANCH  31  33
ATOM     33  C   UNL A   1      36.103  32.126  29.399  1.00  0.00     0.060 A 
ATOM     34  C   UNL A   1      37.606  33.118  29.606  1.00  0.00     0.016 A 
ATOM     35  C   UNL A   1      36.155  30.368  29.797  1.00  0.00     0.016 A 
ATOM     36  C   UNL A   1      39.156  32.269  30.050  1.00  0.00     0.010 A 
ATOM     37  C   UNL A   1      37.688  29.579  30.342  1.00  0.00     0.010 A 
ATOM     38  C   UNL A   1      39.213  30.485  30.256  1.00  0.00    -0.014 A 
BRANCH  38  39
ATOM     39  C   UNL A   1      40.397  29.557  29.784  1.00  0.00     0.031 A 
ATOM     40  C   UNL A   1      40.948  29.090  31.061  1.00  0.00     0.074 A 
ATOM     41  C   UNL A   1      40.888  28.931  28.635  1.00  0.00     0.049 A 
ATOM     42  N   UNL A   1      41.720  29.821  31.793  1.00  0.00    -0.248 NA
ATOM     43  C   UNL A   1      40.313  27.978  31.785  1.00  0.00     0.031 C 
ATOM     44  C   UNL A   1      40.417  28.935  27.234  1.00  0.00     0.029 A 
ATOM     45  N   UNL A   1      42.014  28.073  28.487  1.00  0.00    -0.354 N 
ATOM     46  C   UNL A   1      41.921  29.070  32.929  1.00  0.00     0.074 A 
ATOM     47  C   UNL A   1      40.775  28.211  33.020  1.00  0.00     0.031 C 
ATOM     48  C   UNL A   1      41.068  28.006  26.466  1.00  0.00     0.029 A 
ATOM     49  C   UNL A   1      42.143  27.387  27.228  1.00  0.00     0.049 A 
ATOM     50  H   UNL A   1      42.672  27.954  29.210  1.00  0.00     0.167 HD
ATOM     51  C   UNL A   1      43.189  28.898  33.392  1.00  0.00     0.037 A 
ATOM     52  C   UNL A   1      43.147  26.540  26.773  1.00  0.00     0.037 A 
ATOM     53  C   UNL A   1      44.101  29.748  32.646  1.00  0.00     0.049 A 
ATOM     54  C   UNL A   1      44.339  26.848  27.579  1.00  0.00     0.074 A 
ATOM     55  C   UNL A   1      44.280  31.104  32.459  1.00  0.00     0.029 A 
ATOM     56  N   UNL A   1      44.634  29.124  31.549  1.00  0.00    -0.354 N 
ATOM     57  N   UNL A   1      45.001  27.961  27.499  1.00  0.00    -0.248 NA
ATOM     58  C   UNL A   1      44.539  26.054  28.774  1.00  0.00     0.031 C 
ATOM     59  C   UNL A   1      44.753  31.265  31.119  1.00  0.00     0.029 A 
ATOM     60  C   UNL A   1      44.961  30.006  30.560  1.00  0.00     0.049 A 
ATOM     61  H   UNL A   1      44.765  28.151  31.481  1.00  0.00     0.167 HD
ATOM     62  C   UNL A   1      45.260  28.261  28.820  1.00  0.00     0.074 A 
ATOM     63  C   UNL A   1      45.069  27.003  29.546  1.00  0.00     0.031 C 
ATOM     64  C   UNL A   1      45.253  29.565  29.217  1.00  0.00     0.037 A 
BRANCH  51  65
ATOM     65  C   UNL A   1      43.685  27.648  34.089  1.00  0.00     0.064 A 
ATOM     66  C   UNL A   1      44.225  27.777  35.384  1.00  0.00     0.173 A 
ATOM     67  C   UNL A   1      43.886  26.388  33.480  1.00  0.00     0.173 A 
ATOM     68  F   UNL A   1      44.144  28.944  36.042  1.00  0.00    -0.203 F 
ATOM     69  C   UNL A   1      44.926  26.738  36.003  1.00  0.00     0.198 A 
ATOM     70  C   UNL A   1      44.538  25.337  34.120  1.00  0.00     0.198 A 
ATOM     71  F   UNL A   1      43.572  26.136  32.207  1.00  0.00    -0.203 F 
ATOM     72  F   UNL A   1      45.503  26.943  37.194  1.00  0.00    -0.200 F 
ATOM     73  C   UNL A   1      45.075  25.516  35.374  1.00  0.00     0.200 A 
ATOM     74  F   UNL A   1      44.702  24.175  33.472  1.00  0.00    -0.200 F 
ATOM     75  F   UNL A   1      45.775  24.531  35.948  1.00  0.00    -0.200 F 
ENDBRANCH  51  65
BRANCH  52  76
ATOM     76  C   UNL A   1      43.224  25.245  25.961  1.00  0.00     0.064 A 
ATOM     77  C   UNL A   1      44.327  24.934  25.103  1.00  0.00     0.173 A 
ATOM     78  C   UNL A   1      42.449  24.137  26.328  1.00  0.00     0.173 A 
ATOM     79  F   UNL A   1      45.170  25.899  24.701  1.00  0.00    -0.203 F 
ATOM     80  C   UNL A   1      44.653  23.616  24.715  1.00  0.00     0.198 A 
ATOM     81  C   UNL A   1      42.781  22.820  25.945  1.00  0.00     0.198 A 
ATOM     82  F   UNL A   1      41.412  24.299  27.158  1.00  0.00    -0.203 F 
ATOM     83  F   UNL A   1      45.748  23.371  23.975  1.00  0.00    -0.200 F 
ATOM     84  C   UNL A   1      43.890  22.556  25.159  1.00  0.00     0.200 A 
ATOM     85  F   UNL A   1      42.053  21.794  26.410  1.00  0.00    -0.200 F 
ATOM     86  F   UNL A   1      44.240  21.292  24.873  1.00  0.00    -0.200 F 
ENDBRANCH  52  76
BRANCH  64  87
ATOM     87  C   UNL A   1      45.445  30.620  28.159  1.00  0.00     0.064 A 
ATOM     88  C   UNL A   1      44.415  31.249  27.436  1.00  0.00     0.173 A 
ATOM     89  C   UNL A   1      46.750  31.087  27.959  1.00  0.00     0.173 A 
ATOM     90  F   UNL A   1      43.136  30.896  27.604  1.00  0.00    -0.203 F 
ATOM     91  C   UNL A   1      44.692  32.295  26.553  1.00  0.00     0.198 A 
ATOM     92  C   UNL A   1      47.018  32.151  27.106  1.00  0.00     0.198 A 
ATOM     93  F   UNL A   1      47.769  30.532  28.634  1.00  0.00    -0.203 F 
ATOM     94  F   UNL A   1      43.697  32.883  25.870  1.00  0.00    -0.200 F 
ATOM     95  C   UNL A   1      45.991  32.754  26.399  1.00  0.00     0.200 A 
ATOM     96  F   UNL A   1      48.271  32.611  26.993  1.00  0.00    -0.200 F 
ATOM     97  F   UNL A   1      46.252  33.787  25.587  1.00  0.00    -0.200 F 
ENDBRANCH  64  87
ENDBRANCH  38  39
ENDBRANCH  31  33
ENDBRANCH  30  31
ENDBRANCH  29  30
ENDBRANCH   1  29
TORSDOF 16
ENDMDL
MODEL 2
REMARK VINA RESULT:     -14.6      3.462      9.177
REMARK SMILES Cc1ccc(C)c(S(=O)(=O)N[C@H](CC2=c3ccccc3=NC2)C(=O)OCCOC(=O)c2ccc(-c3c4nc(c(-c5c(F)c(F)c(F)c(F)c5F)c5ccc([nH]5)c(-c5c(F)c(F)c(F)c(F)c5F)c5nc(c(-c6c(F)c(F)c(F)c(F)c6F)c6ccc3[nH]6)C=C5)C=C4)cc2)c1
REMARK SMILES IDX 26 1 25 2 23 3 24 4 12 5 11 6 8 8 9 9 10 10 7 11 1 12 2 13
REMARK SMILES IDX 3 14 94 15 4 16 5 17 6 18 13 19 14 20 15 21 22 22 16 23
REMARK SMILES IDX 20 24 21 25 17 26 19 27 18 28 27 29 28 30 29 31 30 32 31 33
REMARK SMILES IDX 32 34 93 35 33 36 92 37 34 38 35 39 36 40 86 41 37 42 91 43
REMARK SMILES IDX 85 44 87 45 38 46 90 47 84 48 83 49 39 51 71 52 51 53 70 54
REMARK SMILES IDX 52 55 55 56 69 57 88 58 53 59 54 60 68 62 89 63 56 64 40 65
REMARK SMILES IDX 41 66 49 67 42 68 43 69 47 70 50 71 44 72 45 73 48 74 46 75
REMARK SMILES IDX 72 76 73 77 81 78 74 79 75 80 79 81 82 82 76 83 77 84 80 85
REMARK SMILES IDX 78 86 57 87 58 88 66 89 59 90 60 91 64 92 67 93 61 94 62 95
REMARK SMILES IDX 65 96 63 97
REMARK H PARENT 11 7 87 50 55 61
REMARK Flexibility Score: inf
ROOT
ATOM      1  C   UNL A   1      37.708  21.884  24.730  1.00  0.00     0.274 C 
ENDROOT
BRANCH   1   2
ATOM      2  O   UNL A   1      37.383  23.266  24.528  1.00  0.00    -0.461 OA
BRANCH   2   3
ATOM      3  C   UNL A   1      36.113  23.537  23.863  1.00  0.00     0.324 C 
ATOM      4  O   UNL A   1      36.236  22.954  22.754  1.00  0.00    -0.250 OA
BRANCH   3   5
ATOM      5  C   UNL A   1      34.472  24.676  24.798  1.00  0.00     0.183 C 
BRANCH   5   6
ATOM      6  N   UNL A   1      33.046  24.220  25.570  1.00  0.00    -0.197 NA
ATOM      7  H   UNL A   1      33.325  24.012  26.529  1.00  0.00     0.142 HD
BRANCH   6   8
ATOM      8  S   UNL A   1      31.972  22.936  25.136  1.00  0.00     0.241 S 
ATOM      9  O   UNL A   1      31.253  23.368  23.957  1.00  0.00    -0.207 OA
ATOM     10  O   UNL A   1      31.263  22.677  26.376  1.00  0.00    -0.207 OA
BRANCH   8  11
ATOM     11  C   UNL A   1      32.645  21.287  24.693  1.00  0.00     0.085 A 
ATOM     12  C   UNL A   1      32.156  18.294  22.308  1.00  0.00     0.044 C 
ATOM     13  C   UNL A   1      32.673  19.190  23.401  1.00  0.00    -0.050 A 
ATOM     14  C   UNL A   1      33.677  18.668  24.220  1.00  0.00     0.004 A 
ATOM     15  C   UNL A   1      32.187  20.510  23.620  1.00  0.00     0.025 A 
ATOM     16  C   UNL A   1      34.200  19.445  25.238  1.00  0.00     0.005 A 
ATOM     17  C   UNL A   1      33.710  20.750  25.487  1.00  0.00    -0.031 A 
ATOM     18  C   UNL A   1      34.431  21.459  26.606  1.00  0.00     0.046 C 
ENDBRANCH   8  11
ENDBRANCH   6   8
ENDBRANCH   5   6
BRANCH   5  19
ATOM     19  C   UNL A   1      33.777  26.387  24.382  1.00  0.00     0.065 C 
BRANCH  19  20
ATOM     20  C   UNL A   1      32.903  27.387  25.176  1.00  0.00    -0.037 C 
ATOM     21  C   UNL A   1      33.262  28.283  26.109  1.00  0.00     0.001 A 
ATOM     22  C   UNL A   1      31.463  27.635  24.792  1.00  0.00     0.174 C 
ATOM     23  C   UNL A   1      34.410  28.546  26.920  1.00  0.00     0.010 A 
ATOM     24  C   UNL A   1      32.213  29.322  25.948  1.00  0.00     0.065 A 
ATOM     25  N   UNL A   1      31.186  29.029  25.208  1.00  0.00    -0.280 NA
ATOM     26  C   UNL A   1      34.545  29.752  27.501  1.00  0.00     0.001 A 
ATOM     27  C   UNL A   1      32.501  30.663  26.509  1.00  0.00     0.028 A 
ATOM     28  C   UNL A   1      33.617  30.837  27.234  1.00  0.00     0.002 A 
ENDBRANCH  19  20
ENDBRANCH   5  19
ENDBRANCH   3   5
ENDBRANCH   2   3
ENDBRANCH   1   2
BRANCH   1  29
ATOM     29  C   UNL A   1      38.456  21.668  26.057  1.00  0.00     0.275 C 
BRANCH  29  30
ATOM     30  O   UNL A   1      39.915  21.628  25.999  1.00  0.00    -0.458 OA
BRANCH  30  31
ATOM     31  C   UNL A   1      40.778  21.811  27.036  1.00  0.00     0.338 C 
ATOM     32  O   UNL A   1      40.757  21.184  28.082  1.00  0.00    -0.246 OA
BRANCH  31  33
ATOM     33  C   UNL A   1      41.576  23.034  26.941  1.00  0.00     0.060 A 
ATOM     34  C   UNL A   1      42.706  23.404  28.310  1.00  0.00     0.016 A 
ATOM     35  C   UNL A   1      40.862  24.398  26.004  1.00  0.00     0.016 A 
ATOM     36  C   UNL A   1      42.948  25.145  28.792  1.00  0.00     0.010 A 
ATOM     37  C   UNL A   1      41.212  26.117  26.443  1.00  0.00     0.010 A 
ATOM     38  C   UNL A   1      42.073  26.472  27.956  1.00  0.00    -0.014 A 
BRANCH  38  39
ATOM     39  C   UNL A   1      41.472  27.746  28.663  1.00  0.00     0.031 A 
ATOM     40  C   UNL A   1      42.363  28.811  28.187  1.00  0.00     0.074 A 
ATOM     41  C   UNL A   1      40.331  28.162  29.354  1.00  0.00     0.049 A 
ATOM     42  N   UNL A   1      43.540  29.004  28.681  1.00  0.00    -0.248 NA
ATOM     43  C   UNL A   1      42.167  29.408  26.857  1.00  0.00     0.031 C 
ATOM     44  C   UNL A   1      39.104  27.441  29.752  1.00  0.00     0.029 A 
ATOM     45  N   UNL A   1      40.012  29.446  29.879  1.00  0.00    -0.354 N 
ATOM     46  C   UNL A   1      44.076  30.003  27.901  1.00  0.00     0.074 A 
ATOM     47  C   UNL A   1      43.391  29.906  26.644  1.00  0.00     0.031 C 
ATOM     48  C   UNL A   1      38.137  28.286  30.228  1.00  0.00     0.029 A 
ATOM     49  C   UNL A   1      38.662  29.640  30.340  1.00  0.00     0.049 A 
ATOM     50  H   UNL A   1      40.682  30.167  29.925  1.00  0.00     0.167 HD
ATOM     51  C   UNL A   1      44.659  31.074  28.506  1.00  0.00     0.037 A 
ATOM     52  C   UNL A   1      38.075  30.747  30.942  1.00  0.00     0.037 A 
ATOM     53  C   UNL A   1      44.759  30.832  29.935  1.00  0.00     0.049 A 
ATOM     54  C   UNL A   1      39.179  31.531  31.520  1.00  0.00     0.074 A 
ATOM     55  C   UNL A   1      45.406  29.931  30.756  1.00  0.00     0.029 A 
ATOM     56  N   UNL A   1      43.671  31.289  30.630  1.00  0.00    -0.354 N 
ATOM     57  N   UNL A   1      39.894  31.142  32.530  1.00  0.00    -0.248 NA
ATOM     58  C   UNL A   1      39.738  32.578  30.688  1.00  0.00     0.031 C 
ATOM     59  C   UNL A   1      44.545  29.720  31.877  1.00  0.00     0.029 A 
ATOM     60  C   UNL A   1      43.454  30.579  31.776  1.00  0.00     0.049 A 
ATOM     61  H   UNL A   1      43.109  32.042  30.338  1.00  0.00     0.167 HD
ATOM     62  C   UNL A   1      41.174  31.488  32.152  1.00  0.00     0.074 A 
ATOM     63  C   UNL A   1      41.008  32.474  31.080  1.00  0.00     0.031 C 
ATOM     64  C   UNL A   1      42.212  30.678  32.505  1.00  0.00     0.037 A 
BRANCH  51  65
ATOM     65  C   UNL A   1      44.641  32.485  27.955  1.00  0.00     0.064 A 
ATOM     66  C   UNL A   1      45.842  33.017  27.448  1.00  0.00     0.173 A 
ATOM     67  C   UNL A   1      43.592  33.419  28.113  1.00  0.00     0.173 A 
ATOM     68  F   UNL A   1      46.925  32.238  27.304  1.00  0.00    -0.203 F 
ATOM     69  C   UNL A   1      45.985  34.376  27.150  1.00  0.00     0.198 A 
ATOM     70  C   UNL A   1      43.720  34.762  27.764  1.00  0.00     0.198 A 
ATOM     71  F   UNL A   1      42.436  33.123  28.713  1.00  0.00    -0.203 F 
ATOM     72  F   UNL A   1      47.176  34.850  26.764  1.00  0.00    -0.200 F 
ATOM     73  C   UNL A   1      44.921  35.245  27.300  1.00  0.00     0.200 A 
ATOM     74  F   UNL A   1      42.684  35.591  27.957  1.00  0.00    -0.200 F 
ATOM     75  F   UNL A   1      45.064  36.552  27.050  1.00  0.00    -0.200 F 
ENDBRANCH  51  65
BRANCH  52  76
ATOM     76  C   UNL A   1      36.730  31.472  30.862  1.00  0.00     0.064 A 
ATOM     77  C   UNL A   1      35.999  31.875  32.024  1.00  0.00     0.173 A 
ATOM     78  C   UNL A   1      36.358  32.139  29.687  1.00  0.00     0.173 A 
ATOM     79  F   UNL A   1      36.276  31.340  33.224  1.00  0.00    -0.203 F 
ATOM     80  C   UNL A   1      35.033  32.907  32.008  1.00  0.00     0.198 A 
ATOM     81  C   UNL A   1      35.399  33.173  29.674  1.00  0.00     0.198 A 
ATOM     82  F   UNL A   1      36.998  31.871  28.542  1.00  0.00    -0.203 F 
ATOM     83  F   UNL A   1      34.435  33.302  33.144  1.00  0.00    -0.200 F 
ATOM     84  C   UNL A   1      34.753  33.571  30.832  1.00  0.00     0.200 A 
ATOM     85  F   UNL A   1      35.159  33.836  28.533  1.00  0.00    -0.200 F 
ATOM     86  F   UNL A   1      33.906  34.613  30.819  1.00  0.00    -0.200 F 
ENDBRANCH  52  76
BRANCH  64  87
ATOM     87  C   UNL A   1      42.003  29.738  33.663  1.00  0.00     0.064 A 
ATOM     88  C   UNL A   1      41.591  28.397  33.563  1.00  0.00     0.173 A 
ATOM     89  C   UNL A   1      42.352  30.211  34.935  1.00  0.00     0.173 A 
ATOM     90  F   UNL A   1      41.286  27.853  32.379  1.00  0.00    -0.203 F 
ATOM     91  C   UNL A   1      41.532  27.576  34.693  1.00  0.00     0.198 A 
ATOM     92  C   UNL A   1      42.326  29.382  36.051  1.00  0.00     0.198 A 
ATOM     93  F   UNL A   1      42.765  31.479  35.086  1.00  0.00    -0.203 F 
ATOM     94  F   UNL A   1      41.136  26.299  34.578  1.00  0.00    -0.200 F 
ATOM     95  C   UNL A   1      41.912  28.066  35.932  1.00  0.00     0.200 A 
ATOM     96  F   UNL A   1      42.731  29.855  37.237  1.00  0.00    -0.200 F 
ATOM     97  F   UNL A   1      41.901  27.267  37.008  1.00  0.00    -0.200 F 
ENDBRANCH  64  87
ENDBRANCH  38  39
ENDBRANCH  31  33
ENDBRANCH  30  31
ENDBRANCH  29  30
ENDBRANCH   1  29
TORSDOF 16
ENDMDL
MODEL 3
REMARK VINA RESULT:     -14.5      1.510      2.470
REMARK SMILES Cc1ccc(C)c(S(=O)(=O)N[C@H](CC2=c3ccccc3=NC2)C(=O)OCCOC(=O)c2ccc(-c3c4nc(c(-c5c(F)c(F)c(F)c(F)c5F)c5ccc([nH]5)c(-c5c(F)c(F)c(F)c(F)c5F)c5nc(c(-c6c(F)c(F)c(F)c(F)c6F)c6ccc3[nH]6)C=C5)C=C4)cc2)c1
REMARK SMILES IDX 26 1 25 2 23 3 24 4 12 5 11 6 8 8 9 9 10 10 7 11 1 12 2 13
REMARK SMILES IDX 3 14 94 15 4 16 5 17 6 18 13 19 14 20 15 21 22 22 16 23
REMARK SMILES IDX 20 24 21 25 17 26 19 27 18 28 27 29 28 30 29 31 30 32 31 33
REMARK SMILES IDX 32 34 93 35 33 36 92 37 34 38 35 39 36 40 86 41 37 42 91 43
REMARK SMILES IDX 85 44 87 45 38 46 90 47 84 48 83 49 39 51 71 52 51 53 70 54
REMARK SMILES IDX 52 55 55 56 69 57 88 58 53 59 54 60 68 62 89 63 56 64 40 65
REMARK SMILES IDX 41 66 49 67 42 68 43 69 47 70 50 71 44 72 45 73 48 74 46 75
REMARK SMILES IDX 72 76 73 77 81 78 74 79 75 80 79 81 82 82 76 83 77 84 80 85
REMARK SMILES IDX 78 86 57 87 58 88 66 89 59 90 60 91 64 92 67 93 61 94 62 95
REMARK SMILES IDX 65 96 63 97
REMARK H PARENT 11 7 87 50 55 61
REMARK Flexibility Score: inf
ROOT
ATOM      1  C   UNL A   1      33.201  29.657  26.404  1.00  0.00     0.274 C 
ENDROOT
BRANCH   1   2
ATOM      2  O   UNL A   1      32.435  28.784  27.246  1.00  0.00    -0.461 OA
BRANCH   2   3
ATOM      3  C   UNL A   1      32.209  27.435  26.736  1.00  0.00     0.324 C 
ATOM      4  O   UNL A   1      31.019  27.196  27.067  1.00  0.00    -0.250 OA
BRANCH   3   5
ATOM      5  C   UNL A   1      33.726  26.291  25.617  1.00  0.00     0.183 C 
BRANCH   5   6
ATOM      6  N   UNL A   1      34.004  26.042  23.975  1.00  0.00    -0.197 NA
ATOM      7  H   UNL A   1      34.931  26.432  23.806  1.00  0.00     0.142 HD
BRANCH   6   8
ATOM      8  S   UNL A   1      33.047  26.596  22.645  1.00  0.00     0.241 S 
ATOM      9  O   UNL A   1      33.052  25.543  21.653  1.00  0.00    -0.207 OA
ATOM     10  O   UNL A   1      33.630  27.891  22.345  1.00  0.00    -0.207 OA
BRANCH   8  11
ATOM     11  C   UNL A   1      31.271  26.992  22.894  1.00  0.00     0.085 A 
ATOM     12  C   UNL A   1      28.624  29.751  22.380  1.00  0.00     0.044 C 
ATOM     13  C   UNL A   1      29.303  28.466  22.774  1.00  0.00    -0.050 A 
ATOM     14  C   UNL A   1      28.537  27.546  23.494  1.00  0.00     0.004 A 
ATOM     15  C   UNL A   1      30.656  28.170  22.447  1.00  0.00     0.025 A 
ATOM     16  C   UNL A   1      29.100  26.343  23.878  1.00  0.00     0.005 A 
ATOM     17  C   UNL A   1      30.452  26.042  23.586  1.00  0.00    -0.031 A 
ATOM     18  C   UNL A   1      30.875  24.668  24.044  1.00  0.00     0.046 C 
ENDBRANCH   8  11
ENDBRANCH   6   8
ENDBRANCH   5   6
BRANCH   5  19
ATOM     19  C   UNL A   1      34.651  24.706  26.080  1.00  0.00     0.065 C 
BRANCH  19  20
ATOM     20  C   UNL A   1      35.604  23.776  25.290  1.00  0.00    -0.037 C 
ATOM     21  C   UNL A   1      36.901  23.503  25.502  1.00  0.00     0.001 A 
ATOM     22  C   UNL A   1      35.071  22.829  24.241  1.00  0.00     0.174 C 
ATOM     23  C   UNL A   1      37.974  24.048  26.275  1.00  0.00     0.010 A 
ATOM     24  C   UNL A   1      37.016  22.135  24.935  1.00  0.00     0.065 A 
ATOM     25  N   UNL A   1      36.017  21.689  24.233  1.00  0.00    -0.280 NA
ATOM     26  C   UNL A   1      39.065  23.297  26.513  1.00  0.00     0.001 A 
ATOM     27  C   UNL A   1      38.187  21.328  25.353  1.00  0.00     0.028 A 
ATOM     28  C   UNL A   1      39.137  21.905  26.105  1.00  0.00     0.002 A 
ENDBRANCH  19  20
ENDBRANCH   5  19
ENDBRANCH   3   5
ENDBRANCH   2   3
ENDBRANCH   1   2
BRANCH   1  29
ATOM     29  C   UNL A   1      34.508  30.096  27.086  1.00  0.00     0.275 C 
BRANCH  29  30
ATOM     30  O   UNL A   1      34.429  31.223  28.013  1.00  0.00    -0.458 OA
BRANCH  30  31
ATOM     31  C   UNL A   1      35.434  32.079  28.343  1.00  0.00     0.338 C 
ATOM     32  O   UNL A   1      35.843  32.985  27.636  1.00  0.00    -0.246 OA
BRANCH  31  33
ATOM     33  C   UNL A   1      36.217  31.661  29.506  1.00  0.00     0.060 A 
ATOM     34  C   UNL A   1      37.707  32.615  29.901  1.00  0.00     0.016 A 
ATOM     35  C   UNL A   1      36.163  29.910  29.934  1.00  0.00     0.016 A 
ATOM     36  C   UNL A   1      39.156  31.732  30.565  1.00  0.00     0.010 A 
ATOM     37  C   UNL A   1      37.583  29.089  30.695  1.00  0.00     0.010 A 
ATOM     38  C   UNL A   1      39.132  29.952  30.803  1.00  0.00    -0.014 A 
BRANCH  38  39
ATOM     39  C   UNL A   1      40.341  28.983  30.511  1.00  0.00     0.031 A 
ATOM     40  C   UNL A   1      40.877  28.746  31.857  1.00  0.00     0.074 A 
ATOM     41  C   UNL A   1      40.865  28.185  29.491  1.00  0.00     0.049 A 
ATOM     42  N   UNL A   1      41.621  29.606  32.469  1.00  0.00    -0.248 NA
ATOM     43  C   UNL A   1      40.248  27.757  32.747  1.00  0.00     0.031 C 
ATOM     44  C   UNL A   1      40.420  27.945  28.102  1.00  0.00     0.029 A 
ATOM     45  N   UNL A   1      42.008  27.337  29.505  1.00  0.00    -0.354 N 
ATOM     46  C   UNL A   1      41.815  29.058  33.717  1.00  0.00     0.074 A 
ATOM     47  C   UNL A   1      40.683  28.203  33.932  1.00  0.00     0.031 C 
ATOM     48  C   UNL A   1      41.102  26.915  27.509  1.00  0.00     0.029 A 
ATOM     49  C   UNL A   1      42.174  26.455  28.380  1.00  0.00     0.049 A 
ATOM     50  H   UNL A   1      42.655  27.354  30.248  1.00  0.00     0.167 HD
ATOM     51  C   UNL A   1      43.077  28.993  34.222  1.00  0.00     0.037 A 
ATOM     52  C   UNL A   1      43.201  25.564  28.089  1.00  0.00     0.037 A 
ATOM     53  C   UNL A   1      43.987  29.725  33.358  1.00  0.00     0.049 A 
ATOM     54  C   UNL A   1      44.372  26.027  28.851  1.00  0.00     0.074 A 
ATOM     55  C   UNL A   1      44.145  31.034  32.951  1.00  0.00     0.029 A 
ATOM     56  N   UNL A   1      44.551  28.938  32.390  1.00  0.00    -0.354 N 
ATOM     57  N   UNL A   1      45.015  27.125  28.596  1.00  0.00    -0.248 NA
ATOM     58  C   UNL A   1      44.564  25.448  30.165  1.00  0.00     0.031 C 
ATOM     59  C   UNL A   1      44.640  30.979  31.610  1.00  0.00     0.029 A 
ATOM     60  C   UNL A   1      44.881  29.650  31.272  1.00  0.00     0.049 A 
ATOM     61  H   UNL A   1      44.701  27.970  32.487  1.00  0.00     0.167 HD
ATOM     62  C   UNL A   1      45.244  27.646  29.852  1.00  0.00     0.074 A 
ATOM     63  C   UNL A   1      45.062  26.523  30.776  1.00  0.00     0.031 C 
ATOM     64  C   UNL A   1      45.206  28.997  30.027  1.00  0.00     0.037 A 
BRANCH  51  65
ATOM     65  C   UNL A   1      43.582  27.886  35.125  1.00  0.00     0.064 A 
ATOM     66  C   UNL A   1      43.522  26.561  34.652  1.00  0.00     0.173 A 
ATOM     67  C   UNL A   1      43.891  28.017  36.498  1.00  0.00     0.173 A 
ATOM     68  F   UNL A   1      43.185  26.308  33.378  1.00  0.00    -0.203 F 
ATOM     69  C   UNL A   1      43.730  25.462  35.492  1.00  0.00     0.198 A 
ATOM     70  C   UNL A   1      44.150  26.924  37.321  1.00  0.00     0.198 A 
ATOM     71  F   UNL A   1      43.847  29.185  37.147  1.00  0.00    -0.203 F 
ATOM     72  F   UNL A   1      43.564  24.222  35.016  1.00  0.00    -0.200 F 
ATOM     73  C   UNL A   1      44.052  25.645  36.823  1.00  0.00     0.200 A 
ATOM     74  F   UNL A   1      44.422  27.128  38.617  1.00  0.00    -0.200 F 
ATOM     75  F   UNL A   1      44.216  24.596  37.638  1.00  0.00    -0.200 F 
ENDBRANCH  51  65
BRANCH  52  76
ATOM     76  C   UNL A   1      43.317  24.154  27.506  1.00  0.00     0.064 A 
ATOM     77  C   UNL A   1      42.728  23.009  28.130  1.00  0.00     0.173 A 
ATOM     78  C   UNL A   1      43.630  23.976  26.151  1.00  0.00     0.173 A 
ATOM     79  F   UNL A   1      42.349  23.053  29.417  1.00  0.00    -0.203 F 
ATOM     80  C   UNL A   1      42.421  21.821  27.428  1.00  0.00     0.198 A 
ATOM     81  C   UNL A   1      43.316  22.792  25.451  1.00  0.00     0.198 A 
ATOM     82  F   UNL A   1      44.152  24.991  25.453  1.00  0.00    -0.203 F 
ATOM     83  F   UNL A   1      41.793  20.806  28.043  1.00  0.00    -0.200 F 
ATOM     84  C   UNL A   1      42.696  21.726  26.079  1.00  0.00     0.200 A 
ATOM     85  F   UNL A   1      43.555  22.723  24.133  1.00  0.00    -0.200 F 
ATOM     86  F   UNL A   1      42.327  20.640  25.380  1.00  0.00    -0.200 F 
ENDBRANCH  52  76
BRANCH  64  87
ATOM     87  C   UNL A   1      45.398  29.865  28.811  1.00  0.00     0.064 A 
ATOM     88  C   UNL A   1      44.369  30.380  28.003  1.00  0.00     0.173 A 
ATOM     89  C   UNL A   1      46.707  30.280  28.528  1.00  0.00     0.173 A 
ATOM     90  F   UNL A   1      43.087  30.073  28.235  1.00  0.00    -0.203 F 
ATOM     91  C   UNL A   1      44.648  31.267  26.960  1.00  0.00     0.198 A 
ATOM     92  C   UNL A   1      46.977  31.188  27.512  1.00  0.00     0.198 A 
ATOM     93  F   UNL A   1      47.726  29.830  29.277  1.00  0.00    -0.203 F 
ATOM     94  F   UNL A   1      43.652  31.747  26.198  1.00  0.00    -0.200 F 
ATOM     95  C   UNL A   1      45.950  31.680  26.725  1.00  0.00     0.200 A 
ATOM     96  F   UNL A   1      48.234  31.610  27.317  1.00  0.00    -0.200 F 
ATOM     97  F   UNL A   1      46.214  32.566  25.754  1.00  0.00    -0.200 F 
ENDBRANCH  64  87
ENDBRANCH  38  39
ENDBRANCH  31  33
ENDBRANCH  30  31
ENDBRANCH  29  30
ENDBRANCH   1  29
TORSDOF 16
ENDMDL
