MODEL 1
REMARK VINA RESULT:     -11.5      0.000      0.000
REMARK SMILES CC[C@H](C)[C@H](NC(=O)N1CCCCC1)C(=O)OCCOC(=O)c1ccc(-c2c3nc(c(-c4c(F)c(F)c(F)c(F)c4F)c4ccc([nH]4)c(-c4c(F)c(F)c(F)c(F)c4F)c4nc(c(-c5c(F)c(F)c(F)c(F)c5F)c5ccc2[nH]5)C=C4)C=C3)cc1
REMARK SMILES IDX 18 1 17 2 15 3 16 4 5 5 3 6 4 7 2 8 1 9 6 10 7 11 8 13 9 14
REMARK SMILES IDX 10 15 14 16 11 17 13 18 12 19 19 20 20 21 21 22 22 23 23 24
REMARK SMILES IDX 24 25 85 26 25 27 84 28 26 29 27 30 28 31 78 32 29 33 83 34
REMARK SMILES IDX 77 35 79 36 30 37 82 38 76 39 75 40 31 42 63 43 43 44 62 45
REMARK SMILES IDX 44 46 47 47 61 48 80 49 45 50 46 51 60 53 81 54 48 55 32 56
REMARK SMILES IDX 33 57 41 58 34 59 35 60 39 61 42 62 36 63 37 64 40 65 38 66
REMARK SMILES IDX 64 67 65 68 73 69 66 70 67 71 71 72 74 73 68 74 69 75 72 76
REMARK SMILES IDX 70 77 49 78 50 79 58 80 51 81 52 82 56 83 59 84 53 85 54 86
REMARK SMILES IDX 57 87 55 88
REMARK H PARENT 6 12 79 41 47 52
REMARK Flexibility Score: inf
ROOT
ATOM      1  C   UNL A   1      31.792  28.804  26.446  1.00  0.00     0.274 C 
ENDROOT
BRANCH   1   2
ATOM      2  O   UNL A   1      33.100  28.258  26.185  1.00  0.00    -0.461 OA
BRANCH   2   3
ATOM      3  C   UNL A   1      33.364  27.901  24.895  1.00  0.00     0.329 C 
ATOM      4  O   UNL A   1      34.001  28.602  24.117  1.00  0.00    -0.250 OA
BRANCH   3   5
ATOM      5  C   UNL A   1      32.659  26.586  24.479  1.00  0.00     0.196 C 
BRANCH   5   6
ATOM      6  C   UNL A   1      33.667  25.439  24.135  1.00  0.00     0.019 C 
ATOM      7  C   UNL A   1      34.294  24.785  25.375  1.00  0.00     0.010 C 
BRANCH   6   8
ATOM      8  C   UNL A   1      33.137  24.320  23.203  1.00  0.00     0.002 C 
ATOM      9  C   UNL A   1      34.144  23.201  22.933  1.00  0.00     0.004 C 
ENDBRANCH   6   8
ENDBRANCH   5   6
BRANCH   5  10
ATOM     10  N   UNL A   1      31.672  26.876  23.432  1.00  0.00    -0.324 N 
ATOM     11  C   UNL A   1      30.321  26.754  23.674  1.00  0.00     0.318 C 
ATOM     12  H   UNL A   1      31.982  27.161  22.542  1.00  0.00     0.166 HD
ATOM     13  O   UNL A   1      29.886  25.911  24.453  1.00  0.00    -0.249 OA
ATOM     14  N   UNL A   1      29.524  27.735  23.062  1.00  0.00    -0.325 N 
ATOM     15  C   UNL A   1      28.119  27.762  23.501  1.00  0.00     0.121 C 
ATOM     16  C   UNL A   1      30.134  28.948  22.520  1.00  0.00     0.121 C 
ATOM     17  C   UNL A   1      27.279  28.979  23.110  1.00  0.00     0.022 C 
ATOM     18  C   UNL A   1      29.198  30.021  22.005  1.00  0.00     0.022 C 
ATOM     19  C   UNL A   1      28.091  30.258  23.010  1.00  0.00     0.004 C 
ENDBRANCH   5  10
ENDBRANCH   3   5
ENDBRANCH   2   3
ENDBRANCH   1   2
BRANCH   1  20
ATOM     20  C   UNL A   1      31.804  30.333  26.517  1.00  0.00     0.275 C 
BRANCH  20  21
ATOM     21  O   UNL A   1      33.142  30.841  26.369  1.00  0.00    -0.458 OA
BRANCH  21  22
ATOM     22  C   UNL A   1      33.509  31.752  27.300  1.00  0.00     0.338 C 
ATOM     23  O   UNL A   1      32.898  32.753  27.617  1.00  0.00    -0.246 OA
BRANCH  22  24
ATOM     24  C   UNL A   1      34.803  31.376  27.878  1.00  0.00     0.060 A 
ATOM     25  C   UNL A   1      35.810  32.331  28.040  1.00  0.00     0.016 A 
ATOM     26  C   UNL A   1      35.019  30.044  28.224  1.00  0.00     0.016 A 
ATOM     27  C   UNL A   1      37.020  31.971  28.624  1.00  0.00     0.010 A 
ATOM     28  C   UNL A   1      36.230  29.681  28.807  1.00  0.00     0.010 A 
ATOM     29  C   UNL A   1      37.221  30.650  29.036  1.00  0.00    -0.014 A 
BRANCH  29  30
ATOM     30  C   UNL A   1      38.418  30.289  29.819  1.00  0.00     0.031 A 
ATOM     31  C   UNL A   1      39.431  29.342  29.267  1.00  0.00     0.074 A 
ATOM     32  C   UNL A   1      38.528  30.792  31.061  1.00  0.00     0.049 A 
ATOM     33  N   UNL A   1      40.459  28.796  29.863  1.00  0.00    -0.248 NA
ATOM     34  C   UNL A   1      39.265  28.950  27.860  1.00  0.00     0.031 C 
ATOM     35  C   UNL A   1      37.590  31.739  31.667  1.00  0.00     0.029 A 
ATOM     36  N   UNL A   1      39.454  30.563  32.044  1.00  0.00    -0.354 N 
ATOM     37  C   UNL A   1      41.056  27.983  28.911  1.00  0.00     0.074 A 
ATOM     38  C   UNL A   1      40.270  28.098  27.701  1.00  0.00     0.031 C 
ATOM     39  C   UNL A   1      37.982  32.000  32.924  1.00  0.00     0.029 A 
ATOM     40  C   UNL A   1      39.167  31.206  33.221  1.00  0.00     0.049 A 
ATOM     41  H   UNL A   1      40.249  29.994  31.917  1.00  0.00     0.167 HD
ATOM     42  C   UNL A   1      42.159  27.210  29.053  1.00  0.00     0.037 A 
ATOM     43  C   UNL A   1      39.778  31.132  34.418  1.00  0.00     0.037 A 
ATOM     44  C   UNL A   1      42.917  27.109  30.275  1.00  0.00     0.049 A 
ATOM     45  C   UNL A   1      40.978  30.242  34.554  1.00  0.00     0.074 A 
ATOM     46  C   UNL A   1      44.049  26.358  30.534  1.00  0.00     0.029 A 
ATOM     47  N   UNL A   1      42.608  27.784  31.448  1.00  0.00    -0.354 N 
ATOM     48  N   UNL A   1      41.541  29.473  33.651  1.00  0.00    -0.248 NA
ATOM     49  C   UNL A   1      41.628  30.203  35.869  1.00  0.00     0.031 C 
ATOM     50  C   UNL A   1      44.404  26.551  31.874  1.00  0.00     0.029 A 
ATOM     51  C   UNL A   1      43.518  27.456  32.440  1.00  0.00     0.049 A 
ATOM     52  H   UNL A   1      41.852  28.406  31.560  1.00  0.00     0.167 HD
ATOM     53  C   UNL A   1      42.619  28.871  34.280  1.00  0.00     0.074 A 
ATOM     54  C   UNL A   1      42.641  29.379  35.639  1.00  0.00     0.031 C 
ATOM     55  C   UNL A   1      43.509  27.978  33.783  1.00  0.00     0.037 A 
BRANCH  42  56
ATOM     56  C   UNL A   1      42.588  26.393  27.870  1.00  0.00     0.064 A 
ATOM     57  C   UNL A   1      43.556  26.854  26.966  1.00  0.00     0.173 A 
ATOM     58  C   UNL A   1      42.040  25.120  27.649  1.00  0.00     0.173 A 
ATOM     59  F   UNL A   1      44.102  28.069  27.125  1.00  0.00    -0.203 F 
ATOM     60  C   UNL A   1      43.943  26.082  25.873  1.00  0.00     0.198 A 
ATOM     61  C   UNL A   1      42.445  24.341  26.569  1.00  0.00     0.198 A 
ATOM     62  F   UNL A   1      41.112  24.629  28.485  1.00  0.00    -0.203 F 
ATOM     63  F   UNL A   1      44.840  26.561  24.999  1.00  0.00    -0.200 F 
ATOM     64  C   UNL A   1      43.391  24.825  25.678  1.00  0.00     0.200 A 
ATOM     65  F   UNL A   1      41.919  23.122  26.387  1.00  0.00    -0.200 F 
ATOM     66  F   UNL A   1      43.766  24.082  24.627  1.00  0.00    -0.200 F 
ENDBRANCH  42  56
BRANCH  43  67
ATOM     67  C   UNL A   1      39.252  31.918  35.562  1.00  0.00     0.064 A 
ATOM     68  C   UNL A   1      38.369  31.341  36.484  1.00  0.00     0.173 A 
ATOM     69  C   UNL A   1      39.648  33.246  35.778  1.00  0.00     0.173 A 
ATOM     70  F   UNL A   1      37.948  30.081  36.310  1.00  0.00    -0.203 F 
ATOM     71  C   UNL A   1      37.896  32.067  37.576  1.00  0.00     0.198 A 
ATOM     72  C   UNL A   1      39.196  33.961  36.884  1.00  0.00     0.198 A 
ATOM     73  F   UNL A   1      40.497  33.842  34.927  1.00  0.00    -0.203 F 
ATOM     74  F   UNL A   1      37.028  31.502  38.427  1.00  0.00    -0.200 F 
ATOM     75  C   UNL A   1      38.316  33.373  37.780  1.00  0.00     0.200 A 
ATOM     76  F   UNL A   1      39.615  35.218  37.085  1.00  0.00    -0.200 F 
ATOM     77  F   UNL A   1      37.869  34.066  38.837  1.00  0.00    -0.200 F 
ENDBRANCH  43  67
BRANCH  55  78
ATOM     78  C   UNL A   1      44.588  27.517  34.715  1.00  0.00     0.064 A 
ATOM     79  C   UNL A   1      44.425  26.377  35.514  1.00  0.00     0.173 A 
ATOM     80  C   UNL A   1      45.804  28.212  34.790  1.00  0.00     0.173 A 
ATOM     81  F   UNL A   1      43.271  25.694  35.489  1.00  0.00    -0.203 F 
ATOM     82  C   UNL A   1      45.436  25.960  36.374  1.00  0.00     0.198 A 
ATOM     83  C   UNL A   1      46.822  27.776  35.632  1.00  0.00     0.198 A 
ATOM     84  F   UNL A   1      46.005  29.306  34.042  1.00  0.00    -0.203 F 
ATOM     85  F   UNL A   1      45.245  24.893  37.163  1.00  0.00    -0.200 F 
ATOM     86  C   UNL A   1      46.635  26.656  36.429  1.00  0.00     0.200 A 
ATOM     87  F   UNL A   1      47.983  28.445  35.679  1.00  0.00    -0.200 F 
ATOM     88  F   UNL A   1      47.608  26.252  37.256  1.00  0.00    -0.200 F 
ENDBRANCH  55  78
ENDBRANCH  29  30
ENDBRANCH  22  24
ENDBRANCH  21  22
ENDBRANCH  20  21
ENDBRANCH   1  20
TORSDOF 14
ENDMDL
MODEL 2
REMARK VINA RESULT:     -11.4      0.417      1.683
REMARK SMILES CC[C@H](C)[C@H](NC(=O)N1CCCCC1)C(=O)OCCOC(=O)c1ccc(-c2c3nc(c(-c4c(F)c(F)c(F)c(F)c4F)c4ccc([nH]4)c(-c4c(F)c(F)c(F)c(F)c4F)c4nc(c(-c5c(F)c(F)c(F)c(F)c5F)c5ccc2[nH]5)C=C4)C=C3)cc1
REMARK SMILES IDX 18 1 17 2 15 3 16 4 5 5 3 6 4 7 2 8 1 9 6 10 7 11 8 13 9 14
REMARK SMILES IDX 10 15 14 16 11 17 13 18 12 19 19 20 20 21 21 22 22 23 23 24
REMARK SMILES IDX 24 25 85 26 25 27 84 28 26 29 27 30 28 31 78 32 29 33 83 34
REMARK SMILES IDX 77 35 79 36 30 37 82 38 76 39 75 40 31 42 63 43 43 44 62 45
REMARK SMILES IDX 44 46 47 47 61 48 80 49 45 50 46 51 60 53 81 54 48 55 32 56
REMARK SMILES IDX 33 57 41 58 34 59 35 60 39 61 42 62 36 63 37 64 40 65 38 66
REMARK SMILES IDX 64 67 65 68 73 69 66 70 67 71 71 72 74 73 68 74 69 75 72 76
REMARK SMILES IDX 70 77 49 78 50 79 58 80 51 81 52 82 56 83 59 84 53 85 54 86
REMARK SMILES IDX 57 87 55 88
REMARK H PARENT 6 12 79 41 47 52
REMARK Flexibility Score: inf
ROOT
ATOM      1  C   UNL A   1      32.222  28.270  26.299  1.00  0.00     0.274 C 
ENDROOT
BRANCH   1   2
ATOM      2  O   UNL A   1      33.464  28.001  25.619  1.00  0.00    -0.461 OA
BRANCH   2   3
ATOM      3  C   UNL A   1      33.414  27.950  24.257  1.00  0.00     0.329 C 
ATOM      4  O   UNL A   1      33.856  28.834  23.531  1.00  0.00    -0.250 OA
BRANCH   3   5
ATOM      5  C   UNL A   1      32.621  26.728  23.730  1.00  0.00     0.196 C 
BRANCH   5   6
ATOM      6  C   UNL A   1      33.548  25.604  23.156  1.00  0.00     0.019 C 
ATOM      7  C   UNL A   1      34.265  24.790  24.243  1.00  0.00     0.010 C 
BRANCH   6   8
ATOM      8  C   UNL A   1      32.891  24.620  22.156  1.00  0.00     0.002 C 
ATOM      9  C   UNL A   1      33.327  23.165  22.332  1.00  0.00     0.004 C 
ENDBRANCH   6   8
ENDBRANCH   5   6
BRANCH   5  10
ATOM     10  N   UNL A   1      31.572  27.191  22.814  1.00  0.00    -0.324 N 
ATOM     11  C   UNL A   1      30.239  27.091  23.150  1.00  0.00     0.318 C 
ATOM     12  H   UNL A   1      31.825  27.578  21.944  1.00  0.00     0.166 HD
ATOM     13  O   UNL A   1      29.825  26.171  23.849  1.00  0.00    -0.249 OA
ATOM     14  N   UNL A   1      29.447  28.174  22.736  1.00  0.00    -0.325 N 
ATOM     15  C   UNL A   1      28.084  28.198  23.291  1.00  0.00     0.121 C 
ATOM     16  C   UNL A   1      30.072  29.423  22.303  1.00  0.00     0.121 C 
ATOM     17  C   UNL A   1      27.276  29.488  23.129  1.00  0.00     0.022 C 
ATOM     18  C   UNL A   1      29.153  30.590  22.009  1.00  0.00     0.022 C 
ATOM     19  C   UNL A   1      28.140  30.736  23.125  1.00  0.00     0.004 C 
ENDBRANCH   5  10
ENDBRANCH   3   5
ENDBRANCH   2   3
ENDBRANCH   1   2
BRANCH   1  20
ATOM     20  C   UNL A   1      32.034  29.759  26.599  1.00  0.00     0.275 C 
BRANCH  20  21
ATOM     21  O   UNL A   1      33.244  30.490  26.334  1.00  0.00    -0.458 OA
BRANCH  21  22
ATOM     22  C   UNL A   1      33.580  31.394  27.284  1.00  0.00     0.338 C 
ATOM     23  O   UNL A   1      32.935  32.366  27.622  1.00  0.00    -0.246 OA
BRANCH  22  24
ATOM     24  C   UNL A   1      34.886  31.052  27.854  1.00  0.00     0.060 A 
ATOM     25  C   UNL A   1      35.877  32.028  27.990  1.00  0.00     0.016 A 
ATOM     26  C   UNL A   1      35.130  29.730  28.220  1.00  0.00     0.016 A 
ATOM     27  C   UNL A   1      37.100  31.700  28.567  1.00  0.00     0.010 A 
ATOM     28  C   UNL A   1      36.354  29.399  28.797  1.00  0.00     0.010 A 
ATOM     29  C   UNL A   1      37.329  30.389  28.999  1.00  0.00    -0.014 A 
BRANCH  29  30
ATOM     30  C   UNL A   1      38.541  30.064  29.774  1.00  0.00     0.031 A 
ATOM     31  C   UNL A   1      39.551  29.104  29.240  1.00  0.00     0.074 A 
ATOM     32  C   UNL A   1      38.667  30.611  30.996  1.00  0.00     0.049 A 
ATOM     33  N   UNL A   1      40.592  28.586  29.838  1.00  0.00    -0.248 NA
ATOM     34  C   UNL A   1      39.366  28.661  27.851  1.00  0.00     0.031 C 
ATOM     35  C   UNL A   1      37.733  31.573  31.584  1.00  0.00     0.029 A 
ATOM     36  N   UNL A   1      39.610  30.423  31.971  1.00  0.00    -0.354 N 
ATOM     37  C   UNL A   1      41.180  27.743  28.907  1.00  0.00     0.074 A 
ATOM     38  C   UNL A   1      40.374  27.811  27.705  1.00  0.00     0.031 C 
ATOM     39  C   UNL A   1      38.142  31.881  32.823  1.00  0.00     0.029 A 
ATOM     40  C   UNL A   1      39.337  31.105  33.130  1.00  0.00     0.049 A 
ATOM     41  H   UNL A   1      40.407  29.854  31.852  1.00  0.00     0.167 HD
ATOM     42  C   UNL A   1      42.290  26.982  29.058  1.00  0.00     0.037 A 
ATOM     43  C   UNL A   1      39.967  31.077  34.318  1.00  0.00     0.037 A 
ATOM     44  C   UNL A   1      43.068  26.929  30.270  1.00  0.00     0.049 A 
ATOM     45  C   UNL A   1      41.176  30.199  34.466  1.00  0.00     0.074 A 
ATOM     46  C   UNL A   1      44.209  26.195  30.537  1.00  0.00     0.029 A 
ATOM     47  N   UNL A   1      42.772  27.644  31.424  1.00  0.00    -0.354 N 
ATOM     48  N   UNL A   1      41.729  29.403  33.583  1.00  0.00    -0.248 NA
ATOM     49  C   UNL A   1      41.847  30.211  35.772  1.00  0.00     0.031 C 
ATOM     50  C   UNL A   1      44.583  26.437  31.864  1.00  0.00     0.029 A 
ATOM     51  C   UNL A   1      43.700  27.357  32.412  1.00  0.00     0.049 A 
ATOM     52  H   UNL A   1      42.015  28.264  31.526  1.00  0.00     0.167 HD
ATOM     53  C   UNL A   1      42.821  28.830  34.215  1.00  0.00     0.074 A 
ATOM     54  C   UNL A   1      42.861  29.385  35.555  1.00  0.00     0.031 C 
ATOM     55  C   UNL A   1      43.709  27.925  33.736  1.00  0.00     0.037 A 
BRANCH  42  56
ATOM     56  C   UNL A   1      42.706  26.126  27.897  1.00  0.00     0.064 A 
ATOM     57  C   UNL A   1      42.152  24.856  27.682  1.00  0.00     0.173 A 
ATOM     58  C   UNL A   1      43.656  26.592  26.975  1.00  0.00     0.173 A 
ATOM     59  F   UNL A   1      41.249  24.360  28.541  1.00  0.00    -0.203 F 
ATOM     60  C   UNL A   1      42.550  24.074  26.599  1.00  0.00     0.198 A 
ATOM     61  C   UNL A   1      44.034  25.818  25.882  1.00  0.00     0.198 A 
ATOM     62  F   UNL A   1      44.215  27.802  27.133  1.00  0.00    -0.203 F 
ATOM     63  F   UNL A   1      42.036  22.847  26.436  1.00  0.00    -0.200 F 
ATOM     64  C   UNL A   1      43.486  24.558  25.698  1.00  0.00     0.200 A 
ATOM     65  F   UNL A   1      44.932  26.291  25.006  1.00  0.00    -0.200 F 
ATOM     66  F   UNL A   1      43.866  23.806  24.655  1.00  0.00    -0.200 F 
ENDBRANCH  42  56
BRANCH  43  67
ATOM     67  C   UNL A   1      39.454  31.899  35.442  1.00  0.00     0.064 A 
ATOM     68  C   UNL A   1      38.583  31.353  36.394  1.00  0.00     0.173 A 
ATOM     69  C   UNL A   1      39.852  33.234  35.610  1.00  0.00     0.173 A 
ATOM     70  F   UNL A   1      38.161  30.087  36.266  1.00  0.00    -0.203 F 
ATOM     71  C   UNL A   1      38.122  32.114  37.466  1.00  0.00     0.198 A 
ATOM     72  C   UNL A   1      39.412  33.985  36.698  1.00  0.00     0.198 A 
ATOM     73  F   UNL A   1      40.690  33.803  34.730  1.00  0.00    -0.203 F 
ATOM     74  F   UNL A   1      37.265  31.576  38.345  1.00  0.00    -0.200 F 
ATOM     75  C   UNL A   1      38.543  33.426  37.622  1.00  0.00     0.200 A 
ATOM     76  F   UNL A   1      39.833  35.248  36.852  1.00  0.00    -0.200 F 
ATOM     77  F   UNL A   1      38.108  34.153  38.661  1.00  0.00    -0.200 F 
ENDBRANCH  43  67
BRANCH  55  78
ATOM     78  C   UNL A   1      44.805  27.504  34.666  1.00  0.00     0.064 A 
ATOM     79  C   UNL A   1      46.012  28.213  34.742  1.00  0.00     0.173 A 
ATOM     80  C   UNL A   1      44.633  26.395  35.507  1.00  0.00     0.173 A 
ATOM     81  F   UNL A   1      46.227  29.269  33.943  1.00  0.00    -0.203 F 
ATOM     82  C   UNL A   1      47.021  27.811  35.613  1.00  0.00     0.198 A 
ATOM     83  C   UNL A   1      45.633  26.012  36.394  1.00  0.00     0.198 A 
ATOM     84  F   UNL A   1      43.494  25.689  35.470  1.00  0.00    -0.203 F 
ATOM     85  F   UNL A   1      48.185  28.475  35.639  1.00  0.00    -0.200 F 
ATOM     86  C   UNL A   1      46.828  26.714  36.441  1.00  0.00     0.200 A 
ATOM     87  F   UNL A   1      45.446  24.957  37.200  1.00  0.00    -0.200 F 
ATOM     88  F   UNL A   1      47.800  26.330  37.280  1.00  0.00    -0.200 F 
ENDBRANCH  55  78
ENDBRANCH  29  30
ENDBRANCH  22  24
ENDBRANCH  21  22
ENDBRANCH  20  21
ENDBRANCH   1  20
TORSDOF 14
ENDMDL
MODEL 3
REMARK VINA RESULT:     -11.3      0.856      2.688
REMARK SMILES CC[C@H](C)[C@H](NC(=O)N1CCCCC1)C(=O)OCCOC(=O)c1ccc(-c2c3nc(c(-c4c(F)c(F)c(F)c(F)c4F)c4ccc([nH]4)c(-c4c(F)c(F)c(F)c(F)c4F)c4nc(c(-c5c(F)c(F)c(F)c(F)c5F)c5ccc2[nH]5)C=C4)C=C3)cc1
REMARK SMILES IDX 18 1 17 2 15 3 16 4 5 5 3 6 4 7 2 8 1 9 6 10 7 11 8 13 9 14
REMARK SMILES IDX 10 15 14 16 11 17 13 18 12 19 19 20 20 21 21 22 22 23 23 24
REMARK SMILES IDX 24 25 85 26 25 27 84 28 26 29 27 30 28 31 78 32 29 33 83 34
REMARK SMILES IDX 77 35 79 36 30 37 82 38 76 39 75 40 31 42 63 43 43 44 62 45
REMARK SMILES IDX 44 46 47 47 61 48 80 49 45 50 46 51 60 53 81 54 48 55 32 56
REMARK SMILES IDX 33 57 41 58 34 59 35 60 39 61 42 62 36 63 37 64 40 65 38 66
REMARK SMILES IDX 64 67 65 68 73 69 66 70 67 71 71 72 74 73 68 74 69 75 72 76
REMARK SMILES IDX 70 77 49 78 50 79 58 80 51 81 52 82 56 83 59 84 53 85 54 86
REMARK SMILES IDX 57 87 55 88
REMARK H PARENT 6 12 79 41 47 52
REMARK Flexibility Score: inf
ROOT
ATOM      1  C   UNL A   1      33.107  29.433  25.153  1.00  0.00     0.274 C 
ENDROOT
BRANCH   1   2
ATOM      2  O   UNL A   1      32.408  28.397  24.436  1.00  0.00    -0.461 OA
BRANCH   2   3
ATOM      3  C   UNL A   1      32.653  28.312  23.097  1.00  0.00     0.329 C 
ATOM      4  O   UNL A   1      33.515  28.970  22.524  1.00  0.00    -0.250 OA
BRANCH   3   5
ATOM      5  C   UNL A   1      31.638  27.405  22.357  1.00  0.00     0.196 C 
BRANCH   5   6
ATOM      6  C   UNL A   1      30.172  27.950  22.428  1.00  0.00     0.019 C 
ATOM      7  C   UNL A   1      29.316  27.259  23.500  1.00  0.00     0.010 C 
BRANCH   6   8
ATOM      8  C   UNL A   1      30.019  29.483  22.588  1.00  0.00     0.002 C 
ATOM      9  C   UNL A   1      28.858  30.083  21.793  1.00  0.00     0.004 C 
ENDBRANCH   6   8
ENDBRANCH   5   6
BRANCH   5  10
ATOM     10  N   UNL A   1      31.806  26.020  22.812  1.00  0.00    -0.324 N 
ATOM     11  C   UNL A   1      32.976  25.331  22.579  1.00  0.00     0.318 C 
ATOM     12  H   UNL A   1      31.068  25.576  23.291  1.00  0.00     0.166 HD
ATOM     13  O   UNL A   1      33.648  25.537  21.571  1.00  0.00    -0.249 OA
ATOM     14  N   UNL A   1      33.380  24.489  23.627  1.00  0.00    -0.325 N 
ATOM     15  C   UNL A   1      34.738  23.936  23.495  1.00  0.00     0.121 C 
ATOM     16  C   UNL A   1      32.781  24.623  24.954  1.00  0.00     0.121 C 
ATOM     17  C   UNL A   1      35.351  23.265  24.726  1.00  0.00     0.022 C 
ATOM     18  C   UNL A   1      33.368  23.778  26.065  1.00  0.00     0.022 C 
ATOM     19  C   UNL A   1      34.879  23.873  26.034  1.00  0.00     0.004 C 
ENDBRANCH   5  10
ENDBRANCH   3   5
ENDBRANCH   2   3
ENDBRANCH   1   2
BRANCH   1  20
ATOM     20  C   UNL A   1      32.152  30.374  25.892  1.00  0.00     0.275 C 
BRANCH  20  21
ATOM     21  O   UNL A   1      32.577  30.568  27.252  1.00  0.00    -0.458 OA
BRANCH  21  22
ATOM     22  C   UNL A   1      33.306  31.689  27.464  1.00  0.00     0.338 C 
ATOM     23  O   UNL A   1      32.967  32.832  27.232  1.00  0.00    -0.246 OA
BRANCH  22  24
ATOM     24  C   UNL A   1      34.621  31.330  28.005  1.00  0.00     0.060 A 
ATOM     25  C   UNL A   1      35.615  32.300  28.152  1.00  0.00     0.016 A 
ATOM     26  C   UNL A   1      34.868  29.998  28.330  1.00  0.00     0.016 A 
ATOM     27  C   UNL A   1      36.846  31.955  28.701  1.00  0.00     0.010 A 
ATOM     28  C   UNL A   1      36.100  29.649  28.878  1.00  0.00     0.010 A 
ATOM     29  C   UNL A   1      37.080  30.633  29.092  1.00  0.00    -0.014 A 
BRANCH  29  30
ATOM     30  C   UNL A   1      38.303  30.285  29.840  1.00  0.00     0.031 A 
ATOM     31  C   UNL A   1      39.287  29.313  29.279  1.00  0.00     0.074 A 
ATOM     32  C   UNL A   1      38.464  30.823  31.062  1.00  0.00     0.049 A 
ATOM     33  N   UNL A   1      40.333  28.776  29.852  1.00  0.00    -0.248 NA
ATOM     34  C   UNL A   1      39.065  28.880  27.891  1.00  0.00     0.031 C 
ATOM     35  C   UNL A   1      37.557  31.796  31.674  1.00  0.00     0.029 A 
ATOM     36  N   UNL A   1      39.425  30.615  32.015  1.00  0.00    -0.354 N 
ATOM     37  C   UNL A   1      40.887  27.929  28.903  1.00  0.00     0.074 A 
ATOM     38  C   UNL A   1      40.057  28.016  27.719  1.00  0.00     0.031 C 
ATOM     39  C   UNL A   1      37.998  32.091  32.906  1.00  0.00     0.029 A 
ATOM     40  C   UNL A   1      39.188  31.295  33.183  1.00  0.00     0.049 A 
ATOM     41  H   UNL A   1      40.210  30.035  31.875  1.00  0.00     0.167 HD
ATOM     42  C   UNL A   1      41.988  27.151  29.025  1.00  0.00     0.037 A 
ATOM     43  C   UNL A   1      39.843  31.251  34.357  1.00  0.00     0.037 A 
ATOM     44  C   UNL A   1      42.791  27.079  30.221  1.00  0.00     0.049 A 
ATOM     45  C   UNL A   1      41.040  30.354  34.474  1.00  0.00     0.074 A 
ATOM     46  C   UNL A   1      43.926  26.326  30.459  1.00  0.00     0.029 A 
ATOM     47  N   UNL A   1      42.532  27.792  31.384  1.00  0.00    -0.354 N 
ATOM     48  N   UNL A   1      41.562  29.554  33.574  1.00  0.00    -0.248 NA
ATOM     49  C   UNL A   1      41.740  30.349  35.764  1.00  0.00     0.031 C 
ATOM     50  C   UNL A   1      44.333  26.555  31.779  1.00  0.00     0.029 A 
ATOM     51  C   UNL A   1      43.476  27.485  32.350  1.00  0.00     0.049 A 
ATOM     52  H   UNL A   1      41.786  28.423  31.506  1.00  0.00     0.167 HD
ATOM     53  C   UNL A   1      42.659  28.962  34.180  1.00  0.00     0.074 A 
ATOM     54  C   UNL A   1      42.736  29.508  35.522  1.00  0.00     0.031 C 
ATOM     55  C   UNL A   1      43.523  28.046  33.677  1.00  0.00     0.037 A 
BRANCH  42  56
ATOM     56  C   UNL A   1      42.366  26.295  27.852  1.00  0.00     0.064 A 
ATOM     57  C   UNL A   1      43.348  26.694  26.934  1.00  0.00     0.173 A 
ATOM     58  C   UNL A   1      41.753  25.048  27.656  1.00  0.00     0.173 A 
ATOM     59  F   UNL A   1      43.955  27.882  27.070  1.00  0.00    -0.203 F 
ATOM     60  C   UNL A   1      43.686  25.887  25.850  1.00  0.00     0.198 A 
ATOM     61  C   UNL A   1      42.110  24.234  26.584  1.00  0.00     0.198 A 
ATOM     62  F   UNL A   1      40.809  24.617  28.507  1.00  0.00    -0.203 F 
ATOM     63  F   UNL A   1      44.599  26.307  24.962  1.00  0.00    -0.200 F 
ATOM     64  C   UNL A   1      43.071  24.656  25.679  1.00  0.00     0.200 A 
ATOM     65  F   UNL A   1      41.521  23.040  26.426  1.00  0.00    -0.200 F 
ATOM     66  F   UNL A   1      43.399  23.879  24.637  1.00  0.00    -0.200 F 
ENDBRANCH  42  56
BRANCH  43  67
ATOM     67  C   UNL A   1      39.367  32.074  35.496  1.00  0.00     0.064 A 
ATOM     68  C   UNL A   1      38.480  31.547  36.443  1.00  0.00     0.173 A 
ATOM     69  C   UNL A   1      39.816  33.390  35.683  1.00  0.00     0.173 A 
ATOM     70  F   UNL A   1      38.008  30.300  36.298  1.00  0.00    -0.203 F 
ATOM     71  C   UNL A   1      38.053  32.308  37.530  1.00  0.00     0.198 A 
ATOM     72  C   UNL A   1      39.410  34.141  36.784  1.00  0.00     0.198 A 
ATOM     73  F   UNL A   1      40.671  33.940  34.807  1.00  0.00    -0.203 F 
ATOM     74  F   UNL A   1      37.180  31.790  38.405  1.00  0.00    -0.200 F 
ATOM     75  C   UNL A   1      38.525  33.601  37.704  1.00  0.00     0.200 A 
ATOM     76  F   UNL A   1      39.880  35.384  36.955  1.00  0.00    -0.200 F 
ATOM     77  F   UNL A   1      38.123  34.327  38.756  1.00  0.00    -0.200 F 
ENDBRANCH  43  67
BRANCH  55  78
ATOM     78  C   UNL A   1      44.632  27.603  34.581  1.00  0.00     0.064 A 
ATOM     79  C   UNL A   1      44.491  26.487  35.417  1.00  0.00     0.173 A 
ATOM     80  C   UNL A   1      45.855  28.290  34.591  1.00  0.00     0.173 A 
ATOM     81  F   UNL A   1      43.332  25.813  35.455  1.00  0.00    -0.203 F 
ATOM     82  C   UNL A   1      45.531  26.087  36.251  1.00  0.00     0.198 A 
ATOM     83  C   UNL A   1      46.900  27.871  35.406  1.00  0.00     0.198 A 
ATOM     84  F   UNL A   1      46.035  29.361  33.805  1.00  0.00    -0.203 F 
ATOM     85  F   UNL A   1      45.362  25.044  37.076  1.00  0.00    -0.200 F 
ATOM     86  C   UNL A   1      46.736  26.775  36.241  1.00  0.00     0.200 A 
ATOM     87  F   UNL A   1      48.067  28.531  35.392  1.00  0.00    -0.200 F 
ATOM     88  F   UNL A   1      47.736  26.386  37.043  1.00  0.00    -0.200 F 
ENDBRANCH  55  78
ENDBRANCH  29  30
ENDBRANCH  22  24
ENDBRANCH  21  22
ENDBRANCH  20  21
ENDBRANCH   1  20
TORSDOF 14
ENDMDL
