MODEL 1
REMARK VINA RESULT:     -12.0      0.000      0.000
REMARK SMILES CC(=O)N[C@@H](Cc1c(OCC(C)C)ccc2ccccc12)C(=O)OCCOC(=O)c1ccc(-c2c3nc(c(-c4c(F)c(F)c(F)c(F)c4F)c4ccc([nH]4)c(-c4c(F)c(F)c(F)c(F)c4F)c4nc(c(-c5c(F)c(F)c(F)c(F)c5F)c5ccc2[nH]5)C=C4)C=C3)cc1
REMARK SMILES IDX 24 1 22 2 23 3 5 4 4 5 1 6 2 7 3 8 6 10 7 11 8 12 21 13
REMARK SMILES IDX 14 14 16 15 20 16 15 17 17 18 19 19 18 20 9 21 10 22 11 23
REMARK SMILES IDX 12 24 13 25 25 26 26 27 27 28 28 29 29 30 30 31 31 32 92 33
REMARK SMILES IDX 32 34 91 35 33 36 34 37 35 38 85 39 36 40 90 41 84 42 86 43
REMARK SMILES IDX 37 44 89 45 83 46 82 47 38 49 70 50 50 51 69 52 51 53 54 54
REMARK SMILES IDX 68 55 87 56 52 57 53 58 67 60 88 61 55 62 39 63 40 64 48 65
REMARK SMILES IDX 41 66 42 67 46 68 49 69 43 70 44 71 47 72 45 73 71 74 72 75
REMARK SMILES IDX 80 76 73 77 74 78 78 79 81 80 75 81 76 82 79 83 77 84 56 85
REMARK SMILES IDX 57 86 65 87 58 88 59 89 63 90 66 91 60 92 61 93 64 94 62 95
REMARK H PARENT 4 9 86 48 54 59
REMARK Flexibility Score: inf
ROOT
ATOM      1  O   UNL A   1      33.307  28.946  24.778  1.00  0.00    -0.461 OA
ENDROOT
BRANCH   1   2
ATOM      2  C   UNL A   1      33.725  28.193  23.722  1.00  0.00     0.329 C 
ATOM      3  O   UNL A   1      34.256  28.639  22.710  1.00  0.00    -0.250 OA
BRANCH   2   4
ATOM      4  C   UNL A   1      33.390  26.701  23.897  1.00  0.00     0.196 C 
BRANCH   4   5
ATOM      5  N   UNL A   1      33.616  25.918  22.674  1.00  0.00    -0.343 N 
ATOM      6  C   UNL A   1      31.568  26.539  21.437  1.00  0.00     0.114 C 
ATOM      7  C   UNL A   1      32.872  25.802  21.542  1.00  0.00     0.217 C 
ATOM      8  O   UNL A   1      33.278  25.095  20.620  1.00  0.00    -0.275 OA
ATOM      9  H   UNL A   1      34.446  25.388  22.675  1.00  0.00     0.164 HD
ENDBRANCH   4   5
BRANCH   4  10
ATOM     10  C   UNL A   1      34.164  26.130  25.110  1.00  0.00     0.077 C 
BRANCH  10  11
ATOM     11  C   UNL A   1      33.712  24.719  25.485  1.00  0.00     0.005 A 
ATOM     12  C   UNL A   1      32.541  24.569  26.266  1.00  0.00     0.123 A 
ATOM     13  C   UNL A   1      34.521  23.580  25.178  1.00  0.00    -0.011 A 
ATOM     14  C   UNL A   1      32.254  23.338  26.842  1.00  0.00     0.047 A 
ATOM     15  C   UNL A   1      34.178  22.332  25.751  1.00  0.00    -0.018 A 
ATOM     16  C   UNL A   1      35.668  23.609  24.345  1.00  0.00     0.009 A 
ATOM     17  C   UNL A   1      33.068  22.235  26.594  1.00  0.00     0.012 A 
ATOM     18  C   UNL A   1      34.955  21.192  25.491  1.00  0.00     0.009 A 
ATOM     19  C   UNL A   1      36.429  22.465  24.089  1.00  0.00     0.001 A 
ATOM     20  C   UNL A   1      36.071  21.256  24.663  1.00  0.00     0.001 A 
BRANCH  12  21
ATOM     21  O   UNL A   1      31.751  25.681  26.375  1.00  0.00    -0.493 OA
BRANCH  21  22
ATOM     22  C   UNL A   1      30.375  25.651  26.005  1.00  0.00     0.232 C 
BRANCH  22  23
ATOM     23  C   UNL A   1      30.172  25.706  24.480  1.00  0.00     0.020 C 
ATOM     24  C   UNL A   1      30.281  24.341  23.801  1.00  0.00     0.011 C 
ATOM     25  C   UNL A   1      28.811  26.327  24.160  1.00  0.00     0.011 C 
ENDBRANCH  22  23
ENDBRANCH  21  22
ENDBRANCH  12  21
ENDBRANCH  10  11
ENDBRANCH   4  10
ENDBRANCH   2   4
ENDBRANCH   1   2
BRANCH   1  26
ATOM     26  C   UNL A   1      31.930  29.368  24.767  1.00  0.00     0.274 C 
BRANCH  26  27
ATOM     27  C   UNL A   1      31.671  30.454  25.809  1.00  0.00     0.275 C 
BRANCH  27  28
ATOM     28  O   UNL A   1      32.581  30.329  26.916  1.00  0.00    -0.458 OA
BRANCH  28  29
ATOM     29  C   UNL A   1      33.217  31.476  27.244  1.00  0.00     0.338 C 
ATOM     30  O   UNL A   1      32.768  32.607  27.250  1.00  0.00    -0.246 OA
BRANCH  29  31
ATOM     31  C   UNL A   1      34.548  31.162  27.772  1.00  0.00     0.060 A 
ATOM     32  C   UNL A   1      34.796  29.839  28.140  1.00  0.00     0.016 A 
ATOM     33  C   UNL A   1      35.485  32.160  28.027  1.00  0.00     0.016 A 
ATOM     34  C   UNL A   1      35.959  29.506  28.817  1.00  0.00     0.010 A 
ATOM     35  C   UNL A   1      36.671  31.822  28.684  1.00  0.00     0.010 A 
ATOM     36  C   UNL A   1      36.899  30.500  29.106  1.00  0.00    -0.014 A 
BRANCH  36  37
ATOM     37  C   UNL A   1      38.086  30.155  29.920  1.00  0.00     0.031 A 
ATOM     38  C   UNL A   1      39.146  29.269  29.340  1.00  0.00     0.074 A 
ATOM     39  C   UNL A   1      38.225  30.674  31.153  1.00  0.00     0.049 A 
ATOM     40  N   UNL A   1      40.195  28.744  29.920  1.00  0.00    -0.248 NA
ATOM     41  C   UNL A   1      39.010  28.926  27.915  1.00  0.00     0.031 C 
ATOM     42  C   UNL A   1      37.292  31.607  31.785  1.00  0.00     0.029 A 
ATOM     43  N   UNL A   1      39.207  30.490  32.091  1.00  0.00    -0.354 N 
ATOM     44  C   UNL A   1      40.819  27.978  28.945  1.00  0.00     0.074 A 
ATOM     45  C   UNL A   1      40.037  28.109  27.735  1.00  0.00     0.031 C 
ATOM     46  C   UNL A   1      37.749  31.917  33.009  1.00  0.00     0.029 A 
ATOM     47  C   UNL A   1      38.971  31.160  33.265  1.00  0.00     0.049 A 
ATOM     48  H   UNL A   1      40.004  29.933  31.937  1.00  0.00     0.167 HD
ATOM     49  C   UNL A   1      41.942  27.230  29.060  1.00  0.00     0.037 A 
ATOM     50  C   UNL A   1      39.646  31.132  34.429  1.00  0.00     0.037 A 
ATOM     51  C   UNL A   1      42.728  27.134  30.261  1.00  0.00     0.049 A 
ATOM     52  C   UNL A   1      40.865  30.261  34.543  1.00  0.00     0.074 A 
ATOM     53  C   UNL A   1      43.881  26.403  30.486  1.00  0.00     0.029 A 
ATOM     54  N   UNL A   1      42.442  27.804  31.443  1.00  0.00    -0.354 N 
ATOM     55  N   UNL A   1      41.422  29.497  33.635  1.00  0.00    -0.248 NA
ATOM     56  C   UNL A   1      41.541  30.238  35.848  1.00  0.00     0.031 C 
ATOM     57  C   UNL A   1      44.276  26.609  31.813  1.00  0.00     0.029 A 
ATOM     58  C   UNL A   1      43.389  27.495  32.404  1.00  0.00     0.049 A 
ATOM     59  H   UNL A   1      41.677  28.410  31.578  1.00  0.00     0.167 HD
ATOM     60  C   UNL A   1      42.516  28.907  34.252  1.00  0.00     0.074 A 
ATOM     61  C   UNL A   1      42.556  29.418  35.607  1.00  0.00     0.031 C 
ATOM     62  C   UNL A   1      43.405  28.018  33.745  1.00  0.00     0.037 A 
BRANCH  49  63
ATOM     63  C   UNL A   1      42.359  26.424  27.868  1.00  0.00     0.064 A 
ATOM     64  C   UNL A   1      41.812  25.162  27.598  1.00  0.00     0.173 A 
ATOM     65  C   UNL A   1      43.307  26.937  26.969  1.00  0.00     0.173 A 
ATOM     66  F   UNL A   1      40.914  24.623  28.438  1.00  0.00    -0.203 F 
ATOM     67  C   UNL A   1      42.213  24.433  26.481  1.00  0.00     0.198 A 
ATOM     68  C   UNL A   1      43.690  26.214  25.843  1.00  0.00     0.198 A 
ATOM     69  F   UNL A   1      43.860  28.140  27.184  1.00  0.00    -0.203 F 
ATOM     70  F   UNL A   1      41.706  23.211  26.263  1.00  0.00    -0.200 F 
ATOM     71  C   UNL A   1      43.147  24.961  25.603  1.00  0.00     0.200 A 
ATOM     72  F   UNL A   1      44.588  26.730  24.992  1.00  0.00    -0.200 F 
ATOM     73  F   UNL A   1      43.530  24.260  24.527  1.00  0.00    -0.200 F 
ENDBRANCH  49  63
BRANCH  50  74
ATOM     74  C   UNL A   1      39.154  31.925  35.583  1.00  0.00     0.064 A 
ATOM     75  C   UNL A   1      38.312  31.354  36.546  1.00  0.00     0.173 A 
ATOM     76  C   UNL A   1      39.530  33.266  35.754  1.00  0.00     0.173 A 
ATOM     77  F   UNL A   1      37.908  30.083  36.411  1.00  0.00    -0.203 F 
ATOM     78  C   UNL A   1      37.860  32.096  37.635  1.00  0.00     0.198 A 
ATOM     79  C   UNL A   1      39.097  33.999  36.855  1.00  0.00     0.198 A 
ATOM     80  F   UNL A   1      40.333  33.858  34.858  1.00  0.00    -0.203 F 
ATOM     81  F   UNL A   1      37.030  31.538  38.525  1.00  0.00    -0.200 F 
ATOM     82  C   UNL A   1      38.259  33.416  37.792  1.00  0.00     0.200 A 
ATOM     83  F   UNL A   1      39.495  35.270  37.010  1.00  0.00    -0.200 F 
ATOM     84  F   UNL A   1      37.831  34.126  38.845  1.00  0.00    -0.200 F 
ENDBRANCH  50  74
BRANCH  62  85
ATOM     85  C   UNL A   1      44.500  27.559  34.658  1.00  0.00     0.064 A 
ATOM     86  C   UNL A   1      44.358  26.409  35.446  1.00  0.00     0.173 A 
ATOM     87  C   UNL A   1      45.715  28.257  34.715  1.00  0.00     0.173 A 
ATOM     88  F   UNL A   1      43.207  25.721  35.434  1.00  0.00    -0.203 F 
ATOM     89  C   UNL A   1      45.390  25.982  36.277  1.00  0.00     0.198 A 
ATOM     90  C   UNL A   1      46.753  27.815  35.531  1.00  0.00     0.198 A 
ATOM     91  F   UNL A   1      45.898  29.361  33.976  1.00  0.00    -0.203 F 
ATOM     92  F   UNL A   1      45.222  24.902  37.051  1.00  0.00    -0.200 F 
ATOM     93  C   UNL A   1      46.588  26.682  36.314  1.00  0.00     0.200 A 
ATOM     94  F   UNL A   1      47.912  28.487  35.562  1.00  0.00    -0.200 F 
ATOM     95  F   UNL A   1      47.581  26.268  37.112  1.00  0.00    -0.200 F 
ENDBRANCH  62  85
ENDBRANCH  36  37
ENDBRANCH  29  31
ENDBRANCH  28  29
ENDBRANCH  27  28
ENDBRANCH  26  27
ENDBRANCH   1  26
TORSDOF 17
ENDMDL
MODEL 2
REMARK VINA RESULT:     -12.0      0.884      2.802
REMARK SMILES CC(=O)N[C@@H](Cc1c(OCC(C)C)ccc2ccccc12)C(=O)OCCOC(=O)c1ccc(-c2c3nc(c(-c4c(F)c(F)c(F)c(F)c4F)c4ccc([nH]4)c(-c4c(F)c(F)c(F)c(F)c4F)c4nc(c(-c5c(F)c(F)c(F)c(F)c5F)c5ccc2[nH]5)C=C4)C=C3)cc1
REMARK SMILES IDX 24 1 22 2 23 3 5 4 4 5 1 6 2 7 3 8 6 10 7 11 8 12 21 13
REMARK SMILES IDX 14 14 16 15 20 16 15 17 17 18 19 19 18 20 9 21 10 22 11 23
REMARK SMILES IDX 12 24 13 25 25 26 26 27 27 28 28 29 29 30 30 31 31 32 92 33
REMARK SMILES IDX 32 34 91 35 33 36 34 37 35 38 85 39 36 40 90 41 84 42 86 43
REMARK SMILES IDX 37 44 89 45 83 46 82 47 38 49 70 50 50 51 69 52 51 53 54 54
REMARK SMILES IDX 68 55 87 56 52 57 53 58 67 60 88 61 55 62 39 63 40 64 48 65
REMARK SMILES IDX 41 66 42 67 46 68 49 69 43 70 44 71 47 72 45 73 71 74 72 75
REMARK SMILES IDX 80 76 73 77 74 78 78 79 81 80 75 81 76 82 79 83 77 84 56 85
REMARK SMILES IDX 57 86 65 87 58 88 59 89 63 90 66 91 60 92 61 93 64 94 62 95
REMARK H PARENT 4 9 86 48 54 59
REMARK Flexibility Score: inf
ROOT
ATOM      1  O   UNL A   1      32.765  28.300  25.291  1.00  0.00    -0.461 OA
ENDROOT
BRANCH   1   2
ATOM      2  C   UNL A   1      33.623  27.926  24.300  1.00  0.00     0.329 C 
ATOM      3  O   UNL A   1      34.403  28.680  23.728  1.00  0.00    -0.250 OA
BRANCH   2   4
ATOM      4  C   UNL A   1      33.458  26.447  23.910  1.00  0.00     0.196 C 
BRANCH   4   5
ATOM      5  N   UNL A   1      33.651  26.210  22.472  1.00  0.00    -0.343 N 
ATOM      6  C   UNL A   1      31.646  24.830  22.038  1.00  0.00     0.114 C 
ATOM      7  C   UNL A   1      32.895  25.524  21.574  1.00  0.00     0.217 C 
ATOM      8  O   UNL A   1      33.245  25.480  20.396  1.00  0.00    -0.275 OA
ATOM      9  H   UNL A   1      34.464  26.619  22.095  1.00  0.00     0.164 HD
ENDBRANCH   4   5
BRANCH   4  10
ATOM     10  C   UNL A   1      34.393  25.571  24.778  1.00  0.00     0.077 C 
BRANCH  10  11
ATOM     11  C   UNL A   1      33.895  24.132  24.910  1.00  0.00     0.005 A 
ATOM     12  C   UNL A   1      34.672  23.092  24.344  1.00  0.00     0.123 A 
ATOM     13  C   UNL A   1      32.609  23.846  25.467  1.00  0.00    -0.011 A 
ATOM     14  C   UNL A   1      34.124  21.821  24.212  1.00  0.00     0.047 A 
ATOM     15  C   UNL A   1      32.097  22.531  25.350  1.00  0.00    -0.018 A 
ATOM     16  C   UNL A   1      31.786  24.796  26.122  1.00  0.00     0.009 A 
ATOM     17  C   UNL A   1      32.850  21.547  24.702  1.00  0.00     0.012 A 
ATOM     18  C   UNL A   1      30.832  22.210  25.866  1.00  0.00     0.009 A 
ATOM     19  C   UNL A   1      30.531  24.463  26.638  1.00  0.00     0.001 A 
ATOM     20  C   UNL A   1      30.054  23.168  26.509  1.00  0.00     0.001 A 
BRANCH  12  21
ATOM     21  O   UNL A   1      35.946  23.431  23.980  1.00  0.00    -0.493 OA
BRANCH  21  22
ATOM     22  C   UNL A   1      37.033  22.525  24.160  1.00  0.00     0.232 C 
BRANCH  22  23
ATOM     23  C   UNL A   1      37.557  22.510  25.607  1.00  0.00     0.020 C 
ATOM     24  C   UNL A   1      38.804  21.647  25.795  1.00  0.00     0.011 C 
ATOM     25  C   UNL A   1      37.851  23.939  26.066  1.00  0.00     0.011 C 
ENDBRANCH  22  23
ENDBRANCH  21  22
ENDBRANCH  12  21
ENDBRANCH  10  11
ENDBRANCH   4  10
ENDBRANCH   2   4
ENDBRANCH   1   2
BRANCH   1  26
ATOM     26  C   UNL A   1      31.692  29.186  24.917  1.00  0.00     0.274 C 
BRANCH  26  27
ATOM     27  C   UNL A   1      31.678  30.442  25.787  1.00  0.00     0.275 C 
BRANCH  27  28
ATOM     28  O   UNL A   1      32.591  30.311  26.891  1.00  0.00    -0.458 OA
BRANCH  28  29
ATOM     29  C   UNL A   1      33.220  31.458  27.230  1.00  0.00     0.338 C 
ATOM     30  O   UNL A   1      32.764  32.586  27.246  1.00  0.00    -0.246 OA
BRANCH  29  31
ATOM     31  C   UNL A   1      34.553  31.147  27.755  1.00  0.00     0.060 A 
ATOM     32  C   UNL A   1      34.806  29.823  28.117  1.00  0.00     0.016 A 
ATOM     33  C   UNL A   1      35.485  32.148  28.016  1.00  0.00     0.016 A 
ATOM     34  C   UNL A   1      35.970  29.491  28.792  1.00  0.00     0.010 A 
ATOM     35  C   UNL A   1      36.673  31.811  28.671  1.00  0.00     0.010 A 
ATOM     36  C   UNL A   1      36.907  30.488  29.086  1.00  0.00    -0.014 A 
BRANCH  36  37
ATOM     37  C   UNL A   1      38.095  30.144  29.897  1.00  0.00     0.031 A 
ATOM     38  C   UNL A   1      39.148  29.247  29.321  1.00  0.00     0.074 A 
ATOM     39  C   UNL A   1      38.242  30.672  31.125  1.00  0.00     0.049 A 
ATOM     40  N   UNL A   1      40.197  28.721  29.901  1.00  0.00    -0.248 NA
ATOM     41  C   UNL A   1      39.004  28.892  27.899  1.00  0.00     0.031 C 
ATOM     42  C   UNL A   1      37.318  31.616  31.753  1.00  0.00     0.029 A 
ATOM     43  N   UNL A   1      39.228  30.492  32.060  1.00  0.00    -0.354 N 
ATOM     44  C   UNL A   1      40.812  27.944  28.930  1.00  0.00     0.074 A 
ATOM     45  C   UNL A   1      40.026  28.068  27.722  1.00  0.00     0.031 C 
ATOM     46  C   UNL A   1      37.781  31.934  32.972  1.00  0.00     0.029 A 
ATOM     47  C   UNL A   1      39.000  31.174  33.230  1.00  0.00     0.049 A 
ATOM     48  H   UNL A   1      40.021  29.930  31.908  1.00  0.00     0.167 HD
ATOM     49  C   UNL A   1      41.931  27.191  29.046  1.00  0.00     0.037 A 
ATOM     50  C   UNL A   1      39.680  31.152  34.390  1.00  0.00     0.037 A 
ATOM     51  C   UNL A   1      42.722  27.101  30.245  1.00  0.00     0.049 A 
ATOM     52  C   UNL A   1      40.895  30.276  34.507  1.00  0.00     0.074 A 
ATOM     53  C   UNL A   1      43.873  26.366  30.471  1.00  0.00     0.029 A 
ATOM     54  N   UNL A   1      42.446  27.783  31.422  1.00  0.00    -0.354 N 
ATOM     55  N   UNL A   1      41.444  29.501  33.604  1.00  0.00    -0.248 NA
ATOM     56  C   UNL A   1      41.577  30.260  35.809  1.00  0.00     0.031 C 
ATOM     57  C   UNL A   1      44.274  26.581  31.794  1.00  0.00     0.029 A 
ATOM     58  C   UNL A   1      43.395  27.477  32.381  1.00  0.00     0.049 A 
ATOM     59  H   UNL A   1      41.685  28.394  31.555  1.00  0.00     0.167 HD
ATOM     60  C   UNL A   1      42.538  28.910  34.221  1.00  0.00     0.074 A 
ATOM     61  C   UNL A   1      42.587  29.432  35.571  1.00  0.00     0.031 C 
ATOM     62  C   UNL A   1      43.419  28.012  33.718  1.00  0.00     0.037 A 
BRANCH  49  63
ATOM     63  C   UNL A   1      42.339  26.372  27.859  1.00  0.00     0.064 A 
ATOM     64  C   UNL A   1      43.321  26.808  26.960  1.00  0.00     0.173 A 
ATOM     65  C   UNL A   1      41.748  25.120  27.632  1.00  0.00     0.173 A 
ATOM     66  F   UNL A   1      43.902  28.007  27.126  1.00  0.00    -0.203 F 
ATOM     67  C   UNL A   1      43.686  26.028  25.865  1.00  0.00     0.198 A 
ATOM     68  C   UNL A   1      42.129  24.333  26.549  1.00  0.00     0.198 A 
ATOM     69  F   UNL A   1      40.802  24.658  28.464  1.00  0.00    -0.203 F 
ATOM     70  F   UNL A   1      44.600  26.481  24.996  1.00  0.00    -0.200 F 
ATOM     71  C   UNL A   1      43.094  24.791  25.664  1.00  0.00     0.200 A 
ATOM     72  F   UNL A   1      41.561  23.134  26.360  1.00  0.00    -0.200 F 
ATOM     73  F   UNL A   1      43.447  24.039  24.611  1.00  0.00    -0.200 F 
ENDBRANCH  49  63
BRANCH  50  74
ATOM     74  C   UNL A   1      39.198  31.957  35.539  1.00  0.00     0.064 A 
ATOM     75  C   UNL A   1      38.322  31.413  36.487  1.00  0.00     0.173 A 
ATOM     76  C   UNL A   1      39.617  33.285  35.722  1.00  0.00     0.173 A 
ATOM     77  F   UNL A   1      37.876  30.157  36.341  1.00  0.00    -0.203 F 
ATOM     78  C   UNL A   1      37.878  32.167  37.572  1.00  0.00     0.198 A 
ATOM     79  C   UNL A   1      39.192  34.029  36.819  1.00  0.00     0.198 A 
ATOM     80  F   UNL A   1      40.454  33.851  34.840  1.00  0.00    -0.203 F 
ATOM     81  F   UNL A   1      37.016  31.634  38.447  1.00  0.00    -0.200 F 
ATOM     82  C   UNL A   1      38.320  33.472  37.740  1.00  0.00     0.200 A 
ATOM     83  F   UNL A   1      39.631  35.284  36.985  1.00  0.00    -0.200 F 
ATOM     84  F   UNL A   1      37.899  34.192  38.789  1.00  0.00    -0.200 F 
ENDBRANCH  50  74
BRANCH  62  85
ATOM     85  C   UNL A   1      44.516  27.555  34.629  1.00  0.00     0.064 A 
ATOM     86  C   UNL A   1      45.731  28.250  34.714  1.00  0.00     0.173 A 
ATOM     87  C   UNL A   1      44.335  26.433  35.451  1.00  0.00     0.173 A 
ATOM     88  F   UNL A   1      45.952  29.319  33.935  1.00  0.00    -0.203 F 
ATOM     89  C   UNL A   1      46.736  27.825  35.578  1.00  0.00     0.198 A 
ATOM     90  C   UNL A   1      45.334  26.024  36.330  1.00  0.00     0.198 A 
ATOM     91  F   UNL A   1      43.188  25.740  35.407  1.00  0.00    -0.203 F 
ATOM     92  F   UNL A   1      47.904  28.480  35.619  1.00  0.00    -0.200 F 
ATOM     93  C   UNL A   1      46.534  26.717  36.390  1.00  0.00     0.200 A 
ATOM     94  F   UNL A   1      45.136  24.958  37.117  1.00  0.00    -0.200 F 
ATOM     95  F   UNL A   1      47.501  26.311  37.223  1.00  0.00    -0.200 F 
ENDBRANCH  62  85
ENDBRANCH  36  37
ENDBRANCH  29  31
ENDBRANCH  28  29
ENDBRANCH  27  28
ENDBRANCH  26  27
ENDBRANCH   1  26
TORSDOF 17
ENDMDL
MODEL 3
REMARK VINA RESULT:     -11.9      4.219      9.553
REMARK SMILES CC(=O)N[C@@H](Cc1c(OCC(C)C)ccc2ccccc12)C(=O)OCCOC(=O)c1ccc(-c2c3nc(c(-c4c(F)c(F)c(F)c(F)c4F)c4ccc([nH]4)c(-c4c(F)c(F)c(F)c(F)c4F)c4nc(c(-c5c(F)c(F)c(F)c(F)c5F)c5ccc2[nH]5)C=C4)C=C3)cc1
REMARK SMILES IDX 24 1 22 2 23 3 5 4 4 5 1 6 2 7 3 8 6 10 7 11 8 12 21 13
REMARK SMILES IDX 14 14 16 15 20 16 15 17 17 18 19 19 18 20 9 21 10 22 11 23
REMARK SMILES IDX 12 24 13 25 25 26 26 27 27 28 28 29 29 30 30 31 31 32 92 33
REMARK SMILES IDX 32 34 91 35 33 36 34 37 35 38 85 39 36 40 90 41 84 42 86 43
REMARK SMILES IDX 37 44 89 45 83 46 82 47 38 49 70 50 50 51 69 52 51 53 54 54
REMARK SMILES IDX 68 55 87 56 52 57 53 58 67 60 88 61 55 62 39 63 40 64 48 65
REMARK SMILES IDX 41 66 42 67 46 68 49 69 43 70 44 71 47 72 45 73 71 74 72 75
REMARK SMILES IDX 80 76 73 77 74 78 78 79 81 80 75 81 76 82 79 83 77 84 56 85
REMARK SMILES IDX 57 86 65 87 58 88 59 89 63 90 66 91 60 92 61 93 64 94 62 95
REMARK H PARENT 4 9 86 48 54 59
REMARK Flexibility Score: inf
ROOT
ATOM      1  O   UNL A   1      35.489  22.671  25.981  1.00  0.00    -0.461 OA
ENDROOT
BRANCH   1   2
ATOM      2  C   UNL A   1      34.449  23.034  26.783  1.00  0.00     0.329 C 
ATOM      3  O   UNL A   1      34.274  22.631  27.929  1.00  0.00    -0.250 OA
BRANCH   2   4
ATOM      4  C   UNL A   1      33.452  23.963  26.068  1.00  0.00     0.196 C 
BRANCH   4   5
ATOM      5  N   UNL A   1      32.173  24.086  26.781  1.00  0.00    -0.343 N 
ATOM      6  C   UNL A   1      30.819  22.537  25.409  1.00  0.00     0.114 C 
ATOM      7  C   UNL A   1      30.973  23.484  26.565  1.00  0.00     0.217 C 
ATOM      8  O   UNL A   1      30.031  23.725  27.318  1.00  0.00    -0.275 OA
ATOM      9  H   UNL A   1      32.187  24.709  27.543  1.00  0.00     0.164 HD
ENDBRANCH   4   5
BRANCH   4  10
ATOM     10  C   UNL A   1      34.113  25.338  25.808  1.00  0.00     0.077 C 
BRANCH  10  11
ATOM     11  C   UNL A   1      33.196  26.298  25.052  1.00  0.00     0.005 A 
ATOM     12  C   UNL A   1      32.581  27.353  25.768  1.00  0.00     0.123 A 
ATOM     13  C   UNL A   1      32.849  26.061  23.684  1.00  0.00    -0.011 A 
ATOM     14  C   UNL A   1      31.546  28.070  25.180  1.00  0.00     0.047 A 
ATOM     15  C   UNL A   1      31.818  26.838  23.103  1.00  0.00    -0.018 A 
ATOM     16  C   UNL A   1      33.457  25.084  22.857  1.00  0.00     0.009 A 
ATOM     17  C   UNL A   1      31.165  27.810  23.866  1.00  0.00     0.012 A 
ATOM     18  C   UNL A   1      31.433  26.628  21.769  1.00  0.00     0.009 A 
ATOM     19  C   UNL A   1      33.070  24.889  21.529  1.00  0.00     0.001 A 
ATOM     20  C   UNL A   1      32.057  25.662  20.985  1.00  0.00     0.001 A 
BRANCH  12  21
ATOM     21  O   UNL A   1      33.086  27.599  27.015  1.00  0.00    -0.493 OA
BRANCH  21  22
ATOM     22  C   UNL A   1      33.017  28.898  27.599  1.00  0.00     0.232 C 
BRANCH  22  23
ATOM     23  C   UNL A   1      34.141  29.828  27.108  1.00  0.00     0.020 C 
ATOM     24  C   UNL A   1      33.960  31.284  27.538  1.00  0.00     0.011 C 
ATOM     25  C   UNL A   1      35.492  29.314  27.605  1.00  0.00     0.011 C 
ENDBRANCH  22  23
ENDBRANCH  21  22
ENDBRANCH  12  21
ENDBRANCH  10  11
ENDBRANCH   4  10
ENDBRANCH   2   4
ENDBRANCH   1   2
BRANCH   1  26
ATOM     26  C   UNL A   1      35.407  21.372  25.364  1.00  0.00     0.274 C 
BRANCH  26  27
ATOM     27  C   UNL A   1      36.794  20.770  25.146  1.00  0.00     0.275 C 
BRANCH  27  28
ATOM     28  O   UNL A   1      37.811  21.785  25.227  1.00  0.00    -0.458 OA
BRANCH  28  29
ATOM     29  C   UNL A   1      38.895  21.428  25.951  1.00  0.00     0.338 C 
ATOM     30  O   UNL A   1      39.428  20.335  26.015  1.00  0.00    -0.246 OA
BRANCH  29  31
ATOM     31  C   UNL A   1      39.482  22.619  26.571  1.00  0.00     0.060 A 
ATOM     32  C   UNL A   1      39.044  23.862  26.112  1.00  0.00     0.016 A 
ATOM     33  C   UNL A   1      40.532  22.525  27.481  1.00  0.00     0.016 A 
ATOM     34  C   UNL A   1      39.685  25.023  26.514  1.00  0.00     0.010 A 
ATOM     35  C   UNL A   1      41.162  23.697  27.910  1.00  0.00     0.010 A 
ATOM     36  C   UNL A   1      40.759  24.947  27.407  1.00  0.00    -0.014 A 
BRANCH  36  37
ATOM     37  C   UNL A   1      41.502  26.179  27.748  1.00  0.00     0.031 A 
ATOM     38  C   UNL A   1      40.839  27.236  28.578  1.00  0.00     0.074 A 
ATOM     39  C   UNL A   1      42.779  26.322  27.350  1.00  0.00     0.049 A 
ATOM     40  N   UNL A   1      41.260  28.437  28.881  1.00  0.00    -0.248 NA
ATOM     41  C   UNL A   1      39.522  26.898  29.143  1.00  0.00     0.031 C 
ATOM     42  C   UNL A   1      43.546  25.324  26.605  1.00  0.00     0.029 A 
ATOM     43  N   UNL A   1      43.654  27.362  27.521  1.00  0.00    -0.354 N 
ATOM     44  C   UNL A   1      40.247  29.011  29.637  1.00  0.00     0.074 A 
ATOM     45  C   UNL A   1      39.191  28.028  29.751  1.00  0.00     0.031 C 
ATOM     46  C   UNL A   1      44.782  25.801  26.384  1.00  0.00     0.029 A 
ATOM     47  C   UNL A   1      44.871  27.156  26.920  1.00  0.00     0.049 A 
ATOM     48  H   UNL A   1      43.433  28.178  28.026  1.00  0.00     0.167 HD
ATOM     49  C   UNL A   1      40.206  30.251  30.178  1.00  0.00     0.037 A 
ATOM     50  C   UNL A   1      45.922  27.985  26.785  1.00  0.00     0.037 A 
ATOM     51  C   UNL A   1      41.276  31.208  30.084  1.00  0.00     0.049 A 
ATOM     52  C   UNL A   1      45.835  29.370  27.358  1.00  0.00     0.074 A 
ATOM     53  C   UNL A   1      41.337  32.493  30.594  1.00  0.00     0.029 A 
ATOM     54  N   UNL A   1      42.485  30.974  29.441  1.00  0.00    -0.354 N 
ATOM     55  N   UNL A   1      44.854  29.928  28.026  1.00  0.00    -0.248 NA
ATOM     56  C   UNL A   1      46.995  30.247  27.148  1.00  0.00     0.031 C 
ATOM     57  C   UNL A   1      42.571  33.047  30.233  1.00  0.00     0.029 A 
ATOM     58  C   UNL A   1      43.292  32.095  29.530  1.00  0.00     0.049 A 
ATOM     59  H   UNL A   1      42.730  30.135  28.987  1.00  0.00     0.167 HD
ATOM     60  C   UNL A   1      45.277  31.216  28.322  1.00  0.00     0.074 A 
ATOM     61  C   UNL A   1      46.614  31.351  27.778  1.00  0.00     0.031 C 
ATOM     62  C   UNL A   1      44.619  32.201  28.980  1.00  0.00     0.037 A 
BRANCH  49  63
ATOM     63  C   UNL A   1      38.946  30.656  30.881  1.00  0.00     0.064 A 
ATOM     64  C   UNL A   1      37.840  31.162  30.186  1.00  0.00     0.173 A 
ATOM     65  C   UNL A   1      38.841  30.513  32.273  1.00  0.00     0.173 A 
ATOM     66  F   UNL A   1      37.899  31.334  28.856  1.00  0.00    -0.203 F 
ATOM     67  C   UNL A   1      36.678  31.530  30.861  1.00  0.00     0.198 A 
ATOM     68  C   UNL A   1      37.671  30.861  32.942  1.00  0.00     0.198 A 
ATOM     69  F   UNL A   1      39.872  30.033  32.983  1.00  0.00    -0.203 F 
ATOM     70  F   UNL A   1      35.645  32.048  30.182  1.00  0.00    -0.200 F 
ATOM     71  C   UNL A   1      36.593  31.373  32.236  1.00  0.00     0.200 A 
ATOM     72  F   UNL A   1      37.588  30.703  34.270  1.00  0.00    -0.200 F 
ATOM     73  F   UNL A   1      35.474  31.724  32.885  1.00  0.00    -0.200 F 
ENDBRANCH  49  63
BRANCH  50  74
ATOM     74  C   UNL A   1      47.124  27.532  26.042  1.00  0.00     0.064 A 
ATOM     75  C   UNL A   1      47.204  27.662  24.649  1.00  0.00     0.173 A 
ATOM     76  C   UNL A   1      48.224  26.975  26.712  1.00  0.00     0.173 A 
ATOM     77  F   UNL A   1      46.167  28.166  23.964  1.00  0.00    -0.203 F 
ATOM     78  C   UNL A   1      48.337  27.246  23.953  1.00  0.00     0.198 A 
ATOM     79  C   UNL A   1      49.365  26.583  26.018  1.00  0.00     0.198 A 
ATOM     80  F   UNL A   1      48.194  26.829  28.044  1.00  0.00    -0.203 F 
ATOM     81  F   UNL A   1      48.377  27.351  22.619  1.00  0.00    -0.200 F 
ATOM     82  C   UNL A   1      49.420  26.714  24.640  1.00  0.00     0.200 A 
ATOM     83  F   UNL A   1      50.414  26.082  26.686  1.00  0.00    -0.200 F 
ATOM     84  F   UNL A   1      50.513  26.324  23.970  1.00  0.00    -0.200 F 
ENDBRANCH  50  74
BRANCH  62  85
ATOM     85  C   UNL A   1      45.343  33.499  29.158  1.00  0.00     0.064 A 
ATOM     86  C   UNL A   1      45.212  34.541  28.229  1.00  0.00     0.173 A 
ATOM     87  C   UNL A   1      46.147  33.715  30.287  1.00  0.00     0.173 A 
ATOM     88  F   UNL A   1      44.467  34.372  27.127  1.00  0.00    -0.203 F 
ATOM     89  C   UNL A   1      45.876  35.750  28.415  1.00  0.00     0.198 A 
ATOM     90  C   UNL A   1      46.793  34.932  30.481  1.00  0.00     0.198 A 
ATOM     91  F   UNL A   1      46.299  32.748  31.204  1.00  0.00    -0.203 F 
ATOM     92  F   UNL A   1      45.769  36.721  27.498  1.00  0.00    -0.200 F 
ATOM     93  C   UNL A   1      46.661  35.947  29.544  1.00  0.00     0.200 A 
ATOM     94  F   UNL A   1      47.544  35.124  31.573  1.00  0.00    -0.200 F 
ATOM     95  F   UNL A   1      47.297  37.112  29.722  1.00  0.00    -0.200 F 
ENDBRANCH  62  85
ENDBRANCH  36  37
ENDBRANCH  29  31
ENDBRANCH  28  29
ENDBRANCH  27  28
ENDBRANCH  26  27
ENDBRANCH   1  26
TORSDOF 17
ENDMDL
