MODEL 1
REMARK VINA RESULT:      -9.8      0.000      0.000
REMARK SMILES CCc1cc(/C=C/C(=O)OCCOC(=O)c2ccc(-c3c4nc(c(-c5c(F)c(F)c(F)c(F)c5F)c5ccc([nH]5)c(-c5c(F)c(F)c(F)c(F)c5F)c5nc(c(-c6c(F)c(F)c(F)c(F)c6F)c6ccc3[nH]6)C=C5)C=C4)cc2)cc(C(=O)c2ccccc2)c1
REMARK SMILES IDX 11 1 10 2 8 3 9 4 7 5 6 6 5 7 3 8 4 9 89 10 80 11 79 12 2 13
REMARK SMILES IDX 1 14 81 15 82 16 83 17 84 18 88 19 85 20 87 21 86 22 12 23
REMARK SMILES IDX 13 24 14 25 15 26 16 27 17 28 78 29 18 30 77 31 19 32 20 33
REMARK SMILES IDX 21 34 71 35 22 36 76 37 70 38 72 39 23 40 75 41 69 42 68 43
REMARK SMILES IDX 24 45 56 46 36 47 55 48 37 49 40 50 54 51 73 52 38 53 39 54
REMARK SMILES IDX 53 56 74 57 41 58 25 59 26 60 34 61 27 62 28 63 32 64 35 65
REMARK SMILES IDX 29 66 30 67 33 68 31 69 57 70 58 71 66 72 59 73 60 74 64 75
REMARK SMILES IDX 67 76 61 77 62 78 65 79 63 80 42 81 43 82 51 83 44 84 45 85
REMARK SMILES IDX 49 86 52 87 46 88 47 89 50 90 48 91
REMARK H PARENT 72 44 40 55
REMARK Flexibility Score: inf
ROOT
ATOM      1  C   UNL A   1      32.911  36.797  31.269  1.00  0.00     0.275 C 
ENDROOT
BRANCH   1   2
ATOM      2  O   UNL A   1      33.467  35.826  32.175  1.00  0.00    -0.459 OA
BRANCH   2   3
ATOM      3  C   UNL A   1      34.169  36.323  33.219  1.00  0.00     0.330 C 
ATOM      4  O   UNL A   1      33.912  37.343  33.844  1.00  0.00    -0.247 OA
BRANCH   3   5
ATOM      5  C   UNL A   1      35.278  35.439  33.630  1.00  0.00     0.094 C 
ATOM      6  C   UNL A   1      35.144  34.207  34.146  1.00  0.00     0.015 C 
BRANCH   6   7
ATOM      7  C   UNL A   1      36.281  33.442  34.685  1.00  0.00    -0.024 A 
ATOM      8  C   UNL A   1      37.928  33.052  36.456  1.00  0.00    -0.047 A 
ATOM      9  C   UNL A   1      36.883  33.803  35.901  1.00  0.00     0.011 A 
ATOM     10  C   UNL A   1      38.394  31.934  35.748  1.00  0.00     0.016 A 
ATOM     11  C   UNL A   1      37.780  31.530  34.554  1.00  0.00     0.023 A 
ATOM     12  C   UNL A   1      36.725  32.291  34.028  1.00  0.00     0.020 A 
BRANCH   8  13
ATOM     13  C   UNL A   1      38.598  33.432  37.758  1.00  0.00     0.032 C 
ATOM     14  C   UNL A   1      38.952  34.907  37.912  1.00  0.00     0.009 C 
ENDBRANCH   8  13
BRANCH  11  15
ATOM     15  C   UNL A   1      38.244  30.339  33.786  1.00  0.00     0.193 C 
ATOM     16  O   UNL A   1      37.519  29.860  32.916  1.00  0.00    -0.289 OA
BRANCH  15  17
ATOM     17  C   UNL A   1      39.575  29.720  34.008  1.00  0.00     0.022 A 
ATOM     18  C   UNL A   1      39.917  28.597  33.243  1.00  0.00     0.012 A 
ATOM     19  C   UNL A   1      40.464  30.200  34.976  1.00  0.00     0.012 A 
ATOM     20  C   UNL A   1      41.161  27.989  33.413  1.00  0.00     0.001 A 
ATOM     21  C   UNL A   1      41.711  29.589  35.139  1.00  0.00     0.001 A 
ATOM     22  C   UNL A   1      42.059  28.489  34.354  1.00  0.00     0.000 A 
ENDBRANCH  15  17
ENDBRANCH  11  15
ENDBRANCH   6   7
ENDBRANCH   3   5
ENDBRANCH   2   3
ENDBRANCH   1   2
BRANCH   1  23
ATOM     23  C   UNL A   1      32.945  36.287  29.824  1.00  0.00     0.275 C 
BRANCH  23  24
ATOM     24  O   UNL A   1      32.605  34.890  29.736  1.00  0.00    -0.458 OA
BRANCH  24  25
ATOM     25  C   UNL A   1      33.303  34.188  28.813  1.00  0.00     0.338 C 
ATOM     26  O   UNL A   1      32.992  33.985  27.652  1.00  0.00    -0.246 OA
BRANCH  25  27
ATOM     27  C   UNL A   1      34.601  33.760  29.368  1.00  0.00     0.060 A 
ATOM     28  C   UNL A   1      35.759  34.167  28.697  1.00  0.00     0.016 A 
ATOM     29  C   UNL A   1      34.688  32.908  30.472  1.00  0.00     0.016 A 
ATOM     30  C   UNL A   1      37.007  33.714  29.118  1.00  0.00     0.010 A 
ATOM     31  C   UNL A   1      35.943  32.451  30.893  1.00  0.00     0.010 A 
ATOM     32  C   UNL A   1      37.108  32.837  30.207  1.00  0.00    -0.014 A 
BRANCH  32  33
ATOM     33  C   UNL A   1      38.435  32.293  30.582  1.00  0.00     0.031 A 
ATOM     34  C   UNL A   1      38.928  31.018  29.959  1.00  0.00     0.074 A 
ATOM     35  C   UNL A   1      39.214  32.959  31.453  1.00  0.00     0.049 A 
ATOM     36  N   UNL A   1      40.064  30.391  30.140  1.00  0.00    -0.248 NA
ATOM     37  C   UNL A   1      38.023  30.360  29.006  1.00  0.00     0.031 C 
ATOM     38  C   UNL A   1      38.855  34.214  32.113  1.00  0.00     0.029 A 
ATOM     39  N   UNL A   1      40.469  32.674  31.931  1.00  0.00    -0.354 N 
ATOM     40  C   UNL A   1      40.009  29.265  29.331  1.00  0.00     0.074 A 
ATOM     41  C   UNL A   1      38.717  29.280  28.677  1.00  0.00     0.031 C 
ATOM     42  C   UNL A   1      39.868  34.594  32.908  1.00  0.00     0.029 A 
ATOM     43  C   UNL A   1      40.934  33.598  32.834  1.00  0.00     0.049 A 
ATOM     44  H   UNL A   1      40.985  31.885  31.652  1.00  0.00     0.167 HD
ATOM     45  C   UNL A   1      40.953  28.312  29.144  1.00  0.00     0.037 A 
ATOM     46  C   UNL A   1      42.086  33.629  33.531  1.00  0.00     0.037 A 
ATOM     47  C   UNL A   1      42.240  28.300  29.788  1.00  0.00     0.049 A 
ATOM     48  C   UNL A   1      43.103  32.537  33.333  1.00  0.00     0.074 A 
ATOM     49  C   UNL A   1      43.274  27.392  29.637  1.00  0.00     0.029 A 
ATOM     50  N   UNL A   1      42.668  29.239  30.717  1.00  0.00    -0.354 N 
ATOM     51  N   UNL A   1      43.057  31.499  32.535  1.00  0.00    -0.248 NA
ATOM     52  C   UNL A   1      44.335  32.628  34.128  1.00  0.00     0.031 C 
ATOM     53  C   UNL A   1      44.311  27.758  30.504  1.00  0.00     0.029 A 
ATOM     54  C   UNL A   1      43.941  28.919  31.162  1.00  0.00     0.049 A 
ATOM     55  H   UNL A   1      42.144  30.018  31.014  1.00  0.00     0.167 HD
ATOM     56  C   UNL A   1      44.257  30.824  32.717  1.00  0.00     0.074 A 
ATOM     57  C   UNL A   1      45.018  31.580  33.689  1.00  0.00     0.031 C 
ATOM     58  C   UNL A   1      44.688  29.680  32.131  1.00  0.00     0.037 A 
BRANCH  45  59
ATOM     59  C   UNL A   1      40.619  27.183  28.213  1.00  0.00     0.064 A 
ATOM     60  C   UNL A   1      41.210  27.073  26.947  1.00  0.00     0.173 A 
ATOM     61  C   UNL A   1      39.721  26.180  28.609  1.00  0.00     0.173 A 
ATOM     62  F   UNL A   1      42.066  28.012  26.517  1.00  0.00    -0.203 F 
ATOM     63  C   UNL A   1      40.896  26.013  26.100  1.00  0.00     0.198 A 
ATOM     64  C   UNL A   1      39.428  25.108  27.770  1.00  0.00     0.198 A 
ATOM     65  F   UNL A   1      39.132  26.236  29.813  1.00  0.00    -0.203 F 
ATOM     66  F   UNL A   1      41.441  25.951  24.877  1.00  0.00    -0.200 F 
ATOM     67  C   UNL A   1      40.010  25.029  26.513  1.00  0.00     0.200 A 
ATOM     68  F   UNL A   1      38.580  24.153  28.176  1.00  0.00    -0.200 F 
ATOM     69  F   UNL A   1      39.711  24.009  25.699  1.00  0.00    -0.200 F 
ENDBRANCH  45  59
BRANCH  46  70
ATOM     70  C   UNL A   1      42.339  34.739  34.484  1.00  0.00     0.064 A 
ATOM     71  C   UNL A   1      42.797  35.986  34.037  1.00  0.00     0.173 A 
ATOM     72  C   UNL A   1      42.127  34.574  35.861  1.00  0.00     0.173 A 
ATOM     73  F   UNL A   1      43.038  36.182  32.733  1.00  0.00    -0.203 F 
ATOM     74  C   UNL A   1      43.045  37.023  34.934  1.00  0.00     0.198 A 
ATOM     75  C   UNL A   1      42.351  35.619  36.753  1.00  0.00     0.198 A 
ATOM     76  F   UNL A   1      41.691  33.399  36.336  1.00  0.00    -0.203 F 
ATOM     77  F   UNL A   1      43.521  38.192  34.486  1.00  0.00    -0.200 F 
ATOM     78  C   UNL A   1      42.816  36.841  36.290  1.00  0.00     0.200 A 
ATOM     79  F   UNL A   1      42.120  35.442  38.061  1.00  0.00    -0.200 F 
ATOM     80  F   UNL A   1      43.051  37.841  37.151  1.00  0.00    -0.200 F 
ENDBRANCH  46  70
BRANCH  58  81
ATOM     81  C   UNL A   1      46.056  29.189  32.505  1.00  0.00     0.064 A 
ATOM     82  C   UNL A   1      47.201  29.609  31.814  1.00  0.00     0.173 A 
ATOM     83  C   UNL A   1      46.226  28.318  33.592  1.00  0.00     0.173 A 
ATOM     84  F   UNL A   1      47.089  30.430  30.759  1.00  0.00    -0.203 F 
ATOM     85  C   UNL A   1      48.466  29.153  32.181  1.00  0.00     0.198 A 
ATOM     86  C   UNL A   1      47.494  27.885  33.972  1.00  0.00     0.198 A 
ATOM     87  F   UNL A   1      45.162  27.892  34.289  1.00  0.00    -0.203 F 
ATOM     88  F   UNL A   1      49.542  29.531  31.477  1.00  0.00    -0.200 F 
ATOM     89  C   UNL A   1      48.610  28.297  33.262  1.00  0.00     0.200 A 
ATOM     90  F   UNL A   1      47.633  27.066  35.024  1.00  0.00    -0.200 F 
ATOM     91  F   UNL A   1      49.828  27.863  33.616  1.00  0.00    -0.200 F 
ENDBRANCH  58  81
ENDBRANCH  32  33
ENDBRANCH  25  27
ENDBRANCH  24  25
ENDBRANCH  23  24
ENDBRANCH   1  23
TORSDOF 15
ENDMDL
MODEL 2
REMARK VINA RESULT:      -9.4      5.032     11.692
REMARK SMILES CCc1cc(/C=C/C(=O)OCCOC(=O)c2ccc(-c3c4nc(c(-c5c(F)c(F)c(F)c(F)c5F)c5ccc([nH]5)c(-c5c(F)c(F)c(F)c(F)c5F)c5nc(c(-c6c(F)c(F)c(F)c(F)c6F)c6ccc3[nH]6)C=C5)C=C4)cc2)cc(C(=O)c2ccccc2)c1
REMARK SMILES IDX 11 1 10 2 8 3 9 4 7 5 6 6 5 7 3 8 4 9 89 10 80 11 79 12 2 13
REMARK SMILES IDX 1 14 81 15 82 16 83 17 84 18 88 19 85 20 87 21 86 22 12 23
REMARK SMILES IDX 13 24 14 25 15 26 16 27 17 28 78 29 18 30 77 31 19 32 20 33
REMARK SMILES IDX 21 34 71 35 22 36 76 37 70 38 72 39 23 40 75 41 69 42 68 43
REMARK SMILES IDX 24 45 56 46 36 47 55 48 37 49 40 50 54 51 73 52 38 53 39 54
REMARK SMILES IDX 53 56 74 57 41 58 25 59 26 60 34 61 27 62 28 63 32 64 35 65
REMARK SMILES IDX 29 66 30 67 33 68 31 69 57 70 58 71 66 72 59 73 60 74 64 75
REMARK SMILES IDX 67 76 61 77 62 78 65 79 63 80 42 81 43 82 51 83 44 84 45 85
REMARK SMILES IDX 49 86 52 87 46 88 47 89 50 90 48 91
REMARK H PARENT 72 44 40 55
REMARK Flexibility Score: inf
ROOT
ATOM      1  C   UNL A   1      42.549  21.102  26.032  1.00  0.00     0.275 C 
ENDROOT
BRANCH   1   2
ATOM      2  O   UNL A   1      41.232  21.540  25.650  1.00  0.00    -0.459 OA
BRANCH   2   3
ATOM      3  C   UNL A   1      40.277  21.445  26.603  1.00  0.00     0.330 C 
ATOM      4  O   UNL A   1      40.461  21.397  27.812  1.00  0.00    -0.247 OA
BRANCH   3   5
ATOM      5  C   UNL A   1      38.911  21.505  26.045  1.00  0.00     0.094 C 
ATOM      6  C   UNL A   1      38.236  22.627  25.748  1.00  0.00     0.015 C 
BRANCH   6   7
ATOM      7  C   UNL A   1      36.820  22.621  25.347  1.00  0.00    -0.024 A 
ATOM      8  C   UNL A   1      34.934  23.689  24.204  1.00  0.00    -0.047 A 
ATOM      9  C   UNL A   1      36.264  23.703  24.644  1.00  0.00     0.011 A 
ATOM     10  C   UNL A   1      34.142  22.572  24.512  1.00  0.00     0.016 A 
ATOM     11  C   UNL A   1      34.687  21.463  25.174  1.00  0.00     0.023 A 
ATOM     12  C   UNL A   1      36.027  21.497  25.591  1.00  0.00     0.020 A 
BRANCH   8  13
ATOM     13  C   UNL A   1      34.313  24.849  23.457  1.00  0.00     0.032 C 
ATOM     14  C   UNL A   1      33.928  26.052  24.311  1.00  0.00     0.009 C 
ENDBRANCH   8  13
BRANCH  11  15
ATOM     15  C   UNL A   1      33.875  20.256  25.503  1.00  0.00     0.193 C 
ATOM     16  O   UNL A   1      33.267  20.211  26.571  1.00  0.00    -0.289 OA
BRANCH  15  17
ATOM     17  C   UNL A   1      33.741  19.110  24.570  1.00  0.00     0.022 A 
ATOM     18  C   UNL A   1      32.683  19.125  23.652  1.00  0.00     0.012 A 
ATOM     19  C   UNL A   1      34.611  18.014  24.613  1.00  0.00     0.012 A 
ATOM     20  C   UNL A   1      32.525  18.072  22.751  1.00  0.00     0.001 A 
ATOM     21  C   UNL A   1      34.451  16.963  23.706  1.00  0.00     0.001 A 
ATOM     22  C   UNL A   1      33.412  16.996  22.773  1.00  0.00     0.000 A 
ENDBRANCH  15  17
ENDBRANCH  11  15
ENDBRANCH   6   7
ENDBRANCH   3   5
ENDBRANCH   2   3
ENDBRANCH   1   2
BRANCH   1  23
ATOM     23  C   UNL A   1      43.631  21.977  25.391  1.00  0.00     0.275 C 
BRANCH  23  24
ATOM     24  O   UNL A   1      43.091  23.209  24.873  1.00  0.00    -0.458 OA
BRANCH  24  25
ATOM     25  C   UNL A   1      43.832  24.312  25.130  1.00  0.00     0.338 C 
ATOM     26  O   UNL A   1      44.847  24.667  24.556  1.00  0.00    -0.246 OA
BRANCH  25  27
ATOM     27  C   UNL A   1      43.184  25.135  26.169  1.00  0.00     0.060 A 
ATOM     28  C   UNL A   1      43.720  26.401  26.421  1.00  0.00     0.016 A 
ATOM     29  C   UNL A   1      42.127  24.649  26.942  1.00  0.00     0.016 A 
ATOM     30  C   UNL A   1      43.211  27.183  27.455  1.00  0.00     0.010 A 
ATOM     31  C   UNL A   1      41.617  25.435  27.984  1.00  0.00     0.010 A 
ATOM     32  C   UNL A   1      42.169  26.699  28.257  1.00  0.00    -0.014 A 
BRANCH  32  33
ATOM     33  C   UNL A   1      41.703  27.505  29.412  1.00  0.00     0.031 A 
ATOM     34  C   UNL A   1      42.431  27.431  30.723  1.00  0.00     0.074 A 
ATOM     35  C   UNL A   1      40.651  28.332  29.273  1.00  0.00     0.049 A 
ATOM     36  N   UNL A   1      42.193  28.070  31.842  1.00  0.00    -0.248 NA
ATOM     37  C   UNL A   1      43.579  26.515  30.786  1.00  0.00     0.031 C 
ATOM     38  C   UNL A   1      39.873  28.505  28.048  1.00  0.00     0.029 A 
ATOM     39  N   UNL A   1      40.057  29.182  30.172  1.00  0.00    -0.354 N 
ATOM     40  C   UNL A   1      43.154  27.632  32.741  1.00  0.00     0.074 A 
ATOM     41  C   UNL A   1      43.965  26.652  32.047  1.00  0.00     0.031 C 
ATOM     42  C   UNL A   1      38.905  29.408  28.269  1.00  0.00     0.029 A 
ATOM     43  C   UNL A   1      38.979  29.858  29.658  1.00  0.00     0.049 A 
ATOM     44  H   UNL A   1      40.375  29.298  31.096  1.00  0.00     0.167 HD
ATOM     45  C   UNL A   1      43.349  28.018  34.024  1.00  0.00     0.037 A 
ATOM     46  C   UNL A   1      38.139  30.731  30.245  1.00  0.00     0.037 A 
ATOM     47  C   UNL A   1      42.549  28.995  34.713  1.00  0.00     0.049 A 
ATOM     48  C   UNL A   1      38.354  31.115  31.684  1.00  0.00     0.074 A 
ATOM     49  C   UNL A   1      42.690  29.474  36.005  1.00  0.00     0.029 A 
ATOM     50  N   UNL A   1      41.448  29.642  34.168  1.00  0.00    -0.354 N 
ATOM     51  N   UNL A   1      39.291  30.725  32.513  1.00  0.00    -0.248 NA
ATOM     52  C   UNL A   1      37.398  32.068  32.266  1.00  0.00     0.031 C 
ATOM     53  C   UNL A   1      41.651  30.378  36.255  1.00  0.00     0.029 A 
ATOM     54  C   UNL A   1      40.889  30.496  35.105  1.00  0.00     0.049 A 
ATOM     55  H   UNL A   1      41.115  29.512  33.251  1.00  0.00     0.167 HD
ATOM     56  C   UNL A   1      39.050  31.395  33.705  1.00  0.00     0.074 A 
ATOM     57  C   UNL A   1      37.888  32.231  33.487  1.00  0.00     0.031 C 
ATOM     58  C   UNL A   1      39.731  31.323  34.875  1.00  0.00     0.037 A 
BRANCH  45  59
ATOM     59  C   UNL A   1      44.467  27.361  34.781  1.00  0.00     0.064 A 
ATOM     60  C   UNL A   1      45.755  27.914  34.819  1.00  0.00     0.173 A 
ATOM     61  C   UNL A   1      44.237  26.181  35.504  1.00  0.00     0.173 A 
ATOM     62  F   UNL A   1      46.029  29.035  34.135  1.00  0.00    -0.203 F 
ATOM     63  C   UNL A   1      46.778  27.296  35.534  1.00  0.00     0.198 A 
ATOM     64  C   UNL A   1      45.255  25.580  36.238  1.00  0.00     0.198 A 
ATOM     65  F   UNL A   1      43.021  25.614  35.505  1.00  0.00    -0.203 F 
ATOM     66  F   UNL A   1      48.012  27.820  35.522  1.00  0.00    -0.200 F 
ATOM     67  C   UNL A   1      46.527  26.133  36.247  1.00  0.00     0.200 A 
ATOM     68  F   UNL A   1      45.008  24.462  36.935  1.00  0.00    -0.200 F 
ATOM     69  F   UNL A   1      47.511  25.542  36.936  1.00  0.00    -0.200 F 
ENDBRANCH  45  59
BRANCH  46  70
ATOM     70  C   UNL A   1      37.012  31.305  29.466  1.00  0.00     0.064 A 
ATOM     71  C   UNL A   1      35.907  30.520  29.108  1.00  0.00     0.173 A 
ATOM     72  C   UNL A   1      37.019  32.649  29.064  1.00  0.00     0.173 A 
ATOM     73  F   UNL A   1      35.868  29.224  29.448  1.00  0.00    -0.203 F 
ATOM     74  C   UNL A   1      34.856  31.057  28.367  1.00  0.00     0.198 A 
ATOM     75  C   UNL A   1      35.956  33.190  28.345  1.00  0.00     0.198 A 
ATOM     76  F   UNL A   1      38.055  33.438  29.381  1.00  0.00    -0.203 F 
ATOM     77  F   UNL A   1      33.830  30.276  28.003  1.00  0.00    -0.200 F 
ATOM     78  C   UNL A   1      34.879  32.392  27.992  1.00  0.00     0.200 A 
ATOM     79  F   UNL A   1      35.978  34.482  27.993  1.00  0.00    -0.200 F 
ATOM     80  F   UNL A   1      33.865  32.908  27.283  1.00  0.00    -0.200 F 
ENDBRANCH  46  70
BRANCH  58  81
ATOM     81  C   UNL A   1      39.253  32.191  36.002  1.00  0.00     0.064 A 
ATOM     82  C   UNL A   1      39.734  33.496  36.180  1.00  0.00     0.173 A 
ATOM     83  C   UNL A   1      38.275  31.724  36.894  1.00  0.00     0.173 A 
ATOM     84  F   UNL A   1      40.681  33.983  35.363  1.00  0.00    -0.203 F 
ATOM     85  C   UNL A   1      39.273  34.294  37.225  1.00  0.00     0.198 A 
ATOM     86  C   UNL A   1      37.797  32.533  37.921  1.00  0.00     0.198 A 
ATOM     87  F   UNL A   1      37.778  30.485  36.763  1.00  0.00    -0.203 F 
ATOM     88  F   UNL A   1      39.780  35.521  37.403  1.00  0.00    -0.200 F 
ATOM     89  C   UNL A   1      38.301  33.813  38.090  1.00  0.00     0.200 A 
ATOM     90  F   UNL A   1      36.850  32.071  38.750  1.00  0.00    -0.200 F 
ATOM     91  F   UNL A   1      37.855  34.584  39.092  1.00  0.00    -0.200 F 
ENDBRANCH  58  81
ENDBRANCH  32  33
ENDBRANCH  25  27
ENDBRANCH  24  25
ENDBRANCH  23  24
ENDBRANCH   1  23
TORSDOF 15
ENDMDL
MODEL 3
REMARK VINA RESULT:      -9.3      4.380     10.422
REMARK SMILES CCc1cc(/C=C/C(=O)OCCOC(=O)c2ccc(-c3c4nc(c(-c5c(F)c(F)c(F)c(F)c5F)c5ccc([nH]5)c(-c5c(F)c(F)c(F)c(F)c5F)c5nc(c(-c6c(F)c(F)c(F)c(F)c6F)c6ccc3[nH]6)C=C5)C=C4)cc2)cc(C(=O)c2ccccc2)c1
REMARK SMILES IDX 11 1 10 2 8 3 9 4 7 5 6 6 5 7 3 8 4 9 89 10 80 11 79 12 2 13
REMARK SMILES IDX 1 14 81 15 82 16 83 17 84 18 88 19 85 20 87 21 86 22 12 23
REMARK SMILES IDX 13 24 14 25 15 26 16 27 17 28 78 29 18 30 77 31 19 32 20 33
REMARK SMILES IDX 21 34 71 35 22 36 76 37 70 38 72 39 23 40 75 41 69 42 68 43
REMARK SMILES IDX 24 45 56 46 36 47 55 48 37 49 40 50 54 51 73 52 38 53 39 54
REMARK SMILES IDX 53 56 74 57 41 58 25 59 26 60 34 61 27 62 28 63 32 64 35 65
REMARK SMILES IDX 29 66 30 67 33 68 31 69 57 70 58 71 66 72 59 73 60 74 64 75
REMARK SMILES IDX 67 76 61 77 62 78 65 79 63 80 42 81 43 82 51 83 44 84 45 85
REMARK SMILES IDX 49 86 52 87 46 88 47 89 50 90 48 91
REMARK H PARENT 72 44 40 55
REMARK Flexibility Score: inf
ROOT
ATOM      1  C   UNL A   1      32.079  29.129  25.052  1.00  0.00     0.275 C 
ENDROOT
BRANCH   1   2
ATOM      2  O   UNL A   1      31.085  28.148  25.402  1.00  0.00    -0.459 OA
BRANCH   2   3
ATOM      3  C   UNL A   1      31.383  27.350  26.452  1.00  0.00     0.330 C 
ATOM      4  O   UNL A   1      31.104  27.561  27.625  1.00  0.00    -0.247 OA
BRANCH   3   5
ATOM      5  C   UNL A   1      32.023  26.085  26.040  1.00  0.00     0.094 C 
ATOM      6  C   UNL A   1      33.345  25.878  25.928  1.00  0.00     0.015 C 
BRANCH   6   7
ATOM      7  C   UNL A   1      33.912  24.645  25.359  1.00  0.00    -0.024 A 
ATOM      8  C   UNL A   1      35.843  23.199  24.925  1.00  0.00    -0.047 A 
ATOM      9  C   UNL A   1      35.293  24.394  25.410  1.00  0.00     0.011 A 
ATOM     10  C   UNL A   1      34.980  22.257  24.345  1.00  0.00     0.016 A 
ATOM     11  C   UNL A   1      33.594  22.467  24.321  1.00  0.00     0.023 A 
ATOM     12  C   UNL A   1      33.068  23.666  24.828  1.00  0.00     0.020 A 
BRANCH   8  13
ATOM     13  C   UNL A   1      37.328  22.916  24.959  1.00  0.00     0.032 C 
ATOM     14  C   UNL A   1      38.091  23.531  26.128  1.00  0.00     0.009 C 
ENDBRANCH   8  13
BRANCH  11  15
ATOM     15  C   UNL A   1      32.651  21.478  23.724  1.00  0.00     0.193 C 
ATOM     16  O   UNL A   1      31.819  21.857  22.902  1.00  0.00    -0.289 OA
BRANCH  15  17
ATOM     17  C   UNL A   1      32.698  20.033  24.059  1.00  0.00     0.022 A 
ATOM     18  C   UNL A   1      32.546  19.108  23.018  1.00  0.00     0.012 A 
ATOM     19  C   UNL A   1      32.849  19.582  25.375  1.00  0.00     0.012 A 
ATOM     20  C   UNL A   1      32.593  17.740  23.286  1.00  0.00     0.001 A 
ATOM     21  C   UNL A   1      32.898  18.210  25.638  1.00  0.00     0.001 A 
ATOM     22  C   UNL A   1      32.776  17.292  24.594  1.00  0.00     0.000 A 
ENDBRANCH  15  17
ENDBRANCH  11  15
ENDBRANCH   6   7
ENDBRANCH   3   5
ENDBRANCH   2   3
ENDBRANCH   1   2
BRANCH   1  23
ATOM     23  C   UNL A   1      31.808  30.465  25.752  1.00  0.00     0.275 C 
BRANCH  23  24
ATOM     24  O   UNL A   1      32.431  30.530  27.050  1.00  0.00    -0.458 OA
BRANCH  24  25
ATOM     25  C   UNL A   1      33.193  31.629  27.265  1.00  0.00     0.338 C 
ATOM     26  O   UNL A   1      32.858  32.794  27.135  1.00  0.00    -0.246 OA
BRANCH  25  27
ATOM     27  C   UNL A   1      34.511  31.241  27.802  1.00  0.00     0.060 A 
ATOM     28  C   UNL A   1      34.699  29.901  28.155  1.00  0.00     0.016 A 
ATOM     29  C   UNL A   1      35.517  32.181  28.038  1.00  0.00     0.016 A 
ATOM     30  C   UNL A   1      35.888  29.497  28.757  1.00  0.00     0.010 A 
ATOM     31  C   UNL A   1      36.712  31.774  28.646  1.00  0.00     0.010 A 
ATOM     32  C   UNL A   1      36.896  30.433  29.025  1.00  0.00    -0.014 A 
BRANCH  32  33
ATOM     33  C   UNL A   1      38.116  30.001  29.750  1.00  0.00     0.031 A 
ATOM     34  C   UNL A   1      38.383  30.507  31.139  1.00  0.00     0.074 A 
ATOM     35  C   UNL A   1      38.964  29.129  29.178  1.00  0.00     0.049 A 
ATOM     36  N   UNL A   1      39.380  30.233  31.944  1.00  0.00    -0.248 NA
ATOM     37  C   UNL A   1      37.398  31.445  31.697  1.00  0.00     0.031 C 
ATOM     38  C   UNL A   1      38.807  28.554  27.843  1.00  0.00     0.029 A 
ATOM     39  N   UNL A   1      40.127  28.572  29.650  1.00  0.00    -0.354 N 
ATOM     40  C   UNL A   1      39.147  30.968  33.098  1.00  0.00     0.074 A 
ATOM     41  C   UNL A   1      37.928  31.719  32.881  1.00  0.00     0.031 C 
ATOM     42  C   UNL A   1      39.833  27.722  27.602  1.00  0.00     0.029 A 
ATOM     43  C   UNL A   1      40.732  27.725  28.754  1.00  0.00     0.049 A 
ATOM     44  H   UNL A   1      40.491  28.760  30.544  1.00  0.00     0.167 HD
ATOM     45  C   UNL A   1      39.877  31.004  34.238  1.00  0.00     0.037 A 
ATOM     46  C   UNL A   1      41.887  27.040  28.849  1.00  0.00     0.037 A 
ATOM     47  C   UNL A   1      41.085  30.252  34.458  1.00  0.00     0.049 A 
ATOM     48  C   UNL A   1      42.701  27.127  30.112  1.00  0.00     0.074 A 
ATOM     49  C   UNL A   1      41.877  30.201  35.593  1.00  0.00     0.029 A 
ATOM     50  N   UNL A   1      41.683  29.424  33.519  1.00  0.00    -0.354 N 
ATOM     51  N   UNL A   1      42.451  27.793  31.212  1.00  0.00    -0.248 NA
ATOM     52  C   UNL A   1      43.954  26.360  30.147  1.00  0.00     0.031 C 
ATOM     53  C   UNL A   1      42.975  29.375  35.326  1.00  0.00     0.029 A 
ATOM     54  C   UNL A   1      42.844  28.876  34.040  1.00  0.00     0.049 A 
ATOM     55  H   UNL A   1      41.332  29.250  32.615  1.00  0.00     0.167 HD
ATOM     56  C   UNL A   1      43.501  27.513  32.076  1.00  0.00     0.074 A 
ATOM     57  C   UNL A   1      44.384  26.602  31.378  1.00  0.00     0.031 C 
ATOM     58  C   UNL A   1      43.714  27.970  33.335  1.00  0.00     0.037 A 
BRANCH  45  59
ATOM     59  C   UNL A   1      39.399  31.908  35.336  1.00  0.00     0.064 A 
ATOM     60  C   UNL A   1      38.541  31.450  36.346  1.00  0.00     0.173 A 
ATOM     61  C   UNL A   1      39.832  33.241  35.396  1.00  0.00     0.173 A 
ATOM     62  F   UNL A   1      38.089  30.187  36.327  1.00  0.00    -0.203 F 
ATOM     63  C   UNL A   1      38.115  32.301  37.363  1.00  0.00     0.198 A 
ATOM     64  C   UNL A   1      39.425  34.082  36.428  1.00  0.00     0.198 A 
ATOM     65  F   UNL A   1      40.658  33.727  34.457  1.00  0.00    -0.203 F 
ATOM     66  F   UNL A   1      37.261  31.853  38.295  1.00  0.00    -0.200 F 
ATOM     67  C   UNL A   1      38.560  33.613  37.407  1.00  0.00     0.200 A 
ATOM     68  F   UNL A   1      39.865  35.347  36.475  1.00  0.00    -0.200 F 
ATOM     69  F   UNL A   1      38.152  34.429  38.387  1.00  0.00    -0.200 F 
ENDBRANCH  45  59
BRANCH  46  70
ATOM     70  C   UNL A   1      42.344  26.208  27.707  1.00  0.00     0.064 A 
ATOM     71  C   UNL A   1      41.839  24.916  27.507  1.00  0.00     0.173 A 
ATOM     72  C   UNL A   1      43.295  26.688  26.794  1.00  0.00     0.173 A 
ATOM     73  F   UNL A   1      40.948  24.405  28.368  1.00  0.00    -0.203 F 
ATOM     74  C   UNL A   1      42.277  24.131  26.442  1.00  0.00     0.198 A 
ATOM     75  C   UNL A   1      43.713  25.912  25.716  1.00  0.00     0.198 A 
ATOM     76  F   UNL A   1      43.808  27.917  26.945  1.00  0.00    -0.203 F 
ATOM     77  F   UNL A   1      41.810  22.884  26.296  1.00  0.00    -0.200 F 
ATOM     78  C   UNL A   1      43.209  24.632  25.545  1.00  0.00     0.200 A 
ATOM     79  F   UNL A   1      44.605  26.404  24.847  1.00  0.00    -0.200 F 
ATOM     80  F   UNL A   1      43.626  23.878  24.518  1.00  0.00    -0.200 F 
ENDBRANCH  46  70
BRANCH  58  81
ATOM     81  C   UNL A   1      44.937  27.472  34.048  1.00  0.00     0.064 A 
ATOM     82  C   UNL A   1      44.895  26.337  34.871  1.00  0.00     0.173 A 
ATOM     83  C   UNL A   1      46.172  28.116  33.878  1.00  0.00     0.173 A 
ATOM     84  F   UNL A   1      43.735  25.695  35.078  1.00  0.00    -0.203 F 
ATOM     85  C   UNL A   1      46.041  25.880  35.518  1.00  0.00     0.198 A 
ATOM     86  C   UNL A   1      47.320  27.641  34.506  1.00  0.00     0.198 A 
ATOM     87  F   UNL A   1      46.265  29.202  33.096  1.00  0.00    -0.203 F 
ATOM     88  F   UNL A   1      45.969  24.820  36.336  1.00  0.00    -0.200 F 
ATOM     89  C   UNL A   1      47.253  26.529  35.330  1.00  0.00     0.200 A 
ATOM     90  F   UNL A   1      48.492  28.263  34.314  1.00  0.00    -0.200 F 
ATOM     91  F   UNL A   1      48.355  26.085  35.951  1.00  0.00    -0.200 F 
ENDBRANCH  58  81
ENDBRANCH  32  33
ENDBRANCH  25  27
ENDBRANCH  24  25
ENDBRANCH  23  24
ENDBRANCH   1  23
TORSDOF 15
ENDMDL
