MODEL 1
REMARK VINA RESULT:     -13.7      0.000      0.000
REMARK SMILES CC1(C)S[C@@H](c2cccc3c2sc2ccccc23)[NH2+][C@@H]1C(=O)OCCOC(=O)c1ccc(-c2c3nc(c(-c4c(F)c(F)c(F)c(F)c4F)c4ccc([nH]4)c(-c4c(F)c(F)c(F)c(F)c4F)c4nc(c(-c5c(F)c(F)c(F)c(F)c5F)c5ccc2[nH]5)C=C4)C=C3)cc1
REMARK SMILES IDX 25 1 24 2 23 3 21 4 22 5 20 6 1 7 2 8 3 9 4 10 5 11 19 12
REMARK SMILES IDX 6 15 7 16 11 17 8 18 10 19 12 20 9 21 18 22 13 23 17 24
REMARK SMILES IDX 14 25 16 26 15 27 26 28 27 29 28 30 29 31 30 32 91 33 31 34
REMARK SMILES IDX 90 35 32 36 33 37 34 38 84 39 35 40 89 41 83 42 85 43 36 44
REMARK SMILES IDX 88 45 82 46 81 47 37 49 69 50 49 51 68 52 50 53 53 54 67 55
REMARK SMILES IDX 86 56 51 57 52 58 66 60 87 61 54 62 38 63 39 64 47 65 40 66
REMARK SMILES IDX 41 67 45 68 48 69 42 70 43 71 46 72 44 73 70 74 71 75 79 76
REMARK SMILES IDX 72 77 73 78 77 79 80 80 74 81 75 82 78 83 76 84 55 85 56 86
REMARK SMILES IDX 64 87 57 88 58 89 62 90 65 91 59 92 60 93 63 94 61 95
REMARK H PARENT 19 13 19 14 85 48 53 59
REMARK Flexibility Score: inf
ROOT
ATOM      1  C   UNL A   1      31.836  29.724  25.895  1.00  0.00     0.275 C 
ENDROOT
BRANCH   1   2
ATOM      2  C   UNL A   1      31.725  28.445  26.734  1.00  0.00     0.274 C 
BRANCH   2   3
ATOM      3  O   UNL A   1      31.015  27.408  26.030  1.00  0.00    -0.458 OA
BRANCH   3   4
ATOM      4  C   UNL A   1      31.543  26.149  26.127  1.00  0.00     0.366 C 
ATOM      5  O   UNL A   1      31.053  25.267  26.819  1.00  0.00    -0.245 OA
BRANCH   4   6
ATOM      6  C   UNL A   1      32.752  25.982  25.173  1.00  0.00     0.310 C 
ATOM      7  C   UNL A   1      33.659  25.882  22.802  1.00  0.00     0.030 C 
ATOM      8  C   UNL A   1      32.460  25.531  23.712  1.00  0.00     0.079 C 
ATOM      9  C   UNL A   1      31.196  26.014  22.997  1.00  0.00     0.030 C 
ATOM     10  S   UNL A   1      32.342  23.725  23.866  1.00  0.00    -0.081 SA
ATOM     11  C   UNL A   1      33.237  23.671  25.448  1.00  0.00     0.276 C 
ATOM     12  N   UNL A   1      33.743  25.014  25.747  1.00  0.00    -0.319 N 
ATOM     13  H   UNL A   1      34.657  25.150  25.315  1.00  0.00     0.348 HD
ATOM     14  H   UNL A   1      33.852  25.152  26.751  1.00  0.00     0.348 HD
BRANCH  11  15
ATOM     15  C   UNL A   1      34.315  22.606  25.411  1.00  0.00     0.038 A 
ATOM     16  C   UNL A   1      35.684  22.952  25.521  1.00  0.00     0.012 A 
ATOM     17  C   UNL A   1      34.024  21.237  25.166  1.00  0.00     0.046 A 
ATOM     18  C   UNL A   1      36.696  22.030  25.316  1.00  0.00     0.001 A 
ATOM     19  C   UNL A   1      35.025  20.289  24.937  1.00  0.00     0.001 A 
ATOM     20  S   UNL A   1      32.466  20.503  25.089  1.00  0.00    -0.135 S 
ATOM     21  C   UNL A   1      36.377  20.714  25.001  1.00  0.00     0.010 A 
ATOM     22  C   UNL A   1      34.481  18.980  24.626  1.00  0.00     0.000 A 
ATOM     23  C   UNL A   1      33.091  18.961  24.706  1.00  0.00     0.036 A 
ATOM     24  C   UNL A   1      35.135  17.771  24.275  1.00  0.00     0.010 A 
ATOM     25  C   UNL A   1      32.345  17.788  24.480  1.00  0.00     0.019 A 
ATOM     26  C   UNL A   1      34.403  16.607  24.032  1.00  0.00     0.001 A 
ATOM     27  C   UNL A   1      33.020  16.615  24.142  1.00  0.00     0.002 A 
ENDBRANCH  11  15
ENDBRANCH   4   6
ENDBRANCH   3   4
ENDBRANCH   2   3
ENDBRANCH   1   2
BRANCH   1  28
ATOM     28  O   UNL A   1      33.153  30.307  25.960  1.00  0.00    -0.458 OA
BRANCH  28  29
ATOM     29  C   UNL A   1      33.298  31.287  26.885  1.00  0.00     0.338 C 
ATOM     30  O   UNL A   1      32.487  32.149  27.175  1.00  0.00    -0.246 OA
BRANCH  29  31
ATOM     31  C   UNL A   1      34.526  31.068  27.677  1.00  0.00     0.060 A 
ATOM     32  C   UNL A   1      34.750  29.769  28.142  1.00  0.00     0.016 A 
ATOM     33  C   UNL A   1      35.430  32.084  27.990  1.00  0.00     0.016 A 
ATOM     34  C   UNL A   1      35.905  29.461  28.852  1.00  0.00     0.010 A 
ATOM     35  C   UNL A   1      36.579  31.782  28.738  1.00  0.00     0.010 A 
ATOM     36  C   UNL A   1      36.831  30.462  29.150  1.00  0.00    -0.014 A 
BRANCH  36  37
ATOM     37  C   UNL A   1      37.996  30.107  29.991  1.00  0.00     0.031 A 
ATOM     38  C   UNL A   1      39.034  29.184  29.430  1.00  0.00     0.074 A 
ATOM     39  C   UNL A   1      38.181  30.683  31.192  1.00  0.00     0.049 A 
ATOM     40  N   UNL A   1      40.120  28.716  29.990  1.00  0.00    -0.248 NA
ATOM     41  C   UNL A   1      38.833  28.749  28.040  1.00  0.00     0.031 C 
ATOM     42  C   UNL A   1      37.310  31.695  31.787  1.00  0.00     0.029 A 
ATOM     43  N   UNL A   1      39.173  30.502  32.124  1.00  0.00    -0.354 N 
ATOM     44  C   UNL A   1      40.727  27.927  29.024  1.00  0.00     0.074 A 
ATOM     45  C   UNL A   1      39.890  27.976  27.844  1.00  0.00     0.031 C 
ATOM     46  C   UNL A   1      37.798  32.032  32.994  1.00  0.00     0.029 A 
ATOM     47  C   UNL A   1      38.984  31.226  33.275  1.00  0.00     0.049 A 
ATOM     48  H   UNL A   1      39.947  29.910  31.980  1.00  0.00     0.167 HD
ATOM     49  C   UNL A   1      41.877  27.219  29.118  1.00  0.00     0.037 A 
ATOM     50  C   UNL A   1      39.672  31.205  34.435  1.00  0.00     0.037 A 
ATOM     51  C   UNL A   1      42.692  27.154  30.302  1.00  0.00     0.049 A 
ATOM     52  C   UNL A   1      40.870  30.295  34.564  1.00  0.00     0.074 A 
ATOM     53  C   UNL A   1      43.854  26.434  30.510  1.00  0.00     0.029 A 
ATOM     54  N   UNL A   1      42.421  27.828  31.484  1.00  0.00    -0.354 N 
ATOM     55  N   UNL A   1      41.427  29.523  33.661  1.00  0.00    -0.248 NA
ATOM     56  C   UNL A   1      41.530  30.246  35.877  1.00  0.00     0.031 C 
ATOM     57  C   UNL A   1      44.252  26.622  31.837  1.00  0.00     0.029 A 
ATOM     58  C   UNL A   1      43.378  27.514  32.436  1.00  0.00     0.049 A 
ATOM     59  H   UNL A   1      41.662  28.439  31.625  1.00  0.00     0.167 HD
ATOM     60  C   UNL A   1      42.515  28.926  34.285  1.00  0.00     0.074 A 
ATOM     61  C   UNL A   1      42.550  29.433  35.639  1.00  0.00     0.031 C 
ATOM     62  C   UNL A   1      43.408  28.038  33.779  1.00  0.00     0.037 A 
BRANCH  49  63
ATOM     63  C   UNL A   1      42.275  26.399  27.927  1.00  0.00     0.064 A 
ATOM     64  C   UNL A   1      41.749  25.119  27.697  1.00  0.00     0.173 A 
ATOM     65  C   UNL A   1      43.195  26.909  27.000  1.00  0.00     0.173 A 
ATOM     66  F   UNL A   1      40.884  24.577  28.567  1.00  0.00    -0.203 F 
ATOM     67  C   UNL A   1      42.153  24.370  26.594  1.00  0.00     0.198 A 
ATOM     68  C   UNL A   1      43.573  26.170  25.883  1.00  0.00     0.198 A 
ATOM     69  F   UNL A   1      43.728  28.128  27.177  1.00  0.00    -0.203 F 
ATOM     70  F   UNL A   1      41.681  23.127  26.422  1.00  0.00    -0.200 F 
ATOM     71  C   UNL A   1      43.058  24.898  25.686  1.00  0.00     0.200 A 
ATOM     72  F   UNL A   1      44.440  26.686  25.002  1.00  0.00    -0.200 F 
ATOM     73  F   UNL A   1      43.444  24.176  24.625  1.00  0.00    -0.200 F 
ENDBRANCH  49  63
BRANCH  50  74
ATOM     74  C   UNL A   1      39.221  32.024  35.594  1.00  0.00     0.064 A 
ATOM     75  C   UNL A   1      39.722  33.314  35.817  1.00  0.00     0.173 A 
ATOM     76  C   UNL A   1      38.318  31.507  36.538  1.00  0.00     0.173 A 
ATOM     77  F   UNL A   1      40.614  33.841  34.967  1.00  0.00    -0.203 F 
ATOM     78  C   UNL A   1      39.359  34.043  36.950  1.00  0.00     0.198 A 
ATOM     79  C   UNL A   1      37.929  32.250  37.649  1.00  0.00     0.198 A 
ATOM     80  F   UNL A   1      37.816  30.273  36.381  1.00  0.00    -0.203 F 
ATOM     81  F   UNL A   1      39.905  35.247  37.171  1.00  0.00    -0.200 F 
ATOM     82  C   UNL A   1      38.459  33.513  37.862  1.00  0.00     0.200 A 
ATOM     83  F   UNL A   1      37.055  31.734  38.525  1.00  0.00    -0.200 F 
ATOM     84  F   UNL A   1      38.117  34.211  38.952  1.00  0.00    -0.200 F 
ENDBRANCH  50  74
BRANCH  62  85
ATOM     85  C   UNL A   1      44.530  27.590  34.675  1.00  0.00     0.064 A 
ATOM     86  C   UNL A   1      45.733  28.303  34.772  1.00  0.00     0.173 A 
ATOM     87  C   UNL A   1      44.371  26.459  35.492  1.00  0.00     0.173 A 
ATOM     88  F   UNL A   1      45.941  29.383  34.004  1.00  0.00    -0.203 F 
ATOM     89  C   UNL A   1      46.744  27.889  35.635  1.00  0.00     0.198 A 
ATOM     90  C   UNL A   1      45.369  26.067  36.379  1.00  0.00     0.198 A 
ATOM     91  F   UNL A   1      43.236  25.744  35.445  1.00  0.00    -0.203 F 
ATOM     92  F   UNL A   1      47.904  28.559  35.677  1.00  0.00    -0.200 F 
ATOM     93  C   UNL A   1      46.558  26.777  36.444  1.00  0.00     0.200 A 
ATOM     94  F   UNL A   1      45.179  25.004  37.173  1.00  0.00    -0.200 F 
ATOM     95  F   UNL A   1      47.526  26.389  37.286  1.00  0.00    -0.200 F 
ENDBRANCH  62  85
ENDBRANCH  36  37
ENDBRANCH  29  31
ENDBRANCH  28  29
ENDBRANCH   1  28
TORSDOF 12
ENDMDL
MODEL 2
REMARK VINA RESULT:     -13.6      0.161      1.583
REMARK SMILES CC1(C)S[C@@H](c2cccc3c2sc2ccccc23)[NH2+][C@@H]1C(=O)OCCOC(=O)c1ccc(-c2c3nc(c(-c4c(F)c(F)c(F)c(F)c4F)c4ccc([nH]4)c(-c4c(F)c(F)c(F)c(F)c4F)c4nc(c(-c5c(F)c(F)c(F)c(F)c5F)c5ccc2[nH]5)C=C4)C=C3)cc1
REMARK SMILES IDX 25 1 24 2 23 3 21 4 22 5 20 6 1 7 2 8 3 9 4 10 5 11 19 12
REMARK SMILES IDX 6 15 7 16 11 17 8 18 10 19 12 20 9 21 18 22 13 23 17 24
REMARK SMILES IDX 14 25 16 26 15 27 26 28 27 29 28 30 29 31 30 32 91 33 31 34
REMARK SMILES IDX 90 35 32 36 33 37 34 38 84 39 35 40 89 41 83 42 85 43 36 44
REMARK SMILES IDX 88 45 82 46 81 47 37 49 69 50 49 51 68 52 50 53 53 54 67 55
REMARK SMILES IDX 86 56 51 57 52 58 66 60 87 61 54 62 38 63 39 64 47 65 40 66
REMARK SMILES IDX 41 67 45 68 48 69 42 70 43 71 46 72 44 73 70 74 71 75 79 76
REMARK SMILES IDX 72 77 73 78 77 79 80 80 74 81 75 82 78 83 76 84 55 85 56 86
REMARK SMILES IDX 64 87 57 88 58 89 62 90 65 91 59 92 60 93 63 94 61 95
REMARK H PARENT 19 13 19 14 85 48 53 59
REMARK Flexibility Score: inf
ROOT
ATOM      1  C   UNL A   1      31.835  29.578  25.980  1.00  0.00     0.275 C 
ENDROOT
BRANCH   1   2
ATOM      2  C   UNL A   1      31.777  28.274  26.785  1.00  0.00     0.274 C 
BRANCH   2   3
ATOM      3  O   UNL A   1      30.806  27.359  26.245  1.00  0.00    -0.458 OA
BRANCH   3   4
ATOM      4  C   UNL A   1      31.224  26.064  26.091  1.00  0.00     0.366 C 
ATOM      5  O   UNL A   1      30.592  25.101  26.501  1.00  0.00    -0.245 OA
BRANCH   4   6
ATOM      6  C   UNL A   1      32.523  26.000  25.249  1.00  0.00     0.310 C 
ATOM      7  C   UNL A   1      33.654  26.112  22.978  1.00  0.00     0.030 C 
ATOM      8  C   UNL A   1      32.385  25.663  23.736  1.00  0.00     0.079 C 
ATOM      9  C   UNL A   1      31.182  26.177  22.941  1.00  0.00     0.030 C 
ATOM     10  S   UNL A   1      32.303  23.849  23.734  1.00  0.00    -0.081 SA
ATOM     11  C   UNL A   1      33.044  23.685  25.387  1.00  0.00     0.276 C 
ATOM     12  N   UNL A   1      33.481  25.009  25.838  1.00  0.00    -0.319 N 
ATOM     13  H   UNL A   1      34.429  25.199  25.510  1.00  0.00     0.348 HD
ATOM     14  H   UNL A   1      33.490  25.067  26.856  1.00  0.00     0.348 HD
BRANCH  11  15
ATOM     15  C   UNL A   1      34.150  22.649  25.371  1.00  0.00     0.038 A 
ATOM     16  C   UNL A   1      35.508  23.032  25.490  1.00  0.00     0.012 A 
ATOM     17  C   UNL A   1      33.897  21.269  25.138  1.00  0.00     0.046 A 
ATOM     18  C   UNL A   1      36.547  22.135  25.304  1.00  0.00     0.001 A 
ATOM     19  C   UNL A   1      34.926  20.346  24.928  1.00  0.00     0.001 A 
ATOM     20  S   UNL A   1      32.361  20.494  25.055  1.00  0.00    -0.135 S 
ATOM     21  C   UNL A   1      36.265  20.808  25.000  1.00  0.00     0.010 A 
ATOM     22  C   UNL A   1      34.419  19.020  24.627  1.00  0.00     0.000 A 
ATOM     23  C   UNL A   1      33.029  18.965  24.694  1.00  0.00     0.036 A 
ATOM     24  C   UNL A   1      35.109  17.826  24.294  1.00  0.00     0.010 A 
ATOM     25  C   UNL A   1      32.317  17.771  24.473  1.00  0.00     0.019 A 
ATOM     26  C   UNL A   1      34.409  16.640  24.057  1.00  0.00     0.001 A 
ATOM     27  C   UNL A   1      33.026  16.613  24.154  1.00  0.00     0.002 A 
ENDBRANCH  11  15
ENDBRANCH   4   6
ENDBRANCH   3   4
ENDBRANCH   2   3
ENDBRANCH   1   2
BRANCH   1  28
ATOM     28  O   UNL A   1      33.151  30.168  25.989  1.00  0.00    -0.458 OA
BRANCH  28  29
ATOM     29  C   UNL A   1      33.316  31.179  26.876  1.00  0.00     0.338 C 
ATOM     30  O   UNL A   1      32.521  32.064  27.139  1.00  0.00    -0.246 OA
BRANCH  29  31
ATOM     31  C   UNL A   1      34.545  30.968  27.670  1.00  0.00     0.060 A 
ATOM     32  C   UNL A   1      34.746  29.687  28.190  1.00  0.00     0.016 A 
ATOM     33  C   UNL A   1      35.473  31.979  27.933  1.00  0.00     0.016 A 
ATOM     34  C   UNL A   1      35.900  29.386  28.905  1.00  0.00     0.010 A 
ATOM     35  C   UNL A   1      36.620  31.685  28.686  1.00  0.00     0.010 A 
ATOM     36  C   UNL A   1      36.848  30.380  29.153  1.00  0.00    -0.014 A 
BRANCH  36  37
ATOM     37  C   UNL A   1      38.012  30.038  30.001  1.00  0.00     0.031 A 
ATOM     38  C   UNL A   1      39.075  29.144  29.440  1.00  0.00     0.074 A 
ATOM     39  C   UNL A   1      38.172  30.601  31.213  1.00  0.00     0.049 A 
ATOM     40  N   UNL A   1      40.164  28.691  30.004  1.00  0.00    -0.248 NA
ATOM     41  C   UNL A   1      38.896  28.724  28.041  1.00  0.00     0.031 C 
ATOM     42  C   UNL A   1      37.274  31.587  31.812  1.00  0.00     0.029 A 
ATOM     43  N   UNL A   1      39.159  30.428  32.152  1.00  0.00    -0.354 N 
ATOM     44  C   UNL A   1      40.797  27.928  29.034  1.00  0.00     0.074 A 
ATOM     45  C   UNL A   1      39.972  27.976  27.846  1.00  0.00     0.031 C 
ATOM     46  C   UNL A   1      37.742  31.917  33.029  1.00  0.00     0.029 A 
ATOM     47  C   UNL A   1      38.943  31.132  33.311  1.00  0.00     0.049 A 
ATOM     48  H   UNL A   1      39.945  29.854  32.008  1.00  0.00     0.167 HD
ATOM     49  C   UNL A   1      41.961  27.243  29.131  1.00  0.00     0.037 A 
ATOM     50  C   UNL A   1      39.618  31.110  34.478  1.00  0.00     0.037 A 
ATOM     51  C   UNL A   1      42.765  27.179  30.322  1.00  0.00     0.049 A 
ATOM     52  C   UNL A   1      40.834  30.223  34.606  1.00  0.00     0.074 A 
ATOM     53  C   UNL A   1      43.939  26.481  30.533  1.00  0.00     0.029 A 
ATOM     54  N   UNL A   1      42.468  27.831  31.510  1.00  0.00    -0.354 N 
ATOM     55  N   UNL A   1      41.416  29.475  33.700  1.00  0.00    -0.248 NA
ATOM     56  C   UNL A   1      41.481  30.169  35.926  1.00  0.00     0.031 C 
ATOM     57  C   UNL A   1      44.320  26.658  31.867  1.00  0.00     0.029 A 
ATOM     58  C   UNL A   1      43.421  27.524  32.469  1.00  0.00     0.049 A 
ATOM     59  H   UNL A   1      41.695  28.424  31.651  1.00  0.00     0.167 HD
ATOM     60  C   UNL A   1      42.510  28.892  34.326  1.00  0.00     0.074 A 
ATOM     61  C   UNL A   1      42.520  29.381  35.688  1.00  0.00     0.031 C 
ATOM     62  C   UNL A   1      43.427  28.030  33.819  1.00  0.00     0.037 A 
BRANCH  49  63
ATOM     63  C   UNL A   1      42.388  26.447  27.934  1.00  0.00     0.064 A 
ATOM     64  C   UNL A   1      43.306  26.946  26.998  1.00  0.00     0.173 A 
ATOM     65  C   UNL A   1      41.870  25.160  27.725  1.00  0.00     0.173 A 
ATOM     66  F   UNL A   1      43.812  28.181  27.141  1.00  0.00    -0.203 F 
ATOM     67  C   UNL A   1      43.668  26.195  25.883  1.00  0.00     0.198 A 
ATOM     68  C   UNL A   1      42.257  24.401  26.626  1.00  0.00     0.198 A 
ATOM     69  F   UNL A   1      40.987  24.639  28.590  1.00  0.00    -0.203 F 
ATOM     70  F   UNL A   1      44.504  26.712  24.972  1.00  0.00    -0.200 F 
ATOM     71  C   UNL A   1      43.149  24.921  25.701  1.00  0.00     0.200 A 
ATOM     72  F   UNL A   1      41.762  23.167  26.458  1.00  0.00    -0.200 F 
ATOM     73  F   UNL A   1      43.501  24.200  24.629  1.00  0.00    -0.200 F 
ENDBRANCH  49  63
BRANCH  50  74
ATOM     74  C   UNL A   1      39.139  31.903  35.643  1.00  0.00     0.064 A 
ATOM     75  C   UNL A   1      39.572  33.218  35.860  1.00  0.00     0.173 A 
ATOM     76  C   UNL A   1      38.277  31.338  36.597  1.00  0.00     0.173 A 
ATOM     77  F   UNL A   1      40.423  33.793  34.998  1.00  0.00    -0.203 F 
ATOM     78  C   UNL A   1      39.184  33.927  36.997  1.00  0.00     0.198 A 
ATOM     79  C   UNL A   1      37.863  32.059  37.714  1.00  0.00     0.198 A 
ATOM     80  F   UNL A   1      37.841  30.079  36.446  1.00  0.00    -0.203 F 
ATOM     81  F   UNL A   1      39.667  35.159  37.213  1.00  0.00    -0.200 F 
ATOM     82  C   UNL A   1      38.326  33.349  37.921  1.00  0.00     0.200 A 
ATOM     83  F   UNL A   1      37.029  31.497  38.601  1.00  0.00    -0.200 F 
ATOM     84  F   UNL A   1      37.961  34.028  39.016  1.00  0.00    -0.200 F 
ENDBRANCH  50  74
BRANCH  62  85
ATOM     85  C   UNL A   1      44.548  27.593  34.720  1.00  0.00     0.064 A 
ATOM     86  C   UNL A   1      44.462  26.432  35.502  1.00  0.00     0.173 A 
ATOM     87  C   UNL A   1      45.750  28.317  34.753  1.00  0.00     0.173 A 
ATOM     88  F   UNL A   1      43.332  25.710  35.517  1.00  0.00    -0.203 F 
ATOM     89  C   UNL A   1      45.528  26.027  36.302  1.00  0.00     0.198 A 
ATOM     90  C   UNL A   1      46.826  27.891  35.526  1.00  0.00     0.198 A 
ATOM     91  F   UNL A   1      45.890  29.432  34.017  1.00  0.00    -0.203 F 
ATOM     92  F   UNL A   1      45.407  24.940  37.077  1.00  0.00    -0.200 F 
ATOM     93  C   UNL A   1      46.711  26.751  36.306  1.00  0.00     0.200 A 
ATOM     94  F   UNL A   1      47.974  28.582  35.513  1.00  0.00    -0.200 F 
ATOM     95  F   UNL A   1      47.742  26.351  37.064  1.00  0.00    -0.200 F 
ENDBRANCH  62  85
ENDBRANCH  36  37
ENDBRANCH  29  31
ENDBRANCH  28  29
ENDBRANCH   1  28
TORSDOF 12
ENDMDL
MODEL 3
REMARK VINA RESULT:     -13.5      2.969      7.850
REMARK SMILES CC1(C)S[C@@H](c2cccc3c2sc2ccccc23)[NH2+][C@@H]1C(=O)OCCOC(=O)c1ccc(-c2c3nc(c(-c4c(F)c(F)c(F)c(F)c4F)c4ccc([nH]4)c(-c4c(F)c(F)c(F)c(F)c4F)c4nc(c(-c5c(F)c(F)c(F)c(F)c5F)c5ccc2[nH]5)C=C4)C=C3)cc1
REMARK SMILES IDX 25 1 24 2 23 3 21 4 22 5 20 6 1 7 2 8 3 9 4 10 5 11 19 12
REMARK SMILES IDX 6 15 7 16 11 17 8 18 10 19 12 20 9 21 18 22 13 23 17 24
REMARK SMILES IDX 14 25 16 26 15 27 26 28 27 29 28 30 29 31 30 32 91 33 31 34
REMARK SMILES IDX 90 35 32 36 33 37 34 38 84 39 35 40 89 41 83 42 85 43 36 44
REMARK SMILES IDX 88 45 82 46 81 47 37 49 69 50 49 51 68 52 50 53 53 54 67 55
REMARK SMILES IDX 86 56 51 57 52 58 66 60 87 61 54 62 38 63 39 64 47 65 40 66
REMARK SMILES IDX 41 67 45 68 48 69 42 70 43 71 46 72 44 73 70 74 71 75 79 76
REMARK SMILES IDX 72 77 73 78 77 79 80 80 74 81 75 82 78 83 76 84 55 85 56 86
REMARK SMILES IDX 64 87 57 88 58 89 62 90 65 91 59 92 60 93 63 94 61 95
REMARK H PARENT 19 13 19 14 85 48 53 59
REMARK Flexibility Score: inf
ROOT
ATOM      1  C   UNL A   1      32.424  29.458  27.200  1.00  0.00     0.275 C 
ENDROOT
BRANCH   1   2
ATOM      2  C   UNL A   1      31.773  28.400  26.300  1.00  0.00     0.274 C 
BRANCH   2   3
ATOM      3  O   UNL A   1      31.333  27.257  27.058  1.00  0.00    -0.458 OA
BRANCH   3   4
ATOM      4  C   UNL A   1      31.402  26.050  26.415  1.00  0.00     0.366 C 
ATOM      5  O   UNL A   1      30.536  25.191  26.504  1.00  0.00    -0.245 OA
BRANCH   4   6
ATOM      6  C   UNL A   1      32.651  25.982  25.501  1.00  0.00     0.310 C 
ATOM      7  C   UNL A   1      33.653  26.104  23.170  1.00  0.00     0.030 C 
ATOM      8  C   UNL A   1      32.425  25.659  23.996  1.00  0.00     0.079 C 
ATOM      9  C   UNL A   1      31.183  26.189  23.274  1.00  0.00     0.030 C 
ATOM     10  S   UNL A   1      32.328  23.846  23.984  1.00  0.00    -0.081 SA
ATOM     11  C   UNL A   1      33.160  23.662  25.591  1.00  0.00     0.276 C 
ATOM     12  N   UNL A   1      33.633  24.979  26.027  1.00  0.00    -0.319 N 
ATOM     13  H   UNL A   1      34.562  25.163  25.647  1.00  0.00     0.348 HD
ATOM     14  H   UNL A   1      33.700  25.028  27.043  1.00  0.00     0.348 HD
BRANCH  11  15
ATOM     15  C   UNL A   1      34.254  22.617  25.505  1.00  0.00     0.038 A 
ATOM     16  C   UNL A   1      35.619  22.985  25.586  1.00  0.00     0.012 A 
ATOM     17  C   UNL A   1      33.980  21.248  25.241  1.00  0.00     0.046 A 
ATOM     18  C   UNL A   1      36.642  22.085  25.335  1.00  0.00     0.001 A 
ATOM     19  C   UNL A   1      34.991  20.322  24.966  1.00  0.00     0.001 A 
ATOM     20  S   UNL A   1      32.434  20.488  25.190  1.00  0.00    -0.135 S 
ATOM     21  C   UNL A   1      36.336  20.769  25.003  1.00  0.00     0.010 A 
ATOM     22  C   UNL A   1      34.461  19.010  24.644  1.00  0.00     0.000 A 
ATOM     23  C   UNL A   1      33.074  18.965  24.760  1.00  0.00     0.036 A 
ATOM     24  C   UNL A   1      35.126  17.820  24.252  1.00  0.00     0.010 A 
ATOM     25  C   UNL A   1      32.343  17.784  24.530  1.00  0.00     0.019 A 
ATOM     26  C   UNL A   1      34.408  16.648  24.005  1.00  0.00     0.001 A 
ATOM     27  C   UNL A   1      33.028  16.630  24.152  1.00  0.00     0.002 A 
ENDBRANCH  11  15
ENDBRANCH   4   6
ENDBRANCH   3   4
ENDBRANCH   2   3
ENDBRANCH   1   2
BRANCH   1  28
ATOM     28  O   UNL A   1      33.828  29.210  27.408  1.00  0.00    -0.458 OA
BRANCH  28  29
ATOM     29  C   UNL A   1      34.551  30.297  27.775  1.00  0.00     0.338 C 
ATOM     30  O   UNL A   1      34.147  31.439  27.905  1.00  0.00    -0.246 OA
BRANCH  29  31
ATOM     31  C   UNL A   1      35.904  29.890  28.209  1.00  0.00     0.060 A 
ATOM     32  C   UNL A   1      36.931  30.015  27.269  1.00  0.00     0.016 A 
ATOM     33  C   UNL A   1      36.182  29.377  29.478  1.00  0.00     0.016 A 
ATOM     34  C   UNL A   1      38.242  29.703  27.607  1.00  0.00     0.010 A 
ATOM     35  C   UNL A   1      37.500  29.028  29.809  1.00  0.00     0.010 A 
ATOM     36  C   UNL A   1      38.539  29.214  28.881  1.00  0.00    -0.014 A 
BRANCH  36  37
ATOM     37  C   UNL A   1      39.933  28.805  29.164  1.00  0.00     0.031 A 
ATOM     38  C   UNL A   1      40.797  29.711  29.985  1.00  0.00     0.074 A 
ATOM     39  C   UNL A   1      40.386  27.596  28.787  1.00  0.00     0.049 A 
ATOM     40  N   UNL A   1      42.049  29.573  30.336  1.00  0.00    -0.248 NA
ATOM     41  C   UNL A   1      40.153  30.929  30.502  1.00  0.00     0.031 C 
ATOM     42  C   UNL A   1      39.599  26.573  28.100  1.00  0.00     0.029 A 
ATOM     43  N   UNL A   1      41.624  27.021  28.942  1.00  0.00    -0.354 N 
ATOM     44  C   UNL A   1      42.346  30.687  31.108  1.00  0.00     0.074 A 
ATOM     45  C   UNL A   1      41.145  31.493  31.174  1.00  0.00     0.031 C 
ATOM     46  C   UNL A   1      40.380  25.502  27.875  1.00  0.00     0.029 A 
ATOM     47  C   UNL A   1      41.731  25.782  28.358  1.00  0.00     0.049 A 
ATOM     48  H   UNL A   1      42.363  27.455  29.425  1.00  0.00     0.167 HD
ATOM     49  C   UNL A   1      43.518  31.010  31.702  1.00  0.00     0.037 A 
ATOM     50  C   UNL A   1      42.809  24.988  28.200  1.00  0.00     0.037 A 
ATOM     51  C   UNL A   1      44.715  30.217  31.613  1.00  0.00     0.049 A 
ATOM     52  C   UNL A   1      44.141  25.441  28.748  1.00  0.00     0.074 A 
ATOM     53  C   UNL A   1      45.964  30.478  32.147  1.00  0.00     0.029 A 
ATOM     54  N   UNL A   1      44.814  29.011  30.934  1.00  0.00    -0.354 N 
ATOM     55  N   UNL A   1      44.431  26.510  29.451  1.00  0.00    -0.248 NA
ATOM     56  C   UNL A   1      45.301  24.580  28.471  1.00  0.00     0.031 C 
ATOM     57  C   UNL A   1      46.834  29.462  31.738  1.00  0.00     0.029 A 
ATOM     58  C   UNL A   1      46.112  28.532  31.008  1.00  0.00     0.049 A 
ATOM     59  H   UNL A   1      44.071  28.562  30.469  1.00  0.00     0.167 HD
ATOM     60  C   UNL A   1      45.790  26.433  29.727  1.00  0.00     0.074 A 
ATOM     61  C   UNL A   1      46.268  25.206  29.127  1.00  0.00     0.031 C 
ATOM     62  C   UNL A   1      46.572  27.300  30.417  1.00  0.00     0.037 A 
BRANCH  49  63
ATOM     63  C   UNL A   1      43.576  32.316  32.436  1.00  0.00     0.064 A 
ATOM     64  C   UNL A   1      43.897  33.519  31.790  1.00  0.00     0.173 A 
ATOM     65  C   UNL A   1      43.299  32.361  33.811  1.00  0.00     0.173 A 
ATOM     66  F   UNL A   1      44.192  33.525  30.482  1.00  0.00    -0.203 F 
ATOM     67  C   UNL A   1      43.965  34.715  32.501  1.00  0.00     0.198 A 
ATOM     68  C   UNL A   1      43.338  33.563  34.511  1.00  0.00     0.198 A 
ATOM     69  F   UNL A   1      42.989  31.237  34.475  1.00  0.00    -0.203 F 
ATOM     70  F   UNL A   1      44.328  35.844  31.876  1.00  0.00    -0.200 F 
ATOM     71  C   UNL A   1      43.679  34.737  33.858  1.00  0.00     0.200 A 
ATOM     72  F   UNL A   1      43.052  33.583  35.820  1.00  0.00    -0.200 F 
ATOM     73  F   UNL A   1      43.744  35.889  34.539  1.00  0.00    -0.200 F 
ENDBRANCH  49  63
BRANCH  50  74
ATOM     74  C   UNL A   1      42.701  23.711  27.443  1.00  0.00     0.064 A 
ATOM     75  C   UNL A   1      42.260  22.531  28.060  1.00  0.00     0.173 A 
ATOM     76  C   UNL A   1      43.094  23.632  26.097  1.00  0.00     0.173 A 
ATOM     77  F   UNL A   1      41.907  22.544  29.353  1.00  0.00    -0.203 F 
ATOM     78  C   UNL A   1      42.240  21.320  27.368  1.00  0.00     0.198 A 
ATOM     79  C   UNL A   1      43.040  22.428  25.398  1.00  0.00     0.198 A 
ATOM     80  F   UNL A   1      43.536  24.726  25.461  1.00  0.00    -0.203 F 
ATOM     81  F   UNL A   1      41.875  20.196  28.001  1.00  0.00    -0.200 F 
ATOM     82  C   UNL A   1      42.625  21.271  26.037  1.00  0.00     0.200 A 
ATOM     83  F   UNL A   1      43.409  22.388  24.110  1.00  0.00    -0.200 F 
ATOM     84  F   UNL A   1      42.612  20.106  25.376  1.00  0.00    -0.200 F 
ENDBRANCH  50  74
BRANCH  62  85
ATOM     85  C   UNL A   1      48.019  26.936  30.607  1.00  0.00     0.064 A 
ATOM     86  C   UNL A   1      48.450  26.142  31.679  1.00  0.00     0.173 A 
ATOM     87  C   UNL A   1      48.978  27.343  29.666  1.00  0.00     0.173 A 
ATOM     88  F   UNL A   1      47.577  25.737  32.613  1.00  0.00    -0.203 F 
ATOM     89  C   UNL A   1      49.790  25.788  31.814  1.00  0.00     0.198 A 
ATOM     90  C   UNL A   1      50.310  26.958  29.785  1.00  0.00     0.198 A 
ATOM     91  F   UNL A   1      48.618  28.097  28.615  1.00  0.00    -0.203 F 
ATOM     92  F   UNL A   1      50.187  25.066  32.872  1.00  0.00    -0.200 F 
ATOM     93  C   UNL A   1      50.717  26.188  30.863  1.00  0.00     0.200 A 
ATOM     94  F   UNL A   1      51.199  27.330  28.853  1.00  0.00    -0.200 F 
ATOM     95  F   UNL A   1      52.004  25.833  30.987  1.00  0.00    -0.200 F 
ENDBRANCH  62  85
ENDBRANCH  36  37
ENDBRANCH  29  31
ENDBRANCH  28  29
ENDBRANCH   1  28
TORSDOF 12
ENDMDL
