MODEL 1
REMARK VINA RESULT:     -12.4      0.000      0.000
REMARK SMILES Cc1ccc(Cl)cc1S(=O)(=O)N1CC[C@@H](C(=O)OCCOC(=O)c2ccc(-c3c4nc(c(-c5c(F)c(F)c(F)c(F)c5F)c5ccc([nH]5)c(-c5c(F)c(F)c(F)c(F)c5F)c5nc(c(-c6c(F)c(F)c(F)c(F)c6F)c6ccc3[nH]6)C=C5)C=C4)cc2)[C@@H]1C
REMARK SMILES IDX 19 1 18 2 16 3 17 4 15 5 12 6 13 7 87 8 14 9 88 10 9 11
REMARK SMILES IDX 10 12 11 13 8 14 1 15 2 16 3 17 4 18 7 19 5 20 6 21 20 22
REMARK SMILES IDX 21 23 22 24 23 25 24 26 25 27 86 28 26 29 85 30 27 31 28 32
REMARK SMILES IDX 29 33 79 34 30 35 84 36 78 37 80 38 31 39 83 40 77 41 76 42
REMARK SMILES IDX 32 44 64 45 44 46 63 47 45 48 48 49 62 50 81 51 46 52 47 53
REMARK SMILES IDX 61 55 82 56 49 57 33 58 34 59 42 60 35 61 36 62 40 63 43 64
REMARK SMILES IDX 37 65 38 66 41 67 39 68 65 69 66 70 74 71 67 72 68 73 72 74
REMARK SMILES IDX 75 75 69 76 70 77 73 78 71 79 50 80 51 81 59 82 52 83 53 84
REMARK SMILES IDX 57 85 60 86 54 87 55 88 58 89 56 90
REMARK H PARENT 80 43 48 54
REMARK Flexibility Score: inf
ROOT
ATOM      1  C   UNL A   1      31.418  29.024  25.336  1.00  0.00     0.274 C 
ENDROOT
BRANCH   1   2
ATOM      2  O   UNL A   1      31.543  28.962  23.902  1.00  0.00    -0.462 OA
BRANCH   2   3
ATOM      3  C   UNL A   1      32.570  28.260  23.365  1.00  0.00     0.310 C 
ATOM      4  O   UNL A   1      33.756  28.502  23.562  1.00  0.00    -0.252 OA
BRANCH   3   5
ATOM      5  C   UNL A   1      32.092  27.034  22.600  1.00  0.00     0.118 C 
ATOM      6  N   UNL A   1      32.111  25.154  23.963  1.00  0.00    -0.194 NA
ATOM      7  C   UNL A   1      30.685  25.359  23.710  1.00  0.00     0.104 C 
ATOM      8  C   UNL A   1      32.899  25.776  22.893  1.00  0.00     0.084 C 
ATOM      9  C   UNL A   1      30.629  26.654  22.895  1.00  0.00     0.034 C 
ATOM     10  C   UNL A   1      32.918  24.883  21.643  1.00  0.00     0.027 C 
BRANCH   6  11
ATOM     11  S   UNL A   1      32.741  24.710  25.443  1.00  0.00     0.243 S 
ATOM     12  O   UNL A   1      31.672  23.984  26.094  1.00  0.00    -0.207 OA
ATOM     13  O   UNL A   1      33.315  25.893  26.057  1.00  0.00    -0.207 OA
BRANCH  11  14
ATOM     14  C   UNL A   1      34.104  23.528  25.285  1.00  0.00     0.087 A 
ATOM     15  C   UNL A   1      32.979  21.669  23.855  1.00  0.00     0.046 C 
ATOM     16  C   UNL A   1      34.090  22.269  24.653  1.00  0.00    -0.031 A 
ATOM     17  C   UNL A   1      35.281  21.503  24.622  1.00  0.00     0.006 A 
ATOM     18  C   UNL A   1      36.484  22.001  25.110  1.00  0.00     0.021 A 
ATOM     19  C   UNL A   1      35.341  24.021  25.761  1.00  0.00     0.042 A 
ATOM     20  C   UNL A   1      36.514  23.276  25.647  1.00  0.00     0.042 A 
ATOM     21  Cl  UNL A   1      38.018  23.953  26.134  1.00  0.00    -0.084 Cl
ENDBRANCH  11  14
ENDBRANCH   6  11
ENDBRANCH   3   5
ENDBRANCH   2   3
ENDBRANCH   1   2
BRANCH   1  22
ATOM     22  C   UNL A   1      31.752  30.438  25.817  1.00  0.00     0.275 C 
BRANCH  22  23
ATOM     23  O   UNL A   1      32.625  30.387  26.962  1.00  0.00    -0.458 OA
BRANCH  23  24
ATOM     24  C   UNL A   1      33.262  31.546  27.233  1.00  0.00     0.338 C 
ATOM     25  O   UNL A   1      32.800  32.673  27.253  1.00  0.00    -0.246 OA
BRANCH  24  26
ATOM     26  C   UNL A   1      34.617  31.260  27.708  1.00  0.00     0.060 A 
ATOM     27  C   UNL A   1      34.917  29.937  28.027  1.00  0.00     0.016 A 
ATOM     28  C   UNL A   1      35.514  32.281  28.002  1.00  0.00     0.016 A 
ATOM     29  C   UNL A   1      36.041  29.631  28.766  1.00  0.00     0.010 A 
ATOM     30  C   UNL A   1      36.711  31.956  28.644  1.00  0.00     0.010 A 
ATOM     31  C   UNL A   1      36.961  30.635  29.064  1.00  0.00    -0.014 A 
BRANCH  31  32
ATOM     32  C   UNL A   1      38.162  30.287  29.851  1.00  0.00     0.031 A 
ATOM     33  C   UNL A   1      39.197  29.387  29.249  1.00  0.00     0.074 A 
ATOM     34  C   UNL A   1      38.323  30.815  31.080  1.00  0.00     0.049 A 
ATOM     35  N   UNL A   1      40.226  28.816  29.818  1.00  0.00    -0.248 NA
ATOM     36  C   UNL A   1      39.051  29.075  27.816  1.00  0.00     0.031 C 
ATOM     37  C   UNL A   1      37.415  31.772  31.720  1.00  0.00     0.029 A 
ATOM     38  N   UNL A   1      39.309  30.625  32.011  1.00  0.00    -0.354 N 
ATOM     39  C   UNL A   1      40.811  28.032  28.832  1.00  0.00     0.074 A 
ATOM     40  C   UNL A   1      40.030  28.202  27.627  1.00  0.00     0.031 C 
ATOM     41  C   UNL A   1      37.893  32.096  32.930  1.00  0.00     0.029 A 
ATOM     42  C   UNL A   1      39.084  31.297  33.188  1.00  0.00     0.049 A 
ATOM     43  H   UNL A   1      40.101  30.061  31.854  1.00  0.00     0.167 HD
ATOM     44  C   UNL A   1      41.899  27.237  28.943  1.00  0.00     0.037 A 
ATOM     45  C   UNL A   1      39.734  31.227  34.363  1.00  0.00     0.037 A 
ATOM     46  C   UNL A   1      42.683  27.128  30.145  1.00  0.00     0.049 A 
ATOM     47  C   UNL A   1      40.902  30.287  34.470  1.00  0.00     0.074 A 
ATOM     48  C   UNL A   1      43.821  26.375  30.368  1.00  0.00     0.029 A 
ATOM     49  N   UNL A   1      42.408  27.801  31.328  1.00  0.00    -0.354 N 
ATOM     50  N   UNL A   1      41.438  29.524  33.547  1.00  0.00    -0.248 NA
ATOM     51  C   UNL A   1      41.547  30.186  35.784  1.00  0.00     0.031 C 
ATOM     52  C   UNL A   1      44.202  26.549  31.702  1.00  0.00     0.029 A 
ATOM     53  C   UNL A   1      43.339  27.459  32.293  1.00  0.00     0.049 A 
ATOM     54  H   UNL A   1      41.661  28.428  31.460  1.00  0.00     0.167 HD
ATOM     55  C   UNL A   1      42.501  28.878  34.158  1.00  0.00     0.074 A 
ATOM     56  C   UNL A   1      42.544  29.351  35.526  1.00  0.00     0.031 C 
ATOM     57  C   UNL A   1      43.365  27.970  33.639  1.00  0.00     0.037 A 
BRANCH  44  58
ATOM     58  C   UNL A   1      42.276  26.387  27.766  1.00  0.00     0.064 A 
ATOM     59  C   UNL A   1      43.285  26.756  26.866  1.00  0.00     0.173 A 
ATOM     60  C   UNL A   1      41.643  25.149  27.569  1.00  0.00     0.173 A 
ATOM     61  F   UNL A   1      43.909  27.937  26.998  1.00  0.00    -0.203 F 
ATOM     62  C   UNL A   1      43.637  25.925  25.804  1.00  0.00     0.198 A 
ATOM     63  C   UNL A   1      42.016  24.309  26.524  1.00  0.00     0.198 A 
ATOM     64  F   UNL A   1      40.669  24.748  28.399  1.00  0.00    -0.203 F 
ATOM     65  F   UNL A   1      44.579  26.316  24.934  1.00  0.00    -0.200 F 
ATOM     66  C   UNL A   1      43.010  24.699  25.640  1.00  0.00     0.200 A 
ATOM     67  F   UNL A   1      41.416  23.120  26.374  1.00  0.00    -0.200 F 
ATOM     68  F   UNL A   1      43.361  23.895  24.627  1.00  0.00    -0.200 F 
ENDBRANCH  44  58
BRANCH  45  69
ATOM     69  C   UNL A   1      39.269  32.016  35.535  1.00  0.00     0.064 A 
ATOM     70  C   UNL A   1      39.731  33.320  35.756  1.00  0.00     0.173 A 
ATOM     71  C   UNL A   1      38.382  31.474  36.478  1.00  0.00     0.173 A 
ATOM     72  F   UNL A   1      40.595  33.879  34.895  1.00  0.00    -0.203 F 
ATOM     73  C   UNL A   1      39.352  34.037  36.889  1.00  0.00     0.198 A 
ATOM     74  C   UNL A   1      37.973  32.205  37.591  1.00  0.00     0.198 A 
ATOM     75  F   UNL A   1      37.903  30.231  36.317  1.00  0.00    -0.203 F 
ATOM     76  F   UNL A   1      39.861  35.258  37.107  1.00  0.00    -0.200 F 
ATOM     77  C   UNL A   1      38.471  33.482  37.803  1.00  0.00     0.200 A 
ATOM     78  F   UNL A   1      37.106  31.670  38.462  1.00  0.00    -0.200 F 
ATOM     79  F   UNL A   1      38.109  34.170  38.894  1.00  0.00    -0.200 F 
ENDBRANCH  45  69
BRANCH  57  80
ATOM     80  C   UNL A   1      44.460  27.485  34.541  1.00  0.00     0.064 A 
ATOM     81  C   UNL A   1      45.675  28.173  34.666  1.00  0.00     0.173 A 
ATOM     82  C   UNL A   1      44.271  26.331  35.317  1.00  0.00     0.173 A 
ATOM     83  F   UNL A   1      45.908  29.270  33.930  1.00  0.00    -0.203 F 
ATOM     84  C   UNL A   1      46.674  27.705  35.513  1.00  0.00     0.198 A 
ATOM     85  C   UNL A   1      45.258  25.888  36.191  1.00  0.00     0.198 A 
ATOM     86  F   UNL A   1      43.122  25.643  35.239  1.00  0.00    -0.203 F 
ATOM     87  F   UNL A   1      47.851  28.345  35.575  1.00  0.00    -0.200 F 
ATOM     88  C   UNL A   1      46.462  26.569  36.282  1.00  0.00     0.200 A 
ATOM     89  F   UNL A   1      45.045  24.800  36.944  1.00  0.00    -0.200 F 
ATOM     90  F   UNL A   1      47.423  26.126  37.104  1.00  0.00    -0.200 F 
ENDBRANCH  57  80
ENDBRANCH  31  32
ENDBRANCH  24  26
ENDBRANCH  23  24
ENDBRANCH  22  23
ENDBRANCH   1  22
TORSDOF 13
ENDMDL
MODEL 2
REMARK VINA RESULT:     -12.3      0.853      1.906
REMARK SMILES Cc1ccc(Cl)cc1S(=O)(=O)N1CC[C@@H](C(=O)OCCOC(=O)c2ccc(-c3c4nc(c(-c5c(F)c(F)c(F)c(F)c5F)c5ccc([nH]5)c(-c5c(F)c(F)c(F)c(F)c5F)c5nc(c(-c6c(F)c(F)c(F)c(F)c6F)c6ccc3[nH]6)C=C5)C=C4)cc2)[C@@H]1C
REMARK SMILES IDX 19 1 18 2 16 3 17 4 15 5 12 6 13 7 87 8 14 9 88 10 9 11
REMARK SMILES IDX 10 12 11 13 8 14 1 15 2 16 3 17 4 18 7 19 5 20 6 21 20 22
REMARK SMILES IDX 21 23 22 24 23 25 24 26 25 27 86 28 26 29 85 30 27 31 28 32
REMARK SMILES IDX 29 33 79 34 30 35 84 36 78 37 80 38 31 39 83 40 77 41 76 42
REMARK SMILES IDX 32 44 64 45 44 46 63 47 45 48 48 49 62 50 81 51 46 52 47 53
REMARK SMILES IDX 61 55 82 56 49 57 33 58 34 59 42 60 35 61 36 62 40 63 43 64
REMARK SMILES IDX 37 65 38 66 41 67 39 68 65 69 66 70 74 71 67 72 68 73 72 74
REMARK SMILES IDX 75 75 69 76 70 77 73 78 71 79 50 80 51 81 59 82 52 83 53 84
REMARK SMILES IDX 57 85 60 86 54 87 55 88 58 89 56 90
REMARK H PARENT 80 43 48 54
REMARK Flexibility Score: inf
ROOT
ATOM      1  C   UNL A   1      31.404  29.763  24.937  1.00  0.00     0.274 C 
ENDROOT
BRANCH   1   2
ATOM      2  O   UNL A   1      31.038  28.373  25.041  1.00  0.00    -0.462 OA
BRANCH   2   3
ATOM      3  C   UNL A   1      30.605  27.727  23.931  1.00  0.00     0.310 C 
ATOM      4  O   UNL A   1      30.597  28.210  22.804  1.00  0.00    -0.252 OA
BRANCH   3   5
ATOM      5  C   UNL A   1      30.262  26.271  24.210  1.00  0.00     0.118 C 
ATOM      6  N   UNL A   1      32.191  25.002  24.453  1.00  0.00    -0.194 NA
ATOM      7  C   UNL A   1      31.607  24.967  25.793  1.00  0.00     0.104 C 
ATOM      8  C   UNL A   1      31.144  25.280  23.462  1.00  0.00     0.084 C 
ATOM      9  C   UNL A   1      30.383  25.881  25.695  1.00  0.00     0.034 C 
ATOM     10  C   UNL A   1      30.334  24.010  23.158  1.00  0.00     0.027 C 
BRANCH   6  11
ATOM     11  S   UNL A   1      33.823  25.168  24.149  1.00  0.00     0.243 S 
ATOM     12  O   UNL A   1      34.233  26.298  24.956  1.00  0.00    -0.207 OA
ATOM     13  O   UNL A   1      34.010  25.180  22.710  1.00  0.00    -0.207 OA
BRANCH  11  14
ATOM     14  C   UNL A   1      34.786  23.763  24.759  1.00  0.00     0.087 A 
ATOM     15  C   UNL A   1      33.363  21.772  23.876  1.00  0.00     0.046 C 
ATOM     16  C   UNL A   1      34.486  22.391  24.642  1.00  0.00    -0.031 A 
ATOM     17  C   UNL A   1      35.393  21.441  25.175  1.00  0.00     0.006 A 
ATOM     18  C   UNL A   1      36.614  21.822  25.721  1.00  0.00     0.021 A 
ATOM     19  C   UNL A   1      36.039  24.127  25.304  1.00  0.00     0.042 A 
ATOM     20  C   UNL A   1      36.946  23.165  25.751  1.00  0.00     0.042 A 
ATOM     21  Cl  UNL A   1      38.504  23.639  26.302  1.00  0.00    -0.084 Cl
ENDBRANCH  11  14
ENDBRANCH   6  11
ENDBRANCH   3   5
ENDBRANCH   2   3
ENDBRANCH   1   2
BRANCH   1  22
ATOM     22  C   UNL A   1      31.784  30.295  26.320  1.00  0.00     0.275 C 
BRANCH  22  23
ATOM     23  O   UNL A   1      33.217  30.368  26.455  1.00  0.00    -0.458 OA
BRANCH  23  24
ATOM     24  C   UNL A   1      33.657  31.393  27.215  1.00  0.00     0.338 C 
ATOM     25  O   UNL A   1      33.031  32.361  27.611  1.00  0.00    -0.246 OA
BRANCH  24  26
ATOM     26  C   UNL A   1      35.010  31.102  27.693  1.00  0.00     0.060 A 
ATOM     27  C   UNL A   1      35.295  29.785  28.044  1.00  0.00     0.016 A 
ATOM     28  C   UNL A   1      35.921  32.119  27.959  1.00  0.00     0.016 A 
ATOM     29  C   UNL A   1      36.417  29.483  28.787  1.00  0.00     0.010 A 
ATOM     30  C   UNL A   1      37.116  31.796  28.605  1.00  0.00     0.010 A 
ATOM     31  C   UNL A   1      37.350  30.482  29.057  1.00  0.00    -0.014 A 
BRANCH  31  32
ATOM     32  C   UNL A   1      38.550  30.140  29.849  1.00  0.00     0.031 A 
ATOM     33  C   UNL A   1      39.578  29.223  29.261  1.00  0.00     0.074 A 
ATOM     34  C   UNL A   1      38.715  30.686  31.069  1.00  0.00     0.049 A 
ATOM     35  N   UNL A   1      40.604  28.655  29.838  1.00  0.00    -0.248 NA
ATOM     36  C   UNL A   1      39.430  28.889  27.834  1.00  0.00     0.031 C 
ATOM     37  C   UNL A   1      37.813  31.659  31.695  1.00  0.00     0.029 A 
ATOM     38  N   UNL A   1      39.700  30.504  32.003  1.00  0.00    -0.354 N 
ATOM     39  C   UNL A   1      41.184  27.851  28.865  1.00  0.00     0.074 A 
ATOM     40  C   UNL A   1      40.403  28.007  27.658  1.00  0.00     0.031 C 
ATOM     41  C   UNL A   1      38.294  31.998  32.900  1.00  0.00     0.029 A 
ATOM     42  C   UNL A   1      39.479  31.196  33.170  1.00  0.00     0.049 A 
ATOM     43  H   UNL A   1      40.488  29.933  31.855  1.00  0.00     0.167 HD
ATOM     44  C   UNL A   1      42.267  27.051  28.988  1.00  0.00     0.037 A 
ATOM     45  C   UNL A   1      40.130  31.141  34.346  1.00  0.00     0.037 A 
ATOM     46  C   UNL A   1      43.051  26.956  30.191  1.00  0.00     0.049 A 
ATOM     47  C   UNL A   1      41.292  30.195  34.466  1.00  0.00     0.074 A 
ATOM     48  C   UNL A   1      44.184  26.200  30.426  1.00  0.00     0.029 A 
ATOM     49  N   UNL A   1      42.780  27.650  31.363  1.00  0.00    -0.354 N 
ATOM     50  N   UNL A   1      41.823  29.414  33.555  1.00  0.00    -0.248 NA
ATOM     51  C   UNL A   1      41.937  30.110  35.781  1.00  0.00     0.031 C 
ATOM     52  C   UNL A   1      44.566  26.392  31.757  1.00  0.00     0.029 A 
ATOM     53  C   UNL A   1      43.709  27.317  32.333  1.00  0.00     0.049 A 
ATOM     54  H   UNL A   1      42.037  28.284  31.486  1.00  0.00     0.167 HD
ATOM     55  C   UNL A   1      42.882  28.770  34.176  1.00  0.00     0.074 A 
ATOM     56  C   UNL A   1      42.929  29.265  35.537  1.00  0.00     0.031 C 
ATOM     57  C   UNL A   1      43.740  27.850  33.672  1.00  0.00     0.037 A 
BRANCH  44  58
ATOM     58  C   UNL A   1      42.637  26.180  27.825  1.00  0.00     0.064 A 
ATOM     59  C   UNL A   1      42.002  24.956  27.572  1.00  0.00     0.173 A 
ATOM     60  C   UNL A   1      43.616  26.610  26.915  1.00  0.00     0.173 A 
ATOM     61  F   UNL A   1      41.072  24.490  28.420  1.00  0.00    -0.203 F 
ATOM     62  C   UNL A   1      42.344  24.189  26.460  1.00  0.00     0.198 A 
ATOM     63  C   UNL A   1      43.935  25.855  25.791  1.00  0.00     0.198 A 
ATOM     64  F   UNL A   1      44.257  27.772  27.111  1.00  0.00    -0.203 F 
ATOM     65  F   UNL A   1      41.750  23.003  26.259  1.00  0.00    -0.200 F 
ATOM     66  C   UNL A   1      43.301  24.642  25.566  1.00  0.00     0.200 A 
ATOM     67  F   UNL A   1      44.853  26.302  24.923  1.00  0.00    -0.200 F 
ATOM     68  F   UNL A   1      43.617  23.910  24.489  1.00  0.00    -0.200 F 
ENDBRANCH  44  58
BRANCH  45  69
ATOM     69  C   UNL A   1      39.670  31.951  35.505  1.00  0.00     0.064 A 
ATOM     70  C   UNL A   1      38.684  31.469  36.375  1.00  0.00     0.173 A 
ATOM     71  C   UNL A   1      40.179  33.236  35.749  1.00  0.00     0.173 A 
ATOM     72  F   UNL A   1      38.151  30.255  36.176  1.00  0.00    -0.203 F 
ATOM     73  C   UNL A   1      38.201  32.252  37.422  1.00  0.00     0.198 A 
ATOM     74  C   UNL A   1      39.723  34.004  36.818  1.00  0.00     0.198 A 
ATOM     75  F   UNL A   1      41.128  33.748  34.950  1.00  0.00    -0.203 F 
ATOM     76  F   UNL A   1      37.211  31.790  38.199  1.00  0.00    -0.200 F 
ATOM     77  C   UNL A   1      38.723  33.517  37.645  1.00  0.00     0.200 A 
ATOM     78  F   UNL A   1      40.245  35.218  37.040  1.00  0.00    -0.200 F 
ATOM     79  F   UNL A   1      38.256  34.271  38.649  1.00  0.00    -0.200 F 
ENDBRANCH  45  69
BRANCH  57  80
ATOM     80  C   UNL A   1      44.832  27.371  34.581  1.00  0.00     0.064 A 
ATOM     81  C   UNL A   1      46.057  28.046  34.685  1.00  0.00     0.173 A 
ATOM     82  C   UNL A   1      44.631  26.239  35.385  1.00  0.00     0.173 A 
ATOM     83  F   UNL A   1      46.301  29.123  33.922  1.00  0.00    -0.203 F 
ATOM     84  C   UNL A   1      47.053  27.586  35.539  1.00  0.00     0.198 A 
ATOM     85  C   UNL A   1      45.616  25.804  36.265  1.00  0.00     0.198 A 
ATOM     86  F   UNL A   1      43.473  25.564  35.327  1.00  0.00    -0.203 F 
ATOM     87  F   UNL A   1      48.238  28.212  35.581  1.00  0.00    -0.200 F 
ATOM     88  C   UNL A   1      46.829  26.471  36.335  1.00  0.00     0.200 A 
ATOM     89  F   UNL A   1      45.392  24.737  37.044  1.00  0.00    -0.200 F 
ATOM     90  F   UNL A   1      47.788  26.036  37.164  1.00  0.00    -0.200 F 
ENDBRANCH  57  80
ENDBRANCH  31  32
ENDBRANCH  24  26
ENDBRANCH  23  24
ENDBRANCH  22  23
ENDBRANCH   1  22
TORSDOF 13
ENDMDL
MODEL 3
REMARK VINA RESULT:     -12.3      0.236      1.619
REMARK SMILES Cc1ccc(Cl)cc1S(=O)(=O)N1CC[C@@H](C(=O)OCCOC(=O)c2ccc(-c3c4nc(c(-c5c(F)c(F)c(F)c(F)c5F)c5ccc([nH]5)c(-c5c(F)c(F)c(F)c(F)c5F)c5nc(c(-c6c(F)c(F)c(F)c(F)c6F)c6ccc3[nH]6)C=C5)C=C4)cc2)[C@@H]1C
REMARK SMILES IDX 19 1 18 2 16 3 17 4 15 5 12 6 13 7 87 8 14 9 88 10 9 11
REMARK SMILES IDX 10 12 11 13 8 14 1 15 2 16 3 17 4 18 7 19 5 20 6 21 20 22
REMARK SMILES IDX 21 23 22 24 23 25 24 26 25 27 86 28 26 29 85 30 27 31 28 32
REMARK SMILES IDX 29 33 79 34 30 35 84 36 78 37 80 38 31 39 83 40 77 41 76 42
REMARK SMILES IDX 32 44 64 45 44 46 63 47 45 48 48 49 62 50 81 51 46 52 47 53
REMARK SMILES IDX 61 55 82 56 49 57 33 58 34 59 42 60 35 61 36 62 40 63 43 64
REMARK SMILES IDX 37 65 38 66 41 67 39 68 65 69 66 70 74 71 67 72 68 73 72 74
REMARK SMILES IDX 75 75 69 76 70 77 73 78 71 79 50 80 51 81 59 82 52 83 53 84
REMARK SMILES IDX 57 85 60 86 54 87 55 88 58 89 56 90
REMARK H PARENT 80 43 48 54
REMARK Flexibility Score: inf
ROOT
ATOM      1  C   UNL A   1      31.698  28.944  25.605  1.00  0.00     0.274 C 
ENDROOT
BRANCH   1   2
ATOM      2  O   UNL A   1      31.386  28.844  24.202  1.00  0.00    -0.462 OA
BRANCH   2   3
ATOM      3  C   UNL A   1      32.344  28.408  23.348  1.00  0.00     0.310 C 
ATOM      4  O   UNL A   1      33.456  28.913  23.235  1.00  0.00    -0.252 OA
BRANCH   3   5
ATOM      5  C   UNL A   1      31.944  27.121  22.642  1.00  0.00     0.118 C 
ATOM      6  N   UNL A   1      32.265  25.286  24.028  1.00  0.00    -0.194 NA
ATOM      7  C   UNL A   1      30.811  25.334  23.882  1.00  0.00     0.104 C 
ATOM      8  C   UNL A   1      32.900  25.962  22.891  1.00  0.00     0.084 C 
ATOM      9  C   UNL A   1      30.556  26.596  23.054  1.00  0.00     0.034 C 
ATOM     10  C   UNL A   1      32.920  25.046  21.658  1.00  0.00     0.027 C 
BRANCH   6  11
ATOM     11  S   UNL A   1      33.049  24.946  25.461  1.00  0.00     0.243 S 
ATOM     12  O   UNL A   1      32.053  24.282  26.275  1.00  0.00    -0.207 OA
ATOM     13  O   UNL A   1      33.688  26.165  25.922  1.00  0.00    -0.207 OA
BRANCH  11  14
ATOM     14  C   UNL A   1      34.383  23.741  25.249  1.00  0.00     0.087 A 
ATOM     15  C   UNL A   1      33.191  21.937  23.803  1.00  0.00     0.046 C 
ATOM     16  C   UNL A   1      34.330  22.497  24.590  1.00  0.00    -0.031 A 
ATOM     17  C   UNL A   1      35.505  21.708  24.516  1.00  0.00     0.006 A 
ATOM     18  C   UNL A   1      36.728  22.170  24.990  1.00  0.00     0.021 A 
ATOM     19  C   UNL A   1      35.639  24.199  25.710  1.00  0.00     0.042 A 
ATOM     20  C   UNL A   1      36.795  23.432  25.554  1.00  0.00     0.042 A 
ATOM     21  Cl  UNL A   1      38.322  24.068  26.024  1.00  0.00    -0.084 Cl
ENDBRANCH  11  14
ENDBRANCH   6  11
ENDBRANCH   3   5
ENDBRANCH   2   3
ENDBRANCH   1   2
BRANCH   1  22
ATOM     22  C   UNL A   1      31.879  30.415  25.984  1.00  0.00     0.275 C 
BRANCH  22  23
ATOM     23  O   UNL A   1      32.599  30.528  27.227  1.00  0.00    -0.458 OA
BRANCH  23  24
ATOM     24  C   UNL A   1      33.305  31.671  27.363  1.00  0.00     0.338 C 
ATOM     25  O   UNL A   1      32.904  32.819  27.285  1.00  0.00    -0.246 OA
BRANCH  24  26
ATOM     26  C   UNL A   1      34.659  31.358  27.823  1.00  0.00     0.060 A 
ATOM     27  C   UNL A   1      34.909  30.050  28.233  1.00  0.00     0.016 A 
ATOM     28  C   UNL A   1      35.609  32.354  28.016  1.00  0.00     0.016 A 
ATOM     29  C   UNL A   1      36.039  29.746  28.964  1.00  0.00     0.010 A 
ATOM     30  C   UNL A   1      36.809  32.022  28.650  1.00  0.00     0.010 A 
ATOM     31  C   UNL A   1      37.011  30.725  29.162  1.00  0.00    -0.014 A 
BRANCH  31  32
ATOM     32  C   UNL A   1      38.218  30.381  29.942  1.00  0.00     0.031 A 
ATOM     33  C   UNL A   1      39.249  29.480  29.335  1.00  0.00     0.074 A 
ATOM     34  C   UNL A   1      38.386  30.911  31.168  1.00  0.00     0.049 A 
ATOM     35  N   UNL A   1      40.283  28.912  29.898  1.00  0.00    -0.248 NA
ATOM     36  C   UNL A   1      39.094  29.165  27.904  1.00  0.00     0.031 C 
ATOM     37  C   UNL A   1      37.481  31.869  31.812  1.00  0.00     0.029 A 
ATOM     38  N   UNL A   1      39.378  30.725  32.094  1.00  0.00    -0.354 N 
ATOM     39  C   UNL A   1      40.863  28.126  28.910  1.00  0.00     0.074 A 
ATOM     40  C   UNL A   1      40.073  28.292  27.711  1.00  0.00     0.031 C 
ATOM     41  C   UNL A   1      37.967  32.196  33.019  1.00  0.00     0.029 A 
ATOM     42  C   UNL A   1      39.160  31.399  33.271  1.00  0.00     0.049 A 
ATOM     43  H   UNL A   1      40.170  30.161  31.933  1.00  0.00     0.167 HD
ATOM     44  C   UNL A   1      41.952  27.332  29.016  1.00  0.00     0.037 A 
ATOM     45  C   UNL A   1      39.818  31.333  34.442  1.00  0.00     0.037 A 
ATOM     46  C   UNL A   1      42.744  27.227  30.213  1.00  0.00     0.049 A 
ATOM     47  C   UNL A   1      40.988  30.393  34.543  1.00  0.00     0.074 A 
ATOM     48  C   UNL A   1      43.885  26.476  30.431  1.00  0.00     0.029 A 
ATOM     49  N   UNL A   1      42.476  27.902  31.396  1.00  0.00    -0.354 N 
ATOM     50  N   UNL A   1      41.519  29.629  33.617  1.00  0.00    -0.248 NA
ATOM     51  C   UNL A   1      41.642  30.296  35.852  1.00  0.00     0.031 C 
ATOM     52  C   UNL A   1      44.273  26.653  31.761  1.00  0.00     0.029 A 
ATOM     53  C   UNL A   1      43.413  27.563  32.356  1.00  0.00     0.049 A 
ATOM     54  H   UNL A   1      41.729  28.529  31.532  1.00  0.00     0.167 HD
ATOM     55  C   UNL A   1      42.587  28.985  34.223  1.00  0.00     0.074 A 
ATOM     56  C   UNL A   1      42.638  29.462  35.590  1.00  0.00     0.031 C 
ATOM     57  C   UNL A   1      43.448  28.078  33.701  1.00  0.00     0.037 A 
BRANCH  44  58
ATOM     58  C   UNL A   1      42.322  26.480  27.839  1.00  0.00     0.064 A 
ATOM     59  C   UNL A   1      41.705  25.247  27.582  1.00  0.00     0.173 A 
ATOM     60  C   UNL A   1      43.280  26.937  26.920  1.00  0.00     0.173 A 
ATOM     61  F   UNL A   1      40.796  24.755  28.438  1.00  0.00    -0.203 F 
ATOM     62  C   UNL A   1      42.045  24.497  26.458  1.00  0.00     0.198 A 
ATOM     63  C   UNL A   1      43.597  26.199  25.783  1.00  0.00     0.198 A 
ATOM     64  F   UNL A   1      43.902  28.108  27.119  1.00  0.00    -0.203 F 
ATOM     65  F   UNL A   1      41.470  23.304  26.252  1.00  0.00    -0.200 F 
ATOM     66  C   UNL A   1      42.981  24.977  25.555  1.00  0.00     0.200 A 
ATOM     67  F   UNL A   1      44.494  26.671  24.908  1.00  0.00    -0.200 F 
ATOM     68  F   UNL A   1      43.295  24.262  24.466  1.00  0.00    -0.200 F 
ENDBRANCH  44  58
BRANCH  45  69
ATOM     69  C   UNL A   1      39.360  32.123  35.615  1.00  0.00     0.064 A 
ATOM     70  C   UNL A   1      39.836  33.422  35.839  1.00  0.00     0.173 A 
ATOM     71  C   UNL A   1      38.466  31.589  36.555  1.00  0.00     0.173 A 
ATOM     72  F   UNL A   1      40.706  33.973  34.981  1.00  0.00    -0.203 F 
ATOM     73  C   UNL A   1      39.463  34.140  36.974  1.00  0.00     0.198 A 
ATOM     74  C   UNL A   1      38.064  32.321  37.670  1.00  0.00     0.198 A 
ATOM     75  F   UNL A   1      37.974  30.351  36.390  1.00  0.00    -0.203 F 
ATOM     76  F   UNL A   1      39.984  35.355  37.195  1.00  0.00    -0.200 F 
ATOM     77  C   UNL A   1      38.574  33.592  37.885  1.00  0.00     0.200 A 
ATOM     78  F   UNL A   1      37.190  31.793  38.538  1.00  0.00    -0.200 F 
ATOM     79  F   UNL A   1      38.219  34.282  38.977  1.00  0.00    -0.200 F 
ENDBRANCH  45  69
BRANCH  57  80
ATOM     80  C   UNL A   1      44.549  27.596  34.597  1.00  0.00     0.064 A 
ATOM     81  C   UNL A   1      44.416  26.438  35.376  1.00  0.00     0.173 A 
ATOM     82  C   UNL A   1      45.769  28.288  34.646  1.00  0.00     0.173 A 
ATOM     83  F   UNL A   1      43.261  25.754  35.376  1.00  0.00    -0.203 F 
ATOM     84  C   UNL A   1      45.454  26.007  36.196  1.00  0.00     0.198 A 
ATOM     85  C   UNL A   1      46.817  27.833  35.438  1.00  0.00     0.198 A 
ATOM     86  F   UNL A   1      45.948  29.397  33.912  1.00  0.00    -0.203 F 
ATOM     87  F   UNL A   1      45.285  24.931  36.977  1.00  0.00    -0.200 F 
ATOM     88  C   UNL A   1      46.656  26.700  36.220  1.00  0.00     0.200 A 
ATOM     89  F   UNL A   1      47.983  28.494  35.447  1.00  0.00    -0.200 F 
ATOM     90  F   UNL A   1      47.658  26.277  37.004  1.00  0.00    -0.200 F 
ENDBRANCH  57  80
ENDBRANCH  31  32
ENDBRANCH  24  26
ENDBRANCH  23  24
ENDBRANCH  22  23
ENDBRANCH   1  22
TORSDOF 13
ENDMDL
