MODEL 1
REMARK VINA RESULT:     -12.8      0.000      0.000
REMARK SMILES O=C(OCCOC(=O)C1(Cc2ccncc2)Cc2ccccc2C1)c1ccc(-c2c3nc(c(-c4c(F)c(F)c(F)c(F)c4F)c4ccc([nH]4)c(-c4c(F)c(F)c(F)c(F)c4F)c4nc(c(-c5c(F)c(F)c(F)c(F)c5F)c5ccc2[nH]5)C=C4)C=C3)cc1
REMARK SMILES IDX 4 1 3 2 2 3 1 4 25 5 26 6 87 7 27 8 86 9 28 10 29 11 30 12
REMARK SMILES IDX 80 13 31 14 85 15 79 16 81 17 32 18 84 19 78 20 77 21 33 23
REMARK SMILES IDX 65 24 45 25 64 26 46 27 49 28 63 29 82 30 47 31 48 32 62 34
REMARK SMILES IDX 83 35 50 36 34 37 35 38 43 39 36 40 37 41 41 42 44 43 38 44
REMARK SMILES IDX 39 45 42 46 40 47 66 48 67 49 75 50 68 51 69 52 73 53 76 54
REMARK SMILES IDX 70 55 71 56 74 57 72 58 51 59 52 60 60 61 53 62 54 63 58 64
REMARK SMILES IDX 61 65 55 66 56 67 59 68 57 69 5 70 6 71 7 72 8 73 9 74 17 75
REMARK SMILES IDX 24 76 18 77 23 78 19 79 22 80 20 81 21 82 10 83 11 84 12 85
REMARK SMILES IDX 16 86 13 87 15 88 14 89
REMARK H PARENT 81 22 49 33
REMARK Flexibility Score: inf
ROOT
ATOM      1  C   UNL A   1      32.007  32.940  26.634  1.00  0.00     0.275 C 
ENDROOT
BRANCH   1   2
ATOM      2  O   UNL A   1      32.250  33.682  27.839  1.00  0.00    -0.458 OA
BRANCH   2   3
ATOM      3  C   UNL A   1      33.393  34.232  28.305  1.00  0.00     0.338 C 
ATOM      4  O   UNL A   1      33.488  35.456  28.365  1.00  0.00    -0.246 OA
BRANCH   3   5
ATOM      5  C   UNL A   1      34.624  33.423  28.556  1.00  0.00     0.060 A 
ATOM      6  C   UNL A   1      35.943  33.832  28.333  1.00  0.00     0.016 A 
ATOM      7  C   UNL A   1      34.417  32.186  29.186  1.00  0.00     0.016 A 
ATOM      8  C   UNL A   1      37.020  33.152  28.908  1.00  0.00     0.010 A 
ATOM      9  C   UNL A   1      35.489  31.508  29.768  1.00  0.00     0.010 A 
ATOM     10  C   UNL A   1      36.797  32.019  29.685  1.00  0.00    -0.014 A 
BRANCH  10  11
ATOM     11  C   UNL A   1      37.928  31.269  30.281  1.00  0.00     0.031 A 
ATOM     12  C   UNL A   1      38.298  31.636  31.683  1.00  0.00     0.074 A 
ATOM     13  C   UNL A   1      38.615  30.323  29.604  1.00  0.00     0.049 A 
ATOM     14  N   UNL A   1      39.287  31.215  32.423  1.00  0.00    -0.248 NA
ATOM     15  C   UNL A   1      37.443  32.647  32.337  1.00  0.00     0.031 C 
ATOM     16  C   UNL A   1      38.339  29.868  28.240  1.00  0.00     0.029 A 
ATOM     17  N   UNL A   1      39.718  29.584  29.967  1.00  0.00    -0.354 N 
ATOM     18  C   UNL A   1      39.142  31.889  33.625  1.00  0.00     0.074 A 
ATOM     19  C   UNL A   1      38.103  32.873  33.457  1.00  0.00     0.031 C 
ATOM     20  C   UNL A   1      39.276  28.976  27.864  1.00  0.00     0.029 A 
ATOM     21  C   UNL A   1      40.216  28.783  28.961  1.00  0.00     0.049 A 
ATOM     22  H   UNL A   1      40.116  29.624  30.867  1.00  0.00     0.167 HD
ATOM     23  C   UNL A   1      39.739  31.629  34.807  1.00  0.00     0.037 A 
ATOM     24  C   UNL A   1      41.310  27.994  28.946  1.00  0.00     0.037 A 
ATOM     25  C   UNL A   1      40.747  30.629  34.969  1.00  0.00     0.049 A 
ATOM     26  C   UNL A   1      42.090  27.848  30.229  1.00  0.00     0.074 A 
ATOM     27  C   UNL A   1      41.409  30.243  36.115  1.00  0.00     0.029 A 
ATOM     28  N   UNL A   1      41.242  29.854  33.927  1.00  0.00    -0.354 N 
ATOM     29  N   UNL A   1      41.881  28.417  31.394  1.00  0.00    -0.248 NA
ATOM     30  C   UNL A   1      43.225  26.915  30.213  1.00  0.00     0.031 C 
ATOM     31  C   UNL A   1      42.343  29.265  35.758  1.00  0.00     0.029 A 
ATOM     32  C   UNL A   1      42.223  29.006  34.399  1.00  0.00     0.049 A 
ATOM     33  H   UNL A   1      40.937  29.904  32.992  1.00  0.00     0.167 HD
ATOM     34  C   UNL A   1      42.801  27.851  32.266  1.00  0.00     0.074 A 
ATOM     35  C   UNL A   1      43.592  26.919  31.487  1.00  0.00     0.031 C 
ATOM     36  C   UNL A   1      42.960  28.061  33.596  1.00  0.00     0.037 A 
BRANCH  23  37
ATOM     37  C   UNL A   1      39.250  32.426  35.978  1.00  0.00     0.064 A 
ATOM     38  C   UNL A   1      39.791  33.692  36.270  1.00  0.00     0.173 A 
ATOM     39  C   UNL A   1      38.328  31.882  36.879  1.00  0.00     0.173 A 
ATOM     40  F   UNL A   1      40.707  34.239  35.455  1.00  0.00    -0.203 F 
ATOM     41  C   UNL A   1      39.476  34.350  37.453  1.00  0.00     0.198 A 
ATOM     42  C   UNL A   1      37.987  32.561  38.045  1.00  0.00     0.198 A 
ATOM     43  F   UNL A   1      37.792  30.673  36.652  1.00  0.00    -0.203 F 
ATOM     44  F   UNL A   1      40.087  35.503  37.760  1.00  0.00    -0.200 F 
ATOM     45  C   UNL A   1      38.575  33.784  38.340  1.00  0.00     0.200 A 
ATOM     46  F   UNL A   1      37.116  32.015  38.905  1.00  0.00    -0.200 F 
ATOM     47  F   UNL A   1      38.291  34.405  39.494  1.00  0.00    -0.200 F 
ENDBRANCH  23  37
BRANCH  24  48
ATOM     48  C   UNL A   1      41.727  27.240  27.728  1.00  0.00     0.064 A 
ATOM     49  C   UNL A   1      41.273  25.935  27.482  1.00  0.00     0.173 A 
ATOM     50  C   UNL A   1      42.671  27.763  26.834  1.00  0.00     0.173 A 
ATOM     51  F   UNL A   1      40.413  25.358  28.334  1.00  0.00    -0.203 F 
ATOM     52  C   UNL A   1      41.754  25.188  26.403  1.00  0.00     0.198 A 
ATOM     53  C   UNL A   1      43.128  27.032  25.737  1.00  0.00     0.198 A 
ATOM     54  F   UNL A   1      43.200  28.971  27.054  1.00  0.00    -0.203 F 
ATOM     55  F   UNL A   1      41.352  23.921  26.236  1.00  0.00    -0.200 F 
ATOM     56  C   UNL A   1      42.677  25.739  25.528  1.00  0.00     0.200 A 
ATOM     57  F   UNL A   1      44.030  27.568  24.903  1.00  0.00    -0.200 F 
ATOM     58  F   UNL A   1      43.150  25.018  24.502  1.00  0.00    -0.200 F 
ENDBRANCH  24  48
BRANCH  36  59
ATOM     59  C   UNL A   1      43.960  27.208  34.313  1.00  0.00     0.064 A 
ATOM     60  C   UNL A   1      43.629  25.948  34.824  1.00  0.00     0.173 A 
ATOM     61  C   UNL A   1      45.295  27.633  34.406  1.00  0.00     0.173 A 
ATOM     62  F   UNL A   1      42.361  25.509  34.773  1.00  0.00    -0.203 F 
ATOM     63  C   UNL A   1      44.599  25.142  35.412  1.00  0.00     0.198 A 
ATOM     64  C   UNL A   1      46.268  26.810  34.961  1.00  0.00     0.198 A 
ATOM     65  F   UNL A   1      45.660  28.831  33.925  1.00  0.00    -0.203 F 
ATOM     66  F   UNL A   1      44.257  23.954  35.928  1.00  0.00    -0.200 F 
ATOM     67  C   UNL A   1      45.918  25.568  35.467  1.00  0.00     0.200 A 
ATOM     68  F   UNL A   1      47.545  27.214  34.993  1.00  0.00    -0.200 F 
ATOM     69  F   UNL A   1      46.856  24.778  36.009  1.00  0.00    -0.200 F 
ENDBRANCH  36  59
ENDBRANCH  10  11
ENDBRANCH   3   5
ENDBRANCH   2   3
ENDBRANCH   1   2
BRANCH   1  70
ATOM     70  C   UNL A   1      31.587  31.462  26.788  1.00  0.00     0.274 C 
BRANCH  70  71
ATOM     71  O   UNL A   1      32.216  30.490  25.923  1.00  0.00    -0.462 OA
BRANCH  71  72
ATOM     72  C   UNL A   1      31.834  29.204  26.178  1.00  0.00     0.313 C 
ATOM     73  O   UNL A   1      31.567  28.844  27.320  1.00  0.00    -0.252 OA
BRANCH  72  74
ATOM     74  C   UNL A   1      31.704  28.305  24.933  1.00  0.00     0.080 C 
ATOM     75  C   UNL A   1      33.082  27.681  24.657  1.00  0.00     0.055 C 
ATOM     76  C   UNL A   1      30.793  27.051  25.120  1.00  0.00     0.055 C 
ATOM     77  C   UNL A   1      32.771  26.400  23.962  1.00  0.00    -0.044 A 
ATOM     78  C   UNL A   1      31.456  26.025  24.232  1.00  0.00    -0.044 A 
ATOM     79  C   UNL A   1      33.641  25.588  23.248  1.00  0.00     0.004 A 
ATOM     80  C   UNL A   1      30.975  24.816  23.761  1.00  0.00     0.004 A 
ATOM     81  C   UNL A   1      33.170  24.366  22.786  1.00  0.00     0.000 A 
ATOM     82  C   UNL A   1      31.842  23.993  23.025  1.00  0.00     0.000 A 
BRANCH  74  83
ATOM     83  C   UNL A   1      31.338  29.164  23.680  1.00  0.00     0.055 C 
BRANCH  83  84
ATOM     84  C   UNL A   1      29.878  29.510  23.538  1.00  0.00    -0.044 A 
ATOM     85  C   UNL A   1      28.958  28.569  23.069  1.00  0.00     0.024 A 
ATOM     86  C   UNL A   1      29.417  30.793  23.826  1.00  0.00     0.024 A 
ATOM     87  C   UNL A   1      27.667  28.974  22.788  1.00  0.00     0.111 A 
ATOM     88  C   UNL A   1      28.094  31.097  23.546  1.00  0.00     0.111 A 
ATOM     89  N   UNL A   1      27.216  30.225  23.007  1.00  0.00    -0.265 NA
ENDBRANCH  83  84
ENDBRANCH  74  83
ENDBRANCH  72  74
ENDBRANCH  71  72
ENDBRANCH  70  71
ENDBRANCH   1  70
TORSDOF 13
ENDMDL
MODEL 2
REMARK VINA RESULT:     -12.6      5.392     10.988
REMARK SMILES O=C(OCCOC(=O)C1(Cc2ccncc2)Cc2ccccc2C1)c1ccc(-c2c3nc(c(-c4c(F)c(F)c(F)c(F)c4F)c4ccc([nH]4)c(-c4c(F)c(F)c(F)c(F)c4F)c4nc(c(-c5c(F)c(F)c(F)c(F)c5F)c5ccc2[nH]5)C=C4)C=C3)cc1
REMARK SMILES IDX 4 1 3 2 2 3 1 4 25 5 26 6 87 7 27 8 86 9 28 10 29 11 30 12
REMARK SMILES IDX 80 13 31 14 85 15 79 16 81 17 32 18 84 19 78 20 77 21 33 23
REMARK SMILES IDX 65 24 45 25 64 26 46 27 49 28 63 29 82 30 47 31 48 32 62 34
REMARK SMILES IDX 83 35 50 36 34 37 35 38 43 39 36 40 37 41 41 42 44 43 38 44
REMARK SMILES IDX 39 45 42 46 40 47 66 48 67 49 75 50 68 51 69 52 73 53 76 54
REMARK SMILES IDX 70 55 71 56 74 57 72 58 51 59 52 60 60 61 53 62 54 63 58 64
REMARK SMILES IDX 61 65 55 66 56 67 59 68 57 69 5 70 6 71 7 72 8 73 9 74 17 75
REMARK SMILES IDX 24 76 18 77 23 78 19 79 22 80 20 81 21 82 10 83 11 84 12 85
REMARK SMILES IDX 16 86 13 87 15 88 14 89
REMARK H PARENT 81 22 49 33
REMARK Flexibility Score: inf
ROOT
ATOM      1  C   UNL A   1      38.894  19.441  25.669  1.00  0.00     0.275 C 
ENDROOT
BRANCH   1   2
ATOM      2  O   UNL A   1      40.164  20.095  25.809  1.00  0.00    -0.458 OA
BRANCH   2   3
ATOM      3  C   UNL A   1      40.876  20.379  26.923  1.00  0.00     0.338 C 
ATOM      4  O   UNL A   1      41.259  19.457  27.640  1.00  0.00    -0.246 OA
BRANCH   3   5
ATOM      5  C   UNL A   1      41.043  21.775  27.430  1.00  0.00     0.060 A 
ATOM      6  C   UNL A   1      41.802  22.168  28.537  1.00  0.00     0.016 A 
ATOM      7  C   UNL A   1      40.470  22.780  26.635  1.00  0.00     0.016 A 
ATOM      8  C   UNL A   1      42.170  23.503  28.726  1.00  0.00     0.010 A 
ATOM      9  C   UNL A   1      40.840  24.113  26.816  1.00  0.00     0.010 A 
ATOM     10  C   UNL A   1      41.744  24.479  27.830  1.00  0.00    -0.014 A 
BRANCH  10  11
ATOM     11  C   UNL A   1      42.102  25.904  28.029  1.00  0.00     0.031 A 
ATOM     12  C   UNL A   1      43.460  26.317  27.558  1.00  0.00     0.074 A 
ATOM     13  C   UNL A   1      41.272  26.789  28.623  1.00  0.00     0.049 A 
ATOM     14  N   UNL A   1      44.073  27.463  27.676  1.00  0.00    -0.248 NA
ATOM     15  C   UNL A   1      44.256  25.275  26.878  1.00  0.00     0.031 C 
ATOM     16  C   UNL A   1      39.920  26.510  29.110  1.00  0.00     0.029 A 
ATOM     17  N   UNL A   1      41.459  28.114  28.948  1.00  0.00    -0.354 N 
ATOM     18  C   UNL A   1      45.299  27.274  27.059  1.00  0.00     0.074 A 
ATOM     19  C   UNL A   1      45.423  25.874  26.741  1.00  0.00     0.031 C 
ATOM     20  C   UNL A   1      39.424  27.606  29.717  1.00  0.00     0.029 A 
ATOM     21  C   UNL A   1      40.416  28.672  29.657  1.00  0.00     0.049 A 
ATOM     22  H   UNL A   1      42.267  28.618  28.696  1.00  0.00     0.167 HD
ATOM     23  C   UNL A   1      46.196  28.208  26.678  1.00  0.00     0.037 A 
ATOM     24  C   UNL A   1      40.296  29.906  30.191  1.00  0.00     0.037 A 
ATOM     25  C   UNL A   1      46.047  29.599  26.971  1.00  0.00     0.049 A 
ATOM     26  C   UNL A   1      41.396  30.901  29.916  1.00  0.00     0.074 A 
ATOM     27  C   UNL A   1      46.864  30.651  26.617  1.00  0.00     0.029 A 
ATOM     28  N   UNL A   1      44.993  30.125  27.708  1.00  0.00    -0.354 N 
ATOM     29  N   UNL A   1      42.511  30.738  29.242  1.00  0.00    -0.248 NA
ATOM     30  C   UNL A   1      41.202  32.263  30.433  1.00  0.00     0.031 C 
ATOM     31  C   UNL A   1      46.329  31.814  27.183  1.00  0.00     0.029 A 
ATOM     32  C   UNL A   1      45.151  31.490  27.842  1.00  0.00     0.049 A 
ATOM     33  H   UNL A   1      44.245  29.602  28.078  1.00  0.00     0.167 HD
ATOM     34  C   UNL A   1      43.107  31.989  29.181  1.00  0.00     0.074 A 
ATOM     35  C   UNL A   1      42.248  32.895  29.917  1.00  0.00     0.031 C 
ATOM     36  C   UNL A   1      44.248  32.363  28.551  1.00  0.00     0.037 A 
BRANCH  23  37
ATOM     37  C   UNL A   1      47.358  27.711  25.873  1.00  0.00     0.064 A 
ATOM     38  C   UNL A   1      48.584  27.397  26.489  1.00  0.00     0.173 A 
ATOM     39  C   UNL A   1      47.292  27.659  24.477  1.00  0.00     0.173 A 
ATOM     40  F   UNL A   1      48.707  27.469  27.824  1.00  0.00    -0.203 F 
ATOM     41  C   UNL A   1      49.715  27.116  25.731  1.00  0.00     0.198 A 
ATOM     42  C   UNL A   1      48.418  27.341  23.722  1.00  0.00     0.198 A 
ATOM     43  F   UNL A   1      46.149  27.959  23.841  1.00  0.00    -0.203 F 
ATOM     44  F   UNL A   1      50.896  26.928  26.337  1.00  0.00    -0.200 F 
ATOM     45  C   UNL A   1      49.631  27.089  24.349  1.00  0.00     0.200 A 
ATOM     46  F   UNL A   1      48.340  27.314  22.385  1.00  0.00    -0.200 F 
ATOM     47  F   UNL A   1      50.727  26.844  23.616  1.00  0.00    -0.200 F 
ENDBRANCH  23  37
BRANCH  24  48
ATOM     48  C   UNL A   1      39.101  30.313  30.986  1.00  0.00     0.064 A 
ATOM     49  C   UNL A   1      38.007  30.957  30.389  1.00  0.00     0.173 A 
ATOM     50  C   UNL A   1      39.067  30.163  32.379  1.00  0.00     0.173 A 
ATOM     51  F   UNL A   1      38.007  31.182  29.067  1.00  0.00    -0.203 F 
ATOM     52  C   UNL A   1      36.942  31.441  31.153  1.00  0.00     0.198 A 
ATOM     53  C   UNL A   1      37.988  30.615  33.140  1.00  0.00     0.198 A 
ATOM     54  F   UNL A   1      40.111  29.625  33.017  1.00  0.00    -0.203 F 
ATOM     55  F   UNL A   1      35.945  32.113  30.559  1.00  0.00    -0.200 F 
ATOM     56  C   UNL A   1      36.930  31.265  32.527  1.00  0.00     0.200 A 
ATOM     57  F   UNL A   1      37.992  30.451  34.471  1.00  0.00    -0.200 F 
ATOM     58  F   UNL A   1      35.915  31.742  33.262  1.00  0.00    -0.200 F 
ENDBRANCH  24  48
BRANCH  36  59
ATOM     59  C   UNL A   1      44.586  33.823  28.547  1.00  0.00     0.064 A 
ATOM     60  C   UNL A   1      44.143  34.684  27.537  1.00  0.00     0.173 A 
ATOM     61  C   UNL A   1      45.292  34.374  29.628  1.00  0.00     0.173 A 
ATOM     62  F   UNL A   1      43.481  34.197  26.475  1.00  0.00    -0.203 F 
ATOM     63  C   UNL A   1      44.403  36.049  27.602  1.00  0.00     0.198 A 
ATOM     64  C   UNL A   1      45.517  35.742  29.709  1.00  0.00     0.198 A 
ATOM     65  F   UNL A   1      45.731  33.587  30.623  1.00  0.00    -0.203 F 
ATOM     66  F   UNL A   1      44.003  36.853  26.608  1.00  0.00    -0.200 F 
ATOM     67  C   UNL A   1      45.076  36.578  28.694  1.00  0.00     0.200 A 
ATOM     68  F   UNL A   1      46.148  36.254  30.775  1.00  0.00    -0.200 F 
ATOM     69  F   UNL A   1      45.300  37.897  28.769  1.00  0.00    -0.200 F 
ENDBRANCH  36  59
ENDBRANCH  10  11
ENDBRANCH   3   5
ENDBRANCH   2   3
ENDBRANCH   1   2
BRANCH   1  70
ATOM     70  C   UNL A   1      37.847  20.120  24.760  1.00  0.00     0.274 C 
BRANCH  70  71
ATOM     71  O   UNL A   1      36.718  20.761  25.396  1.00  0.00    -0.462 OA
BRANCH  71  72
ATOM     72  C   UNL A   1      36.066  21.646  24.587  1.00  0.00     0.313 C 
ATOM     73  O   UNL A   1      36.663  22.234  23.692  1.00  0.00    -0.252 OA
BRANCH  72  74
ATOM     74  C   UNL A   1      34.552  21.775  24.850  1.00  0.00     0.080 C 
ATOM     75  C   UNL A   1      34.350  22.865  25.914  1.00  0.00     0.055 C 
ATOM     76  C   UNL A   1      33.721  22.315  23.645  1.00  0.00     0.055 C 
ATOM     77  C   UNL A   1      32.988  23.400  25.636  1.00  0.00    -0.044 A 
ATOM     78  C   UNL A   1      32.621  23.096  24.325  1.00  0.00    -0.044 A 
ATOM     79  C   UNL A   1      32.203  24.195  26.458  1.00  0.00     0.004 A 
ATOM     80  C   UNL A   1      31.426  23.574  23.816  1.00  0.00     0.004 A 
ATOM     81  C   UNL A   1      31.010  24.692  25.949  1.00  0.00     0.000 A 
ATOM     82  C   UNL A   1      30.617  24.367  24.644  1.00  0.00     0.000 A 
BRANCH  74  83
ATOM     83  C   UNL A   1      33.993  20.446  25.452  1.00  0.00     0.055 C 
BRANCH  83  84
ATOM     84  C   UNL A   1      33.727  19.346  24.455  1.00  0.00    -0.044 A 
ATOM     85  C   UNL A   1      32.609  19.388  23.619  1.00  0.00     0.024 A 
ATOM     86  C   UNL A   1      34.565  18.236  24.377  1.00  0.00     0.024 A 
ATOM     87  C   UNL A   1      32.306  18.284  22.847  1.00  0.00     0.111 A 
ATOM     88  C   UNL A   1      34.199  17.191  23.544  1.00  0.00     0.111 A 
ATOM     89  N   UNL A   1      33.074  17.177  22.798  1.00  0.00    -0.265 NA
ENDBRANCH  83  84
ENDBRANCH  74  83
ENDBRANCH  72  74
ENDBRANCH  71  72
ENDBRANCH  70  71
ENDBRANCH   1  70
TORSDOF 13
ENDMDL
MODEL 3
REMARK VINA RESULT:     -12.5      1.044      1.678
REMARK SMILES O=C(OCCOC(=O)C1(Cc2ccncc2)Cc2ccccc2C1)c1ccc(-c2c3nc(c(-c4c(F)c(F)c(F)c(F)c4F)c4ccc([nH]4)c(-c4c(F)c(F)c(F)c(F)c4F)c4nc(c(-c5c(F)c(F)c(F)c(F)c5F)c5ccc2[nH]5)C=C4)C=C3)cc1
REMARK SMILES IDX 4 1 3 2 2 3 1 4 25 5 26 6 87 7 27 8 86 9 28 10 29 11 30 12
REMARK SMILES IDX 80 13 31 14 85 15 79 16 81 17 32 18 84 19 78 20 77 21 33 23
REMARK SMILES IDX 65 24 45 25 64 26 46 27 49 28 63 29 82 30 47 31 48 32 62 34
REMARK SMILES IDX 83 35 50 36 34 37 35 38 43 39 36 40 37 41 41 42 44 43 38 44
REMARK SMILES IDX 39 45 42 46 40 47 66 48 67 49 75 50 68 51 69 52 73 53 76 54
REMARK SMILES IDX 70 55 71 56 74 57 72 58 51 59 52 60 60 61 53 62 54 63 58 64
REMARK SMILES IDX 61 65 55 66 56 67 59 68 57 69 5 70 6 71 7 72 8 73 9 74 17 75
REMARK SMILES IDX 24 76 18 77 23 78 19 79 22 80 20 81 21 82 10 83 11 84 12 85
REMARK SMILES IDX 16 86 13 87 15 88 14 89
REMARK H PARENT 81 22 49 33
REMARK Flexibility Score: inf
ROOT
ATOM      1  C   UNL A   1      31.401  32.029  26.913  1.00  0.00     0.275 C 
ENDROOT
BRANCH   1   2
ATOM      2  O   UNL A   1      32.424  33.036  26.883  1.00  0.00    -0.458 OA
BRANCH   2   3
ATOM      3  C   UNL A   1      33.244  33.470  27.866  1.00  0.00     0.338 C 
ATOM      4  O   UNL A   1      33.000  34.539  28.422  1.00  0.00    -0.246 OA
BRANCH   3   5
ATOM      5  C   UNL A   1      34.551  32.810  28.166  1.00  0.00     0.060 A 
ATOM      6  C   UNL A   1      35.806  33.426  28.174  1.00  0.00     0.016 A 
ATOM      7  C   UNL A   1      34.470  31.475  28.592  1.00  0.00     0.016 A 
ATOM      8  C   UNL A   1      36.906  32.821  28.789  1.00  0.00     0.010 A 
ATOM      9  C   UNL A   1      35.564  30.870  29.213  1.00  0.00     0.010 A 
ATOM     10  C   UNL A   1      36.778  31.563  29.371  1.00  0.00    -0.014 A 
BRANCH  10  11
ATOM     11  C   UNL A   1      37.939  30.895  30.004  1.00  0.00     0.031 A 
ATOM     12  C   UNL A   1      38.258  31.310  31.406  1.00  0.00     0.074 A 
ATOM     13  C   UNL A   1      38.695  29.978  29.360  1.00  0.00     0.049 A 
ATOM     14  N   UNL A   1      39.254  30.964  32.173  1.00  0.00    -0.248 NA
ATOM     15  C   UNL A   1      37.331  32.281  32.022  1.00  0.00     0.031 C 
ATOM     16  C   UNL A   1      38.475  29.481  28.001  1.00  0.00     0.029 A 
ATOM     17  N   UNL A   1      39.832  29.315  29.761  1.00  0.00    -0.354 N 
ATOM     18  C   UNL A   1      39.045  31.652  33.357  1.00  0.00     0.074 A 
ATOM     19  C   UNL A   1      37.952  32.568  33.149  1.00  0.00     0.031 C 
ATOM     20  C   UNL A   1      39.471  28.639  27.662  1.00  0.00     0.029 A 
ATOM     21  C   UNL A   1      40.398  28.526  28.782  1.00  0.00     0.049 A 
ATOM     22  H   UNL A   1      40.209  29.396  30.667  1.00  0.00     0.167 HD
ATOM     23  C   UNL A   1      39.632  31.452  34.556  1.00  0.00     0.037 A 
ATOM     24  C   UNL A   1      41.538  27.803  28.804  1.00  0.00     0.037 A 
ATOM     25  C   UNL A   1      40.694  30.517  34.758  1.00  0.00     0.049 A 
ATOM     26  C   UNL A   1      42.298  27.730  30.105  1.00  0.00     0.074 A 
ATOM     27  C   UNL A   1      41.354  30.194  35.925  1.00  0.00     0.029 A 
ATOM     28  N   UNL A   1      41.256  29.753  33.743  1.00  0.00    -0.354 N 
ATOM     29  N   UNL A   1      42.032  28.307  31.253  1.00  0.00    -0.248 NA
ATOM     30  C   UNL A   1      43.487  26.867  30.130  1.00  0.00     0.031 C 
ATOM     31  C   UNL A   1      42.352  29.267  35.607  1.00  0.00     0.029 A 
ATOM     32  C   UNL A   1      42.276  28.974  34.252  1.00  0.00     0.049 A 
ATOM     33  H   UNL A   1      40.968  29.766  32.801  1.00  0.00     0.167 HD
ATOM     34  C   UNL A   1      42.966  27.816  32.154  1.00  0.00     0.074 A 
ATOM     35  C   UNL A   1      43.826  26.917  31.410  1.00  0.00     0.031 C 
ATOM     36  C   UNL A   1      43.084  28.061  33.482  1.00  0.00     0.037 A 
BRANCH  23  37
ATOM     37  C   UNL A   1      39.072  32.240  35.701  1.00  0.00     0.064 A 
ATOM     38  C   UNL A   1      39.500  33.557  35.951  1.00  0.00     0.173 A 
ATOM     39  C   UNL A   1      38.199  31.647  36.619  1.00  0.00     0.173 A 
ATOM     40  F   UNL A   1      40.366  34.155  35.118  1.00  0.00    -0.203 F 
ATOM     41  C   UNL A   1      39.125  34.224  37.112  1.00  0.00     0.198 A 
ATOM     42  C   UNL A   1      37.797  32.331  37.763  1.00  0.00     0.198 A 
ATOM     43  F   UNL A   1      37.771  30.389  36.432  1.00  0.00    -0.203 F 
ATOM     44  F   UNL A   1      39.632  35.435  37.381  1.00  0.00    -0.200 F 
ATOM     45  C   UNL A   1      38.275  33.610  38.017  1.00  0.00     0.200 A 
ATOM     46  F   UNL A   1      36.974  31.740  38.641  1.00  0.00    -0.200 F 
ATOM     47  F   UNL A   1      37.935  34.241  39.150  1.00  0.00    -0.200 F 
ENDBRANCH  23  37
BRANCH  24  48
ATOM     48  C   UNL A   1      42.024  27.052  27.610  1.00  0.00     0.064 A 
ATOM     49  C   UNL A   1      41.622  25.731  27.361  1.00  0.00     0.173 A 
ATOM     50  C   UNL A   1      42.983  27.597  26.746  1.00  0.00     0.173 A 
ATOM     51  F   UNL A   1      40.751  25.133  28.187  1.00  0.00    -0.203 F 
ATOM     52  C   UNL A   1      42.167  24.990  26.309  1.00  0.00     0.198 A 
ATOM     53  C   UNL A   1      43.504  26.871  25.674  1.00  0.00     0.198 A 
ATOM     54  F   UNL A   1      43.463  28.824  26.973  1.00  0.00    -0.203 F 
ATOM     55  F   UNL A   1      41.813  23.708  26.140  1.00  0.00    -0.200 F 
ATOM     56  C   UNL A   1      43.103  25.563  25.462  1.00  0.00     0.200 A 
ATOM     57  F   UNL A   1      44.418  27.430  24.868  1.00  0.00    -0.200 F 
ATOM     58  F   UNL A   1      43.638  24.848  24.462  1.00  0.00    -0.200 F 
ENDBRANCH  24  48
BRANCH  36  59
ATOM     59  C   UNL A   1      44.119  27.283  34.237  1.00  0.00     0.064 A 
ATOM     60  C   UNL A   1      45.414  27.774  34.439  1.00  0.00     0.173 A 
ATOM     61  C   UNL A   1      43.768  26.065  34.841  1.00  0.00     0.173 A 
ATOM     62  F   UNL A   1      45.798  28.925  33.865  1.00  0.00    -0.203 F 
ATOM     63  C   UNL A   1      46.328  27.068  35.214  1.00  0.00     0.198 A 
ATOM     64  C   UNL A   1      44.671  25.382  35.645  1.00  0.00     0.198 A 
ATOM     65  F   UNL A   1      42.535  25.560  34.679  1.00  0.00    -0.203 F 
ATOM     66  F   UNL A   1      47.575  27.534  35.367  1.00  0.00    -0.200 F 
ATOM     67  C   UNL A   1      45.952  25.881  35.827  1.00  0.00     0.200 A 
ATOM     68  F   UNL A   1      44.299  24.248  36.253  1.00  0.00    -0.200 F 
ATOM     69  F   UNL A   1      46.826  25.217  36.596  1.00  0.00    -0.200 F 
ENDBRANCH  36  59
ENDBRANCH  10  11
ENDBRANCH   3   5
ENDBRANCH   2   3
ENDBRANCH   1   2
BRANCH   1  70
ATOM     70  C   UNL A   1      31.402  30.988  25.773  1.00  0.00     0.274 C 
BRANCH  70  71
ATOM     71  O   UNL A   1      31.735  29.623  26.108  1.00  0.00    -0.462 OA
BRANCH  71  72
ATOM     72  C   UNL A   1      32.565  29.025  25.203  1.00  0.00     0.313 C 
ATOM     73  O   UNL A   1      33.440  29.669  24.635  1.00  0.00    -0.252 OA
BRANCH  72  74
ATOM     74  C   UNL A   1      32.352  27.508  25.029  1.00  0.00     0.080 C 
ATOM     75  C   UNL A   1      33.711  26.817  25.225  1.00  0.00     0.055 C 
ATOM     76  C   UNL A   1      31.467  26.838  26.126  1.00  0.00     0.055 C 
ATOM     77  C   UNL A   1      33.362  25.453  25.712  1.00  0.00    -0.044 A 
ATOM     78  C   UNL A   1      32.072  25.459  26.243  1.00  0.00    -0.044 A 
ATOM     79  C   UNL A   1      34.184  24.338  25.778  1.00  0.00     0.004 A 
ATOM     80  C   UNL A   1      31.568  24.316  26.839  1.00  0.00     0.004 A 
ATOM     81  C   UNL A   1      33.691  23.192  26.390  1.00  0.00     0.000 A 
ATOM     82  C   UNL A   1      32.386  23.177  26.899  1.00  0.00     0.000 A 
BRANCH  74  83
ATOM     83  C   UNL A   1      31.890  27.190  23.570  1.00  0.00     0.055 C 
BRANCH  83  84
ATOM     84  C   UNL A   1      30.649  27.914  23.114  1.00  0.00    -0.044 A 
ATOM     85  C   UNL A   1      30.736  29.119  22.413  1.00  0.00     0.024 A 
ATOM     86  C   UNL A   1      29.382  27.423  23.423  1.00  0.00     0.024 A 
ATOM     87  C   UNL A   1      29.582  29.838  22.167  1.00  0.00     0.111 A 
ATOM     88  C   UNL A   1      28.279  28.198  23.102  1.00  0.00     0.111 A 
ATOM     89  N   UNL A   1      28.351  29.407  22.507  1.00  0.00    -0.265 NA
ENDBRANCH  83  84
ENDBRANCH  74  83
ENDBRANCH  72  74
ENDBRANCH  71  72
ENDBRANCH  70  71
ENDBRANCH   1  70
TORSDOF 13
ENDMDL
