MODEL 1
REMARK VINA RESULT:     -11.0      0.000      0.000
REMARK SMILES O=C(COCc1ccccc1)NC[C@H]1CC[C@@H](C(=O)OCCOC(=O)c2ccc(-c3c4nc(c(-c5c(F)c(F)c(F)c(F)c5F)c5ccc([nH]5)c(-c5c(F)c(F)c(F)c(F)c5F)c5nc(c(-c6c(F)c(F)c(F)c(F)c6F)c6ccc3[nH]6)C=C5)C=C4)cc2)O1
REMARK SMILES IDX 18 1 19 2 17 3 14 4 15 5 89 6 16 7 13 8 12 9 1 10 2 11 3 13
REMARK SMILES IDX 4 14 5 15 6 16 7 17 11 18 8 19 10 20 9 21 20 22 21 23 22 24
REMARK SMILES IDX 23 25 24 26 25 27 26 28 27 29 88 30 28 31 87 32 29 33 30 34
REMARK SMILES IDX 31 35 81 36 32 37 86 38 80 39 82 40 33 41 85 42 79 43 78 44
REMARK SMILES IDX 34 46 66 47 46 48 65 49 47 50 50 51 64 52 83 53 48 54 49 55
REMARK SMILES IDX 63 57 84 58 51 59 35 60 36 61 44 62 37 63 38 64 42 65 45 66
REMARK SMILES IDX 39 67 40 68 43 69 41 70 67 71 68 72 76 73 69 74 70 75 74 76
REMARK SMILES IDX 77 77 71 78 72 79 75 80 73 81 52 82 53 83 61 84 54 85 55 86
REMARK SMILES IDX 59 87 62 88 56 89 57 90 60 91 58 92
REMARK H PARENT 12 12 82 45 50 56
REMARK Flexibility Score: inf
ROOT
ATOM      1  C   UNL A   1      33.057  28.411  25.397  1.00  0.00     0.335 C 
ATOM      2  O   UNL A   1      32.756  27.924  26.483  1.00  0.00    -0.249 OA
ENDROOT
BRANCH   1   3
ATOM      3  C   UNL A   1      33.691  27.592  24.261  1.00  0.00     0.228 C 
ATOM      4  C   UNL A   1      33.043  25.987  22.685  1.00  0.00     0.138 C 
ATOM      5  C   UNL A   1      33.653  27.158  21.936  1.00  0.00     0.037 C 
ATOM      6  O   UNL A   1      33.286  26.238  24.084  1.00  0.00    -0.361 OA
ATOM      7  C   UNL A   1      33.491  28.288  22.921  1.00  0.00     0.047 C 
BRANCH   4   8
ATOM      8  C   UNL A   1      31.529  25.826  22.438  1.00  0.00     0.148 C 
BRANCH   8   9
ATOM      9  N   UNL A   1      30.875  25.290  23.615  1.00  0.00    -0.351 N 
ATOM     10  O   UNL A   1      29.672  27.207  24.041  1.00  0.00    -0.272 OA
ATOM     11  C   UNL A   1      30.095  26.111  24.406  1.00  0.00     0.246 C 
ATOM     12  H   UNL A   1      30.986  24.340  23.851  1.00  0.00     0.163 HD
BRANCH  11  13
ATOM     13  C   UNL A   1      29.891  25.578  25.826  1.00  0.00     0.260 C 
BRANCH  13  14
ATOM     14  O   UNL A   1      31.033  25.065  26.498  1.00  0.00    -0.367 OA
BRANCH  14  15
ATOM     15  C   UNL A   1      31.017  23.648  26.687  1.00  0.00     0.196 C 
BRANCH  15  16
ATOM     16  C   UNL A   1      32.133  22.908  25.989  1.00  0.00    -0.022 A 
ATOM     17  C   UNL A   1      31.826  21.894  25.070  1.00  0.00     0.006 A 
ATOM     18  C   UNL A   1      33.477  23.234  26.215  1.00  0.00     0.006 A 
ATOM     19  C   UNL A   1      32.843  21.201  24.414  1.00  0.00     0.000 A 
ATOM     20  C   UNL A   1      34.494  22.530  25.570  1.00  0.00     0.000 A 
ATOM     21  C   UNL A   1      34.177  21.514  24.670  1.00  0.00     0.000 A 
ENDBRANCH  15  16
ENDBRANCH  14  15
ENDBRANCH  13  14
ENDBRANCH  11  13
ENDBRANCH   8   9
ENDBRANCH   4   8
ENDBRANCH   1   3
BRANCH   1  22
ATOM     22  O   UNL A   1      32.754  29.680  25.005  1.00  0.00    -0.460 OA
BRANCH  22  23
ATOM     23  C   UNL A   1      31.456  30.165  25.398  1.00  0.00     0.274 C 
BRANCH  23  24
ATOM     24  C   UNL A   1      31.559  31.385  26.322  1.00  0.00     0.275 C 
BRANCH  24  25
ATOM     25  O   UNL A   1      32.527  31.198  27.375  1.00  0.00    -0.458 OA
BRANCH  25  26
ATOM     26  C   UNL A   1      33.338  32.260  27.588  1.00  0.00     0.338 C 
ATOM     27  O   UNL A   1      33.028  33.440  27.570  1.00  0.00    -0.246 OA
BRANCH  26  28
ATOM     28  C   UNL A   1      34.683  31.823  27.997  1.00  0.00     0.060 A 
ATOM     29  C   UNL A   1      34.838  30.478  28.336  1.00  0.00     0.016 A 
ATOM     30  C   UNL A   1      35.739  32.718  28.176  1.00  0.00     0.016 A 
ATOM     31  C   UNL A   1      36.022  30.018  28.889  1.00  0.00     0.010 A 
ATOM     32  C   UNL A   1      36.940  32.257  28.733  1.00  0.00     0.010 A 
ATOM     33  C   UNL A   1      37.074  30.911  29.117  1.00  0.00    -0.014 A 
BRANCH  33  34
ATOM     34  C   UNL A   1      38.255  30.410  29.857  1.00  0.00     0.031 A 
ATOM     35  C   UNL A   1      38.438  30.784  31.300  1.00  0.00     0.074 A 
ATOM     36  C   UNL A   1      39.086  29.530  29.271  1.00  0.00     0.049 A 
ATOM     37  N   UNL A   1      39.374  30.417  32.138  1.00  0.00    -0.248 NA
ATOM     38  C   UNL A   1      37.432  31.687  31.878  1.00  0.00     0.031 C 
ATOM     39  C   UNL A   1      38.966  29.049  27.895  1.00  0.00     0.029 A 
ATOM     40  N   UNL A   1      40.178  28.866  29.767  1.00  0.00    -0.354 N 
ATOM     41  C   UNL A   1      39.082  31.059  33.334  1.00  0.00     0.074 A 
ATOM     42  C   UNL A   1      37.889  31.849  33.112  1.00  0.00     0.031 C 
ATOM     43  C   UNL A   1      39.938  28.153  27.661  1.00  0.00     0.029 A 
ATOM     44  C   UNL A   1      40.765  28.024  28.857  1.00  0.00     0.049 A 
ATOM     45  H   UNL A   1      40.508  28.983  30.687  1.00  0.00     0.167 HD
ATOM     46  C   UNL A   1      39.749  30.991  34.510  1.00  0.00     0.037 A 
ATOM     47  C   UNL A   1      41.856  27.244  28.976  1.00  0.00     0.037 A 
ATOM     48  C   UNL A   1      40.920  30.186  34.734  1.00  0.00     0.049 A 
ATOM     49  C   UNL A   1      42.591  27.205  30.288  1.00  0.00     0.074 A 
ATOM     50  C   UNL A   1      41.668  30.049  35.890  1.00  0.00     0.029 A 
ATOM     51  N   UNL A   1      41.510  29.372  33.778  1.00  0.00    -0.354 N 
ATOM     52  N   UNL A   1      42.317  27.827  31.409  1.00  0.00    -0.248 NA
ATOM     53  C   UNL A   1      43.786  26.352  30.351  1.00  0.00     0.031 C 
ATOM     54  C   UNL A   1      42.731  29.178  35.624  1.00  0.00     0.029 A 
ATOM     55  C   UNL A   1      42.621  28.741  34.313  1.00  0.00     0.049 A 
ATOM     56  H   UNL A   1      41.186  29.260  32.855  1.00  0.00     0.167 HD
ATOM     57  C   UNL A   1      43.293  27.435  32.312  1.00  0.00     0.074 A 
ATOM     58  C   UNL A   1      44.155  26.502  31.615  1.00  0.00     0.031 C 
ATOM     59  C   UNL A   1      43.465  27.816  33.602  1.00  0.00     0.037 A 
BRANCH  46  60
ATOM     60  C   UNL A   1      39.244  31.844  35.635  1.00  0.00     0.064 A 
ATOM     61  C   UNL A   1      38.362  31.344  36.603  1.00  0.00     0.173 A 
ATOM     62  C   UNL A   1      39.664  33.178  35.752  1.00  0.00     0.173 A 
ATOM     63  F   UNL A   1      37.917  30.081  36.524  1.00  0.00    -0.203 F 
ATOM     64  C   UNL A   1      37.898  32.157  37.636  1.00  0.00     0.198 A 
ATOM     65  C   UNL A   1      39.218  33.980  36.798  1.00  0.00     0.198 A 
ATOM     66  F   UNL A   1      40.508  33.702  34.852  1.00  0.00    -0.203 F 
ATOM     67  F   UNL A   1      37.021  31.673  38.526  1.00  0.00    -0.200 F 
ATOM     68  C   UNL A   1      38.331  33.471  37.735  1.00  0.00     0.200 A 
ATOM     69  F   UNL A   1      39.641  35.248  36.897  1.00  0.00    -0.200 F 
ATOM     70  F   UNL A   1      37.885  34.251  38.730  1.00  0.00    -0.200 F 
ENDBRANCH  46  60
BRANCH  47  71
ATOM     71  C   UNL A   1      42.319  26.445  27.814  1.00  0.00     0.064 A 
ATOM     72  C   UNL A   1      41.794  25.173  27.554  1.00  0.00     0.173 A 
ATOM     73  C   UNL A   1      43.295  26.943  26.938  1.00  0.00     0.173 A 
ATOM     74  F   UNL A   1      40.877  24.645  28.377  1.00  0.00    -0.203 F 
ATOM     75  C   UNL A   1      42.236  24.423  26.465  1.00  0.00     0.198 A 
ATOM     76  C   UNL A   1      43.717  26.204  25.836  1.00  0.00     0.198 A 
ATOM     77  F   UNL A   1      43.828  28.156  27.147  1.00  0.00    -0.203 F 
ATOM     78  F   UNL A   1      41.746  23.194  26.257  1.00  0.00    -0.200 F 
ATOM     79  C   UNL A   1      43.192  24.943  25.603  1.00  0.00     0.200 A 
ATOM     80  F   UNL A   1      44.633  26.714  25.001  1.00  0.00    -0.200 F 
ATOM     81  F   UNL A   1      43.612  24.224  24.554  1.00  0.00    -0.200 F 
ENDBRANCH  47  71
BRANCH  59  82
ATOM     82  C   UNL A   1      44.618  27.207  34.343  1.00  0.00     0.064 A 
ATOM     83  C   UNL A   1      44.486  25.989  35.025  1.00  0.00     0.173 A 
ATOM     84  C   UNL A   1      45.872  27.836  34.349  1.00  0.00     0.173 A 
ATOM     85  F   UNL A   1      43.303  25.359  35.061  1.00  0.00    -0.203 F 
ATOM     86  C   UNL A   1      45.564  25.435  35.710  1.00  0.00     0.198 A 
ATOM     87  C   UNL A   1      46.953  27.266  35.015  1.00  0.00     0.198 A 
ATOM     88  F   UNL A   1      46.047  29.000  33.706  1.00  0.00    -0.203 F 
ATOM     89  F   UNL A   1      45.405  24.293  36.395  1.00  0.00    -0.200 F 
ATOM     90  C   UNL A   1      46.797  26.071  35.701  1.00  0.00     0.200 A 
ATOM     91  F   UNL A   1      48.145  27.876  34.998  1.00  0.00    -0.200 F 
ATOM     92  F   UNL A   1      47.833  25.536  36.361  1.00  0.00    -0.200 F 
ENDBRANCH  59  82
ENDBRANCH  33  34
ENDBRANCH  26  28
ENDBRANCH  25  26
ENDBRANCH  24  25
ENDBRANCH  23  24
ENDBRANCH  22  23
ENDBRANCH   1  22
TORSDOF 17
ENDMDL
MODEL 2
REMARK VINA RESULT:     -11.0      1.436      2.615
REMARK SMILES O=C(COCc1ccccc1)NC[C@H]1CC[C@@H](C(=O)OCCOC(=O)c2ccc(-c3c4nc(c(-c5c(F)c(F)c(F)c(F)c5F)c5ccc([nH]5)c(-c5c(F)c(F)c(F)c(F)c5F)c5nc(c(-c6c(F)c(F)c(F)c(F)c6F)c6ccc3[nH]6)C=C5)C=C4)cc2)O1
REMARK SMILES IDX 18 1 19 2 17 3 14 4 15 5 89 6 16 7 13 8 12 9 1 10 2 11 3 13
REMARK SMILES IDX 4 14 5 15 6 16 7 17 11 18 8 19 10 20 9 21 20 22 21 23 22 24
REMARK SMILES IDX 23 25 24 26 25 27 26 28 27 29 88 30 28 31 87 32 29 33 30 34
REMARK SMILES IDX 31 35 81 36 32 37 86 38 80 39 82 40 33 41 85 42 79 43 78 44
REMARK SMILES IDX 34 46 66 47 46 48 65 49 47 50 50 51 64 52 83 53 48 54 49 55
REMARK SMILES IDX 63 57 84 58 51 59 35 60 36 61 44 62 37 63 38 64 42 65 45 66
REMARK SMILES IDX 39 67 40 68 43 69 41 70 67 71 68 72 76 73 69 74 70 75 74 76
REMARK SMILES IDX 77 77 71 78 72 79 75 80 73 81 52 82 53 83 61 84 54 85 55 86
REMARK SMILES IDX 59 87 62 88 56 89 57 90 60 91 58 92
REMARK H PARENT 12 12 82 45 50 56
REMARK Flexibility Score: inf
ROOT
ATOM      1  C   UNL A   1      32.417  28.770  26.309  1.00  0.00     0.335 C 
ATOM      2  O   UNL A   1      32.992  28.481  27.355  1.00  0.00    -0.249 OA
ENDROOT
BRANCH   1   3
ATOM      3  C   UNL A   1      31.380  27.851  25.645  1.00  0.00     0.228 C 
ATOM      4  C   UNL A   1      31.342  26.020  24.185  1.00  0.00     0.138 C 
ATOM      5  C   UNL A   1      30.613  25.621  25.456  1.00  0.00     0.037 C 
ATOM      6  O   UNL A   1      31.595  27.435  24.299  1.00  0.00    -0.361 OA
ATOM      7  C   UNL A   1      31.181  26.584  26.467  1.00  0.00     0.047 C 
BRANCH   4   8
ATOM      8  C   UNL A   1      32.671  25.266  23.980  1.00  0.00     0.148 C 
BRANCH   8   9
ATOM      9  N   UNL A   1      32.460  23.834  24.052  1.00  0.00    -0.351 N 
ATOM     10  O   UNL A   1      34.019  23.342  22.430  1.00  0.00    -0.272 OA
ATOM     11  C   UNL A   1      33.074  22.999  23.138  1.00  0.00     0.246 C 
ATOM     12  H   UNL A   1      31.881  23.456  24.752  1.00  0.00     0.163 HD
BRANCH  11  13
ATOM     13  C   UNL A   1      32.398  21.632  23.009  1.00  0.00     0.260 C 
BRANCH  13  14
ATOM     14  O   UNL A   1      32.277  20.853  24.192  1.00  0.00    -0.367 OA
BRANCH  14  15
ATOM     15  C   UNL A   1      33.477  20.177  24.575  1.00  0.00     0.196 C 
BRANCH  15  16
ATOM     16  C   UNL A   1      33.358  18.673  24.641  1.00  0.00    -0.022 A 
ATOM     17  C   UNL A   1      34.014  17.882  23.687  1.00  0.00     0.006 A 
ATOM     18  C   UNL A   1      32.630  18.043  25.660  1.00  0.00     0.006 A 
ATOM     19  C   UNL A   1      33.917  16.491  23.733  1.00  0.00     0.000 A 
ATOM     20  C   UNL A   1      32.523  16.653  25.696  1.00  0.00     0.000 A 
ATOM     21  C   UNL A   1      33.166  15.877  24.733  1.00  0.00     0.000 A 
ENDBRANCH  15  16
ENDBRANCH  14  15
ENDBRANCH  13  14
ENDBRANCH  11  13
ENDBRANCH   8   9
ENDBRANCH   4   8
ENDBRANCH   1   3
BRANCH   1  22
ATOM     22  O   UNL A   1      32.512  29.975  25.679  1.00  0.00    -0.460 OA
BRANCH  22  23
ATOM     23  C   UNL A   1      31.389  30.860  25.848  1.00  0.00     0.274 C 
BRANCH  23  24
ATOM     24  C   UNL A   1      31.781  32.144  26.590  1.00  0.00     0.275 C 
BRANCH  24  25
ATOM     25  O   UNL A   1      32.756  31.905  27.625  1.00  0.00    -0.458 OA
BRANCH  25  26
ATOM     26  C   UNL A   1      33.659  32.899  27.788  1.00  0.00     0.338 C 
ATOM     27  O   UNL A   1      33.449  34.100  27.746  1.00  0.00    -0.246 OA
BRANCH  26  28
ATOM     28  C   UNL A   1      34.975  32.360  28.170  1.00  0.00     0.060 A 
ATOM     29  C   UNL A   1      35.019  31.027  28.583  1.00  0.00     0.016 A 
ATOM     30  C   UNL A   1      36.115  33.159  28.254  1.00  0.00     0.016 A 
ATOM     31  C   UNL A   1      36.179  30.489  29.116  1.00  0.00     0.010 A 
ATOM     32  C   UNL A   1      37.292  32.618  28.791  1.00  0.00     0.010 A 
ATOM     33  C   UNL A   1      37.318  31.289  29.250  1.00  0.00    -0.014 A 
BRANCH  33  34
ATOM     34  C   UNL A   1      38.478  30.721  29.973  1.00  0.00     0.031 A 
ATOM     35  C   UNL A   1      38.684  31.054  31.422  1.00  0.00     0.074 A 
ATOM     36  C   UNL A   1      39.268  29.819  29.364  1.00  0.00     0.049 A 
ATOM     37  N   UNL A   1      39.606  30.627  32.248  1.00  0.00    -0.248 NA
ATOM     38  C   UNL A   1      37.719  31.986  32.026  1.00  0.00     0.031 C 
ATOM     39  C   UNL A   1      39.121  29.375  27.978  1.00  0.00     0.029 A 
ATOM     40  N   UNL A   1      40.331  29.096  29.839  1.00  0.00    -0.354 N 
ATOM     41  C   UNL A   1      39.346  31.254  33.459  1.00  0.00     0.074 A 
ATOM     42  C   UNL A   1      38.189  32.100  33.261  1.00  0.00     0.031 C 
ATOM     43  C   UNL A   1      40.052  28.442  27.719  1.00  0.00     0.029 A 
ATOM     44  C   UNL A   1      40.877  28.250  28.908  1.00  0.00     0.049 A 
ATOM     45  H   UNL A   1      40.670  29.178  30.760  1.00  0.00     0.167 HD
ATOM     46  C   UNL A   1      40.014  31.130  34.630  1.00  0.00     0.037 A 
ATOM     47  C   UNL A   1      41.934  27.421  29.004  1.00  0.00     0.037 A 
ATOM     48  C   UNL A   1      41.150  30.271  34.831  1.00  0.00     0.049 A 
ATOM     49  C   UNL A   1      42.671  27.320  30.311  1.00  0.00     0.074 A 
ATOM     50  C   UNL A   1      41.895  30.075  35.980  1.00  0.00     0.029 A 
ATOM     51  N   UNL A   1      41.700  29.453  33.854  1.00  0.00    -0.354 N 
ATOM     52  N   UNL A   1      42.429  27.929  31.447  1.00  0.00    -0.248 NA
ATOM     53  C   UNL A   1      43.829  26.415  30.349  1.00  0.00     0.031 C 
ATOM     54  C   UNL A   1      42.919  29.164  35.689  1.00  0.00     0.029 A 
ATOM     55  C   UNL A   1      42.784  28.762  34.369  1.00  0.00     0.049 A 
ATOM     56  H   UNL A   1      41.368  29.376  32.930  1.00  0.00     0.167 HD
ATOM     57  C   UNL A   1      43.391  27.474  32.337  1.00  0.00     0.074 A 
ATOM     58  C   UNL A   1      44.209  26.520  31.615  1.00  0.00     0.031 C 
ATOM     59  C   UNL A   1      43.585  27.818  33.633  1.00  0.00     0.037 A 
BRANCH  46  60
ATOM     60  C   UNL A   1      39.551  31.979  35.776  1.00  0.00     0.064 A 
ATOM     61  C   UNL A   1      40.103  33.242  36.032  1.00  0.00     0.173 A 
ATOM     62  C   UNL A   1      38.527  31.525  36.621  1.00  0.00     0.173 A 
ATOM     63  F   UNL A   1      41.097  33.712  35.263  1.00  0.00    -0.203 F 
ATOM     64  C   UNL A   1      39.664  34.011  37.108  1.00  0.00     0.198 A 
ATOM     65  C   UNL A   1      38.074  32.305  37.681  1.00  0.00     0.198 A 
ATOM     66  F   UNL A   1      37.966  30.324  36.418  1.00  0.00    -0.203 F 
ATOM     67  F   UNL A   1      40.235  35.196  37.361  1.00  0.00    -0.200 F 
ATOM     68  C   UNL A   1      38.646  33.543  37.927  1.00  0.00     0.200 A 
ATOM     69  F   UNL A   1      37.086  31.855  38.468  1.00  0.00    -0.200 F 
ATOM     70  F   UNL A   1      38.224  34.285  38.961  1.00  0.00    -0.200 F 
ENDBRANCH  46  60
BRANCH  47  71
ATOM     71  C   UNL A   1      42.357  26.629  27.822  1.00  0.00     0.064 A 
ATOM     72  C   UNL A   1      43.330  27.109  26.937  1.00  0.00     0.173 A 
ATOM     73  C   UNL A   1      41.796  25.370  27.558  1.00  0.00     0.173 A 
ATOM     74  F   UNL A   1      43.878  28.317  27.135  1.00  0.00    -0.203 F 
ATOM     75  C   UNL A   1      43.720  26.364  25.826  1.00  0.00     0.198 A 
ATOM     76  C   UNL A   1      42.204  24.616  26.461  1.00  0.00     0.198 A 
ATOM     77  F   UNL A   1      40.858  24.868  28.376  1.00  0.00    -0.203 F 
ATOM     78  F   UNL A   1      44.627  26.861  24.973  1.00  0.00    -0.200 F 
ATOM     79  C   UNL A   1      43.162  25.116  25.593  1.00  0.00     0.200 A 
ATOM     80  F   UNL A   1      41.669  23.406  26.246  1.00  0.00    -0.200 F 
ATOM     81  F   UNL A   1      43.541  24.398  24.527  1.00  0.00    -0.200 F 
ENDBRANCH  47  71
BRANCH  59  82
ATOM     82  C   UNL A   1      44.712  27.142  34.355  1.00  0.00     0.064 A 
ATOM     83  C   UNL A   1      44.526  25.925  35.025  1.00  0.00     0.173 A 
ATOM     84  C   UNL A   1      45.997  27.706  34.354  1.00  0.00     0.173 A 
ATOM     85  F   UNL A   1      43.312  25.356  35.067  1.00  0.00    -0.203 F 
ATOM     86  C   UNL A   1      45.581  25.309  35.693  1.00  0.00     0.198 A 
ATOM     87  C   UNL A   1      47.054  27.075  35.001  1.00  0.00     0.198 A 
ATOM     88  F   UNL A   1      46.225  28.867  33.722  1.00  0.00    -0.203 F 
ATOM     89  F   UNL A   1      45.372  24.168  36.366  1.00  0.00    -0.200 F 
ATOM     90  C   UNL A   1      46.845  25.881  35.676  1.00  0.00     0.200 A 
ATOM     91  F   UNL A   1      48.276  27.624  34.978  1.00  0.00    -0.200 F 
ATOM     92  F   UNL A   1      47.859  25.287  36.319  1.00  0.00    -0.200 F 
ENDBRANCH  59  82
ENDBRANCH  33  34
ENDBRANCH  26  28
ENDBRANCH  25  26
ENDBRANCH  24  25
ENDBRANCH  23  24
ENDBRANCH  22  23
ENDBRANCH   1  22
TORSDOF 17
ENDMDL
MODEL 3
REMARK VINA RESULT:     -10.8      4.813      9.900
REMARK SMILES O=C(COCc1ccccc1)NC[C@H]1CC[C@@H](C(=O)OCCOC(=O)c2ccc(-c3c4nc(c(-c5c(F)c(F)c(F)c(F)c5F)c5ccc([nH]5)c(-c5c(F)c(F)c(F)c(F)c5F)c5nc(c(-c6c(F)c(F)c(F)c(F)c6F)c6ccc3[nH]6)C=C5)C=C4)cc2)O1
REMARK SMILES IDX 18 1 19 2 17 3 14 4 15 5 89 6 16 7 13 8 12 9 1 10 2 11 3 13
REMARK SMILES IDX 4 14 5 15 6 16 7 17 11 18 8 19 10 20 9 21 20 22 21 23 22 24
REMARK SMILES IDX 23 25 24 26 25 27 26 28 27 29 88 30 28 31 87 32 29 33 30 34
REMARK SMILES IDX 31 35 81 36 32 37 86 38 80 39 82 40 33 41 85 42 79 43 78 44
REMARK SMILES IDX 34 46 66 47 46 48 65 49 47 50 50 51 64 52 83 53 48 54 49 55
REMARK SMILES IDX 63 57 84 58 51 59 35 60 36 61 44 62 37 63 38 64 42 65 45 66
REMARK SMILES IDX 39 67 40 68 43 69 41 70 67 71 68 72 76 73 69 74 70 75 74 76
REMARK SMILES IDX 77 77 71 78 72 79 75 80 73 81 52 82 53 83 61 84 54 85 55 86
REMARK SMILES IDX 59 87 62 88 56 89 57 90 60 91 58 92
REMARK H PARENT 12 12 82 45 50 56
REMARK Flexibility Score: inf
ROOT
ATOM      1  C   UNL A   1      36.630  21.808  25.276  1.00  0.00     0.335 C 
ATOM      2  O   UNL A   1      36.072  20.725  25.430  1.00  0.00    -0.249 OA
ENDROOT
BRANCH   1   3
ATOM      3  C   UNL A   1      35.935  23.152  25.547  1.00  0.00     0.228 C 
ATOM      4  C   UNL A   1      34.559  24.672  24.416  1.00  0.00     0.138 C 
ATOM      5  C   UNL A   1      33.847  24.254  25.691  1.00  0.00     0.037 C 
ATOM      6  O   UNL A   1      35.889  24.122  24.504  1.00  0.00    -0.361 OA
ATOM      7  C   UNL A   1      34.499  22.931  26.003  1.00  0.00     0.047 C 
BRANCH   4   8
ATOM      8  C   UNL A   1      33.866  24.163  23.135  1.00  0.00     0.148 C 
BRANCH   8   9
ATOM      9  N   UNL A   1      32.614  24.861  22.922  1.00  0.00    -0.351 N 
ATOM     10  O   UNL A   1      33.278  25.819  20.937  1.00  0.00    -0.272 OA
ATOM     11  C   UNL A   1      32.494  25.762  21.882  1.00  0.00     0.246 C 
ATOM     12  H   UNL A   1      31.848  24.692  23.518  1.00  0.00     0.163 HD
BRANCH  11  13
ATOM     13  C   UNL A   1      31.350  26.760  22.067  1.00  0.00     0.260 C 
BRANCH  13  14
ATOM     14  O   UNL A   1      30.721  26.800  23.342  1.00  0.00    -0.367 OA
BRANCH  14  15
ATOM     15  C   UNL A   1      30.767  28.079  23.980  1.00  0.00     0.196 C 
BRANCH  15  16
ATOM     16  C   UNL A   1      31.774  28.188  25.099  1.00  0.00    -0.022 A 
ATOM     17  C   UNL A   1      33.120  28.447  24.800  1.00  0.00     0.006 A 
ATOM     18  C   UNL A   1      31.389  28.068  26.442  1.00  0.00     0.006 A 
ATOM     19  C   UNL A   1      34.064  28.554  25.821  1.00  0.00     0.000 A 
ATOM     20  C   UNL A   1      32.338  28.159  27.460  1.00  0.00     0.000 A 
ATOM     21  C   UNL A   1      33.674  28.402  27.150  1.00  0.00     0.000 A 
ENDBRANCH  15  16
ENDBRANCH  14  15
ENDBRANCH  13  14
ENDBRANCH  11  13
ENDBRANCH   8   9
ENDBRANCH   4   8
ENDBRANCH   1   3
BRANCH   1  22
ATOM     22  O   UNL A   1      37.952  21.964  24.985  1.00  0.00    -0.460 OA
BRANCH  22  23
ATOM     23  C   UNL A   1      38.875  21.414  25.944  1.00  0.00     0.274 C 
BRANCH  23  24
ATOM     24  C   UNL A   1      39.518  20.117  25.437  1.00  0.00     0.275 C 
BRANCH  24  25
ATOM     25  O   UNL A   1      40.336  19.481  26.439  1.00  0.00    -0.458 OA
BRANCH  25  26
ATOM     26  C   UNL A   1      41.656  19.435  26.142  1.00  0.00     0.338 C 
ATOM     27  O   UNL A   1      42.251  18.541  25.563  1.00  0.00    -0.246 OA
BRANCH  26  28
ATOM     28  C   UNL A   1      42.319  20.702  26.491  1.00  0.00     0.060 A 
ATOM     29  C   UNL A   1      42.289  21.085  27.833  1.00  0.00     0.016 A 
ATOM     30  C   UNL A   1      42.842  21.564  25.527  1.00  0.00     0.016 A 
ATOM     31  C   UNL A   1      42.739  22.336  28.223  1.00  0.00     0.010 A 
ATOM     32  C   UNL A   1      43.301  22.830  25.918  1.00  0.00     0.010 A 
ATOM     33  C   UNL A   1      43.225  23.230  27.264  1.00  0.00    -0.014 A 
BRANCH  33  34
ATOM     34  C   UNL A   1      43.540  24.608  27.702  1.00  0.00     0.031 A 
ATOM     35  C   UNL A   1      44.966  25.077  27.703  1.00  0.00     0.074 A 
ATOM     36  C   UNL A   1      42.542  25.465  27.980  1.00  0.00     0.049 A 
ATOM     37  N   UNL A   1      45.451  26.255  28.005  1.00  0.00    -0.248 NA
ATOM     38  C   UNL A   1      45.983  24.092  27.304  1.00  0.00     0.031 C 
ATOM     39  C   UNL A   1      41.118  25.134  27.950  1.00  0.00     0.029 A 
ATOM     40  N   UNL A   1      42.572  26.794  28.315  1.00  0.00    -0.354 N 
ATOM     41  C   UNL A   1      46.827  26.147  27.854  1.00  0.00     0.074 A 
ATOM     42  C   UNL A   1      47.103  24.786  27.445  1.00  0.00     0.031 C 
ATOM     43  C   UNL A   1      40.408  26.236  28.239  1.00  0.00     0.029 A 
ATOM     44  C   UNL A   1      41.328  27.338  28.506  1.00  0.00     0.049 A 
ATOM     45  H   UNL A   1      43.407  27.307  28.410  1.00  0.00     0.167 HD
ATOM     46  C   UNL A   1      47.771  27.099  28.038  1.00  0.00     0.037 A 
ATOM     47  C   UNL A   1      40.973  28.586  28.868  1.00  0.00     0.037 A 
ATOM     48  C   UNL A   1      47.490  28.457  28.420  1.00  0.00     0.049 A 
ATOM     49  C   UNL A   1      42.045  29.619  29.087  1.00  0.00     0.074 A 
ATOM     50  C   UNL A   1      48.378  29.498  28.632  1.00  0.00     0.029 A 
ATOM     51  N   UNL A   1      46.219  28.966  28.642  1.00  0.00    -0.354 N 
ATOM     52  N   UNL A   1      43.344  29.503  28.958  1.00  0.00    -0.248 NA
ATOM     53  C   UNL A   1      41.598  30.956  29.501  1.00  0.00     0.031 C 
ATOM     54  C   UNL A   1      47.645  30.628  29.014  1.00  0.00     0.029 A 
ATOM     55  C   UNL A   1      46.298  30.301  29.002  1.00  0.00     0.049 A 
ATOM     56  H   UNL A   1      45.383  28.453  28.556  1.00  0.00     0.167 HD
ATOM     57  C   UNL A   1      43.871  30.750  29.261  1.00  0.00     0.074 A 
ATOM     58  C   UNL A   1      42.747  31.615  29.559  1.00  0.00     0.031 C 
ATOM     59  C   UNL A   1      45.167  31.144  29.294  1.00  0.00     0.037 A 
BRANCH  46  60
ATOM     60  C   UNL A   1      49.202  26.689  27.862  1.00  0.00     0.064 A 
ATOM     61  C   UNL A   1      49.786  26.563  26.594  1.00  0.00     0.173 A 
ATOM     62  C   UNL A   1      50.005  26.435  28.985  1.00  0.00     0.173 A 
ATOM     63  F   UNL A   1      49.054  26.779  25.490  1.00  0.00    -0.203 F 
ATOM     64  C   UNL A   1      51.116  26.173  26.454  1.00  0.00     0.198 A 
ATOM     65  C   UNL A   1      51.340  26.067  28.842  1.00  0.00     0.198 A 
ATOM     66  F   UNL A   1      49.494  26.543  30.220  1.00  0.00    -0.203 F 
ATOM     67  F   UNL A   1      51.642  26.015  25.231  1.00  0.00    -0.200 F 
ATOM     68  C   UNL A   1      51.892  25.931  27.578  1.00  0.00     0.200 A 
ATOM     69  F   UNL A   1      52.091  25.840  29.929  1.00  0.00    -0.200 F 
ATOM     70  F   UNL A   1      53.172  25.556  27.441  1.00  0.00    -0.200 F 
ENDBRANCH  46  60
BRANCH  47  71
ATOM     71  C   UNL A   1      39.539  28.919  29.051  1.00  0.00     0.064 A 
ATOM     72  C   UNL A   1      38.754  29.359  27.978  1.00  0.00     0.173 A 
ATOM     73  C   UNL A   1      38.924  28.798  30.306  1.00  0.00     0.173 A 
ATOM     74  F   UNL A   1      39.303  29.513  26.765  1.00  0.00    -0.203 F 
ATOM     75  C   UNL A   1      37.408  29.676  28.156  1.00  0.00     0.198 A 
ATOM     76  C   UNL A   1      37.573  29.091  30.478  1.00  0.00     0.198 A 
ATOM     77  F   UNL A   1      39.635  28.382  31.365  1.00  0.00    -0.203 F 
ATOM     78  F   UNL A   1      36.687  30.131  27.122  1.00  0.00    -0.200 F 
ATOM     79  C   UNL A   1      36.818  29.535  29.404  1.00  0.00     0.200 A 
ATOM     80  F   UNL A   1      37.005  28.944  31.682  1.00  0.00    -0.200 F 
ATOM     81  F   UNL A   1      35.523  29.835  29.572  1.00  0.00    -0.200 F 
ENDBRANCH  47  71
BRANCH  59  82
ATOM     82  C   UNL A   1      45.434  32.577  29.648  1.00  0.00     0.064 A 
ATOM     83  C   UNL A   1      45.677  32.970  30.972  1.00  0.00     0.173 A 
ATOM     84  C   UNL A   1      45.472  33.561  28.649  1.00  0.00     0.173 A 
ATOM     85  F   UNL A   1      45.636  32.067  31.963  1.00  0.00    -0.203 F 
ATOM     86  C   UNL A   1      45.922  34.304  31.286  1.00  0.00     0.198 A 
ATOM     87  C   UNL A   1      45.742  34.889  28.965  1.00  0.00     0.198 A 
ATOM     88  F   UNL A   1      45.251  33.232  27.367  1.00  0.00    -0.203 F 
ATOM     89  F   UNL A   1      46.107  34.666  32.564  1.00  0.00    -0.200 F 
ATOM     90  C   UNL A   1      45.959  35.261  30.283  1.00  0.00     0.200 A 
ATOM     91  F   UNL A   1      45.786  35.811  27.994  1.00  0.00    -0.200 F 
ATOM     92  F   UNL A   1      46.195  36.544  30.588  1.00  0.00    -0.200 F 
ENDBRANCH  59  82
ENDBRANCH  33  34
ENDBRANCH  26  28
ENDBRANCH  25  26
ENDBRANCH  24  25
ENDBRANCH  23  24
ENDBRANCH  22  23
ENDBRANCH   1  22
TORSDOF 17
ENDMDL
