MODEL 1
REMARK VINA RESULT:     -11.7      0.000      0.000
REMARK SMILES O=C(OCCOC(=O)c1cccc2nc(Cl)c(Cl)nc12)c1ccc(-c2c3nc(c(-c4c(F)c(F)c(F)c(F)c4F)c4ccc([nH]4)c(-c4c(F)c(F)c(F)c(F)c4F)c4nc(c(-c5c(F)c(F)c(F)c(F)c5F)c5ccc2[nH]5)C=C4)C=C3)cc1
REMARK SMILES IDX 4 1 3 2 2 3 1 4 21 5 22 6 83 7 23 8 82 9 24 10 25 11 26 12
REMARK SMILES IDX 76 13 27 14 81 15 75 16 77 17 28 18 80 19 74 20 73 21 29 23
REMARK SMILES IDX 61 24 41 25 60 26 42 27 45 28 59 29 78 30 43 31 44 32 58 34
REMARK SMILES IDX 79 35 46 36 30 37 31 38 39 39 32 40 33 41 37 42 40 43 34 44
REMARK SMILES IDX 35 45 38 46 36 47 62 48 63 49 71 50 64 51 65 52 69 53 72 54
REMARK SMILES IDX 66 55 67 56 70 57 68 58 47 59 48 60 56 61 49 62 50 63 54 64
REMARK SMILES IDX 57 65 51 66 52 67 55 68 53 69 5 70 6 71 7 72 8 73 9 74 10 75
REMARK SMILES IDX 20 76 11 77 13 78 19 79 12 80 14 81 17 82 15 83 18 84 16 85
REMARK H PARENT 77 22 45 33
REMARK Flexibility Score: inf
ROOT
ATOM      1  C   UNL A   1      35.080  32.821  28.355  1.00  0.00     0.275 C 
ENDROOT
BRANCH   1   2
ATOM      2  O   UNL A   1      34.363  31.705  27.801  1.00  0.00    -0.458 OA
BRANCH   2   3
ATOM      3  C   UNL A   1      34.755  30.407  27.761  1.00  0.00     0.338 C 
ATOM      4  O   UNL A   1      33.947  29.525  27.485  1.00  0.00    -0.246 OA
BRANCH   3   5
ATOM      5  C   UNL A   1      36.103  29.988  28.246  1.00  0.00     0.060 A 
ATOM      6  C   UNL A   1      37.156  30.099  27.326  1.00  0.00     0.016 A 
ATOM      7  C   UNL A   1      36.396  29.526  29.529  1.00  0.00     0.016 A 
ATOM      8  C   UNL A   1      38.432  29.620  27.630  1.00  0.00     0.010 A 
ATOM      9  C   UNL A   1      37.676  29.066  29.849  1.00  0.00     0.010 A 
ATOM     10  C   UNL A   1      38.699  29.082  28.896  1.00  0.00    -0.014 A 
BRANCH  10  11
ATOM     11  C   UNL A   1      40.079  28.735  29.299  1.00  0.00     0.031 A 
ATOM     12  C   UNL A   1      40.960  29.674  30.066  1.00  0.00     0.074 A 
ATOM     13  C   UNL A   1      40.561  27.551  28.883  1.00  0.00     0.049 A 
ATOM     14  N   UNL A   1      42.119  29.439  30.630  1.00  0.00    -0.248 NA
ATOM     15  C   UNL A   1      40.481  31.051  30.248  1.00  0.00     0.031 C 
ATOM     16  C   UNL A   1      39.815  26.579  28.081  1.00  0.00     0.029 A 
ATOM     17  N   UNL A   1      41.794  26.982  29.045  1.00  0.00    -0.354 N 
ATOM     18  C   UNL A   1      42.444  30.592  31.328  1.00  0.00     0.074 A 
ATOM     19  C   UNL A   1      41.406  31.560  31.053  1.00  0.00     0.031 C 
ATOM     20  C   UNL A   1      40.611  25.537  27.808  1.00  0.00     0.029 A 
ATOM     21  C   UNL A   1      41.927  25.789  28.384  1.00  0.00     0.049 A 
ATOM     22  H   UNL A   1      42.512  27.388  29.581  1.00  0.00     0.167 HD
ATOM     23  C   UNL A   1      43.513  30.815  32.128  1.00  0.00     0.037 A 
ATOM     24  C   UNL A   1      43.002  24.998  28.235  1.00  0.00     0.037 A 
ATOM     25  C   UNL A   1      44.657  29.941  32.189  1.00  0.00     0.049 A 
ATOM     26  C   UNL A   1      44.277  25.381  28.922  1.00  0.00     0.074 A 
ATOM     27  C   UNL A   1      45.838  30.100  32.890  1.00  0.00     0.029 A 
ATOM     28  N   UNL A   1      44.793  28.779  31.438  1.00  0.00    -0.354 N 
ATOM     29  N   UNL A   1      44.512  26.395  29.720  1.00  0.00    -0.248 NA
ATOM     30  C   UNL A   1      45.433  24.510  28.693  1.00  0.00     0.031 C 
ATOM     31  C   UNL A   1      46.727  29.100  32.475  1.00  0.00     0.029 A 
ATOM     32  C   UNL A   1      46.071  28.265  31.583  1.00  0.00     0.049 A 
ATOM     33  H   UNL A   1      44.084  28.380  30.883  1.00  0.00     0.167 HD
ATOM     34  C   UNL A   1      45.841  26.281  30.101  1.00  0.00     0.074 A 
ATOM     35  C   UNL A   1      46.349  25.080  29.463  1.00  0.00     0.031 C 
ATOM     36  C   UNL A   1      46.573  27.094  30.903  1.00  0.00     0.037 A 
BRANCH  23  37
ATOM     37  C   UNL A   1      43.511  32.067  32.958  1.00  0.00     0.064 A 
ATOM     38  C   UNL A   1      44.067  33.259  32.463  1.00  0.00     0.173 A 
ATOM     39  C   UNL A   1      42.918  32.101  34.228  1.00  0.00     0.173 A 
ATOM     40  F   UNL A   1      44.665  33.278  31.263  1.00  0.00    -0.203 F 
ATOM     41  C   UNL A   1      44.032  34.434  33.212  1.00  0.00     0.198 A 
ATOM     42  C   UNL A   1      42.872  33.283  34.968  1.00  0.00     0.198 A 
ATOM     43  F   UNL A   1      42.381  30.991  34.753  1.00  0.00    -0.203 F 
ATOM     44  F   UNL A   1      44.592  35.553  32.728  1.00  0.00    -0.200 F 
ATOM     45  C   UNL A   1      43.430  34.447  34.461  1.00  0.00     0.200 A 
ATOM     46  F   UNL A   1      42.291  33.293  36.175  1.00  0.00    -0.200 F 
ATOM     47  F   UNL A   1      43.398  35.577  35.181  1.00  0.00    -0.200 F 
ENDBRANCH  23  37
BRANCH  24  48
ATOM     48  C   UNL A   1      42.873  23.771  27.414  1.00  0.00     0.064 A 
ATOM     49  C   UNL A   1      43.265  23.765  26.071  1.00  0.00     0.173 A 
ATOM     50  C   UNL A   1      42.458  22.555  27.983  1.00  0.00     0.173 A 
ATOM     51  F   UNL A   1      43.658  24.905  25.484  1.00  0.00    -0.203 F 
ATOM     52  C   UNL A   1      43.261  22.587  25.329  1.00  0.00     0.198 A 
ATOM     53  C   UNL A   1      42.481  21.374  27.248  1.00  0.00     0.198 A 
ATOM     54  F   UNL A   1      42.084  22.509  29.271  1.00  0.00    -0.203 F 
ATOM     55  F   UNL A   1      43.636  22.608  24.043  1.00  0.00    -0.200 F 
ATOM     56  C   UNL A   1      42.884  21.390  25.922  1.00  0.00     0.200 A 
ATOM     57  F   UNL A   1      42.139  20.218  27.832  1.00  0.00    -0.200 F 
ATOM     58  F   UNL A   1      42.913  20.252  25.216  1.00  0.00    -0.200 F 
ENDBRANCH  24  48
BRANCH  36  59
ATOM     59  C   UNL A   1      48.014  26.724  31.108  1.00  0.00     0.064 A 
ATOM     60  C   UNL A   1      48.407  25.865  32.146  1.00  0.00     0.173 A 
ATOM     61  C   UNL A   1      49.009  27.213  30.248  1.00  0.00     0.173 A 
ATOM     62  F   UNL A   1      47.496  25.381  33.005  1.00  0.00    -0.203 F 
ATOM     63  C   UNL A   1      49.747  25.540  32.338  1.00  0.00     0.198 A 
ATOM     64  C   UNL A   1      50.343  26.853  30.419  1.00  0.00     0.198 A 
ATOM     65  F   UNL A   1      48.686  28.030  29.235  1.00  0.00    -0.203 F 
ATOM     66  F   UNL A   1      50.105  24.768  33.374  1.00  0.00    -0.200 F 
ATOM     67  C   UNL A   1      50.712  26.027  31.470  1.00  0.00     0.200 A 
ATOM     68  F   UNL A   1      51.271  27.310  29.568  1.00  0.00    -0.200 F 
ATOM     69  F   UNL A   1      52.000  25.707  31.651  1.00  0.00    -0.200 F 
ENDBRANCH  36  59
ENDBRANCH  10  11
ENDBRANCH   3   5
ENDBRANCH   2   3
ENDBRANCH   1   2
BRANCH   1  70
ATOM     70  C   UNL A   1      34.754  34.175  27.721  1.00  0.00     0.275 C 
BRANCH  70  71
ATOM     71  O   UNL A   1      34.480  35.207  28.681  1.00  0.00    -0.458 OA
BRANCH  71  72
ATOM     72  C   UNL A   1      33.385  35.005  29.464  1.00  0.00     0.340 C 
ATOM     73  O   UNL A   1      32.374  34.395  29.162  1.00  0.00    -0.246 OA
BRANCH  72  74
ATOM     74  C   UNL A   1      33.594  35.691  30.752  1.00  0.00     0.088 A 
ATOM     75  C   UNL A   1      33.141  37.011  30.886  1.00  0.00     0.018 A 
ATOM     76  C   UNL A   1      34.255  35.025  31.791  1.00  0.00     0.105 A 
ATOM     77  C   UNL A   1      33.364  37.693  32.074  1.00  0.00     0.003 A 
ATOM     78  C   UNL A   1      34.507  35.758  32.983  1.00  0.00     0.091 A 
ATOM     79  N   UNL A   1      34.712  33.753  31.676  1.00  0.00    -0.230 NA
ATOM     80  C   UNL A   1      34.061  37.066  33.101  1.00  0.00     0.031 A 
ATOM     81  N   UNL A   1      35.207  35.243  34.009  1.00  0.00    -0.231 NA
ATOM     82  C   UNL A   1      35.400  33.237  32.722  1.00  0.00     0.167 A 
ATOM     83  C   UNL A   1      35.652  33.974  33.864  1.00  0.00     0.167 A 
ATOM     84  Cl  UNL A   1      35.966  31.640  32.467  1.00  0.00    -0.059 Cl
ATOM     85  Cl  UNL A   1      36.577  33.414  35.197  1.00  0.00    -0.059 Cl
ENDBRANCH  72  74
ENDBRANCH  71  72
ENDBRANCH  70  71
ENDBRANCH   1  70
TORSDOF 11
ENDMDL
MODEL 2
REMARK VINA RESULT:     -11.6      4.486     11.879
REMARK SMILES O=C(OCCOC(=O)c1cccc2nc(Cl)c(Cl)nc12)c1ccc(-c2c3nc(c(-c4c(F)c(F)c(F)c(F)c4F)c4ccc([nH]4)c(-c4c(F)c(F)c(F)c(F)c4F)c4nc(c(-c5c(F)c(F)c(F)c(F)c5F)c5ccc2[nH]5)C=C4)C=C3)cc1
REMARK SMILES IDX 4 1 3 2 2 3 1 4 21 5 22 6 83 7 23 8 82 9 24 10 25 11 26 12
REMARK SMILES IDX 76 13 27 14 81 15 75 16 77 17 28 18 80 19 74 20 73 21 29 23
REMARK SMILES IDX 61 24 41 25 60 26 42 27 45 28 59 29 78 30 43 31 44 32 58 34
REMARK SMILES IDX 79 35 46 36 30 37 31 38 39 39 32 40 33 41 37 42 40 43 34 44
REMARK SMILES IDX 35 45 38 46 36 47 62 48 63 49 71 50 64 51 65 52 69 53 72 54
REMARK SMILES IDX 66 55 67 56 70 57 68 58 47 59 48 60 56 61 49 62 50 63 54 64
REMARK SMILES IDX 57 65 51 66 52 67 55 68 53 69 5 70 6 71 7 72 8 73 9 74 10 75
REMARK SMILES IDX 20 76 11 77 13 78 19 79 12 80 14 81 17 82 15 83 18 84 16 85
REMARK H PARENT 77 22 45 33
REMARK Flexibility Score: inf
ROOT
ATOM      1  C   UNL A   1      40.771  21.849  27.245  1.00  0.00     0.275 C 
ENDROOT
BRANCH   1   2
ATOM      2  O   UNL A   1      39.665  22.153  26.379  1.00  0.00    -0.458 OA
BRANCH   2   3
ATOM      3  C   UNL A   1      38.921  23.287  26.354  1.00  0.00     0.338 C 
ATOM      4  O   UNL A   1      37.903  23.344  25.669  1.00  0.00    -0.246 OA
BRANCH   3   5
ATOM      5  C   UNL A   1      39.412  24.552  26.975  1.00  0.00     0.060 A 
ATOM      6  C   UNL A   1      39.030  24.779  28.306  1.00  0.00     0.016 A 
ATOM      7  C   UNL A   1      40.229  25.497  26.355  1.00  0.00     0.016 A 
ATOM      8  C   UNL A   1      39.326  25.985  28.945  1.00  0.00     0.010 A 
ATOM      9  C   UNL A   1      40.549  26.697  26.996  1.00  0.00     0.010 A 
ATOM     10  C   UNL A   1      40.080  26.964  28.285  1.00  0.00    -0.014 A 
BRANCH  10  11
ATOM     11  C   UNL A   1      40.556  28.168  29.002  1.00  0.00     0.031 A 
ATOM     12  C   UNL A   1      41.928  28.267  29.596  1.00  0.00     0.074 A 
ATOM     13  C   UNL A   1      39.675  29.168  29.175  1.00  0.00     0.049 A 
ATOM     14  N   UNL A   1      42.533  29.315  30.097  1.00  0.00    -0.248 NA
ATOM     15  C   UNL A   1      42.743  27.045  29.620  1.00  0.00     0.031 C 
ATOM     16  C   UNL A   1      38.293  29.161  28.691  1.00  0.00     0.029 A 
ATOM     17  N   UNL A   1      39.797  30.363  29.830  1.00  0.00    -0.354 N 
ATOM     18  C   UNL A   1      43.830  28.909  30.379  1.00  0.00     0.074 A 
ATOM     19  C   UNL A   1      43.905  27.497  30.075  1.00  0.00     0.031 C 
ATOM     20  C   UNL A   1      37.690  30.291  29.078  1.00  0.00     0.029 A 
ATOM     21  C   UNL A   1      38.631  31.080  29.864  1.00  0.00     0.049 A 
ATOM     22  H   UNL A   1      40.638  30.675  30.235  1.00  0.00     0.167 HD
ATOM     23  C   UNL A   1      44.860  29.653  30.846  1.00  0.00     0.037 A 
ATOM     24  C   UNL A   1      38.343  32.234  30.486  1.00  0.00     0.037 A 
ATOM     25  C   UNL A   1      44.702  30.983  31.379  1.00  0.00     0.049 A 
ATOM     26  C   UNL A   1      39.435  32.942  31.228  1.00  0.00     0.074 A 
ATOM     27  C   UNL A   1      45.649  31.804  31.962  1.00  0.00     0.029 A 
ATOM     28  N   UNL A   1      43.485  31.647  31.475  1.00  0.00    -0.354 N 
ATOM     29  N   UNL A   1      40.702  32.620  31.338  1.00  0.00    -0.248 NA
ATOM     30  C   UNL A   1      39.060  34.175  31.927  1.00  0.00     0.031 C 
ATOM     31  C   UNL A   1      44.986  32.909  32.510  1.00  0.00     0.029 A 
ATOM     32  C   UNL A   1      43.639  32.822  32.193  1.00  0.00     0.049 A 
ATOM     33  H   UNL A   1      42.637  31.328  31.089  1.00  0.00     0.167 HD
ATOM     34  C   UNL A   1      41.283  33.615  32.110  1.00  0.00     0.074 A 
ATOM     35  C   UNL A   1      40.229  34.565  32.416  1.00  0.00     0.031 C 
ATOM     36  C   UNL A   1      42.569  33.732  32.527  1.00  0.00     0.037 A 
BRANCH  23  37
ATOM     37  C   UNL A   1      46.225  29.029  30.842  1.00  0.00     0.064 A 
ATOM     38  C   UNL A   1      46.708  28.347  31.972  1.00  0.00     0.173 A 
ATOM     39  C   UNL A   1      47.043  29.066  29.703  1.00  0.00     0.173 A 
ATOM     40  F   UNL A   1      45.977  28.299  33.095  1.00  0.00    -0.203 F 
ATOM     41  C   UNL A   1      47.959  27.731  31.960  1.00  0.00     0.198 A 
ATOM     42  C   UNL A   1      48.287  28.436  29.691  1.00  0.00     0.198 A 
ATOM     43  F   UNL A   1      46.636  29.710  28.600  1.00  0.00    -0.203 F 
ATOM     44  F   UNL A   1      48.408  27.109  33.060  1.00  0.00    -0.200 F 
ATOM     45  C   UNL A   1      48.744  27.770  30.819  1.00  0.00     0.200 A 
ATOM     46  F   UNL A   1      49.045  28.476  28.587  1.00  0.00    -0.200 F 
ATOM     47  F   UNL A   1      49.947  27.179  30.809  1.00  0.00    -0.200 F 
ENDBRANCH  23  37
BRANCH  24  48
ATOM     48  C   UNL A   1      36.963  32.767  30.394  1.00  0.00     0.064 A 
ATOM     49  C   UNL A   1      36.047  32.561  31.431  1.00  0.00     0.173 A 
ATOM     50  C   UNL A   1      36.568  33.581  29.320  1.00  0.00     0.173 A 
ATOM     51  F   UNL A   1      36.377  31.781  32.471  1.00  0.00    -0.203 F 
ATOM     52  C   UNL A   1      34.790  33.160  31.406  1.00  0.00     0.198 A 
ATOM     53  C   UNL A   1      35.322  34.202  29.310  1.00  0.00     0.198 A 
ATOM     54  F   UNL A   1      37.416  33.818  28.308  1.00  0.00    -0.203 F 
ATOM     55  F   UNL A   1      33.928  32.942  32.409  1.00  0.00    -0.200 F 
ATOM     56  C   UNL A   1      34.434  33.992  30.354  1.00  0.00     0.200 A 
ATOM     57  F   UNL A   1      34.993  35.023  28.304  1.00  0.00    -0.200 F 
ATOM     58  F   UNL A   1      33.238  34.594  30.349  1.00  0.00    -0.200 F 
ENDBRANCH  24  48
BRANCH  36  59
ATOM     59  C   UNL A   1      42.896  34.918  33.388  1.00  0.00     0.064 A 
ATOM     60  C   UNL A   1      42.835  34.842  34.789  1.00  0.00     0.173 A 
ATOM     61  C   UNL A   1      43.295  36.133  32.813  1.00  0.00     0.173 A 
ATOM     62  F   UNL A   1      42.445  33.706  35.388  1.00  0.00    -0.203 F 
ATOM     63  C   UNL A   1      43.125  35.950  35.579  1.00  0.00     0.198 A 
ATOM     64  C   UNL A   1      43.623  37.228  33.609  1.00  0.00     0.198 A 
ATOM     65  F   UNL A   1      43.379  36.256  31.481  1.00  0.00    -0.203 F 
ATOM     66  F   UNL A   1      42.998  35.872  36.911  1.00  0.00    -0.200 F 
ATOM     67  C   UNL A   1      43.526  37.139  34.989  1.00  0.00     0.200 A 
ATOM     68  F   UNL A   1      44.030  38.370  33.037  1.00  0.00    -0.200 F 
ATOM     69  F   UNL A   1      43.813  38.203  35.752  1.00  0.00    -0.200 F 
ENDBRANCH  36  59
ENDBRANCH  10  11
ENDBRANCH   3   5
ENDBRANCH   2   3
ENDBRANCH   1   2
BRANCH   1  70
ATOM     70  C   UNL A   1      40.887  20.378  27.650  1.00  0.00     0.275 C 
BRANCH  70  71
ATOM     71  O   UNL A   1      42.129  19.772  27.260  1.00  0.00    -0.458 OA
BRANCH  71  72
ATOM     72  C   UNL A   1      42.290  19.572  25.923  1.00  0.00     0.340 C 
ATOM     73  O   UNL A   1      41.413  19.354  25.106  1.00  0.00    -0.246 OA
BRANCH  72  74
ATOM     74  C   UNL A   1      43.730  19.617  25.610  1.00  0.00     0.088 A 
ATOM     75  C   UNL A   1      44.465  18.426  25.684  1.00  0.00     0.018 A 
ATOM     76  C   UNL A   1      44.328  20.838  25.276  1.00  0.00     0.105 A 
ATOM     77  C   UNL A   1      45.831  18.449  25.436  1.00  0.00     0.003 A 
ATOM     78  C   UNL A   1      45.734  20.843  25.067  1.00  0.00     0.091 A 
ATOM     79  N   UNL A   1      43.636  22.003  25.213  1.00  0.00    -0.230 NA
ATOM     80  C   UNL A   1      46.453  19.659  25.150  1.00  0.00     0.031 A 
ATOM     81  N   UNL A   1      46.421  21.974  24.825  1.00  0.00    -0.231 NA
ATOM     82  C   UNL A   1      44.334  23.133  24.952  1.00  0.00     0.167 A 
ATOM     83  C   UNL A   1      45.704  23.119  24.771  1.00  0.00     0.167 A 
ATOM     84  Cl  UNL A   1      43.378  24.555  24.928  1.00  0.00    -0.059 Cl
ATOM     85  Cl  UNL A   1      46.664  24.517  24.509  1.00  0.00    -0.059 Cl
ENDBRANCH  72  74
ENDBRANCH  71  72
ENDBRANCH  70  71
ENDBRANCH   1  70
TORSDOF 11
ENDMDL
MODEL 3
REMARK VINA RESULT:     -11.5      4.478     10.051
REMARK SMILES O=C(OCCOC(=O)c1cccc2nc(Cl)c(Cl)nc12)c1ccc(-c2c3nc(c(-c4c(F)c(F)c(F)c(F)c4F)c4ccc([nH]4)c(-c4c(F)c(F)c(F)c(F)c4F)c4nc(c(-c5c(F)c(F)c(F)c(F)c5F)c5ccc2[nH]5)C=C4)C=C3)cc1
REMARK SMILES IDX 4 1 3 2 2 3 1 4 21 5 22 6 83 7 23 8 82 9 24 10 25 11 26 12
REMARK SMILES IDX 76 13 27 14 81 15 75 16 77 17 28 18 80 19 74 20 73 21 29 23
REMARK SMILES IDX 61 24 41 25 60 26 42 27 45 28 59 29 78 30 43 31 44 32 58 34
REMARK SMILES IDX 79 35 46 36 30 37 31 38 39 39 32 40 33 41 37 42 40 43 34 44
REMARK SMILES IDX 35 45 38 46 36 47 62 48 63 49 71 50 64 51 65 52 69 53 72 54
REMARK SMILES IDX 66 55 67 56 70 57 68 58 47 59 48 60 56 61 49 62 50 63 54 64
REMARK SMILES IDX 57 65 51 66 52 67 55 68 53 69 5 70 6 71 7 72 8 73 9 74 10 75
REMARK SMILES IDX 20 76 11 77 13 78 19 79 12 80 14 81 17 82 15 83 18 84 16 85
REMARK H PARENT 77 22 45 33
REMARK Flexibility Score: inf
ROOT
ATOM      1  C   UNL A   1      32.427  33.129  26.878  1.00  0.00     0.275 C 
ENDROOT
BRANCH   1   2
ATOM      2  O   UNL A   1      32.152  33.988  27.998  1.00  0.00    -0.458 OA
BRANCH   2   3
ATOM      3  C   UNL A   1      33.041  34.710  28.725  1.00  0.00     0.338 C 
ATOM      4  O   UNL A   1      32.943  35.933  28.785  1.00  0.00    -0.246 OA
BRANCH   3   5
ATOM      5  C   UNL A   1      34.269  34.083  29.294  1.00  0.00     0.060 A 
ATOM      6  C   UNL A   1      34.068  33.112  30.287  1.00  0.00     0.016 A 
ATOM      7  C   UNL A   1      35.579  34.364  28.905  1.00  0.00     0.016 A 
ATOM      8  C   UNL A   1      35.146  32.552  30.976  1.00  0.00     0.010 A 
ATOM      9  C   UNL A   1      36.663  33.790  29.574  1.00  0.00     0.010 A 
ATOM     10  C   UNL A   1      36.458  32.901  30.633  1.00  0.00    -0.014 A 
BRANCH  10  11
ATOM     11  C   UNL A   1      37.613  32.190  31.224  1.00  0.00     0.031 A 
ATOM     12  C   UNL A   1      38.233  30.983  30.588  1.00  0.00     0.074 A 
ATOM     13  C   UNL A   1      38.056  32.623  32.417  1.00  0.00     0.049 A 
ATOM     14  N   UNL A   1      39.346  30.368  30.904  1.00  0.00    -0.248 NA
ATOM     15  C   UNL A   1      37.535  30.391  29.439  1.00  0.00     0.031 C 
ATOM     16  C   UNL A   1      37.493  33.753  33.159  1.00  0.00     0.029 A 
ATOM     17  N   UNL A   1      39.050  32.148  33.227  1.00  0.00    -0.354 N 
ATOM     18  C   UNL A   1      39.540  29.404  29.925  1.00  0.00     0.074 A 
ATOM     19  C   UNL A   1      38.390  29.453  29.050  1.00  0.00     0.031 C 
ATOM     20  C   UNL A   1      38.142  33.876  34.323  1.00  0.00     0.029 A 
ATOM     21  C   UNL A   1      39.136  32.814  34.421  1.00  0.00     0.049 A 
ATOM     22  H   UNL A   1      39.643  31.403  32.977  1.00  0.00     0.167 HD
ATOM     23  C   UNL A   1      40.588  28.560  29.774  1.00  0.00     0.037 A 
ATOM     24  C   UNL A   1      39.913  32.576  35.490  1.00  0.00     0.037 A 
ATOM     25  C   UNL A   1      41.592  28.350  30.787  1.00  0.00     0.049 A 
ATOM     26  C   UNL A   1      40.913  31.463  35.418  1.00  0.00     0.074 A 
ATOM     27  C   UNL A   1      42.650  27.460  30.791  1.00  0.00     0.029 A 
ATOM     28  N   UNL A   1      41.599  28.984  32.024  1.00  0.00    -0.354 N 
ATOM     29  N   UNL A   1      41.194  30.670  34.413  1.00  0.00    -0.248 NA
ATOM     30  C   UNL A   1      41.706  31.215  36.626  1.00  0.00     0.031 C 
ATOM     31  C   UNL A   1      43.223  27.475  32.069  1.00  0.00     0.029 A 
ATOM     32  C   UNL A   1      42.580  28.437  32.834  1.00  0.00     0.049 A 
ATOM     33  H   UNL A   1      40.993  29.715  32.286  1.00  0.00     0.167 HD
ATOM     34  C   UNL A   1      42.206  29.832  34.858  1.00  0.00     0.074 A 
ATOM     35  C   UNL A   1      42.504  30.238  36.220  1.00  0.00     0.031 C 
ATOM     36  C   UNL A   1      42.831  28.822  34.202  1.00  0.00     0.037 A 
BRANCH  23  37
ATOM     37  C   UNL A   1      40.670  27.775  28.496  1.00  0.00     0.064 A 
ATOM     38  C   UNL A   1      41.415  28.253  27.405  1.00  0.00     0.173 A 
ATOM     39  C   UNL A   1      40.047  26.526  28.364  1.00  0.00     0.173 A 
ATOM     40  F   UNL A   1      42.014  29.452  27.469  1.00  0.00    -0.203 F 
ATOM     41  C   UNL A   1      41.529  27.511  26.231  1.00  0.00     0.198 A 
ATOM     42  C   UNL A   1      40.176  25.780  27.193  1.00  0.00     0.198 A 
ATOM     43  F   UNL A   1      39.317  26.026  29.371  1.00  0.00    -0.203 F 
ATOM     44  F   UNL A   1      42.224  28.000  25.194  1.00  0.00    -0.200 F 
ATOM     45  C   UNL A   1      40.914  26.272  26.128  1.00  0.00     0.200 A 
ATOM     46  F   UNL A   1      39.580  24.583  27.095  1.00  0.00    -0.200 F 
ATOM     47  F   UNL A   1      41.023  25.560  24.998  1.00  0.00    -0.200 F 
ENDBRANCH  23  37
BRANCH  24  48
ATOM     48  C   UNL A   1      39.760  33.439  36.686  1.00  0.00     0.064 A 
ATOM     49  C   UNL A   1      40.434  34.661  36.776  1.00  0.00     0.173 A 
ATOM     50  C   UNL A   1      38.855  33.110  37.709  1.00  0.00     0.173 A 
ATOM     51  F   UNL A   1      41.316  35.010  35.827  1.00  0.00    -0.203 F 
ATOM     52  C   UNL A   1      40.201  35.531  37.838  1.00  0.00     0.198 A 
ATOM     53  C   UNL A   1      38.602  33.993  38.754  1.00  0.00     0.198 A 
ATOM     54  F   UNL A   1      38.176  31.954  37.659  1.00  0.00    -0.203 F 
ATOM     55  F   UNL A   1      40.864  36.693  37.905  1.00  0.00    -0.200 F 
ATOM     56  C   UNL A   1      39.275  35.203  38.818  1.00  0.00     0.200 A 
ATOM     57  F   UNL A   1      37.689  33.682  39.684  1.00  0.00    -0.200 F 
ATOM     58  F   UNL A   1      39.027  36.057  39.820  1.00  0.00    -0.200 F 
ENDBRANCH  24  48
BRANCH  36  59
ATOM     59  C   UNL A   1      43.878  28.064  34.967  1.00  0.00     0.064 A 
ATOM     60  C   UNL A   1      45.214  28.494  34.997  1.00  0.00     0.173 A 
ATOM     61  C   UNL A   1      43.543  26.912  35.693  1.00  0.00     0.173 A 
ATOM     62  F   UNL A   1      45.590  29.583  34.307  1.00  0.00    -0.203 F 
ATOM     63  C   UNL A   1      46.181  27.777  35.695  1.00  0.00     0.198 A 
ATOM     64  C   UNL A   1      44.506  26.220  36.422  1.00  0.00     0.198 A 
ATOM     65  F   UNL A   1      42.279  26.463  35.704  1.00  0.00    -0.203 F 
ATOM     66  F   UNL A   1      47.462  28.172  35.658  1.00  0.00    -0.200 F 
ATOM     67  C   UNL A   1      45.825  26.646  36.413  1.00  0.00     0.200 A 
ATOM     68  F   UNL A   1      44.155  25.138  37.131  1.00  0.00    -0.200 F 
ATOM     69  F   UNL A   1      46.756  25.962  37.092  1.00  0.00    -0.200 F 
ENDBRANCH  36  59
ENDBRANCH  10  11
ENDBRANCH   3   5
ENDBRANCH   2   3
ENDBRANCH   1   2
BRANCH   1  70
ATOM     70  C   UNL A   1      31.670  31.799  26.886  1.00  0.00     0.275 C 
BRANCH  70  71
ATOM     71  O   UNL A   1      32.336  30.756  26.157  1.00  0.00    -0.458 OA
BRANCH  71  72
ATOM     72  C   UNL A   1      31.778  29.518  26.261  1.00  0.00     0.340 C 
ATOM     73  O   UNL A   1      31.413  28.966  27.284  1.00  0.00    -0.246 OA
BRANCH  72  74
ATOM     74  C   UNL A   1      31.721  28.913  24.918  1.00  0.00     0.088 A 
ATOM     75  C   UNL A   1      32.680  27.947  24.582  1.00  0.00     0.018 A 
ATOM     76  C   UNL A   1      30.739  29.331  24.013  1.00  0.00     0.105 A 
ATOM     77  C   UNL A   1      32.674  27.394  23.309  1.00  0.00     0.003 A 
ATOM     78  C   UNL A   1      30.779  28.779  22.703  1.00  0.00     0.091 A 
ATOM     79  N   UNL A   1      29.812  30.273  24.316  1.00  0.00    -0.230 NA
ATOM     80  C   UNL A   1      31.737  27.829  22.378  1.00  0.00     0.031 A 
ATOM     81  N   UNL A   1      29.937  29.173  21.731  1.00  0.00    -0.231 NA
ATOM     82  C   UNL A   1      28.957  30.650  23.335  1.00  0.00     0.167 A 
ATOM     83  C   UNL A   1      29.026  30.115  22.063  1.00  0.00     0.167 A 
ATOM     84  Cl  UNL A   1      27.849  31.870  23.805  1.00  0.00    -0.059 Cl
ATOM     85  Cl  UNL A   1      28.026  30.594  20.753  1.00  0.00    -0.059 Cl
ENDBRANCH  72  74
ENDBRANCH  71  72
ENDBRANCH  70  71
ENDBRANCH   1  70
TORSDOF 11
ENDMDL
