MODEL 1
REMARK VINA RESULT:     -11.9      0.000      0.000
REMARK SMILES C=Cc1cccc(-c2ccc([C@@H](C)C(=O)OCCOC(=O)c3ccc(-c4c5nc(c(-c6c(F)c(F)c(F)c(F)c6F)c6ccc([nH]6)c(-c6c(F)c(F)c(F)c(F)c6F)c6nc(c(-c7c(F)c(F)c(F)c(F)c7F)c7ccc4[nH]7)C=C6)C=C5)cc3)cc2)c1
REMARK SMILES IDX 17 1 16 2 14 3 15 4 12 5 13 6 11 7 8 8 9 9 86 10 10 11 85 12
REMARK SMILES IDX 7 13 3 14 4 15 87 16 5 17 6 18 2 19 1 20 18 21 19 22 20 23
REMARK SMILES IDX 21 24 22 25 23 26 84 27 24 28 83 29 25 30 26 31 27 32 77 33
REMARK SMILES IDX 28 34 82 35 76 36 78 37 29 38 81 39 75 40 74 41 30 43 62 44
REMARK SMILES IDX 42 45 61 46 43 47 46 48 60 49 79 50 44 51 45 52 59 54 80 55
REMARK SMILES IDX 47 56 31 57 32 58 40 59 33 60 34 61 38 62 41 63 35 64 36 65
REMARK SMILES IDX 39 66 37 67 63 68 64 69 72 70 65 71 66 72 70 73 73 74 67 75
REMARK SMILES IDX 68 76 71 77 69 78 48 79 49 80 57 81 50 82 51 83 55 84 58 85
REMARK SMILES IDX 52 86 53 87 56 88 54 89
REMARK H PARENT 78 42 46 53
REMARK Flexibility Score: inf
ROOT
ATOM      1  C   UNL A   1      43.970  21.362  25.506  1.00  0.00     0.274 C 
ENDROOT
BRANCH   1   2
ATOM      2  O   UNL A   1      42.743  20.621  25.353  1.00  0.00    -0.462 OA
BRANCH   2   3
ATOM      3  C   UNL A   1      41.984  20.459  26.467  1.00  0.00     0.313 C 
ATOM      4  O   UNL A   1      41.923  19.420  27.119  1.00  0.00    -0.252 OA
BRANCH   3   5
ATOM      5  C   UNL A   1      41.144  21.681  26.818  1.00  0.00     0.126 C 
ATOM      6  C   UNL A   1      41.115  21.872  28.334  1.00  0.00     0.025 C 
BRANCH   5   7
ATOM      7  C   UNL A   1      39.759  21.738  26.191  1.00  0.00    -0.034 A 
ATOM      8  C   UNL A   1      37.143  21.880  25.085  1.00  0.00    -0.018 A 
ATOM      9  C   UNL A   1      37.893  20.696  25.027  1.00  0.00     0.009 A 
ATOM     10  C   UNL A   1      37.732  22.998  25.690  1.00  0.00     0.009 A 
ATOM     11  C   UNL A   1      39.180  20.624  25.571  1.00  0.00     0.005 A 
ATOM     12  C   UNL A   1      39.015  22.926  26.242  1.00  0.00     0.005 A 
BRANCH   8  13
ATOM     13  C   UNL A   1      35.766  21.933  24.568  1.00  0.00    -0.018 A 
ATOM     14  C   UNL A   1      33.515  20.984  24.372  1.00  0.00    -0.026 A 
ATOM     15  C   UNL A   1      33.161  22.028  23.511  1.00  0.00     0.008 A 
ATOM     16  C   UNL A   1      34.821  20.939  24.885  1.00  0.00     0.016 A 
ATOM     17  C   UNL A   1      34.080  23.024  23.188  1.00  0.00     0.001 A 
ATOM     18  C   UNL A   1      35.370  22.976  23.715  1.00  0.00     0.009 A 
BRANCH  14  19
ATOM     19  C   UNL A   1      32.520  19.942  24.659  1.00  0.00     0.000 C 
ATOM     20  C   UNL A   1      32.823  18.670  24.948  1.00  0.00     0.009 C 
ENDBRANCH  14  19
ENDBRANCH   8  13
ENDBRANCH   5   7
ENDBRANCH   3   5
ENDBRANCH   2   3
ENDBRANCH   1   2
BRANCH   1  21
ATOM     21  C   UNL A   1      44.147  22.387  24.386  1.00  0.00     0.275 C 
BRANCH  21  22
ATOM     22  O   UNL A   1      43.405  23.588  24.665  1.00  0.00    -0.458 OA
BRANCH  22  23
ATOM     23  C   UNL A   1      44.153  24.657  25.016  1.00  0.00     0.338 C 
ATOM     24  O   UNL A   1      45.206  25.026  24.526  1.00  0.00    -0.246 OA
BRANCH  23  25
ATOM     25  C   UNL A   1      43.447  25.431  26.046  1.00  0.00     0.060 A 
ATOM     26  C   UNL A   1      43.862  26.744  26.272  1.00  0.00     0.016 A 
ATOM     27  C   UNL A   1      42.466  24.848  26.848  1.00  0.00     0.016 A 
ATOM     28  C   UNL A   1      43.321  27.479  27.321  1.00  0.00     0.010 A 
ATOM     29  C   UNL A   1      41.912  25.591  27.897  1.00  0.00     0.010 A 
ATOM     30  C   UNL A   1      42.352  26.903  28.151  1.00  0.00    -0.014 A 
BRANCH  30  31
ATOM     31  C   UNL A   1      41.855  27.668  29.318  1.00  0.00     0.031 A 
ATOM     32  C   UNL A   1      42.595  27.608  30.623  1.00  0.00     0.074 A 
ATOM     33  C   UNL A   1      40.774  28.457  29.189  1.00  0.00     0.049 A 
ATOM     34  N   UNL A   1      42.320  28.198  31.760  1.00  0.00    -0.248 NA
ATOM     35  C   UNL A   1      43.808  26.777  30.653  1.00  0.00     0.031 C 
ATOM     36  C   UNL A   1      39.994  28.626  27.963  1.00  0.00     0.029 A 
ATOM     37  N   UNL A   1      40.149  29.273  30.099  1.00  0.00    -0.354 N 
ATOM     38  C   UNL A   1      43.314  27.797  32.642  1.00  0.00     0.074 A 
ATOM     39  C   UNL A   1      44.190  26.901  31.916  1.00  0.00     0.031 C 
ATOM     40  C   UNL A   1      39.001  29.499  28.194  1.00  0.00     0.029 A 
ATOM     41  C   UNL A   1      39.054  29.924  29.591  1.00  0.00     0.049 A 
ATOM     42  H   UNL A   1      40.458  29.380  31.028  1.00  0.00     0.167 HD
ATOM     43  C   UNL A   1      43.481  28.150  33.939  1.00  0.00     0.037 A 
ATOM     44  C   UNL A   1      38.186  30.761  30.189  1.00  0.00     0.037 A 
ATOM     45  C   UNL A   1      42.621  29.054  34.656  1.00  0.00     0.049 A 
ATOM     46  C   UNL A   1      38.378  31.111  31.638  1.00  0.00     0.074 A 
ATOM     47  C   UNL A   1      42.715  29.479  35.969  1.00  0.00     0.029 A 
ATOM     48  N   UNL A   1      41.504  29.674  34.114  1.00  0.00    -0.354 N 
ATOM     49  N   UNL A   1      39.320  30.728  32.465  1.00  0.00    -0.248 NA
ATOM     50  C   UNL A   1      37.383  32.013  32.238  1.00  0.00     0.031 C 
ATOM     51  C   UNL A   1      41.637  30.333  36.233  1.00  0.00     0.029 A 
ATOM     52  C   UNL A   1      40.893  30.467  35.072  1.00  0.00     0.049 A 
ATOM     53  H   UNL A   1      41.192  29.567  33.187  1.00  0.00     0.167 HD
ATOM     54  C   UNL A   1      39.042  31.348  33.674  1.00  0.00     0.074 A 
ATOM     55  C   UNL A   1      37.855  32.150  33.470  1.00  0.00     0.031 C 
ATOM     56  C   UNL A   1      39.710  31.259  34.851  1.00  0.00     0.037 A 
BRANCH  43  57
ATOM     57  C   UNL A   1      44.634  27.537  34.676  1.00  0.00     0.064 A 
ATOM     58  C   UNL A   1      45.883  28.169  34.745  1.00  0.00     0.173 A 
ATOM     59  C   UNL A   1      44.474  26.316  35.347  1.00  0.00     0.173 A 
ATOM     60  F   UNL A   1      46.088  29.332  34.107  1.00  0.00    -0.203 F 
ATOM     61  C   UNL A   1      46.939  27.590  35.445  1.00  0.00     0.198 A 
ATOM     62  C   UNL A   1      45.526  25.752  36.064  1.00  0.00     0.198 A 
ATOM     63  F   UNL A   1      43.297  25.673  35.313  1.00  0.00    -0.203 F 
ATOM     64  F   UNL A   1      48.135  28.193  35.468  1.00  0.00    -0.200 F 
ATOM     65  C   UNL A   1      46.758  26.385  36.108  1.00  0.00     0.200 A 
ATOM     66  F   UNL A   1      45.347  24.591  36.711  1.00  0.00    -0.200 F 
ATOM     67  F   UNL A   1      47.774  25.832  36.784  1.00  0.00    -0.200 F 
ENDBRANCH  43  57
BRANCH  44  68
ATOM     68  C   UNL A   1      37.049  31.321  29.415  1.00  0.00     0.064 A 
ATOM     69  C   UNL A   1      37.038  32.664  29.019  1.00  0.00     0.173 A 
ATOM     70  C   UNL A   1      35.952  30.524  29.059  1.00  0.00     0.173 A 
ATOM     71  F   UNL A   1      38.054  33.471  29.359  1.00  0.00    -0.203 F 
ATOM     72  C   UNL A   1      35.966  33.193  28.304  1.00  0.00     0.198 A 
ATOM     73  C   UNL A   1      34.891  31.047  28.324  1.00  0.00     0.198 A 
ATOM     74  F   UNL A   1      35.916  29.232  29.418  1.00  0.00    -0.203 F 
ATOM     75  F   UNL A   1      35.960  34.491  27.971  1.00  0.00    -0.200 F 
ATOM     76  C   UNL A   1      34.897  32.383  27.952  1.00  0.00     0.200 A 
ATOM     77  F   UNL A   1      33.865  30.258  27.978  1.00  0.00    -0.200 F 
ATOM     78  F   UNL A   1      33.866  32.892  27.262  1.00  0.00    -0.200 F 
ENDBRANCH  44  68
BRANCH  56  79
ATOM     79  C   UNL A   1      39.178  32.062  35.999  1.00  0.00     0.064 A 
ATOM     80  C   UNL A   1      38.269  31.514  36.915  1.00  0.00     0.173 A 
ATOM     81  C   UNL A   1      39.601  33.385  36.199  1.00  0.00     0.173 A 
ATOM     82  F   UNL A   1      37.823  30.259  36.756  1.00  0.00    -0.203 F 
ATOM     83  C   UNL A   1      37.784  32.271  37.979  1.00  0.00     0.198 A 
ATOM     84  C   UNL A   1      39.132  34.130  37.276  1.00  0.00     0.198 A 
ATOM     85  F   UNL A   1      40.472  33.951  35.351  1.00  0.00    -0.203 F 
ATOM     86  F   UNL A   1      36.883  31.742  38.819  1.00  0.00    -0.200 F 
ATOM     87  C   UNL A   1      38.218  33.576  38.161  1.00  0.00     0.200 A 
ATOM     88  F   UNL A   1      39.558  35.388  37.457  1.00  0.00    -0.200 F 
ATOM     89  F   UNL A   1      37.750  34.302  39.186  1.00  0.00    -0.200 F 
ENDBRANCH  56  79
ENDBRANCH  30  31
ENDBRANCH  23  25
ENDBRANCH  22  23
ENDBRANCH  21  22
ENDBRANCH   1  21
TORSDOF 14
ENDMDL
MODEL 2
REMARK VINA RESULT:     -11.9      3.932      8.765
REMARK SMILES C=Cc1cccc(-c2ccc([C@@H](C)C(=O)OCCOC(=O)c3ccc(-c4c5nc(c(-c6c(F)c(F)c(F)c(F)c6F)c6ccc([nH]6)c(-c6c(F)c(F)c(F)c(F)c6F)c6nc(c(-c7c(F)c(F)c(F)c(F)c7F)c7ccc4[nH]7)C=C6)C=C5)cc3)cc2)c1
REMARK SMILES IDX 17 1 16 2 14 3 15 4 12 5 13 6 11 7 8 8 9 9 86 10 10 11 85 12
REMARK SMILES IDX 7 13 3 14 4 15 87 16 5 17 6 18 2 19 1 20 18 21 19 22 20 23
REMARK SMILES IDX 21 24 22 25 23 26 84 27 24 28 83 29 25 30 26 31 27 32 77 33
REMARK SMILES IDX 28 34 82 35 76 36 78 37 29 38 81 39 75 40 74 41 30 43 62 44
REMARK SMILES IDX 42 45 61 46 43 47 46 48 60 49 79 50 44 51 45 52 59 54 80 55
REMARK SMILES IDX 47 56 31 57 32 58 40 59 33 60 34 61 38 62 41 63 35 64 36 65
REMARK SMILES IDX 39 66 37 67 63 68 64 69 72 70 65 71 66 72 70 73 73 74 67 75
REMARK SMILES IDX 68 76 71 77 69 78 48 79 49 80 57 81 50 82 51 83 55 84 58 85
REMARK SMILES IDX 52 86 53 87 56 88 54 89
REMARK H PARENT 78 42 46 53
REMARK Flexibility Score: inf
ROOT
ATOM      1  C   UNL A   1      31.098  30.872  25.474  1.00  0.00     0.274 C 
ENDROOT
BRANCH   1   2
ATOM      2  O   UNL A   1      32.002  29.750  25.485  1.00  0.00    -0.462 OA
BRANCH   2   3
ATOM      3  C   UNL A   1      31.479  28.540  25.160  1.00  0.00     0.313 C 
ATOM      4  O   UNL A   1      31.032  28.254  24.053  1.00  0.00    -0.252 OA
BRANCH   3   5
ATOM      5  C   UNL A   1      31.434  27.559  26.326  1.00  0.00     0.126 C 
ATOM      6  C   UNL A   1      31.776  28.285  27.626  1.00  0.00     0.025 C 
BRANCH   5   7
ATOM      7  C   UNL A   1      32.228  26.274  26.143  1.00  0.00    -0.034 A 
ATOM      8  C   UNL A   1      33.730  23.896  25.726  1.00  0.00    -0.018 A 
ATOM      9  C   UNL A   1      32.443  23.854  26.282  1.00  0.00     0.009 A 
ATOM     10  C   UNL A   1      34.260  25.150  25.398  1.00  0.00     0.009 A 
ATOM     11  C   UNL A   1      31.702  25.023  26.487  1.00  0.00     0.005 A 
ATOM     12  C   UNL A   1      33.518  26.320  25.595  1.00  0.00     0.005 A 
BRANCH   8  13
ATOM     13  C   UNL A   1      34.479  22.659  25.453  1.00  0.00    -0.018 A 
ATOM     14  C   UNL A   1      34.544  20.270  24.910  1.00  0.00    -0.026 A 
ATOM     15  C   UNL A   1      35.940  20.297  25.001  1.00  0.00     0.008 A 
ATOM     16  C   UNL A   1      33.824  21.451  25.149  1.00  0.00     0.016 A 
ATOM     17  C   UNL A   1      36.608  21.483  25.296  1.00  0.00     0.001 A 
ATOM     18  C   UNL A   1      35.882  22.653  25.518  1.00  0.00     0.009 A 
BRANCH  14  19
ATOM     19  C   UNL A   1      33.884  18.989  24.626  1.00  0.00     0.000 C 
ATOM     20  C   UNL A   1      32.904  18.465  25.372  1.00  0.00     0.009 C 
ENDBRANCH  14  19
ENDBRANCH   8  13
ENDBRANCH   5   7
ENDBRANCH   3   5
ENDBRANCH   2   3
ENDBRANCH   1   2
BRANCH   1  21
ATOM     21  C   UNL A   1      31.500  31.925  26.507  1.00  0.00     0.275 C 
BRANCH  21  22
ATOM     22  O   UNL A   1      32.706  31.538  27.193  1.00  0.00    -0.458 OA
BRANCH  22  23
ATOM     23  C   UNL A   1      33.498  32.561  27.583  1.00  0.00     0.338 C 
ATOM     24  O   UNL A   1      33.221  33.747  27.626  1.00  0.00    -0.246 OA
BRANCH  23  25
ATOM     25  C   UNL A   1      34.772  32.029  28.085  1.00  0.00     0.060 A 
ATOM     26  C   UNL A   1      34.820  30.680  28.438  1.00  0.00     0.016 A 
ATOM     27  C   UNL A   1      35.870  32.861  28.305  1.00  0.00     0.016 A 
ATOM     28  C   UNL A   1      35.957  30.154  29.042  1.00  0.00     0.010 A 
ATOM     29  C   UNL A   1      37.020  32.329  28.902  1.00  0.00     0.010 A 
ATOM     30  C   UNL A   1      37.061  30.979  29.292  1.00  0.00    -0.014 A 
BRANCH  30  31
ATOM     31  C   UNL A   1      38.226  30.423  30.019  1.00  0.00     0.031 A 
ATOM     32  C   UNL A   1      38.479  30.821  31.444  1.00  0.00     0.074 A 
ATOM     33  C   UNL A   1      39.021  29.521  29.417  1.00  0.00     0.049 A 
ATOM     34  N   UNL A   1      39.445  30.453  32.249  1.00  0.00    -0.248 NA
ATOM     35  C   UNL A   1      37.517  31.757  32.045  1.00  0.00     0.031 C 
ATOM     36  C   UNL A   1      38.854  29.029  28.050  1.00  0.00     0.029 A 
ATOM     37  N   UNL A   1      40.125  28.851  29.882  1.00  0.00    -0.354 N 
ATOM     38  C   UNL A   1      39.216  31.122  33.443  1.00  0.00     0.074 A 
ATOM     39  C   UNL A   1      38.031  31.932  33.255  1.00  0.00     0.031 C 
ATOM     40  C   UNL A   1      39.815  28.127  27.790  1.00  0.00     0.029 A 
ATOM     41  C   UNL A   1      40.682  28.004  28.959  1.00  0.00     0.049 A 
ATOM     42  H   UNL A   1      40.482  28.967  30.793  1.00  0.00     0.167 HD
ATOM     43  C   UNL A   1      39.928  31.060  34.593  1.00  0.00     0.037 A 
ATOM     44  C   UNL A   1      41.777  27.225  29.043  1.00  0.00     0.037 A 
ATOM     45  C   UNL A   1      41.096  30.241  34.786  1.00  0.00     0.049 A 
ATOM     46  C   UNL A   1      42.567  27.200  30.322  1.00  0.00     0.074 A 
ATOM     47  C   UNL A   1      41.880  30.105  35.918  1.00  0.00     0.029 A 
ATOM     48  N   UNL A   1      41.648  29.416  33.816  1.00  0.00    -0.354 N 
ATOM     49  N   UNL A   1      42.344  27.836  31.446  1.00  0.00    -0.248 NA
ATOM     50  C   UNL A   1      43.764  26.346  30.343  1.00  0.00     0.031 C 
ATOM     51  C   UNL A   1      42.925  29.221  35.625  1.00  0.00     0.029 A 
ATOM     52  C   UNL A   1      42.770  28.779  34.322  1.00  0.00     0.049 A 
ATOM     53  H   UNL A   1      41.295  29.300  32.906  1.00  0.00     0.167 HD
ATOM     54  C   UNL A   1      43.359  27.452  32.310  1.00  0.00     0.074 A 
ATOM     55  C   UNL A   1      44.190  26.511  31.588  1.00  0.00     0.031 C 
ATOM     56  C   UNL A   1      43.585  27.846  33.588  1.00  0.00     0.037 A 
BRANCH  43  57
ATOM     57  C   UNL A   1      39.474  31.922  35.732  1.00  0.00     0.064 A 
ATOM     58  C   UNL A   1      40.003  33.203  35.942  1.00  0.00     0.173 A 
ATOM     59  C   UNL A   1      38.474  31.470  36.606  1.00  0.00     0.173 A 
ATOM     60  F   UNL A   1      40.973  33.672  35.141  1.00  0.00    -0.203 F 
ATOM     61  C   UNL A   1      39.561  33.994  36.999  1.00  0.00     0.198 A 
ATOM     62  C   UNL A   1      38.018  32.274  37.647  1.00  0.00     0.198 A 
ATOM     63  F   UNL A   1      37.934  30.253  36.446  1.00  0.00    -0.203 F 
ATOM     64  F   UNL A   1      40.106  35.201  37.204  1.00  0.00    -0.200 F 
ATOM     65  C   UNL A   1      38.565  33.532  37.847  1.00  0.00     0.200 A 
ATOM     66  F   UNL A   1      37.051  31.828  38.461  1.00  0.00    -0.200 F 
ATOM     67  F   UNL A   1      38.138  34.297  38.860  1.00  0.00    -0.200 F 
ENDBRANCH  43  57
BRANCH  44  68
ATOM     68  C   UNL A   1      42.193  26.409  27.875  1.00  0.00     0.064 A 
ATOM     69  C   UNL A   1      41.642  25.142  27.646  1.00  0.00     0.173 A 
ATOM     70  C   UNL A   1      43.152  26.880  26.966  1.00  0.00     0.173 A 
ATOM     71  F   UNL A   1      40.741  24.640  28.503  1.00  0.00    -0.203 F 
ATOM     72  C   UNL A   1      42.042  24.371  26.558  1.00  0.00     0.198 A 
ATOM     73  C   UNL A   1      43.534  26.118  25.866  1.00  0.00     0.198 A 
ATOM     74  F   UNL A   1      43.710  28.086  27.145  1.00  0.00    -0.203 F 
ATOM     75  F   UNL A   1      41.529  23.146  26.383  1.00  0.00    -0.200 F 
ATOM     76  C   UNL A   1      42.983  24.862  25.666  1.00  0.00     0.200 A 
ATOM     77  F   UNL A   1      44.437  26.600  25.001  1.00  0.00    -0.200 F 
ATOM     78  F   UNL A   1      43.366  24.120  24.616  1.00  0.00    -0.200 F 
ENDBRANCH  44  68
BRANCH  56  79
ATOM     79  C   UNL A   1      44.768  27.245  34.286  1.00  0.00     0.064 A 
ATOM     80  C   UNL A   1      44.655  26.061  35.028  1.00  0.00     0.173 A 
ATOM     81  C   UNL A   1      46.032  27.846  34.191  1.00  0.00     0.173 A 
ATOM     82  F   UNL A   1      43.464  25.458  35.161  1.00  0.00    -0.203 F 
ATOM     83  C   UNL A   1      45.762  25.511  35.670  1.00  0.00     0.198 A 
ATOM     84  C   UNL A   1      47.141  27.282  34.814  1.00  0.00     0.198 A 
ATOM     85  F   UNL A   1      46.191  28.977  33.489  1.00  0.00    -0.203 F 
ATOM     86  F   UNL A   1      45.624  24.402  36.410  1.00  0.00    -0.200 F 
ATOM     87  C   UNL A   1      47.004  26.119  35.559  1.00  0.00     0.200 A 
ATOM     88  F   UNL A   1      48.342  27.865  34.701  1.00  0.00    -0.200 F 
ATOM     89  F   UNL A   1      48.068  25.589  36.178  1.00  0.00    -0.200 F 
ENDBRANCH  56  79
ENDBRANCH  30  31
ENDBRANCH  23  25
ENDBRANCH  22  23
ENDBRANCH  21  22
ENDBRANCH   1  21
TORSDOF 14
ENDMDL
MODEL 3
REMARK VINA RESULT:     -11.9      5.023     11.214
REMARK SMILES C=Cc1cccc(-c2ccc([C@@H](C)C(=O)OCCOC(=O)c3ccc(-c4c5nc(c(-c6c(F)c(F)c(F)c(F)c6F)c6ccc([nH]6)c(-c6c(F)c(F)c(F)c(F)c6F)c6nc(c(-c7c(F)c(F)c(F)c(F)c7F)c7ccc4[nH]7)C=C6)C=C5)cc3)cc2)c1
REMARK SMILES IDX 17 1 16 2 14 3 15 4 12 5 13 6 11 7 8 8 9 9 86 10 10 11 85 12
REMARK SMILES IDX 7 13 3 14 4 15 87 16 5 17 6 18 2 19 1 20 18 21 19 22 20 23
REMARK SMILES IDX 21 24 22 25 23 26 84 27 24 28 83 29 25 30 26 31 27 32 77 33
REMARK SMILES IDX 28 34 82 35 76 36 78 37 29 38 81 39 75 40 74 41 30 43 62 44
REMARK SMILES IDX 42 45 61 46 43 47 46 48 60 49 79 50 44 51 45 52 59 54 80 55
REMARK SMILES IDX 47 56 31 57 32 58 40 59 33 60 34 61 38 62 41 63 35 64 36 65
REMARK SMILES IDX 39 66 37 67 63 68 64 69 72 70 65 71 66 72 70 73 73 74 67 75
REMARK SMILES IDX 68 76 71 77 69 78 48 79 49 80 57 81 50 82 51 83 55 84 58 85
REMARK SMILES IDX 52 86 53 87 56 88 54 89
REMARK H PARENT 78 42 46 53
REMARK Flexibility Score: inf
ROOT
ATOM      1  C   UNL A   1      33.940  34.411  29.173  1.00  0.00     0.274 C 
ENDROOT
BRANCH   1   2
ATOM      2  O   UNL A   1      33.662  33.898  30.492  1.00  0.00    -0.462 OA
BRANCH   2   3
ATOM      3  C   UNL A   1      34.537  34.232  31.475  1.00  0.00     0.313 C 
ATOM      4  O   UNL A   1      34.470  35.261  32.141  1.00  0.00    -0.252 OA
BRANCH   3   5
ATOM      5  C   UNL A   1      35.673  33.231  31.649  1.00  0.00     0.126 C 
ATOM      6  C   UNL A   1      35.743  32.775  33.106  1.00  0.00     0.025 C 
BRANCH   5   7
ATOM      7  C   UNL A   1      37.025  33.660  31.100  1.00  0.00    -0.034 A 
ATOM      8  C   UNL A   1      39.559  34.390  30.035  1.00  0.00    -0.018 A 
ATOM      9  C   UNL A   1      39.264  34.568  31.394  1.00  0.00     0.009 A 
ATOM     10  C   UNL A   1      38.557  33.858  29.213  1.00  0.00     0.009 A 
ATOM     11  C   UNL A   1      38.018  34.208  31.921  1.00  0.00     0.005 A 
ATOM     12  C   UNL A   1      37.314  33.490  29.738  1.00  0.00     0.005 A 
BRANCH   8  13
ATOM     13  C   UNL A   1      40.892  34.711  29.499  1.00  0.00    -0.018 A 
ATOM     14  C   UNL A   1      42.338  35.938  27.947  1.00  0.00    -0.026 A 
ATOM     15  C   UNL A   1      43.447  35.251  28.453  1.00  0.00     0.008 A 
ATOM     16  C   UNL A   1      41.065  35.652  28.468  1.00  0.00     0.016 A 
ATOM     17  C   UNL A   1      43.297  34.318  29.477  1.00  0.00     0.001 A 
ATOM     18  C   UNL A   1      42.029  34.053  29.995  1.00  0.00     0.009 A 
BRANCH  14  19
ATOM     19  C   UNL A   1      42.543  36.890  26.848  1.00  0.00     0.000 C 
ATOM     20  C   UNL A   1      42.149  38.170  26.876  1.00  0.00     0.009 C 
ENDBRANCH  14  19
ENDBRANCH   8  13
ENDBRANCH   5   7
ENDBRANCH   3   5
ENDBRANCH   2   3
ENDBRANCH   1   2
BRANCH   1  21
ATOM     21  C   UNL A   1      34.012  33.287  28.140  1.00  0.00     0.275 C 
BRANCH  21  22
ATOM     22  O   UNL A   1      34.291  32.024  28.772  1.00  0.00    -0.458 OA
BRANCH  22  23
ATOM     23  C   UNL A   1      34.504  30.992  27.926  1.00  0.00     0.338 C 
ATOM     24  O   UNL A   1      33.828  30.659  26.969  1.00  0.00    -0.246 OA
BRANCH  23  25
ATOM     25  C   UNL A   1      35.785  30.350  28.250  1.00  0.00     0.060 A 
ATOM     26  C   UNL A   1      35.904  29.725  29.492  1.00  0.00     0.016 A 
ATOM     27  C   UNL A   1      36.883  30.448  27.395  1.00  0.00     0.016 A 
ATOM     28  C   UNL A   1      37.130  29.217  29.905  1.00  0.00     0.010 A 
ATOM     29  C   UNL A   1      38.115  29.926  27.805  1.00  0.00     0.010 A 
ATOM     30  C   UNL A   1      38.250  29.327  29.071  1.00  0.00    -0.014 A 
BRANCH  30  31
ATOM     31  C   UNL A   1      39.566  28.863  29.567  1.00  0.00     0.031 A 
ATOM     32  C   UNL A   1      40.271  29.628  30.649  1.00  0.00     0.074 A 
ATOM     33  C   UNL A   1      40.100  27.727  29.084  1.00  0.00     0.049 A 
ATOM     34  N   UNL A   1      41.429  29.391  31.213  1.00  0.00    -0.248 NA
ATOM     35  C   UNL A   1      39.580  30.818  31.169  1.00  0.00     0.031 C 
ATOM     36  C   UNL A   1      39.493  26.879  28.059  1.00  0.00     0.029 A 
ATOM     37  N   UNL A   1      41.273  27.086  29.399  1.00  0.00    -0.354 N 
ATOM     38  C   UNL A   1      41.613  30.407  32.140  1.00  0.00     0.074 A 
ATOM     39  C   UNL A   1      40.456  31.274  32.054  1.00  0.00     0.031 C 
ATOM     40  C   UNL A   1      40.292  25.823  27.836  1.00  0.00     0.029 A 
ATOM     41  C   UNL A   1      41.481  25.938  28.677  1.00  0.00     0.049 A 
ATOM     42  H   UNL A   1      41.903  27.418  30.079  1.00  0.00     0.167 HD
ATOM     43  C   UNL A   1      42.650  30.595  32.990  1.00  0.00     0.037 A 
ATOM     44  C   UNL A   1      42.520  25.083  28.686  1.00  0.00     0.037 A 
ATOM     45  C   UNL A   1      43.792  29.724  33.088  1.00  0.00     0.049 A 
ATOM     46  C   UNL A   1      43.673  25.333  29.618  1.00  0.00     0.074 A 
ATOM     47  C   UNL A   1      44.889  29.828  33.925  1.00  0.00     0.029 A 
ATOM     48  N   UNL A   1      43.982  28.584  32.320  1.00  0.00    -0.354 N 
ATOM     49  N   UNL A   1      43.839  26.297  30.491  1.00  0.00    -0.248 NA
ATOM     50  C   UNL A   1      44.787  24.374  29.564  1.00  0.00     0.031 C 
ATOM     51  C   UNL A   1      45.758  28.767  33.642  1.00  0.00     0.029 A 
ATOM     52  C   UNL A   1      45.185  27.984  32.655  1.00  0.00     0.049 A 
ATOM     53  H   UNL A   1      43.354  28.251  31.640  1.00  0.00     0.167 HD
ATOM     54  C   UNL A   1      45.062  26.056  31.098  1.00  0.00     0.074 A 
ATOM     55  C   UNL A   1      45.590  24.843  30.510  1.00  0.00     0.031 C 
ATOM     56  C   UNL A   1      45.694  26.777  32.057  1.00  0.00     0.037 A 
BRANCH  43  57
ATOM     57  C   UNL A   1      42.609  31.807  33.870  1.00  0.00     0.064 A 
ATOM     58  C   UNL A   1      43.275  32.991  33.525  1.00  0.00     0.173 A 
ATOM     59  C   UNL A   1      41.866  31.791  35.061  1.00  0.00     0.173 A 
ATOM     60  F   UNL A   1      44.010  33.049  32.403  1.00  0.00    -0.203 F 
ATOM     61  C   UNL A   1      43.215  34.111  34.350  1.00  0.00     0.198 A 
ATOM     62  C   UNL A   1      41.791  32.921  35.871  1.00  0.00     0.198 A 
ATOM     63  F   UNL A   1      41.209  30.683  35.434  1.00  0.00    -0.203 F 
ATOM     64  F   UNL A   1      43.889  35.222  34.019  1.00  0.00    -0.200 F 
ATOM     65  C   UNL A   1      42.470  34.078  35.519  1.00  0.00     0.200 A 
ATOM     66  F   UNL A   1      41.064  32.889  36.996  1.00  0.00    -0.200 F 
ATOM     67  F   UNL A   1      42.410  35.158  36.309  1.00  0.00    -0.200 F 
ENDBRANCH  43  57
BRANCH  44  68
ATOM     68  C   UNL A   1      42.518  23.910  27.776  1.00  0.00     0.064 A 
ATOM     69  C   UNL A   1      42.955  24.026  26.450  1.00  0.00     0.173 A 
ATOM     70  C   UNL A   1      42.079  22.653  28.214  1.00  0.00     0.173 A 
ATOM     71  F   UNL A   1      43.360  25.215  25.980  1.00  0.00    -0.203 F 
ATOM     72  C   UNL A   1      42.941  22.929  25.592  1.00  0.00     0.198 A 
ATOM     73  C   UNL A   1      42.087  21.551  27.362  1.00  0.00     0.198 A 
ATOM     74  F   UNL A   1      41.649  22.493  29.474  1.00  0.00    -0.203 F 
ATOM     75  F   UNL A   1      43.327  23.074  24.317  1.00  0.00    -0.200 F 
ATOM     76  C   UNL A   1      42.514  21.692  26.050  1.00  0.00     0.200 A 
ATOM     77  F   UNL A   1      41.682  20.356  27.811  1.00  0.00    -0.200 F 
ATOM     78  F   UNL A   1      42.503  20.636  25.224  1.00  0.00    -0.200 F 
ENDBRANCH  44  68
BRANCH  56  79
ATOM     79  C   UNL A   1      47.017  26.260  32.537  1.00  0.00     0.064 A 
ATOM     80  C   UNL A   1      47.101  25.291  33.547  1.00  0.00     0.173 A 
ATOM     81  C   UNL A   1      48.212  26.718  31.961  1.00  0.00     0.173 A 
ATOM     82  F   UNL A   1      45.987  24.834  34.139  1.00  0.00    -0.203 F 
ATOM     83  C   UNL A   1      48.336  24.817  33.982  1.00  0.00     0.198 A 
ATOM     84  C   UNL A   1      49.443  26.225  32.382  1.00  0.00     0.198 A 
ATOM     85  F   UNL A   1      48.182  27.641  30.988  1.00  0.00    -0.203 F 
ATOM     86  F   UNL A   1      48.396  23.923  34.979  1.00  0.00    -0.200 F 
ATOM     87  C   UNL A   1      49.505  25.281  33.397  1.00  0.00     0.200 A 
ATOM     88  F   UNL A   1      50.572  26.668  31.811  1.00  0.00    -0.200 F 
ATOM     89  F   UNL A   1      50.693  24.824  33.817  1.00  0.00    -0.200 F 
ENDBRANCH  56  79
ENDBRANCH  30  31
ENDBRANCH  23  25
ENDBRANCH  22  23
ENDBRANCH  21  22
ENDBRANCH   1  21
TORSDOF 14
ENDMDL
