MODEL 1
REMARK VINA RESULT:     -12.7      0.000      0.000
REMARK SMILES Cc1nc(-c2ccccc2Cl)sc1C(=O)NC[C@H]1CC[C@@H](C(=O)OCCOC(=O)c2ccc(-c3c4nc(c(-c5c(F)c(F)c(F)c(F)c5F)c5ccc([nH]5)c(-c5c(F)c(F)c(F)c(F)c5F)c5nc(c(-c6c(F)c(F)c(F)c(F)c6F)c6ccc3[nH]6)C=C5)C=C4)cc2)CC1
REMARK SMILES IDX 25 1 24 2 22 3 23 4 21 5 18 6 19 7 94 8 20 9 93 10 17 11
REMARK SMILES IDX 16 12 14 13 15 14 13 16 1 17 2 18 3 19 4 20 12 21 5 22 6 23
REMARK SMILES IDX 10 24 7 25 9 26 11 27 8 28 26 29 27 30 28 31 29 32 30 33
REMARK SMILES IDX 31 34 92 35 32 36 91 37 33 38 34 39 35 40 85 41 36 42 90 43
REMARK SMILES IDX 84 44 86 45 37 46 89 47 83 48 82 49 38 51 70 52 50 53 69 54
REMARK SMILES IDX 51 55 54 56 68 57 87 58 52 59 53 60 67 62 88 63 55 64 39 65
REMARK SMILES IDX 40 66 48 67 41 68 42 69 46 70 49 71 43 72 44 73 47 74 45 75
REMARK SMILES IDX 71 76 72 77 80 78 73 79 74 80 78 81 81 82 75 83 76 84 79 85
REMARK SMILES IDX 77 86 56 87 57 88 65 89 58 90 59 91 63 92 66 93 60 94 61 95
REMARK SMILES IDX 64 96 62 97
REMARK H PARENT 16 15 86 50 54 61
REMARK Flexibility Score: inf
ROOT
ATOM      1  C   UNL A   1      31.715  31.677  26.391  1.00  0.00     0.274 C 
ENDROOT
BRANCH   1   2
ATOM      2  O   UNL A   1      32.058  30.601  27.284  1.00  0.00    -0.462 OA
BRANCH   2   3
ATOM      3  C   UNL A   1      33.306  30.073  27.206  1.00  0.00     0.309 C 
ATOM      4  O   UNL A   1      34.335  30.729  27.113  1.00  0.00    -0.252 OA
BRANCH   3   5
ATOM      5  C   UNL A   1      33.299  28.544  27.211  1.00  0.00     0.099 C 
ATOM      6  C   UNL A   1      32.442  27.689  24.482  1.00  0.00     0.008 C 
ATOM      7  C   UNL A   1      33.858  28.215  24.784  1.00  0.00     0.006 C 
ATOM      8  C   UNL A   1      31.411  28.012  25.572  1.00  0.00     0.006 C 
ATOM      9  C   UNL A   1      34.305  27.979  26.217  1.00  0.00     0.015 C 
ATOM     10  C   UNL A   1      31.931  27.898  27.001  1.00  0.00     0.015 C 
BRANCH   6  11
ATOM     11  C   UNL A   1      31.999  28.240  23.113  1.00  0.00     0.119 C 
BRANCH  11  12
ATOM     12  N   UNL A   1      32.590  27.487  22.044  1.00  0.00    -0.351 N 
ATOM     13  C   UNL A   1      32.708  26.164  21.731  1.00  0.00     0.263 C 
ATOM     14  O   UNL A   1      33.383  26.019  20.700  1.00  0.00    -0.268 OA
ATOM     15  H   UNL A   1      33.015  28.068  21.371  1.00  0.00     0.163 HD
BRANCH  13  16
ATOM     16  C   UNL A   1      32.133  25.024  22.449  1.00  0.00     0.115 A 
ATOM     17  C   UNL A   1      29.799  25.348  23.708  1.00  0.00     0.068 C 
ATOM     18  C   UNL A   1      31.017  24.662  23.212  1.00  0.00     0.062 A 
ATOM     19  N   UNL A   1      31.027  23.350  23.681  1.00  0.00    -0.240 NA
ATOM     20  C   UNL A   1      32.113  22.711  23.340  1.00  0.00     0.125 A 
ATOM     21  S   UNL A   1      33.165  23.590  22.348  1.00  0.00    -0.108 S 
BRANCH  20  22
ATOM     22  C   UNL A   1      32.337  21.310  23.678  1.00  0.00     0.029 A 
ATOM     23  C   UNL A   1      32.145  20.366  22.652  1.00  0.00     0.013 A 
ATOM     24  C   UNL A   1      32.626  20.851  24.971  1.00  0.00     0.051 A 
ATOM     25  C   UNL A   1      32.250  19.000  22.903  1.00  0.00     0.001 A 
ATOM     26  C   UNL A   1      32.734  19.477  25.219  1.00  0.00     0.021 A 
ATOM     27  Cl  UNL A   1      32.797  21.912  26.327  1.00  0.00    -0.084 Cl
ATOM     28  C   UNL A   1      32.545  18.556  24.189  1.00  0.00     0.002 A 
ENDBRANCH  20  22
ENDBRANCH  13  16
ENDBRANCH  11  12
ENDBRANCH   6  11
ENDBRANCH   3   5
ENDBRANCH   2   3
ENDBRANCH   1   2
BRANCH   1  29
ATOM     29  C   UNL A   1      31.674  33.008  27.143  1.00  0.00     0.275 C 
BRANCH  29  30
ATOM     30  O   UNL A   1      32.996  33.565  27.256  1.00  0.00    -0.458 OA
BRANCH  30  31
ATOM     31  C   UNL A   1      33.189  34.373  28.325  1.00  0.00     0.338 C 
ATOM     32  O   UNL A   1      32.496  35.303  28.694  1.00  0.00    -0.246 OA
BRANCH  31  33
ATOM     33  C   UNL A   1      34.314  33.851  29.111  1.00  0.00     0.060 A 
ATOM     34  C   UNL A   1      35.583  34.377  28.863  1.00  0.00     0.016 A 
ATOM     35  C   UNL A   1      34.138  32.824  30.037  1.00  0.00     0.016 A 
ATOM     36  C   UNL A   1      36.690  33.893  29.547  1.00  0.00     0.010 A 
ATOM     37  C   UNL A   1      35.253  32.330  30.721  1.00  0.00     0.010 A 
ATOM     38  C   UNL A   1      36.533  32.860  30.476  1.00  0.00    -0.014 A 
BRANCH  38  39
ATOM     39  C   UNL A   1      37.726  32.285  31.137  1.00  0.00     0.031 A 
ATOM     40  C   UNL A   1      38.520  31.227  30.431  1.00  0.00     0.074 A 
ATOM     41  C   UNL A   1      38.103  32.728  32.349  1.00  0.00     0.049 A 
ATOM     42  N   UNL A   1      39.514  30.502  30.874  1.00  0.00    -0.248 NA
ATOM     43  C   UNL A   1      38.143  30.951  29.036  1.00  0.00     0.031 C 
ATOM     44  C   UNL A   1      37.446  33.800  33.097  1.00  0.00     0.029 A 
ATOM     45  N   UNL A   1      39.127  32.324  33.168  1.00  0.00    -0.354 N 
ATOM     46  C   UNL A   1      39.864  29.665  29.823  1.00  0.00     0.074 A 
ATOM     47  C   UNL A   1      38.971  29.964  28.724  1.00  0.00     0.031 C 
ATOM     48  C   UNL A   1      38.077  33.961  34.272  1.00  0.00     0.029 A 
ATOM     49  C   UNL A   1      39.145  32.971  34.379  1.00  0.00     0.049 A 
ATOM     50  H   UNL A   1      39.784  31.637  32.912  1.00  0.00     0.167 HD
ATOM     51  C   UNL A   1      40.845  28.733  29.786  1.00  0.00     0.037 A 
ATOM     52  C   UNL A   1      39.911  32.756  35.464  1.00  0.00     0.037 A 
ATOM     53  C   UNL A   1      41.734  28.453  30.883  1.00  0.00     0.049 A 
ATOM     54  C   UNL A   1      40.949  31.667  35.421  1.00  0.00     0.074 A 
ATOM     55  C   UNL A   1      42.756  27.523  30.952  1.00  0.00     0.029 A 
ATOM     56  N   UNL A   1      41.707  29.111  32.104  1.00  0.00    -0.354 N 
ATOM     57  N   UNL A   1      41.257  30.856  34.438  1.00  0.00    -0.248 NA
ATOM     58  C   UNL A   1      41.740  31.456  36.642  1.00  0.00     0.031 C 
ATOM     59  C   UNL A   1      43.322  27.592  32.230  1.00  0.00     0.029 A 
ATOM     60  C   UNL A   1      42.684  28.596  32.941  1.00  0.00     0.049 A 
ATOM     61  H   UNL A   1      41.085  29.836  32.342  1.00  0.00     0.167 HD
ATOM     62  C   UNL A   1      42.286  30.054  34.912  1.00  0.00     0.074 A 
ATOM     63  C   UNL A   1      42.562  30.487  36.267  1.00  0.00     0.031 C 
ATOM     64  C   UNL A   1      42.944  29.048  34.284  1.00  0.00     0.037 A 
BRANCH  51  65
ATOM     65  C   UNL A   1      40.980  27.922  28.532  1.00  0.00     0.064 A 
ATOM     66  C   UNL A   1      40.260  26.735  28.338  1.00  0.00     0.173 A 
ATOM     67  C   UNL A   1      41.827  28.353  27.499  1.00  0.00     0.173 A 
ATOM     68  F   UNL A   1      39.451  26.271  29.303  1.00  0.00    -0.203 F 
ATOM     69  C   UNL A   1      40.399  25.996  27.166  1.00  0.00     0.198 A 
ATOM     70  C   UNL A   1      41.944  27.627  26.318  1.00  0.00     0.198 A 
ATOM     71  F   UNL A   1      42.537  29.483  27.634  1.00  0.00    -0.203 F 
ATOM     72  F   UNL A   1      39.735  24.841  27.020  1.00  0.00    -0.200 F 
ATOM     73  C   UNL A   1      41.235  26.445  26.154  1.00  0.00     0.200 A 
ATOM     74  F   UNL A   1      42.746  28.066  25.338  1.00  0.00    -0.200 F 
ATOM     75  F   UNL A   1      41.366  25.736  25.026  1.00  0.00    -0.200 F 
ENDBRANCH  51  65
BRANCH  52  76
ATOM     76  C   UNL A   1      39.698  33.564  36.692  1.00  0.00     0.064 A 
ATOM     77  C   UNL A   1      38.756  33.181  37.658  1.00  0.00     0.173 A 
ATOM     78  C   UNL A   1      40.429  34.738  36.924  1.00  0.00     0.173 A 
ATOM     79  F   UNL A   1      38.014  32.080  37.468  1.00  0.00    -0.203 F 
ATOM     80  C   UNL A   1      38.546  33.949  38.801  1.00  0.00     0.198 A 
ATOM     81  C   UNL A   1      40.238  35.491  38.080  1.00  0.00     0.198 A 
ATOM     82  F   UNL A   1      41.340  35.151  36.030  1.00  0.00    -0.203 F 
ATOM     83  F   UNL A   1      37.610  33.585  39.687  1.00  0.00    -0.200 F 
ATOM     84  C   UNL A   1      39.292  35.099  39.015  1.00  0.00     0.200 A 
ATOM     85  F   UNL A   1      40.969  36.594  38.288  1.00  0.00    -0.200 F 
ATOM     86  F   UNL A   1      39.092  35.835  40.117  1.00  0.00    -0.200 F 
ENDBRANCH  52  76
BRANCH  64  87
ATOM     87  C   UNL A   1      44.044  28.371  35.044  1.00  0.00     0.064 A 
ATOM     88  C   UNL A   1      45.355  28.865  35.033  1.00  0.00     0.173 A 
ATOM     89  C   UNL A   1      43.772  27.239  35.827  1.00  0.00     0.173 A 
ATOM     90  F   UNL A   1      45.668  29.936  34.287  1.00  0.00    -0.203 F 
ATOM     91  C   UNL A   1      46.361  28.237  35.763  1.00  0.00     0.198 A 
ATOM     92  C   UNL A   1      44.774  26.629  36.576  1.00  0.00     0.198 A 
ATOM     93  F   UNL A   1      42.530  26.732  35.874  1.00  0.00    -0.203 F 
ATOM     94  F   UNL A   1      47.617  28.701  35.706  1.00  0.00    -0.200 F 
ATOM     95  C   UNL A   1      46.068  27.125  36.538  1.00  0.00     0.200 A 
ATOM     96  F   UNL A   1      44.487  25.561  37.333  1.00  0.00    -0.200 F 
ATOM     97  F   UNL A   1      47.036  26.526  37.246  1.00  0.00    -0.200 F 
ENDBRANCH  64  87
ENDBRANCH  38  39
ENDBRANCH  31  33
ENDBRANCH  30  31
ENDBRANCH  29  30
ENDBRANCH   1  29
TORSDOF 15
ENDMDL
MODEL 2
REMARK VINA RESULT:     -12.7      4.846     10.425
REMARK SMILES Cc1nc(-c2ccccc2Cl)sc1C(=O)NC[C@H]1CC[C@@H](C(=O)OCCOC(=O)c2ccc(-c3c4nc(c(-c5c(F)c(F)c(F)c(F)c5F)c5ccc([nH]5)c(-c5c(F)c(F)c(F)c(F)c5F)c5nc(c(-c6c(F)c(F)c(F)c(F)c6F)c6ccc3[nH]6)C=C5)C=C4)cc2)CC1
REMARK SMILES IDX 25 1 24 2 22 3 23 4 21 5 18 6 19 7 94 8 20 9 93 10 17 11
REMARK SMILES IDX 16 12 14 13 15 14 13 16 1 17 2 18 3 19 4 20 12 21 5 22 6 23
REMARK SMILES IDX 10 24 7 25 9 26 11 27 8 28 26 29 27 30 28 31 29 32 30 33
REMARK SMILES IDX 31 34 92 35 32 36 91 37 33 38 34 39 35 40 85 41 36 42 90 43
REMARK SMILES IDX 84 44 86 45 37 46 89 47 83 48 82 49 38 51 70 52 50 53 69 54
REMARK SMILES IDX 51 55 54 56 68 57 87 58 52 59 53 60 67 62 88 63 55 64 39 65
REMARK SMILES IDX 40 66 48 67 41 68 42 69 46 70 49 71 43 72 44 73 47 74 45 75
REMARK SMILES IDX 71 76 72 77 80 78 73 79 74 80 78 81 81 82 75 83 76 84 79 85
REMARK SMILES IDX 77 86 56 87 57 88 65 89 58 90 59 91 63 92 66 93 60 94 61 95
REMARK SMILES IDX 64 96 62 97
REMARK H PARENT 16 15 86 50 54 61
REMARK Flexibility Score: inf
ROOT
ATOM      1  C   UNL A   1      36.019  20.533  25.079  1.00  0.00     0.274 C 
ENDROOT
BRANCH   1   2
ATOM      2  O   UNL A   1      35.332  21.657  24.498  1.00  0.00    -0.462 OA
BRANCH   2   3
ATOM      3  C   UNL A   1      34.488  22.371  25.285  1.00  0.00     0.309 C 
ATOM      4  O   UNL A   1      34.751  23.459  25.780  1.00  0.00    -0.252 OA
BRANCH   3   5
ATOM      5  C   UNL A   1      33.160  21.653  25.525  1.00  0.00     0.099 C 
ATOM      6  C   UNL A   1      31.079  23.200  24.044  1.00  0.00     0.008 C 
ATOM      7  C   UNL A   1      32.073  22.256  23.341  1.00  0.00     0.006 C 
ATOM      8  C   UNL A   1      31.489  23.588  25.471  1.00  0.00     0.006 C 
ATOM      9  C   UNL A   1      32.569  21.124  24.225  1.00  0.00     0.015 C 
ATOM     10  C   UNL A   1      32.111  22.461  26.289  1.00  0.00     0.015 C 
BRANCH   6  11
ATOM     11  C   UNL A   1      30.883  24.446  23.160  1.00  0.00     0.119 C 
BRANCH  11  12
ATOM     12  N   UNL A   1      29.669  25.130  23.501  1.00  0.00    -0.351 N 
ATOM     13  C   UNL A   1      29.342  26.390  23.912  1.00  0.00     0.263 C 
ATOM     14  O   UNL A   1      28.125  26.470  24.143  1.00  0.00    -0.268 OA
ATOM     15  H   UNL A   1      28.878  24.548  23.420  1.00  0.00     0.163 HD
BRANCH  13  16
ATOM     16  C   UNL A   1      30.238  27.539  24.063  1.00  0.00     0.115 A 
ATOM     17  C   UNL A   1      30.279  29.392  22.139  1.00  0.00     0.068 C 
ATOM     18  C   UNL A   1      30.623  28.718  23.414  1.00  0.00     0.062 A 
ATOM     19  N   UNL A   1      31.604  29.456  24.073  1.00  0.00    -0.240 NA
ATOM     20  C   UNL A   1      32.006  28.876  25.171  1.00  0.00     0.125 A 
ATOM     21  S   UNL A   1      31.176  27.454  25.560  1.00  0.00    -0.108 S 
BRANCH  20  22
ATOM     22  C   UNL A   1      32.997  29.476  26.057  1.00  0.00     0.029 A 
ATOM     23  C   UNL A   1      34.151  28.717  26.331  1.00  0.00     0.013 A 
ATOM     24  C   UNL A   1      32.820  30.697  26.722  1.00  0.00     0.051 A 
ATOM     25  C   UNL A   1      35.111  29.170  27.234  1.00  0.00     0.001 A 
ATOM     26  C   UNL A   1      33.788  31.150  27.626  1.00  0.00     0.021 A 
ATOM     27  Cl  UNL A   1      31.403  31.672  26.531  1.00  0.00    -0.084 Cl
ATOM     28  C   UNL A   1      34.928  30.387  27.882  1.00  0.00     0.002 A 
ENDBRANCH  20  22
ENDBRANCH  13  16
ENDBRANCH  11  12
ENDBRANCH   6  11
ENDBRANCH   3   5
ENDBRANCH   2   3
ENDBRANCH   1   2
BRANCH   1  29
ATOM     29  C   UNL A   1      37.532  20.674  24.898  1.00  0.00     0.275 C 
BRANCH  29  30
ATOM     30  O   UNL A   1      38.055  21.675  25.788  1.00  0.00    -0.458 OA
BRANCH  30  31
ATOM     31  C   UNL A   1      39.247  21.374  26.354  1.00  0.00     0.338 C 
ATOM     32  O   UNL A   1      39.798  20.289  26.405  1.00  0.00    -0.246 OA
BRANCH  31  33
ATOM     33  C   UNL A   1      39.895  22.622  26.777  1.00  0.00     0.060 A 
ATOM     34  C   UNL A   1      39.496  23.806  26.156  1.00  0.00     0.016 A 
ATOM     35  C   UNL A   1      40.915  22.625  27.727  1.00  0.00     0.016 A 
ATOM     36  C   UNL A   1      40.101  25.011  26.486  1.00  0.00     0.010 A 
ATOM     37  C   UNL A   1      41.532  23.836  28.055  1.00  0.00     0.010 A 
ATOM     38  C   UNL A   1      41.130  25.033  27.433  1.00  0.00    -0.014 A 
BRANCH  38  39
ATOM     39  C   UNL A   1      41.835  26.303  27.716  1.00  0.00     0.031 A 
ATOM     40  C   UNL A   1      41.140  27.368  28.511  1.00  0.00     0.074 A 
ATOM     41  C   UNL A   1      43.094  26.485  27.282  1.00  0.00     0.049 A 
ATOM     42  N   UNL A   1      41.518  28.594  28.762  1.00  0.00    -0.248 NA
ATOM     43  C   UNL A   1      39.845  26.999  29.104  1.00  0.00     0.031 C 
ATOM     44  C   UNL A   1      43.889  25.493  26.561  1.00  0.00     0.029 A 
ATOM     45  N   UNL A   1      43.922  27.576  27.378  1.00  0.00    -0.354 N 
ATOM     46  C   UNL A   1      40.496  29.153  29.519  1.00  0.00     0.074 A 
ATOM     47  C   UNL A   1      39.479  28.136  29.678  1.00  0.00     0.031 C 
ATOM     48  C   UNL A   1      45.089  26.024  26.269  1.00  0.00     0.029 A 
ATOM     49  C   UNL A   1      45.123  27.407  26.736  1.00  0.00     0.049 A 
ATOM     50  H   UNL A   1      43.678  28.398  27.862  1.00  0.00     0.167 HD
ATOM     51  C   UNL A   1      40.422  30.403  30.032  1.00  0.00     0.037 A 
ATOM     52  C   UNL A   1      46.117  28.286  26.515  1.00  0.00     0.037 A 
ATOM     53  C   UNL A   1      41.447  31.402  29.877  1.00  0.00     0.049 A 
ATOM     54  C   UNL A   1      45.980  29.691  27.037  1.00  0.00     0.074 A 
ATOM     55  C   UNL A   1      41.466  32.702  30.349  1.00  0.00     0.029 A 
ATOM     56  N   UNL A   1      42.640  31.204  29.196  1.00  0.00    -0.354 N 
ATOM     57  N   UNL A   1      45.000  30.226  27.724  1.00  0.00    -0.248 NA
ATOM     58  C   UNL A   1      47.083  30.618  26.745  1.00  0.00     0.031 C 
ATOM     59  C   UNL A   1      42.656  33.303  29.922  1.00  0.00     0.029 A 
ATOM     60  C   UNL A   1      43.397  32.363  29.223  1.00  0.00     0.049 A 
ATOM     61  H   UNL A   1      42.909  30.364  28.759  1.00  0.00     0.167 HD
ATOM     62  C   UNL A   1      45.374  31.541  27.963  1.00  0.00     0.074 A 
ATOM     63  C   UNL A   1      46.679  31.720  27.360  1.00  0.00     0.031 C 
ATOM     64  C   UNL A   1      44.697  32.515  28.621  1.00  0.00     0.037 A 
BRANCH  51  65
ATOM     65  C   UNL A   1      39.173  30.771  30.776  1.00  0.00     0.064 A 
ATOM     66  C   UNL A   1      38.085  31.382  30.137  1.00  0.00     0.173 A 
ATOM     67  C   UNL A   1      39.055  30.486  32.146  1.00  0.00     0.173 A 
ATOM     68  F   UNL A   1      38.155  31.691  28.833  1.00  0.00    -0.203 F 
ATOM     69  C   UNL A   1      36.934  31.716  30.846  1.00  0.00     0.198 A 
ATOM     70  C   UNL A   1      37.894  30.797  32.845  1.00  0.00     0.198 A 
ATOM     71  F   UNL A   1      40.068  29.901  32.804  1.00  0.00    -0.203 F 
ATOM     72  F   UNL A   1      35.923  32.339  30.225  1.00  0.00    -0.200 F 
ATOM     73  C   UNL A   1      36.835  31.417  32.197  1.00  0.00     0.200 A 
ATOM     74  F   UNL A   1      37.798  30.501  34.149  1.00  0.00    -0.200 F 
ATOM     75  F   UNL A   1      35.726  31.735  32.877  1.00  0.00    -0.200 F 
ENDBRANCH  51  65
BRANCH  52  76
ATOM     76  C   UNL A   1      47.310  27.873  25.732  1.00  0.00     0.064 A 
ATOM     77  C   UNL A   1      47.288  27.857  24.330  1.00  0.00     0.173 A 
ATOM     78  C   UNL A   1      48.497  27.481  26.369  1.00  0.00     0.173 A 
ATOM     79  F   UNL A   1      46.168  28.198  23.676  1.00  0.00    -0.203 F 
ATOM     80  C   UNL A   1      48.402  27.453  23.598  1.00  0.00     0.198 A 
ATOM     81  C   UNL A   1      49.619  27.104  25.636  1.00  0.00     0.198 A 
ATOM     82  F   UNL A   1      48.570  27.475  27.709  1.00  0.00    -0.203 F 
ATOM     83  F   UNL A   1      48.341  27.406  22.261  1.00  0.00    -0.200 F 
ATOM     84  C   UNL A   1      49.569  27.083  24.251  1.00  0.00     0.200 A 
ATOM     85  F   UNL A   1      50.748  26.759  26.272  1.00  0.00    -0.200 F 
ATOM     86  F   UNL A   1      50.642  26.699  23.545  1.00  0.00    -0.200 F 
ENDBRANCH  52  76
BRANCH  64  87
ATOM     87  C   UNL A   1      45.371  33.848  28.749  1.00  0.00     0.064 A 
ATOM     88  C   UNL A   1      45.175  34.863  27.802  1.00  0.00     0.173 A 
ATOM     89  C   UNL A   1      46.186  34.127  29.856  1.00  0.00     0.173 A 
ATOM     90  F   UNL A   1      44.416  34.639  26.718  1.00  0.00    -0.203 F 
ATOM     91  C   UNL A   1      45.790  36.104  27.948  1.00  0.00     0.198 A 
ATOM     92  C   UNL A   1      46.779  35.377  30.012  1.00  0.00     0.198 A 
ATOM     93  F   UNL A   1      46.399  33.189  30.792  1.00  0.00    -0.203 F 
ATOM     94  F   UNL A   1      45.623  37.047  27.010  1.00  0.00    -0.200 F 
ATOM     95  C   UNL A   1      46.585  36.362  29.055  1.00  0.00     0.200 A 
ATOM     96  F   UNL A   1      47.537  35.628  31.088  1.00  0.00    -0.200 F 
ATOM     97  F   UNL A   1      47.170  37.559  29.197  1.00  0.00    -0.200 F 
ENDBRANCH  64  87
ENDBRANCH  38  39
ENDBRANCH  31  33
ENDBRANCH  30  31
ENDBRANCH  29  30
ENDBRANCH   1  29
TORSDOF 15
ENDMDL
MODEL 3
REMARK VINA RESULT:     -12.6      1.416      7.392
REMARK SMILES Cc1nc(-c2ccccc2Cl)sc1C(=O)NC[C@H]1CC[C@@H](C(=O)OCCOC(=O)c2ccc(-c3c4nc(c(-c5c(F)c(F)c(F)c(F)c5F)c5ccc([nH]5)c(-c5c(F)c(F)c(F)c(F)c5F)c5nc(c(-c6c(F)c(F)c(F)c(F)c6F)c6ccc3[nH]6)C=C5)C=C4)cc2)CC1
REMARK SMILES IDX 25 1 24 2 22 3 23 4 21 5 18 6 19 7 94 8 20 9 93 10 17 11
REMARK SMILES IDX 16 12 14 13 15 14 13 16 1 17 2 18 3 19 4 20 12 21 5 22 6 23
REMARK SMILES IDX 10 24 7 25 9 26 11 27 8 28 26 29 27 30 28 31 29 32 30 33
REMARK SMILES IDX 31 34 92 35 32 36 91 37 33 38 34 39 35 40 85 41 36 42 90 43
REMARK SMILES IDX 84 44 86 45 37 46 89 47 83 48 82 49 38 51 70 52 50 53 69 54
REMARK SMILES IDX 51 55 54 56 68 57 87 58 52 59 53 60 67 62 88 63 55 64 39 65
REMARK SMILES IDX 40 66 48 67 41 68 42 69 46 70 49 71 43 72 44 73 47 74 45 75
REMARK SMILES IDX 71 76 72 77 80 78 73 79 74 80 78 81 81 82 75 83 76 84 79 85
REMARK SMILES IDX 77 86 56 87 57 88 65 89 58 90 59 91 63 92 66 93 60 94 61 95
REMARK SMILES IDX 64 96 62 97
REMARK H PARENT 16 15 86 50 54 61
REMARK Flexibility Score: inf
ROOT
ATOM      1  C   UNL A   1      31.268  31.982  26.946  1.00  0.00     0.274 C 
ENDROOT
BRANCH   1   2
ATOM      2  O   UNL A   1      31.177  31.323  25.669  1.00  0.00    -0.462 OA
BRANCH   2   3
ATOM      3  C   UNL A   1      31.537  30.017  25.592  1.00  0.00     0.309 C 
ATOM      4  O   UNL A   1      31.362  29.303  24.612  1.00  0.00    -0.252 OA
BRANCH   3   5
ATOM      5  C   UNL A   1      32.165  29.502  26.887  1.00  0.00     0.099 C 
ATOM      6  C   UNL A   1      33.435  26.881  26.230  1.00  0.00     0.008 C 
ATOM      7  C   UNL A   1      34.062  28.232  25.836  1.00  0.00     0.006 C 
ATOM      8  C   UNL A   1      31.952  26.969  26.614  1.00  0.00     0.006 C 
ATOM      9  C   UNL A   1      33.678  29.375  26.760  1.00  0.00     0.015 C 
ATOM     10  C   UNL A   1      31.572  28.202  27.427  1.00  0.00     0.015 C 
BRANCH   6  11
ATOM     11  C   UNL A   1      33.656  25.887  25.074  1.00  0.00     0.119 C 
BRANCH  11  12
ATOM     12  N   UNL A   1      32.460  25.732  24.297  1.00  0.00    -0.351 N 
ATOM     13  C   UNL A   1      31.631  24.695  23.979  1.00  0.00     0.263 C 
ATOM     14  O   UNL A   1      30.741  25.073  23.202  1.00  0.00    -0.268 OA
ATOM     15  H   UNL A   1      32.166  26.581  23.892  1.00  0.00     0.163 HD
BRANCH  13  16
ATOM     16  C   UNL A   1      31.705  23.314  24.462  1.00  0.00     0.115 A 
ATOM     17  C   UNL A   1      30.290  22.636  26.624  1.00  0.00     0.068 C 
ATOM     18  C   UNL A   1      31.202  22.478  25.465  1.00  0.00     0.062 A 
ATOM     19  N   UNL A   1      31.680  21.170  25.433  1.00  0.00    -0.240 NA
ATOM     20  C   UNL A   1      32.548  20.984  24.476  1.00  0.00     0.125 A 
ATOM     21  S   UNL A   1      32.790  22.326  23.474  1.00  0.00    -0.108 S 
BRANCH  20  22
ATOM     22  C   UNL A   1      33.159  19.686  24.213  1.00  0.00     0.029 A 
ATOM     23  C   UNL A   1      32.328  18.684  23.678  1.00  0.00     0.013 A 
ATOM     24  C   UNL A   1      34.478  19.355  24.557  1.00  0.00     0.051 A 
ATOM     25  C   UNL A   1      32.800  17.389  23.476  1.00  0.00     0.001 A 
ATOM     26  C   UNL A   1      34.950  18.053  24.350  1.00  0.00     0.021 A 
ATOM     27  Cl  UNL A   1      35.563  20.478  25.302  1.00  0.00    -0.084 Cl
ATOM     28  C   UNL A   1      34.113  17.074  23.814  1.00  0.00     0.002 A 
ENDBRANCH  20  22
ENDBRANCH  13  16
ENDBRANCH  11  12
ENDBRANCH   6  11
ENDBRANCH   3   5
ENDBRANCH   2   3
ENDBRANCH   1   2
BRANCH   1  29
ATOM     29  C   UNL A   1      32.237  33.163  26.876  1.00  0.00     0.275 C 
BRANCH  29  30
ATOM     30  O   UNL A   1      32.540  33.645  28.197  1.00  0.00    -0.458 OA
BRANCH  30  31
ATOM     31  C   UNL A   1      33.626  34.450  28.280  1.00  0.00     0.338 C 
ATOM     32  O   UNL A   1      33.682  35.651  28.092  1.00  0.00    -0.246 OA
BRANCH  31  33
ATOM     33  C   UNL A   1      34.750  33.668  28.812  1.00  0.00     0.060 A 
ATOM     34  C   UNL A   1      34.469  32.420  29.369  1.00  0.00     0.016 A 
ATOM     35  C   UNL A   1      36.049  34.173  28.814  1.00  0.00     0.016 A 
ATOM     36  C   UNL A   1      35.486  31.654  29.924  1.00  0.00     0.010 A 
ATOM     37  C   UNL A   1      37.072  33.406  29.379  1.00  0.00     0.010 A 
ATOM     38  C   UNL A   1      36.795  32.147  29.940  1.00  0.00    -0.014 A 
BRANCH  38  39
ATOM     39  C   UNL A   1      37.859  31.368  30.612  1.00  0.00     0.031 A 
ATOM     40  C   UNL A   1      38.161  31.630  32.057  1.00  0.00     0.074 A 
ATOM     41  C   UNL A   1      38.530  30.421  29.933  1.00  0.00     0.049 A 
ATOM     42  N   UNL A   1      39.130  31.162  32.800  1.00  0.00    -0.248 NA
ATOM     43  C   UNL A   1      37.247  32.545  32.759  1.00  0.00     0.031 C 
ATOM     44  C   UNL A   1      38.273  30.035  28.547  1.00  0.00     0.029 A 
ATOM     45  N   UNL A   1      39.572  29.617  30.320  1.00  0.00    -0.354 N 
ATOM     46  C   UNL A   1      38.958  31.742  34.049  1.00  0.00     0.074 A 
ATOM     47  C   UNL A   1      37.799  32.606  33.962  1.00  0.00     0.031 C 
ATOM     48  C   UNL A   1      39.143  29.074  28.193  1.00  0.00     0.029 A 
ATOM     49  C   UNL A   1      40.049  28.818  29.311  1.00  0.00     0.049 A 
ATOM     50  H   UNL A   1      39.942  29.612  31.233  1.00  0.00     0.167 HD
ATOM     51  C   UNL A   1      39.704  31.566  35.165  1.00  0.00     0.037 A 
ATOM     52  C   UNL A   1      41.120  28.004  29.282  1.00  0.00     0.037 A 
ATOM     53  C   UNL A   1      40.847  30.695  35.241  1.00  0.00     0.049 A 
ATOM     54  C   UNL A   1      41.974  27.878  30.515  1.00  0.00     0.074 A 
ATOM     55  C   UNL A   1      41.678  30.451  36.321  1.00  0.00     0.029 A 
ATOM     56  N   UNL A   1      41.317  29.920  34.190  1.00  0.00    -0.354 N 
ATOM     57  N   UNL A   1      41.828  28.452  31.685  1.00  0.00    -0.248 NA
ATOM     58  C   UNL A   1      43.147  26.997  30.422  1.00  0.00     0.031 C 
ATOM     59  C   UNL A   1      42.673  29.556  35.911  1.00  0.00     0.029 A 
ATOM     60  C   UNL A   1      42.435  29.208  34.590  1.00  0.00     0.049 A 
ATOM     61  H   UNL A   1      40.914  29.882  33.292  1.00  0.00     0.167 HD
ATOM     62  C   UNL A   1      42.875  27.991  32.471  1.00  0.00     0.074 A 
ATOM     63  C   UNL A   1      43.641  27.075  31.649  1.00  0.00     0.031 C 
ATOM     64  C   UNL A   1      43.177  28.297  33.756  1.00  0.00     0.037 A 
BRANCH  51  65
ATOM     65  C   UNL A   1      39.328  32.360  36.380  1.00  0.00     0.064 A 
ATOM     66  C   UNL A   1      39.915  33.602  36.661  1.00  0.00     0.173 A 
ATOM     67  C   UNL A   1      38.349  31.881  37.264  1.00  0.00     0.173 A 
ATOM     68  F   UNL A   1      40.869  34.096  35.857  1.00  0.00    -0.203 F 
ATOM     69  C   UNL A   1      39.552  34.325  37.795  1.00  0.00     0.198 A 
ATOM     70  C   UNL A   1      37.969  32.617  38.381  1.00  0.00     0.198 A 
ATOM     71  F   UNL A   1      37.756  30.698  37.039  1.00  0.00    -0.203 F 
ATOM     72  F   UNL A   1      40.158  35.489  38.068  1.00  0.00    -0.200 F 
ATOM     73  C   UNL A   1      38.575  33.836  38.650  1.00  0.00     0.200 A 
ATOM     74  F   UNL A   1      37.020  32.147  39.202  1.00  0.00    -0.200 F 
ATOM     75  F   UNL A   1      38.225  34.534  39.739  1.00  0.00    -0.200 F 
ENDBRANCH  51  65
BRANCH  52  76
ATOM     76  C   UNL A   1      41.466  27.278  28.033  1.00  0.00     0.064 A 
ATOM     77  C   UNL A   1      41.019  25.968  27.809  1.00  0.00     0.173 A 
ATOM     78  C   UNL A   1      42.254  27.878  27.040  1.00  0.00     0.173 A 
ATOM     79  F   UNL A   1      40.285  25.343  28.740  1.00  0.00    -0.203 F 
ATOM     80  C   UNL A   1      41.359  25.283  26.645  1.00  0.00     0.198 A 
ATOM     81  C   UNL A   1      42.571  27.202  25.864  1.00  0.00     0.198 A 
ATOM     82  F   UNL A   1      42.710  29.128  27.207  1.00  0.00    -0.203 F 
ATOM     83  F   UNL A   1      40.956  24.017  26.473  1.00  0.00    -0.200 F 
ATOM     84  C   UNL A   1      42.129  25.902  25.670  1.00  0.00     0.200 A 
ATOM     85  F   UNL A   1      43.304  27.809  24.921  1.00  0.00    -0.200 F 
ATOM     86  F   UNL A   1      42.452  25.243  24.548  1.00  0.00    -0.200 F 
ENDBRANCH  52  76
BRANCH  64  87
ATOM     87  C   UNL A   1      44.367  27.614  34.361  1.00  0.00     0.064 A 
ATOM     88  C   UNL A   1      44.260  26.355  34.967  1.00  0.00     0.173 A 
ATOM     89  C   UNL A   1      45.636  28.209  34.294  1.00  0.00     0.173 A 
ATOM     90  F   UNL A   1      43.065  25.753  35.068  1.00  0.00    -0.203 F 
ATOM     91  C   UNL A   1      45.379  25.723  35.503  1.00  0.00     0.198 A 
ATOM     92  C   UNL A   1      46.757  27.563  34.808  1.00  0.00     0.198 A 
ATOM     93  F   UNL A   1      45.790  29.411  33.719  1.00  0.00    -0.203 F 
ATOM     94  F   UNL A   1      45.249  24.538  36.114  1.00  0.00    -0.200 F 
ATOM     95  C   UNL A   1      46.626  26.324  35.417  1.00  0.00     0.200 A 
ATOM     96  F   UNL A   1      47.962  28.140  34.714  1.00  0.00    -0.200 F 
ATOM     97  F   UNL A   1      47.703  25.712  35.928  1.00  0.00    -0.200 F 
ENDBRANCH  64  87
ENDBRANCH  38  39
ENDBRANCH  31  33
ENDBRANCH  30  31
ENDBRANCH  29  30
ENDBRANCH   1  29
TORSDOF 15
ENDMDL
