MODEL 1
REMARK VINA RESULT:     -10.1      0.000      0.000
REMARK SMILES CCCC#C[C@](C)(O)C[NH2+][C@H](C)C(=O)OCCOC(=O)c1ccc(-c2c3nc(c(-c4c(F)c(F)c(F)c(F)c4F)c4ccc([nH]4)c(-c4c(F)c(F)c(F)c(F)c4F)c4nc(c(-c5c(F)c(F)c(F)c(F)c5F)c5ccc2[nH]5)C=C4)C=C3)cc1
REMARK SMILES IDX 13 1 14 2 11 3 12 4 10 5 9 8 6 9 7 10 5 11 4 12 3 13 2 14
REMARK SMILES IDX 1 15 8 16 15 18 16 19 17 20 18 21 19 22 20 23 21 24 22 25
REMARK SMILES IDX 83 26 23 27 82 28 24 29 25 30 26 31 76 32 27 33 81 34 75 35
REMARK SMILES IDX 77 36 28 37 80 38 74 39 73 40 29 42 61 43 41 44 60 45 42 46
REMARK SMILES IDX 45 47 59 48 78 49 43 50 44 51 58 53 79 54 46 55 30 56 31 57
REMARK SMILES IDX 39 58 32 59 33 60 37 61 40 62 34 63 35 64 38 65 36 66 62 67
REMARK SMILES IDX 63 68 71 69 64 70 65 71 69 72 72 73 66 74 67 75 70 76 68 77
REMARK SMILES IDX 47 78 48 79 56 80 49 81 50 82 54 83 57 84 51 85 52 86 55 87
REMARK SMILES IDX 53 88
REMARK H PARENT 10 6 10 7 8 17 77 41 45 52
REMARK Flexibility Score: inf
ROOT
ATOM      1  C   UNL A   1      44.526  19.125  24.863  1.00  0.00     0.364 C 
ATOM      2  O   UNL A   1      45.490  18.387  25.054  1.00  0.00    -0.245 OA
ENDROOT
BRANCH   1   3
ATOM      3  C   UNL A   1      43.221  19.045  25.690  1.00  0.00     0.290 C 
ATOM      4  C   UNL A   1      43.087  17.767  26.511  1.00  0.00     0.088 C 
BRANCH   3   5
ATOM      5  N   UNL A   1      43.054  20.216  26.580  1.00  0.00    -0.332 N 
ATOM      6  H   UNL A   1      42.801  19.885  27.511  1.00  0.00     0.347 HD
ATOM      7  H   UNL A   1      43.937  20.726  26.589  1.00  0.00     0.347 HD
BRANCH   5   8
ATOM      8  C   UNL A   1      42.006  21.144  26.106  1.00  0.00     0.310 C 
BRANCH   8   9
ATOM      9  C   UNL A   1      40.615  20.834  26.714  1.00  0.00     0.171 C 
ATOM     10  C   UNL A   1      39.990  19.590  26.080  1.00  0.00     0.063 C 
BRANCH   9  11
ATOM     11  C   UNL A   1      39.725  22.000  26.546  1.00  0.00    -0.063 C 
ATOM     12  C   UNL A   1      38.852  22.959  26.418  1.00  0.00    -0.100 C 
BRANCH  12  13
ATOM     13  C   UNL A   1      37.833  24.078  26.269  1.00  0.00     0.089 C 
BRANCH  13  14
ATOM     14  C   UNL A   1      36.537  23.571  25.640  1.00  0.00     0.010 C 
ATOM     15  C   UNL A   1      36.712  23.104  24.201  1.00  0.00     0.005 C 
ENDBRANCH  13  14
ENDBRANCH  12  13
ENDBRANCH   9  11
BRANCH   9  16
ATOM     16  O   UNL A   1      40.778  20.592  28.120  1.00  0.00    -0.372 OA
ATOM     17  H   UNL A   1      41.719  20.649  28.350  1.00  0.00     0.212 HD
ENDBRANCH   9  16
ENDBRANCH   8   9
ENDBRANCH   5   8
ENDBRANCH   3   5
ENDBRANCH   1   3
BRANCH   1  18
ATOM     18  O   UNL A   1      44.515  20.108  23.924  1.00  0.00    -0.458 OA
BRANCH  18  19
ATOM     19  C   UNL A   1      45.243  21.299  24.279  1.00  0.00     0.274 C 
BRANCH  19  20
ATOM     20  C   UNL A   1      44.528  22.579  23.824  1.00  0.00     0.275 C 
BRANCH  20  21
ATOM     21  O   UNL A   1      44.038  23.378  24.920  1.00  0.00    -0.458 OA
BRANCH  21  22
ATOM     22  C   UNL A   1      44.752  24.498  25.183  1.00  0.00     0.338 C 
ATOM     23  O   UNL A   1      45.769  24.872  24.624  1.00  0.00    -0.246 OA
BRANCH  22  24
ATOM     24  C   UNL A   1      44.062  25.325  26.188  1.00  0.00     0.060 A 
ATOM     25  C   UNL A   1      44.411  26.676  26.275  1.00  0.00     0.016 A 
ATOM     26  C   UNL A   1      43.167  24.769  27.101  1.00  0.00     0.016 A 
ATOM     27  C   UNL A   1      43.881  27.478  27.279  1.00  0.00     0.010 A 
ATOM     28  C   UNL A   1      42.629  25.577  28.110  1.00  0.00     0.010 A 
ATOM     29  C   UNL A   1      42.991  26.933  28.209  1.00  0.00    -0.014 A 
BRANCH  29  30
ATOM     30  C   UNL A   1      42.469  27.786  29.302  1.00  0.00     0.031 A 
ATOM     31  C   UNL A   1      43.227  27.898  30.591  1.00  0.00     0.074 A 
ATOM     32  C   UNL A   1      41.332  28.482  29.119  1.00  0.00     0.049 A 
ATOM     33  N   UNL A   1      42.888  28.505  31.700  1.00  0.00    -0.248 NA
ATOM     34  C   UNL A   1      44.542  27.243  30.639  1.00  0.00     0.031 C 
ATOM     35  C   UNL A   1      40.547  28.501  27.886  1.00  0.00     0.029 A 
ATOM     36  N   UNL A   1      40.642  29.303  29.973  1.00  0.00    -0.354 N 
ATOM     37  C   UNL A   1      43.934  28.286  32.585  1.00  0.00     0.074 A 
ATOM     38  C   UNL A   1      44.918  27.485  31.888  1.00  0.00     0.031 C 
ATOM     39  C   UNL A   1      39.476  29.293  28.064  1.00  0.00     0.029 A 
ATOM     40  C   UNL A   1      39.476  29.790  29.437  1.00  0.00     0.049 A 
ATOM     41  H   UNL A   1      40.952  29.522  30.882  1.00  0.00     0.167 HD
ATOM     42  C   UNL A   1      44.056  28.715  33.863  1.00  0.00     0.037 A 
ATOM     43  C   UNL A   1      38.499  30.524  30.003  1.00  0.00     0.037 A 
ATOM     44  C   UNL A   1      43.083  29.528  34.544  1.00  0.00     0.049 A 
ATOM     45  C   UNL A   1      38.627  30.929  31.445  1.00  0.00     0.074 A 
ATOM     46  C   UNL A   1      43.122  30.026  35.835  1.00  0.00     0.029 A 
ATOM     47  N   UNL A   1      41.892  29.965  33.983  1.00  0.00    -0.354 N 
ATOM     48  N   UNL A   1      39.606  30.696  32.285  1.00  0.00    -0.248 NA
ATOM     49  C   UNL A   1      37.508  31.685  32.022  1.00  0.00     0.031 C 
ATOM     50  C   UNL A   1      41.937  30.733  36.068  1.00  0.00     0.029 A 
ATOM     51  C   UNL A   1      41.177  30.707  34.909  1.00  0.00     0.049 A 
ATOM     52  H   UNL A   1      41.597  29.776  33.063  1.00  0.00     0.167 HD
ATOM     53  C   UNL A   1      39.229  31.284  33.484  1.00  0.00     0.074 A 
ATOM     54  C   UNL A   1      37.937  31.900  33.259  1.00  0.00     0.031 C 
ATOM     55  C   UNL A   1      39.890  31.308  34.667  1.00  0.00     0.037 A 
BRANCH  42  56
ATOM     56  C   UNL A   1      45.272  28.282  34.625  1.00  0.00     0.064 A 
ATOM     57  C   UNL A   1      46.445  29.050  34.644  1.00  0.00     0.173 A 
ATOM     58  C   UNL A   1      45.250  27.095  35.375  1.00  0.00     0.173 A 
ATOM     59  F   UNL A   1      46.519  30.184  33.932  1.00  0.00    -0.203 F 
ATOM     60  C   UNL A   1      47.557  28.637  35.374  1.00  0.00     0.198 A 
ATOM     61  C   UNL A   1      46.355  26.698  36.120  1.00  0.00     0.198 A 
ATOM     62  F   UNL A   1      44.149  26.327  35.390  1.00  0.00    -0.203 F 
ATOM     63  F   UNL A   1      48.680  29.369  35.350  1.00  0.00    -0.200 F 
ATOM     64  C   UNL A   1      47.510  27.466  36.115  1.00  0.00     0.200 A 
ATOM     65  F   UNL A   1      46.305  25.570  36.842  1.00  0.00    -0.200 F 
ATOM     66  F   UNL A   1      48.580  27.073  36.820  1.00  0.00    -0.200 F 
ENDBRANCH  42  56
BRANCH  43  67
ATOM     67  C   UNL A   1      37.298  30.885  29.211  1.00  0.00     0.064 A 
ATOM     68  C   UNL A   1      36.320  29.931  28.906  1.00  0.00     0.173 A 
ATOM     69  C   UNL A   1      37.101  32.196  28.751  1.00  0.00     0.173 A 
ATOM     70  F   UNL A   1      36.477  28.659  29.303  1.00  0.00    -0.203 F 
ATOM     71  C   UNL A   1      35.191  30.272  28.164  1.00  0.00     0.198 A 
ATOM     72  C   UNL A   1      35.961  32.541  28.030  1.00  0.00     0.198 A 
ATOM     73  F   UNL A   1      38.012  33.144  29.015  1.00  0.00    -0.203 F 
ATOM     74  F   UNL A   1      34.285  29.334  27.856  1.00  0.00    -0.200 F 
ATOM     75  C   UNL A   1      35.009  31.579  27.733  1.00  0.00     0.200 A 
ATOM     76  F   UNL A   1      35.784  33.807  27.626  1.00  0.00    -0.200 F 
ATOM     77  F   UNL A   1      33.919  31.907  27.026  1.00  0.00    -0.200 F 
ENDBRANCH  43  67
BRANCH  55  78
ATOM     78  C   UNL A   1      39.233  32.032  35.802  1.00  0.00     0.064 A 
ATOM     79  C   UNL A   1      38.367  31.372  36.684  1.00  0.00     0.173 A 
ATOM     80  C   UNL A   1      39.500  33.391  36.030  1.00  0.00     0.173 A 
ATOM     81  F   UNL A   1      38.068  30.078  36.496  1.00  0.00    -0.203 F 
ATOM     82  C   UNL A   1      37.776  32.051  37.747  1.00  0.00     0.198 A 
ATOM     83  C   UNL A   1      38.926  34.060  37.106  1.00  0.00     0.198 A 
ATOM     84  F   UNL A   1      40.324  34.063  35.214  1.00  0.00    -0.203 F 
ATOM     85  F   UNL A   1      36.923  31.411  38.557  1.00  0.00    -0.200 F 
ATOM     86  C   UNL A   1      38.061  33.392  37.960  1.00  0.00     0.200 A 
ATOM     87  F   UNL A   1      39.208  35.353  37.317  1.00  0.00    -0.200 F 
ATOM     88  F   UNL A   1      37.497  34.043  38.986  1.00  0.00    -0.200 F 
ENDBRANCH  55  78
ENDBRANCH  29  30
ENDBRANCH  22  24
ENDBRANCH  21  22
ENDBRANCH  20  21
ENDBRANCH  19  20
ENDBRANCH  18  19
ENDBRANCH   1  18
TORSDOF 18
ENDMDL
MODEL 2
REMARK VINA RESULT:      -9.9      5.148     10.233
REMARK SMILES CCCC#C[C@](C)(O)C[NH2+][C@H](C)C(=O)OCCOC(=O)c1ccc(-c2c3nc(c(-c4c(F)c(F)c(F)c(F)c4F)c4ccc([nH]4)c(-c4c(F)c(F)c(F)c(F)c4F)c4nc(c(-c5c(F)c(F)c(F)c(F)c5F)c5ccc2[nH]5)C=C4)C=C3)cc1
REMARK SMILES IDX 13 1 14 2 11 3 12 4 10 5 9 8 6 9 7 10 5 11 4 12 3 13 2 14
REMARK SMILES IDX 1 15 8 16 15 18 16 19 17 20 18 21 19 22 20 23 21 24 22 25
REMARK SMILES IDX 83 26 23 27 82 28 24 29 25 30 26 31 76 32 27 33 81 34 75 35
REMARK SMILES IDX 77 36 28 37 80 38 74 39 73 40 29 42 61 43 41 44 60 45 42 46
REMARK SMILES IDX 45 47 59 48 78 49 43 50 44 51 58 53 79 54 46 55 30 56 31 57
REMARK SMILES IDX 39 58 32 59 33 60 37 61 40 62 34 63 35 64 38 65 36 66 62 67
REMARK SMILES IDX 63 68 71 69 64 70 65 71 69 72 72 73 66 74 67 75 70 76 68 77
REMARK SMILES IDX 47 78 48 79 56 80 49 81 50 82 54 83 57 84 51 85 52 86 55 87
REMARK SMILES IDX 53 88
REMARK H PARENT 10 6 10 7 8 17 77 41 45 52
REMARK Flexibility Score: inf
ROOT
ATOM      1  C   UNL A   1      34.498  32.862  28.976  1.00  0.00     0.364 C 
ATOM      2  O   UNL A   1      34.406  32.551  30.161  1.00  0.00    -0.245 OA
ENDROOT
BRANCH   1   3
ATOM      3  C   UNL A   1      34.756  31.836  27.848  1.00  0.00     0.290 C 
ATOM      4  C   UNL A   1      36.078  31.088  27.984  1.00  0.00     0.088 C 
BRANCH   3   5
ATOM      5  N   UNL A   1      33.653  30.858  27.722  1.00  0.00    -0.332 N 
ATOM      6  H   UNL A   1      33.340  30.598  28.657  1.00  0.00     0.347 HD
ATOM      7  H   UNL A   1      32.908  31.300  27.184  1.00  0.00     0.347 HD
BRANCH   5   8
ATOM      8  C   UNL A   1      34.060  29.634  27.001  1.00  0.00     0.310 C 
BRANCH   8   9
ATOM      9  C   UNL A   1      33.066  29.244  25.879  1.00  0.00     0.171 C 
ATOM     10  C   UNL A   1      31.775  30.062  25.963  1.00  0.00     0.063 C 
BRANCH   9  11
ATOM     11  C   UNL A   1      32.765  27.801  25.957  1.00  0.00    -0.063 C 
ATOM     12  C   UNL A   1      32.608  26.511  26.058  1.00  0.00    -0.100 C 
BRANCH  12  13
ATOM     13  C   UNL A   1      32.425  25.006  26.176  1.00  0.00     0.089 C 
BRANCH  13  14
ATOM     14  C   UNL A   1      33.756  24.270  26.031  1.00  0.00     0.010 C 
ATOM     15  C   UNL A   1      34.501  24.625  24.751  1.00  0.00     0.005 C 
ENDBRANCH  13  14
ENDBRANCH  12  13
ENDBRANCH   9  11
BRANCH   9  16
ATOM     16  O   UNL A   1      33.686  29.506  24.611  1.00  0.00    -0.372 OA
ATOM     17  H   UNL A   1      33.136  29.142  23.901  1.00  0.00     0.212 HD
ENDBRANCH   9  16
ENDBRANCH   8   9
ENDBRANCH   5   8
ENDBRANCH   3   5
ENDBRANCH   1   3
BRANCH   1  18
ATOM     18  O   UNL A   1      34.355  34.138  28.528  1.00  0.00    -0.458 OA
BRANCH  18  19
ATOM     19  C   UNL A   1      33.033  34.691  28.671  1.00  0.00     0.274 C 
BRANCH  19  20
ATOM     20  C   UNL A   1      32.963  35.763  29.766  1.00  0.00     0.275 C 
BRANCH  20  21
ATOM     21  O   UNL A   1      32.265  35.326  30.949  1.00  0.00    -0.458 OA
BRANCH  21  22
ATOM     22  C   UNL A   1      32.682  35.889  32.108  1.00  0.00     0.338 C 
ATOM     23  O   UNL A   1      32.158  36.810  32.712  1.00  0.00    -0.246 OA
BRANCH  22  24
ATOM     24  C   UNL A   1      33.828  35.145  32.659  1.00  0.00     0.060 A 
ATOM     25  C   UNL A   1      35.103  35.695  32.498  1.00  0.00     0.016 A 
ATOM     26  C   UNL A   1      33.673  33.882  33.228  1.00  0.00     0.016 A 
ATOM     27  C   UNL A   1      36.232  34.986  32.891  1.00  0.00     0.010 A 
ATOM     28  C   UNL A   1      34.810  33.169  33.629  1.00  0.00     0.010 A 
ATOM     29  C   UNL A   1      36.095  33.713  33.453  1.00  0.00    -0.014 A 
BRANCH  29  30
ATOM     30  C   UNL A   1      37.307  32.948  33.825  1.00  0.00     0.031 A 
ATOM     31  C   UNL A   1      37.983  33.207  35.139  1.00  0.00     0.074 A 
ATOM     32  C   UNL A   1      37.777  31.999  32.995  1.00  0.00     0.049 A 
ATOM     33  N   UNL A   1      39.107  32.721  35.601  1.00  0.00    -0.248 NA
ATOM     34  C   UNL A   1      37.304  34.135  36.055  1.00  0.00     0.031 C 
ATOM     35  C   UNL A   1      37.164  31.616  31.723  1.00  0.00     0.029 A 
ATOM     36  N   UNL A   1      38.879  31.190  33.097  1.00  0.00    -0.354 N 
ATOM     37  C   UNL A   1      39.283  33.300  36.849  1.00  0.00     0.074 A 
ATOM     38  C   UNL A   1      38.154  34.180  37.072  1.00  0.00     0.031 C 
ATOM     39  C   UNL A   1      37.904  30.646  31.160  1.00  0.00     0.029 A 
ATOM     40  C   UNL A   1      39.065  30.382  32.004  1.00  0.00     0.049 A 
ATOM     41  H   UNL A   1      39.479  31.189  33.878  1.00  0.00     0.167 HD
ATOM     42  C   UNL A   1      40.298  33.114  37.726  1.00  0.00     0.037 A 
ATOM     43  C   UNL A   1      40.079  29.549  31.701  1.00  0.00     0.037 A 
ATOM     44  C   UNL A   1      41.408  32.222  37.507  1.00  0.00     0.049 A 
ATOM     45  C   UNL A   1      41.227  29.412  32.661  1.00  0.00     0.074 A 
ATOM     46  C   UNL A   1      42.478  31.953  38.341  1.00  0.00     0.029 A 
ATOM     47  N   UNL A   1      41.585  31.453  36.367  1.00  0.00    -0.354 N 
ATOM     48  N   UNL A   1      41.402  29.982  33.828  1.00  0.00    -0.248 NA
ATOM     49  C   UNL A   1      42.328  28.527  32.255  1.00  0.00     0.031 C 
ATOM     50  C   UNL A   1      43.324  31.049  37.690  1.00  0.00     0.029 A 
ATOM     51  C   UNL A   1      42.760  30.726  36.465  1.00  0.00     0.049 A 
ATOM     52  H   UNL A   1      40.968  31.427  35.600  1.00  0.00     0.167 HD
ATOM     53  C   UNL A   1      42.622  29.520  34.301  1.00  0.00     0.074 A 
ATOM     54  C   UNL A   1      43.139  28.608  33.301  1.00  0.00     0.031 C 
ATOM     55  C   UNL A   1      43.260  29.827  35.456  1.00  0.00     0.037 A 
BRANCH  42  56
ATOM     56  C   UNL A   1      40.275  33.916  38.991  1.00  0.00     0.064 A 
ATOM     57  C   UNL A   1      39.608  33.468  40.140  1.00  0.00     0.173 A 
ATOM     58  C   UNL A   1      40.963  35.138  39.064  1.00  0.00     0.173 A 
ATOM     59  F   UNL A   1      38.926  32.313  40.115  1.00  0.00    -0.203 F 
ATOM     60  C   UNL A   1      39.615  34.222  41.311  1.00  0.00     0.198 A 
ATOM     61  C   UNL A   1      40.986  35.878  40.242  1.00  0.00     0.198 A 
ATOM     62  F   UNL A   1      41.619  35.609  37.992  1.00  0.00    -0.203 F 
ATOM     63  F   UNL A   1      38.942  33.792  42.387  1.00  0.00    -0.200 F 
ATOM     64  C   UNL A   1      40.308  35.422  41.362  1.00  0.00     0.200 A 
ATOM     65  F   UNL A   1      41.663  37.034  40.293  1.00  0.00    -0.200 F 
ATOM     66  F   UNL A   1      40.318  36.144  42.492  1.00  0.00    -0.200 F 
ENDBRANCH  42  56
BRANCH  43  67
ATOM     67  C   UNL A   1      40.067  28.814  30.413  1.00  0.00     0.064 A 
ATOM     68  C   UNL A   1      39.457  27.558  30.303  1.00  0.00     0.173 A 
ATOM     69  C   UNL A   1      40.659  29.357  29.263  1.00  0.00     0.173 A 
ATOM     70  F   UNL A   1      38.900  26.987  31.381  1.00  0.00    -0.203 F 
ATOM     71  C   UNL A   1      39.446  26.869  29.091  1.00  0.00     0.198 A 
ATOM     72  C   UNL A   1      40.626  28.679  28.048  1.00  0.00     0.198 A 
ATOM     73  F   UNL A   1      41.259  30.556  29.319  1.00  0.00    -0.203 F 
ATOM     74  F   UNL A   1      38.885  25.654  29.020  1.00  0.00    -0.200 F 
ATOM     75  C   UNL A   1      40.024  27.434  27.963  1.00  0.00     0.200 A 
ATOM     76  F   UNL A   1      41.176  29.233  26.958  1.00  0.00    -0.200 F 
ATOM     77  F   UNL A   1      40.005  26.774  26.798  1.00  0.00    -0.200 F 
ENDBRANCH  43  67
BRANCH  55  78
ATOM     78  C   UNL A   1      44.579  29.162  35.706  1.00  0.00     0.064 A 
ATOM     79  C   UNL A   1      44.658  27.916  36.345  1.00  0.00     0.173 A 
ATOM     80  C   UNL A   1      45.772  29.759  35.272  1.00  0.00     0.173 A 
ATOM     81  F   UNL A   1      43.546  27.316  36.794  1.00  0.00    -0.203 F 
ATOM     82  C   UNL A   1      45.888  27.298  36.555  1.00  0.00     0.198 A 
ATOM     83  C   UNL A   1      46.997  29.128  35.463  1.00  0.00     0.198 A 
ATOM     84  F   UNL A   1      45.746  30.949  34.653  1.00  0.00    -0.203 F 
ATOM     85  F   UNL A   1      45.945  26.126  37.200  1.00  0.00    -0.200 F 
ATOM     86  C   UNL A   1      47.055  27.902  36.109  1.00  0.00     0.200 A 
ATOM     87  F   UNL A   1      48.123  29.707  35.024  1.00  0.00    -0.200 F 
ATOM     88  F   UNL A   1      48.238  27.304  36.307  1.00  0.00    -0.200 F 
ENDBRANCH  55  78
ENDBRANCH  29  30
ENDBRANCH  22  24
ENDBRANCH  21  22
ENDBRANCH  20  21
ENDBRANCH  19  20
ENDBRANCH  18  19
ENDBRANCH   1  18
TORSDOF 18
ENDMDL
MODEL 3
REMARK VINA RESULT:      -9.9      5.397     11.356
REMARK SMILES CCCC#C[C@](C)(O)C[NH2+][C@H](C)C(=O)OCCOC(=O)c1ccc(-c2c3nc(c(-c4c(F)c(F)c(F)c(F)c4F)c4ccc([nH]4)c(-c4c(F)c(F)c(F)c(F)c4F)c4nc(c(-c5c(F)c(F)c(F)c(F)c5F)c5ccc2[nH]5)C=C4)C=C3)cc1
REMARK SMILES IDX 13 1 14 2 11 3 12 4 10 5 9 8 6 9 7 10 5 11 4 12 3 13 2 14
REMARK SMILES IDX 1 15 8 16 15 18 16 19 17 20 18 21 19 22 20 23 21 24 22 25
REMARK SMILES IDX 83 26 23 27 82 28 24 29 25 30 26 31 76 32 27 33 81 34 75 35
REMARK SMILES IDX 77 36 28 37 80 38 74 39 73 40 29 42 61 43 41 44 60 45 42 46
REMARK SMILES IDX 45 47 59 48 78 49 43 50 44 51 58 53 79 54 46 55 30 56 31 57
REMARK SMILES IDX 39 58 32 59 33 60 37 61 40 62 34 63 35 64 38 65 36 66 62 67
REMARK SMILES IDX 63 68 71 69 64 70 65 71 69 72 72 73 66 74 67 75 70 76 68 77
REMARK SMILES IDX 47 78 48 79 56 80 49 81 50 82 54 83 57 84 51 85 52 86 55 87
REMARK SMILES IDX 53 88
REMARK H PARENT 10 6 10 7 8 17 77 41 45 52
REMARK Flexibility Score: inf
ROOT
ATOM      1  C   UNL A   1      34.616  32.776  29.240  1.00  0.00     0.364 C 
ATOM      2  O   UNL A   1      34.432  32.356  30.379  1.00  0.00    -0.245 OA
ENDROOT
BRANCH   1   3
ATOM      3  C   UNL A   1      34.832  31.850  28.019  1.00  0.00     0.290 C 
ATOM      4  C   UNL A   1      36.115  31.029  28.086  1.00  0.00     0.088 C 
BRANCH   3   5
ATOM      5  N   UNL A   1      33.684  30.943  27.799  1.00  0.00    -0.332 N 
ATOM      6  H   UNL A   1      33.646  30.274  28.566  1.00  0.00     0.347 HD
ATOM      7  H   UNL A   1      32.842  31.516  27.756  1.00  0.00     0.347 HD
BRANCH   5   8
ATOM      8  C   UNL A   1      33.785  30.200  26.525  1.00  0.00     0.310 C 
BRANCH   8   9
ATOM      9  C   UNL A   1      32.810  28.998  26.457  1.00  0.00     0.171 C 
ATOM     10  C   UNL A   1      33.554  27.686  26.202  1.00  0.00     0.063 C 
BRANCH   9  11
ATOM     11  C   UNL A   1      31.802  29.231  25.404  1.00  0.00    -0.063 C 
ATOM     12  C   UNL A   1      30.875  29.524  24.536  1.00  0.00    -0.100 C 
BRANCH  12  13
ATOM     13  C   UNL A   1      29.793  29.866  23.525  1.00  0.00     0.089 C 
BRANCH  13  14
ATOM     14  C   UNL A   1      29.137  31.209  23.842  1.00  0.00     0.010 C 
ATOM     15  C   UNL A   1      27.650  31.241  23.516  1.00  0.00     0.005 C 
ENDBRANCH  13  14
ENDBRANCH  12  13
ENDBRANCH   9  11
BRANCH   9  16
ATOM     16  O   UNL A   1      32.129  28.894  27.717  1.00  0.00    -0.372 OA
ATOM     17  H   UNL A   1      31.958  29.783  28.065  1.00  0.00     0.212 HD
ENDBRANCH   9  16
ENDBRANCH   8   9
ENDBRANCH   5   8
ENDBRANCH   3   5
ENDBRANCH   1   3
BRANCH   1  18
ATOM     18  O   UNL A   1      34.622  34.099  28.926  1.00  0.00    -0.458 OA
BRANCH  18  19
ATOM     19  C   UNL A   1      33.325  34.671  28.671  1.00  0.00     0.274 C 
BRANCH  19  20
ATOM     20  C   UNL A   1      32.893  35.652  29.769  1.00  0.00     0.275 C 
BRANCH  20  21
ATOM     21  O   UNL A   1      32.495  34.999  30.992  1.00  0.00    -0.458 OA
BRANCH  21  22
ATOM     22  C   UNL A   1      32.886  35.618  32.131  1.00  0.00     0.338 C 
ATOM     23  O   UNL A   1      32.296  36.502  32.730  1.00  0.00    -0.246 OA
BRANCH  22  24
ATOM     24  C   UNL A   1      34.105  34.988  32.668  1.00  0.00     0.060 A 
ATOM     25  C   UNL A   1      35.335  35.579  32.367  1.00  0.00     0.016 A 
ATOM     26  C   UNL A   1      34.055  33.781  33.363  1.00  0.00     0.016 A 
ATOM     27  C   UNL A   1      36.523  34.967  32.746  1.00  0.00     0.010 A 
ATOM     28  C   UNL A   1      35.252  33.165  33.750  1.00  0.00     0.010 A 
ATOM     29  C   UNL A   1      36.492  33.750  33.434  1.00  0.00    -0.014 A 
BRANCH  29  30
ATOM     30  C   UNL A   1      37.766  33.084  33.791  1.00  0.00     0.031 A 
ATOM     31  C   UNL A   1      38.360  32.061  32.870  1.00  0.00     0.074 A 
ATOM     32  C   UNL A   1      38.400  33.425  34.928  1.00  0.00     0.049 A 
ATOM     33  N   UNL A   1      39.405  31.294  33.049  1.00  0.00    -0.248 NA
ATOM     34  C   UNL A   1      37.691  31.877  31.573  1.00  0.00     0.031 C 
ATOM     35  C   UNL A   1      37.951  34.452  35.867  1.00  0.00     0.029 A 
ATOM     36  N   UNL A   1      39.556  32.941  35.484  1.00  0.00    -0.354 N 
ATOM     37  C   UNL A   1      39.506  30.520  31.901  1.00  0.00     0.074 A 
ATOM     38  C   UNL A   1      38.413  30.905  31.033  1.00  0.00     0.031 C 
ATOM     39  C   UNL A   1      38.820  34.518  36.888  1.00  0.00     0.029 A 
ATOM     40  C   UNL A   1      39.854  33.504  36.699  1.00  0.00     0.049 A 
ATOM     41  H   UNL A   1      40.117  32.255  35.054  1.00  0.00     0.167 HD
ATOM     42  C   UNL A   1      40.429  29.575  31.605  1.00  0.00     0.037 A 
ATOM     43  C   UNL A   1      40.829  33.208  37.579  1.00  0.00     0.037 A 
ATOM     44  C   UNL A   1      41.525  29.211  32.464  1.00  0.00     0.049 A 
ATOM     45  C   UNL A   1      41.800  32.107  37.255  1.00  0.00     0.074 A 
ATOM     46  C   UNL A   1      42.521  28.275  32.246  1.00  0.00     0.029 A 
ATOM     47  N   UNL A   1      41.769  29.773  33.709  1.00  0.00    -0.354 N 
ATOM     48  N   UNL A   1      41.875  31.361  36.181  1.00  0.00    -0.248 NA
ATOM     49  C   UNL A   1      42.812  31.795  38.274  1.00  0.00     0.031 C 
ATOM     50  C   UNL A   1      43.346  28.243  33.376  1.00  0.00     0.029 A 
ATOM     51  C   UNL A   1      42.886  29.187  34.282  1.00  0.00     0.049 A 
ATOM     52  H   UNL A   1      41.228  30.483  34.124  1.00  0.00     0.167 HD
ATOM     53  C   UNL A   1      42.944  30.500  36.386  1.00  0.00     0.074 A 
ATOM     54  C   UNL A   1      43.500  30.827  37.683  1.00  0.00     0.031 C 
ATOM     55  C   UNL A   1      43.420  29.524  35.577  1.00  0.00     0.037 A 
BRANCH  42  56
ATOM     56  C   UNL A   1      40.272  28.838  30.309  1.00  0.00     0.064 A 
ATOM     57  C   UNL A   1      40.838  29.310  29.117  1.00  0.00     0.173 A 
ATOM     58  C   UNL A   1      39.573  27.621  30.269  1.00  0.00     0.173 A 
ATOM     59  F   UNL A   1      41.503  30.476  29.102  1.00  0.00    -0.203 F 
ATOM     60  C   UNL A   1      40.695  28.600  27.927  1.00  0.00     0.198 A 
ATOM     61  C   UNL A   1      39.451  26.904  29.084  1.00  0.00     0.198 A 
ATOM     62  F   UNL A   1      39.015  27.126  31.385  1.00  0.00    -0.203 F 
ATOM     63  F   UNL A   1      41.214  29.087  26.792  1.00  0.00    -0.200 F 
ATOM     64  C   UNL A   1      40.007  27.396  27.913  1.00  0.00     0.200 A 
ATOM     65  F   UNL A   1      38.794  25.736  29.073  1.00  0.00    -0.200 F 
ATOM     66  F   UNL A   1      39.875  26.712  26.768  1.00  0.00    -0.200 F 
ENDBRANCH  42  56
BRANCH  43  67
ATOM     67  C   UNL A   1      40.907  33.943  38.865  1.00  0.00     0.064 A 
ATOM     68  C   UNL A   1      41.729  35.068  39.006  1.00  0.00     0.173 A 
ATOM     69  C   UNL A   1      40.155  33.537  39.978  1.00  0.00     0.173 A 
ATOM     70  F   UNL A   1      42.486  35.478  37.978  1.00  0.00    -0.203 F 
ATOM     71  C   UNL A   1      41.800  35.758  40.216  1.00  0.00     0.198 A 
ATOM     72  C   UNL A   1      40.208  34.241  41.177  1.00  0.00     0.198 A 
ATOM     73  F   UNL A   1      39.356  32.462  39.893  1.00  0.00    -0.203 F 
ATOM     74  F   UNL A   1      42.619  36.812  40.336  1.00  0.00    -0.200 F 
ATOM     75  C   UNL A   1      41.034  35.348  41.298  1.00  0.00     0.200 A 
ATOM     76  F   UNL A   1      39.458  33.849  42.217  1.00  0.00    -0.200 F 
ATOM     77  F   UNL A   1      41.097  36.017  42.457  1.00  0.00    -0.200 F 
ENDBRANCH  43  67
BRANCH  55  78
ATOM     78  C   UNL A   1      44.606  28.750  36.065  1.00  0.00     0.064 A 
ATOM     79  C   UNL A   1      45.915  29.187  35.816  1.00  0.00     0.173 A 
ATOM     80  C   UNL A   1      44.433  27.578  36.817  1.00  0.00     0.173 A 
ATOM     81  F   UNL A   1      46.130  30.292  35.086  1.00  0.00    -0.203 F 
ATOM     82  C   UNL A   1      47.010  28.470  36.290  1.00  0.00     0.198 A 
ATOM     83  C   UNL A   1      45.529  26.877  37.308  1.00  0.00     0.198 A 
ATOM     84  F   UNL A   1      43.200  27.122  37.082  1.00  0.00    -0.203 F 
ATOM     85  F   UNL A   1      48.253  28.885  36.011  1.00  0.00    -0.200 F 
ATOM     86  C   UNL A   1      46.816  27.319  37.041  1.00  0.00     0.200 A 
ATOM     87  F   UNL A   1      45.341  25.770  38.041  1.00  0.00    -0.200 F 
ATOM     88  F   UNL A   1      47.871  26.632  37.501  1.00  0.00    -0.200 F 
ENDBRANCH  55  78
ENDBRANCH  29  30
ENDBRANCH  22  24
ENDBRANCH  21  22
ENDBRANCH  20  21
ENDBRANCH  19  20
ENDBRANCH  18  19
ENDBRANCH   1  18
TORSDOF 18
ENDMDL
