MODEL 1
REMARK VINA RESULT:     -13.0      0.000      0.000
REMARK SMILES O=C(OCCOC(=O)[C@H]1C[C@](O)(c2ccc(F)cc2)[C@@H](c2ccc(F)cc2)O1)c1ccc(-c2c3nc(c(-c4c(F)c(F)c(F)c(F)c4F)c4ccc([nH]4)c(-c4c(F)c(F)c(F)c(F)c4F)c4nc(c(-c5c(F)c(F)c(F)c(F)c5F)c5ccc2[nH]5)C=C4)C=C3)cc1
REMARK SMILES IDX 4 1 3 2 2 3 1 4 29 5 30 6 91 7 31 8 90 9 32 10 33 11 34 12
REMARK SMILES IDX 84 13 35 14 89 15 83 16 85 17 36 18 88 19 82 20 81 21 37 23
REMARK SMILES IDX 69 24 49 25 68 26 50 27 53 28 67 29 86 30 51 31 52 32 66 34
REMARK SMILES IDX 87 35 54 36 38 37 39 38 47 39 40 40 41 41 45 42 48 43 42 44
REMARK SMILES IDX 43 45 46 46 44 47 70 48 71 49 79 50 72 51 73 52 77 53 80 54
REMARK SMILES IDX 74 55 75 56 78 57 76 58 55 59 56 60 64 61 57 62 58 63 62 64
REMARK SMILES IDX 65 65 59 66 60 67 63 68 61 69 5 70 6 71 7 72 8 73 9 74 10 75
REMARK SMILES IDX 28 76 11 77 20 78 13 79 14 80 19 81 15 82 18 83 16 84 17 85
REMARK SMILES IDX 12 86 21 88 22 89 27 90 23 91 26 92 24 93 25 94
REMARK H PARENT 85 22 53 33 12 87
REMARK Flexibility Score: inf
ROOT
ATOM      1  C   UNL A   1      31.880  32.315  27.045  1.00  0.00     0.275 C 
ENDROOT
BRANCH   1   2
ATOM      2  O   UNL A   1      32.778  33.430  27.223  1.00  0.00    -0.458 OA
BRANCH   2   3
ATOM      3  C   UNL A   1      33.220  33.890  28.425  1.00  0.00     0.338 C 
ATOM      4  O   UNL A   1      32.747  34.900  28.933  1.00  0.00    -0.246 OA
BRANCH   3   5
ATOM      5  C   UNL A   1      34.479  33.328  28.989  1.00  0.00     0.060 A 
ATOM      6  C   UNL A   1      34.512  32.321  29.953  1.00  0.00     0.016 A 
ATOM      7  C   UNL A   1      35.695  33.843  28.502  1.00  0.00     0.016 A 
ATOM      8  C   UNL A   1      35.719  31.731  30.312  1.00  0.00     0.010 A 
ATOM      9  C   UNL A   1      36.918  33.282  28.894  1.00  0.00     0.010 A 
ATOM     10  C   UNL A   1      36.926  32.203  29.783  1.00  0.00    -0.014 A 
BRANCH  10  11
ATOM     11  C   UNL A   1      38.164  31.620  30.335  1.00  0.00     0.031 A 
ATOM     12  C   UNL A   1      38.499  31.940  31.758  1.00  0.00     0.074 A 
ATOM     13  C   UNL A   1      38.836  30.674  29.653  1.00  0.00     0.049 A 
ATOM     14  N   UNL A   1      39.346  31.354  32.559  1.00  0.00    -0.248 NA
ATOM     15  C   UNL A   1      37.734  33.037  32.378  1.00  0.00     0.031 C 
ATOM     16  C   UNL A   1      38.528  30.238  28.292  1.00  0.00     0.029 A 
ATOM     17  N   UNL A   1      39.886  29.876  30.028  1.00  0.00    -0.354 N 
ATOM     18  C   UNL A   1      39.174  31.969  33.790  1.00  0.00     0.074 A 
ATOM     19  C   UNL A   1      38.177  33.003  33.624  1.00  0.00     0.031 C 
ATOM     20  C   UNL A   1      39.361  29.239  27.950  1.00  0.00     0.029 A 
ATOM     21  C   UNL A   1      40.262  28.968  29.067  1.00  0.00     0.049 A 
ATOM     22  H   UNL A   1      40.330  29.946  30.905  1.00  0.00     0.167 HD
ATOM     23  C   UNL A   1      39.783  31.674  34.959  1.00  0.00     0.037 A 
ATOM     24  C   UNL A   1      41.218  28.018  29.101  1.00  0.00     0.037 A 
ATOM     25  C   UNL A   1      40.815  30.687  35.094  1.00  0.00     0.049 A 
ATOM     26  C   UNL A   1      41.990  27.823  30.382  1.00  0.00     0.074 A 
ATOM     27  C   UNL A   1      41.559  30.364  36.212  1.00  0.00     0.029 A 
ATOM     28  N   UNL A   1      41.261  29.874  34.060  1.00  0.00    -0.354 N 
ATOM     29  N   UNL A   1      41.810  28.393  31.550  1.00  0.00    -0.248 NA
ATOM     30  C   UNL A   1      43.091  26.849  30.354  1.00  0.00     0.031 C 
ATOM     31  C   UNL A   1      42.491  29.390  35.844  1.00  0.00     0.029 A 
ATOM     32  C   UNL A   1      42.294  29.070  34.509  1.00  0.00     0.049 A 
ATOM     33  H   UNL A   1      40.897  29.870  33.145  1.00  0.00     0.167 HD
ATOM     34  C   UNL A   1      42.758  27.837  32.399  1.00  0.00     0.074 A 
ATOM     35  C   UNL A   1      43.495  26.865  31.617  1.00  0.00     0.031 C 
ATOM     36  C   UNL A   1      43.003  28.108  33.704  1.00  0.00     0.037 A 
BRANCH  23  37
ATOM     37  C   UNL A   1      39.366  32.454  36.165  1.00  0.00     0.064 A 
ATOM     38  C   UNL A   1      38.357  31.975  37.011  1.00  0.00     0.173 A 
ATOM     39  C   UNL A   1      39.952  33.693  36.468  1.00  0.00     0.173 A 
ATOM     40  F   UNL A   1      37.778  30.790  36.767  1.00  0.00    -0.203 F 
ATOM     41  C   UNL A   1      37.936  32.717  38.110  1.00  0.00     0.198 A 
ATOM     42  C   UNL A   1      39.541  34.423  37.578  1.00  0.00     0.198 A 
ATOM     43  F   UNL A   1      40.941  34.178  35.701  1.00  0.00    -0.203 F 
ATOM     44  F   UNL A   1      36.958  32.248  38.896  1.00  0.00    -0.200 F 
ATOM     45  C   UNL A   1      38.528  33.939  38.394  1.00  0.00     0.200 A 
ATOM     46  F   UNL A   1      40.130  35.592  37.866  1.00  0.00    -0.200 F 
ATOM     47  F   UNL A   1      38.128  34.647  39.458  1.00  0.00    -0.200 F 
ENDBRANCH  23  37
BRANCH  24  48
ATOM     48  C   UNL A   1      41.503  27.182  27.901  1.00  0.00     0.064 A 
ATOM     49  C   UNL A   1      42.415  27.608  26.924  1.00  0.00     0.173 A 
ATOM     50  C   UNL A   1      40.906  25.925  27.723  1.00  0.00     0.173 A 
ATOM     51  F   UNL A   1      43.020  28.799  27.041  1.00  0.00    -0.203 F 
ATOM     52  C   UNL A   1      42.714  26.816  25.816  1.00  0.00     0.198 A 
ATOM     53  C   UNL A   1      41.226  25.120  26.630  1.00  0.00     0.198 A 
ATOM     54  F   UNL A   1      40.043  25.458  28.638  1.00  0.00    -0.203 F 
ATOM     55  F   UNL A   1      43.576  27.258  24.891  1.00  0.00    -0.200 F 
ATOM     56  C   UNL A   1      42.127  25.568  25.675  1.00  0.00     0.200 A 
ATOM     57  F   UNL A   1      40.679  23.903  26.512  1.00  0.00    -0.200 F 
ATOM     58  F   UNL A   1      42.437  24.793  24.626  1.00  0.00    -0.200 F 
ENDBRANCH  24  48
BRANCH  36  59
ATOM     59  C   UNL A   1      44.109  27.346  34.372  1.00  0.00     0.064 A 
ATOM     60  C   UNL A   1      43.847  26.121  35.003  1.00  0.00     0.173 A 
ATOM     61  C   UNL A   1      45.405  27.872  34.462  1.00  0.00     0.173 A 
ATOM     62  F   UNL A   1      42.619  25.583  34.955  1.00  0.00    -0.203 F 
ATOM     63  C   UNL A   1      44.842  25.458  35.716  1.00  0.00     0.198 A 
ATOM     64  C   UNL A   1      46.405  27.193  35.149  1.00  0.00     0.198 A 
ATOM     65  F   UNL A   1      45.704  29.036  33.862  1.00  0.00    -0.203 F 
ATOM     66  F   UNL A   1      44.560  24.310  36.346  1.00  0.00    -0.200 F 
ATOM     67  C   UNL A   1      46.120  25.993  35.784  1.00  0.00     0.200 A 
ATOM     68  F   UNL A   1      47.645  27.697  35.195  1.00  0.00    -0.200 F 
ATOM     69  F   UNL A   1      47.080  25.350  36.464  1.00  0.00    -0.200 F 
ENDBRANCH  36  59
ENDBRANCH  10  11
ENDBRANCH   3   5
ENDBRANCH   2   3
ENDBRANCH   1   2
BRANCH   1  70
ATOM     70  C   UNL A   1      32.578  30.951  26.983  1.00  0.00     0.274 C 
BRANCH  70  71
ATOM     71  O   UNL A   1      31.770  29.965  26.320  1.00  0.00    -0.460 OA
BRANCH  71  72
ATOM     72  C   UNL A   1      31.933  28.695  26.788  1.00  0.00     0.335 C 
ATOM     73  O   UNL A   1      31.292  28.243  27.727  1.00  0.00    -0.249 OA
BRANCH  72  74
ATOM     74  C   UNL A   1      32.992  27.929  25.976  1.00  0.00     0.232 C 
ATOM     75  C   UNL A   1      33.013  26.445  26.293  1.00  0.00     0.087 C 
ATOM     76  O   UNL A   1      32.834  28.082  24.567  1.00  0.00    -0.355 OA
ATOM     77  C   UNL A   1      32.675  25.723  24.981  1.00  0.00     0.123 C 
ATOM     78  C   UNL A   1      32.248  26.880  24.028  1.00  0.00     0.186 C 
BRANCH  77  79
ATOM     79  C   UNL A   1      33.848  24.834  24.514  1.00  0.00    -0.013 A 
ATOM     80  C   UNL A   1      34.957  24.668  25.375  1.00  0.00     0.010 A 
ATOM     81  C   UNL A   1      33.863  24.108  23.306  1.00  0.00     0.010 A 
ATOM     82  C   UNL A   1      36.005  23.796  25.063  1.00  0.00     0.039 A 
ATOM     83  C   UNL A   1      34.905  23.223  23.002  1.00  0.00     0.039 A 
ATOM     84  C   UNL A   1      35.962  23.068  23.885  1.00  0.00     0.123 A 
ATOM     85  F   UNL A   1      36.941  22.202  23.599  1.00  0.00    -0.207 F 
ENDBRANCH  77  79
BRANCH  77  86
ATOM     86  O   UNL A   1      31.612  24.799  25.254  1.00  0.00    -0.382 OA
ATOM     87  H   UNL A   1      31.694  24.474  26.163  1.00  0.00     0.212 HD
ENDBRANCH  77  86
BRANCH  78  88
ATOM     88  C   UNL A   1      30.791  27.182  23.714  1.00  0.00    -0.016 A 
ATOM     89  C   UNL A   1      29.742  26.290  23.968  1.00  0.00     0.009 A 
ATOM     90  C   UNL A   1      30.462  28.477  23.260  1.00  0.00     0.009 A 
ATOM     91  C   UNL A   1      28.411  26.703  23.876  1.00  0.00     0.039 A 
ATOM     92  C   UNL A   1      29.132  28.876  23.125  1.00  0.00     0.039 A 
ATOM     93  C   UNL A   1      28.118  27.994  23.465  1.00  0.00     0.123 A 
ATOM     94  F   UNL A   1      26.842  28.397  23.410  1.00  0.00    -0.207 F 
ENDBRANCH  78  88
ENDBRANCH  72  74
ENDBRANCH  71  72
ENDBRANCH  70  71
ENDBRANCH   1  70
TORSDOF 14
ENDMDL
MODEL 2
REMARK VINA RESULT:     -12.9      0.425      1.643
REMARK SMILES O=C(OCCOC(=O)[C@H]1C[C@](O)(c2ccc(F)cc2)[C@@H](c2ccc(F)cc2)O1)c1ccc(-c2c3nc(c(-c4c(F)c(F)c(F)c(F)c4F)c4ccc([nH]4)c(-c4c(F)c(F)c(F)c(F)c4F)c4nc(c(-c5c(F)c(F)c(F)c(F)c5F)c5ccc2[nH]5)C=C4)C=C3)cc1
REMARK SMILES IDX 4 1 3 2 2 3 1 4 29 5 30 6 91 7 31 8 90 9 32 10 33 11 34 12
REMARK SMILES IDX 84 13 35 14 89 15 83 16 85 17 36 18 88 19 82 20 81 21 37 23
REMARK SMILES IDX 69 24 49 25 68 26 50 27 53 28 67 29 86 30 51 31 52 32 66 34
REMARK SMILES IDX 87 35 54 36 38 37 39 38 47 39 40 40 41 41 45 42 48 43 42 44
REMARK SMILES IDX 43 45 46 46 44 47 70 48 71 49 79 50 72 51 73 52 77 53 80 54
REMARK SMILES IDX 74 55 75 56 78 57 76 58 55 59 56 60 64 61 57 62 58 63 62 64
REMARK SMILES IDX 65 65 59 66 60 67 63 68 61 69 5 70 6 71 7 72 8 73 9 74 10 75
REMARK SMILES IDX 28 76 11 77 20 78 13 79 14 80 19 81 15 82 18 83 16 84 17 85
REMARK SMILES IDX 12 86 21 88 22 89 27 90 23 91 26 92 24 93 25 94
REMARK H PARENT 85 22 53 33 12 87
REMARK Flexibility Score: inf
ROOT
ATOM      1  C   UNL A   1      31.914  32.029  27.110  1.00  0.00     0.275 C 
ENDROOT
BRANCH   1   2
ATOM      2  O   UNL A   1      32.809  33.159  27.164  1.00  0.00    -0.458 OA
BRANCH   2   3
ATOM      3  C   UNL A   1      33.279  33.727  28.308  1.00  0.00     0.338 C 
ATOM      4  O   UNL A   1      32.826  34.786  28.726  1.00  0.00    -0.246 OA
BRANCH   3   5
ATOM      5  C   UNL A   1      34.545  33.208  28.897  1.00  0.00     0.060 A 
ATOM      6  C   UNL A   1      34.595  32.171  29.828  1.00  0.00     0.016 A 
ATOM      7  C   UNL A   1      35.750  33.797  28.471  1.00  0.00     0.016 A 
ATOM      8  C   UNL A   1      35.817  31.628  30.210  1.00  0.00     0.010 A 
ATOM      9  C   UNL A   1      36.985  33.284  28.888  1.00  0.00     0.010 A 
ATOM     10  C   UNL A   1      37.016  32.176  29.741  1.00  0.00    -0.014 A 
BRANCH  10  11
ATOM     11  C   UNL A   1      38.263  31.635  30.316  1.00  0.00     0.031 A 
ATOM     12  C   UNL A   1      38.588  32.015  31.727  1.00  0.00     0.074 A 
ATOM     13  C   UNL A   1      38.952  30.676  29.672  1.00  0.00     0.049 A 
ATOM     14  N   UNL A   1      39.443  31.474  32.551  1.00  0.00    -0.248 NA
ATOM     15  C   UNL A   1      37.804  33.121  32.303  1.00  0.00     0.031 C 
ATOM     16  C   UNL A   1      38.656  30.183  28.328  1.00  0.00     0.029 A 
ATOM     17  N   UNL A   1      40.015  29.910  30.080  1.00  0.00    -0.354 N 
ATOM     18  C   UNL A   1      39.257  32.131  33.758  1.00  0.00     0.074 A 
ATOM     19  C   UNL A   1      38.244  33.141  33.551  1.00  0.00     0.031 C 
ATOM     20  C   UNL A   1      39.506  29.186  28.026  1.00  0.00     0.029 A 
ATOM     21  C   UNL A   1      40.408  28.973  29.154  1.00  0.00     0.049 A 
ATOM     22  H   UNL A   1      40.455  30.021  30.954  1.00  0.00     0.167 HD
ATOM     23  C   UNL A   1      39.868  31.891  34.938  1.00  0.00     0.037 A 
ATOM     24  C   UNL A   1      41.380  28.041  29.226  1.00  0.00     0.037 A 
ATOM     25  C   UNL A   1      40.916  30.927  35.113  1.00  0.00     0.049 A 
ATOM     26  C   UNL A   1      42.151  27.907  30.515  1.00  0.00     0.074 A 
ATOM     27  C   UNL A   1      41.662  30.659  36.244  1.00  0.00     0.029 A 
ATOM     28  N   UNL A   1      41.378  30.083  34.112  1.00  0.00    -0.354 N 
ATOM     29  N   UNL A   1      41.959  28.518  31.660  1.00  0.00    -0.248 NA
ATOM     30  C   UNL A   1      43.269  26.952  30.527  1.00  0.00     0.031 C 
ATOM     31  C   UNL A   1      42.611  29.688  35.915  1.00  0.00     0.029 A 
ATOM     32  C   UNL A   1      42.424  29.315  34.593  1.00  0.00     0.049 A 
ATOM     33  H   UNL A   1      41.017  30.039  33.197  1.00  0.00     0.167 HD
ATOM     34  C   UNL A   1      42.913  28.010  32.532  1.00  0.00     0.074 A 
ATOM     35  C   UNL A   1      43.669  27.022  31.789  1.00  0.00     0.031 C 
ATOM     36  C   UNL A   1      43.151  28.335  33.826  1.00  0.00     0.037 A 
BRANCH  23  37
ATOM     37  C   UNL A   1      39.435  32.709  36.113  1.00  0.00     0.064 A 
ATOM     38  C   UNL A   1      40.033  33.947  36.381  1.00  0.00     0.173 A 
ATOM     39  C   UNL A   1      38.442  32.248  36.993  1.00  0.00     0.173 A 
ATOM     40  F   UNL A   1      40.977  34.432  35.560  1.00  0.00    -0.203 F 
ATOM     41  C   UNL A   1      39.664  34.692  37.497  1.00  0.00     0.198 A 
ATOM     42  C   UNL A   1      38.064  33.004  38.098  1.00  0.00     0.198 A 
ATOM     43  F   UNL A   1      37.823  31.081  36.762  1.00  0.00    -0.203 F 
ATOM     44  F   UNL A   1      40.261  35.866  37.742  1.00  0.00    -0.200 F 
ATOM     45  C   UNL A   1      38.680  34.221  38.354  1.00  0.00     0.200 A 
ATOM     46  F   UNL A   1      37.096  32.561  38.913  1.00  0.00    -0.200 F 
ATOM     47  F   UNL A   1      38.321  34.944  39.423  1.00  0.00    -0.200 F 
ENDBRANCH  23  37
BRANCH  24  48
ATOM     48  C   UNL A   1      41.682  27.165  28.059  1.00  0.00     0.064 A 
ATOM     49  C   UNL A   1      41.026  25.936  27.889  1.00  0.00     0.173 A 
ATOM     50  C   UNL A   1      42.598  27.550  27.069  1.00  0.00     0.173 A 
ATOM     51  F   UNL A   1      40.137  25.516  28.801  1.00  0.00    -0.203 F 
ATOM     52  C   UNL A   1      41.277  25.127  26.782  1.00  0.00     0.198 A 
ATOM     53  C   UNL A   1      42.829  26.754  25.948  1.00  0.00     0.198 A 
ATOM     54  F   UNL A   1      43.238  28.725  27.170  1.00  0.00    -0.203 F 
ATOM     55  F   UNL A   1      40.648  23.951  26.658  1.00  0.00    -0.200 F 
ATOM     56  C   UNL A   1      42.171  25.541  25.807  1.00  0.00     0.200 A 
ATOM     57  F   UNL A   1      43.670  27.171  24.993  1.00  0.00    -0.200 F 
ATOM     58  F   UNL A   1      42.390  24.777  24.728  1.00  0.00    -0.200 F 
ENDBRANCH  24  48
BRANCH  36  59
ATOM     59  C   UNL A   1      44.267  27.617  34.524  1.00  0.00     0.064 A 
ATOM     60  C   UNL A   1      44.023  26.417  35.208  1.00  0.00     0.173 A 
ATOM     61  C   UNL A   1      45.556  28.165  34.590  1.00  0.00     0.173 A 
ATOM     62  F   UNL A   1      42.801  25.861  35.185  1.00  0.00    -0.203 F 
ATOM     63  C   UNL A   1      45.026  25.799  35.948  1.00  0.00     0.198 A 
ATOM     64  C   UNL A   1      46.566  27.528  35.305  1.00  0.00     0.198 A 
ATOM     65  F   UNL A   1      45.839  29.305  33.941  1.00  0.00    -0.203 F 
ATOM     66  F   UNL A   1      44.761  24.675  36.626  1.00  0.00    -0.200 F 
ATOM     67  C   UNL A   1      46.297  26.353  35.992  1.00  0.00     0.200 A 
ATOM     68  F   UNL A   1      47.799  28.051  35.328  1.00  0.00    -0.200 F 
ATOM     69  F   UNL A   1      47.266  25.753  36.697  1.00  0.00    -0.200 F 
ENDBRANCH  36  59
ENDBRANCH  10  11
ENDBRANCH   3   5
ENDBRANCH   2   3
ENDBRANCH   1   2
BRANCH   1  70
ATOM     70  C   UNL A   1      32.623  30.674  26.987  1.00  0.00     0.274 C 
BRANCH  70  71
ATOM     71  O   UNL A   1      31.768  29.673  26.411  1.00  0.00    -0.460 OA
BRANCH  71  72
ATOM     72  C   UNL A   1      31.941  28.422  26.924  1.00  0.00     0.335 C 
ATOM     73  O   UNL A   1      31.228  27.956  27.802  1.00  0.00    -0.249 OA
BRANCH  72  74
ATOM     74  C   UNL A   1      33.113  27.693  26.242  1.00  0.00     0.232 C 
ATOM     75  C   UNL A   1      32.959  26.183  26.268  1.00  0.00     0.087 C 
ATOM     76  O   UNL A   1      33.310  28.098  24.888  1.00  0.00    -0.355 OA
ATOM     77  C   UNL A   1      32.902  25.734  24.802  1.00  0.00     0.123 C 
ATOM     78  C   UNL A   1      32.795  27.075  24.013  1.00  0.00     0.186 C 
BRANCH  77  79
ATOM     79  C   UNL A   1      34.093  24.815  24.452  1.00  0.00    -0.013 A 
ATOM     80  C   UNL A   1      35.134  24.665  25.397  1.00  0.00     0.010 A 
ATOM     81  C   UNL A   1      34.186  24.047  23.274  1.00  0.00     0.010 A 
ATOM     82  C   UNL A   1      36.189  23.770  25.192  1.00  0.00     0.039 A 
ATOM     83  C   UNL A   1      35.234  23.139  23.077  1.00  0.00     0.039 A 
ATOM     84  C   UNL A   1      36.221  23.002  24.040  1.00  0.00     0.123 A 
ATOM     85  F   UNL A   1      37.205  22.115  23.855  1.00  0.00    -0.207 F 
ENDBRANCH  77  79
BRANCH  77  86
ATOM     86  O   UNL A   1      31.748  24.898  24.647  1.00  0.00    -0.382 OA
ATOM     87  H   UNL A   1      31.911  24.249  23.945  1.00  0.00     0.212 HD
ENDBRANCH  77  86
BRANCH  78  88
ATOM     88  C   UNL A   1      31.480  27.581  23.442  1.00  0.00    -0.016 A 
ATOM     89  C   UNL A   1      30.236  27.010  23.736  1.00  0.00     0.009 A 
ATOM     90  C   UNL A   1      31.499  28.765  22.674  1.00  0.00     0.009 A 
ATOM     91  C   UNL A   1      29.049  27.651  23.372  1.00  0.00     0.039 A 
ATOM     92  C   UNL A   1      30.314  29.382  22.272  1.00  0.00     0.039 A 
ATOM     93  C   UNL A   1      29.098  28.834  22.651  1.00  0.00     0.123 A 
ATOM     94  F   UNL A   1      27.959  29.463  22.332  1.00  0.00    -0.207 F 
ENDBRANCH  78  88
ENDBRANCH  72  74
ENDBRANCH  71  72
ENDBRANCH  70  71
ENDBRANCH   1  70
TORSDOF 14
ENDMDL
MODEL 3
REMARK VINA RESULT:     -12.9      1.198      1.795
REMARK SMILES O=C(OCCOC(=O)[C@H]1C[C@](O)(c2ccc(F)cc2)[C@@H](c2ccc(F)cc2)O1)c1ccc(-c2c3nc(c(-c4c(F)c(F)c(F)c(F)c4F)c4ccc([nH]4)c(-c4c(F)c(F)c(F)c(F)c4F)c4nc(c(-c5c(F)c(F)c(F)c(F)c5F)c5ccc2[nH]5)C=C4)C=C3)cc1
REMARK SMILES IDX 4 1 3 2 2 3 1 4 29 5 30 6 91 7 31 8 90 9 32 10 33 11 34 12
REMARK SMILES IDX 84 13 35 14 89 15 83 16 85 17 36 18 88 19 82 20 81 21 37 23
REMARK SMILES IDX 69 24 49 25 68 26 50 27 53 28 67 29 86 30 51 31 52 32 66 34
REMARK SMILES IDX 87 35 54 36 38 37 39 38 47 39 40 40 41 41 45 42 48 43 42 44
REMARK SMILES IDX 43 45 46 46 44 47 70 48 71 49 79 50 72 51 73 52 77 53 80 54
REMARK SMILES IDX 74 55 75 56 78 57 76 58 55 59 56 60 64 61 57 62 58 63 62 64
REMARK SMILES IDX 65 65 59 66 60 67 63 68 61 69 5 70 6 71 7 72 8 73 9 74 10 75
REMARK SMILES IDX 28 76 11 77 20 78 13 79 14 80 19 81 15 82 18 83 16 84 17 85
REMARK SMILES IDX 12 86 21 88 22 89 27 90 23 91 26 92 24 93 25 94
REMARK H PARENT 85 22 53 33 12 87
REMARK Flexibility Score: inf
ROOT
ATOM      1  C   UNL A   1      33.190  31.409  26.823  1.00  0.00     0.275 C 
ENDROOT
BRANCH   1   2
ATOM      2  O   UNL A   1      32.733  32.679  27.333  1.00  0.00    -0.458 OA
BRANCH   2   3
ATOM      3  C   UNL A   1      33.435  33.473  28.186  1.00  0.00     0.338 C 
ATOM      4  O   UNL A   1      33.188  34.669  28.292  1.00  0.00    -0.246 OA
BRANCH   3   5
ATOM      5  C   UNL A   1      34.697  32.948  28.780  1.00  0.00     0.060 A 
ATOM      6  C   UNL A   1      34.733  31.978  29.781  1.00  0.00     0.016 A 
ATOM      7  C   UNL A   1      35.910  33.459  28.284  1.00  0.00     0.016 A 
ATOM      8  C   UNL A   1      35.944  31.416  30.172  1.00  0.00     0.010 A 
ATOM      9  C   UNL A   1      37.136  32.929  28.707  1.00  0.00     0.010 A 
ATOM     10  C   UNL A   1      37.150  31.883  29.635  1.00  0.00    -0.014 A 
BRANCH  10  11
ATOM     11  C   UNL A   1      38.391  31.336  30.218  1.00  0.00     0.031 A 
ATOM     12  C   UNL A   1      38.688  31.680  31.644  1.00  0.00     0.074 A 
ATOM     13  C   UNL A   1      39.098  30.399  29.560  1.00  0.00     0.049 A 
ATOM     14  N   UNL A   1      39.534  31.123  32.468  1.00  0.00    -0.248 NA
ATOM     15  C   UNL A   1      37.886  32.764  32.236  1.00  0.00     0.031 C 
ATOM     16  C   UNL A   1      38.828  29.941  28.198  1.00  0.00     0.029 A 
ATOM     17  N   UNL A   1      40.159  29.630  29.965  1.00  0.00    -0.354 N 
ATOM     18  C   UNL A   1      39.322  31.746  33.688  1.00  0.00     0.074 A 
ATOM     19  C   UNL A   1      38.304  32.754  33.491  1.00  0.00     0.031 C 
ATOM     20  C   UNL A   1      39.691  28.959  27.884  1.00  0.00     0.029 A 
ATOM     21  C   UNL A   1      40.576  28.722  29.022  1.00  0.00     0.049 A 
ATOM     22  H   UNL A   1      40.584  29.721  30.849  1.00  0.00     0.167 HD
ATOM     23  C   UNL A   1      39.914  31.479  34.872  1.00  0.00     0.037 A 
ATOM     24  C   UNL A   1      41.553  27.796  29.085  1.00  0.00     0.037 A 
ATOM     25  C   UNL A   1      40.966  30.518  35.039  1.00  0.00     0.049 A 
ATOM     26  C   UNL A   1      42.304  27.633  30.384  1.00  0.00     0.074 A 
ATOM     27  C   UNL A   1      41.695  30.225  36.176  1.00  0.00     0.029 A 
ATOM     28  N   UNL A   1      41.452  29.705  34.024  1.00  0.00    -0.354 N 
ATOM     29  N   UNL A   1      42.087  28.210  31.541  1.00  0.00    -0.248 NA
ATOM     30  C   UNL A   1      43.428  26.686  30.389  1.00  0.00     0.031 C 
ATOM     31  C   UNL A   1      42.657  29.270  35.837  1.00  0.00     0.029 A 
ATOM     32  C   UNL A   1      42.495  28.931  34.502  1.00  0.00     0.049 A 
ATOM     33  H   UNL A   1      41.107  29.683  33.102  1.00  0.00     0.167 HD
ATOM     34  C   UNL A   1      43.030  27.687  32.415  1.00  0.00     0.074 A 
ATOM     35  C   UNL A   1      43.806  26.725  31.659  1.00  0.00     0.031 C 
ATOM     36  C   UNL A   1      43.243  27.978  33.722  1.00  0.00     0.037 A 
BRANCH  23  37
ATOM     37  C   UNL A   1      39.455  32.261  36.061  1.00  0.00     0.064 A 
ATOM     38  C   UNL A   1      40.039  33.495  36.373  1.00  0.00     0.173 A 
ATOM     39  C   UNL A   1      38.450  31.770  36.910  1.00  0.00     0.173 A 
ATOM     40  F   UNL A   1      40.994  34.008  35.583  1.00  0.00    -0.203 F 
ATOM     41  C   UNL A   1      39.646  34.207  37.502  1.00  0.00     0.198 A 
ATOM     42  C   UNL A   1      38.047  32.493  38.028  1.00  0.00     0.198 A 
ATOM     43  F   UNL A   1      37.843  30.605  36.636  1.00  0.00    -0.203 F 
ATOM     44  F   UNL A   1      40.229  35.377  37.790  1.00  0.00    -0.200 F 
ATOM     45  C   UNL A   1      38.650  33.706  38.328  1.00  0.00     0.200 A 
ATOM     46  F   UNL A   1      37.068  32.021  38.813  1.00  0.00    -0.200 F 
ATOM     47  F   UNL A   1      38.266  34.397  39.410  1.00  0.00    -0.200 F 
ENDBRANCH  23  37
BRANCH  24  48
ATOM     48  C   UNL A   1      41.882  26.953  27.901  1.00  0.00     0.064 A 
ATOM     49  C   UNL A   1      42.841  27.368  26.964  1.00  0.00     0.173 A 
ATOM     50  C   UNL A   1      41.281  25.702  27.700  1.00  0.00     0.173 A 
ATOM     51  F   UNL A   1      43.453  28.553  27.106  1.00  0.00    -0.203 F 
ATOM     52  C   UNL A   1      43.180  26.570  25.872  1.00  0.00     0.198 A 
ATOM     53  C   UNL A   1      41.640  24.892  26.623  1.00  0.00     0.198 A 
ATOM     54  F   UNL A   1      40.374  25.247  28.576  1.00  0.00    -0.203 F 
ATOM     55  F   UNL A   1      44.087  27.002  24.985  1.00  0.00    -0.200 F 
ATOM     56  C   UNL A   1      42.587  25.328  25.707  1.00  0.00     0.200 A 
ATOM     57  F   UNL A   1      41.087  23.680  26.484  1.00  0.00    -0.200 F 
ATOM     58  F   UNL A   1      42.935  24.548  24.675  1.00  0.00    -0.200 F 
ENDBRANCH  24  48
BRANCH  36  59
ATOM     59  C   UNL A   1      44.353  27.250  34.420  1.00  0.00     0.064 A 
ATOM     60  C   UNL A   1      44.105  26.032  35.070  1.00  0.00     0.173 A 
ATOM     61  C   UNL A   1      45.637  27.803  34.519  1.00  0.00     0.173 A 
ATOM     62  F   UNL A   1      42.888  25.470  35.015  1.00  0.00    -0.203 F 
ATOM     63  C   UNL A   1      45.101  25.402  35.810  1.00  0.00     0.198 A 
ATOM     64  C   UNL A   1      46.640  27.155  35.233  1.00  0.00     0.198 A 
ATOM     65  F   UNL A   1      45.923  28.960  33.902  1.00  0.00    -0.203 F 
ATOM     66  F   UNL A   1      44.832  24.261  36.457  1.00  0.00    -0.200 F 
ATOM     67  C   UNL A   1      46.368  25.962  35.887  1.00  0.00     0.200 A 
ATOM     68  F   UNL A   1      47.869  27.684  35.287  1.00  0.00    -0.200 F 
ATOM     69  F   UNL A   1      47.329  25.351  36.592  1.00  0.00    -0.200 F 
ENDBRANCH  36  59
ENDBRANCH  10  11
ENDBRANCH   3   5
ENDBRANCH   2   3
ENDBRANCH   1   2
BRANCH   1  70
ATOM     70  C   UNL A   1      32.268  30.230  27.162  1.00  0.00     0.274 C 
BRANCH  70  71
ATOM     71  O   UNL A   1      32.860  28.969  26.810  1.00  0.00    -0.460 OA
BRANCH  71  72
ATOM     72  C   UNL A   1      32.114  27.880  27.153  1.00  0.00     0.335 C 
ATOM     73  O   UNL A   1      31.240  27.913  28.009  1.00  0.00    -0.249 OA
BRANCH  72  74
ATOM     74  C   UNL A   1      32.504  26.648  26.320  1.00  0.00     0.232 C 
ATOM     75  C   UNL A   1      31.600  25.456  26.577  1.00  0.00     0.087 C 
ATOM     76  O   UNL A   1      32.516  26.903  24.916  1.00  0.00    -0.355 OA
ATOM     77  C   UNL A   1      30.930  25.129  25.235  1.00  0.00     0.123 C 
ATOM     78  C   UNL A   1      31.333  26.330  24.325  1.00  0.00     0.186 C 
BRANCH  77  79
ATOM     79  C   UNL A   1      31.324  23.720  24.741  1.00  0.00    -0.013 A 
ATOM     80  C   UNL A   1      31.651  23.548  23.376  1.00  0.00     0.010 A 
ATOM     81  C   UNL A   1      31.454  22.592  25.575  1.00  0.00     0.010 A 
ATOM     82  C   UNL A   1      32.117  22.325  22.881  1.00  0.00     0.039 A 
ATOM     83  C   UNL A   1      31.936  21.373  25.082  1.00  0.00     0.039 A 
ATOM     84  C   UNL A   1      32.271  21.252  23.743  1.00  0.00     0.123 A 
ATOM     85  F   UNL A   1      32.755  20.092  23.285  1.00  0.00    -0.207 F 
ENDBRANCH  77  79
BRANCH  77  86
ATOM     86  O   UNL A   1      29.517  25.046  25.462  1.00  0.00    -0.382 OA
ATOM     87  H   UNL A   1      29.119  25.922  25.341  1.00  0.00     0.212 HD
ENDBRANCH  77  86
BRANCH  78  88
ATOM     88  C   UNL A   1      30.378  27.471  24.013  1.00  0.00    -0.016 A 
ATOM     89  C   UNL A   1      30.758  28.819  24.001  1.00  0.00     0.009 A 
ATOM     90  C   UNL A   1      29.071  27.150  23.590  1.00  0.00     0.009 A 
ATOM     91  C   UNL A   1      29.907  29.800  23.487  1.00  0.00     0.039 A 
ATOM     92  C   UNL A   1      28.204  28.136  23.117  1.00  0.00     0.039 A 
ATOM     93  C   UNL A   1      28.642  29.449  23.041  1.00  0.00     0.123 A 
ATOM     94  F   UNL A   1      27.841  30.386  22.518  1.00  0.00    -0.207 F 
ENDBRANCH  78  88
ENDBRANCH  72  74
ENDBRANCH  71  72
ENDBRANCH  70  71
ENDBRANCH   1  70
TORSDOF 14
ENDMDL
