MODEL 1
REMARK VINA RESULT:     -11.4      0.000      0.000
REMARK SMILES CCc1ccc(C(=O)[C@@H](Br)CC(=O)OCCOC(=O)c2ccc(-c3c4nc(c(-c5c(F)c(F)c(F)c(F)c5F)c5ccc([nH]5)c(-c5c(F)c(F)c(F)c(F)c5F)c5nc(c(-c6c(F)c(F)c(F)c(F)c6F)c6ccc3[nH]6)C=C5)C=C4)cc2)cc1
REMARK SMILES IDX 15 1 14 2 12 3 13 4 11 5 9 6 10 7 7 8 8 9 6 10 3 11 4 12
REMARK SMILES IDX 84 13 5 14 83 15 2 16 1 17 16 18 17 19 18 20 19 21 20 22
REMARK SMILES IDX 21 23 82 24 22 25 81 26 23 27 24 28 25 29 75 30 26 31 80 32
REMARK SMILES IDX 74 33 76 34 27 35 79 36 73 37 72 38 28 40 60 41 40 42 59 43
REMARK SMILES IDX 41 44 44 45 58 46 77 47 42 48 43 49 57 51 78 52 45 53 29 54
REMARK SMILES IDX 30 55 38 56 31 57 32 58 36 59 39 60 33 61 34 62 37 63 35 64
REMARK SMILES IDX 61 65 62 66 70 67 63 68 64 69 68 70 71 71 65 72 66 73 69 74
REMARK SMILES IDX 67 75 46 76 47 77 55 78 48 79 49 80 53 81 56 82 50 83 51 84
REMARK SMILES IDX 54 85 52 86
REMARK H PARENT 76 39 44 50
REMARK Flexibility Score: inf
ROOT
ATOM      1  C   UNL A   1      31.353  29.241  24.986  1.00  0.00     0.274 C 
ENDROOT
BRANCH   1   2
ATOM      2  O   UNL A   1      30.505  29.646  23.891  1.00  0.00    -0.462 OA
BRANCH   2   3
ATOM      3  C   UNL A   1      30.620  28.926  22.750  1.00  0.00     0.307 C 
ATOM      4  O   UNL A   1      29.805  28.923  21.835  1.00  0.00    -0.252 OA
BRANCH   3   5
ATOM      5  C   UNL A   1      31.847  28.051  22.725  1.00  0.00     0.146 C 
BRANCH   5   6
ATOM      6  C   UNL A   1      31.594  26.646  22.205  1.00  0.00     0.140 C 
ATOM      7  Br  UNL A   1      30.506  25.636  23.494  1.00  0.00    -0.080 Br
BRANCH   6   8
ATOM      8  C   UNL A   1      32.799  25.773  21.888  1.00  0.00     0.177 C 
ATOM      9  O   UNL A   1      33.305  25.784  20.763  1.00  0.00    -0.293 OA
BRANCH   8  10
ATOM     10  C   UNL A   1      33.424  24.893  22.916  1.00  0.00     0.019 A 
ATOM     11  C   UNL A   1      34.630  23.114  24.744  1.00  0.00    -0.048 A 
ATOM     12  C   UNL A   1      33.986  22.631  23.600  1.00  0.00     0.004 A 
ATOM     13  C   UNL A   1      34.615  24.495  24.988  1.00  0.00     0.004 A 
ATOM     14  C   UNL A   1      33.396  23.511  22.690  1.00  0.00     0.012 A 
ATOM     15  C   UNL A   1      34.006  25.375  24.090  1.00  0.00     0.012 A 
BRANCH  11  16
ATOM     16  C   UNL A   1      35.268  22.195  25.759  1.00  0.00     0.032 C 
ATOM     17  C   UNL A   1      34.527  22.099  27.087  1.00  0.00     0.009 C 
ENDBRANCH  11  16
ENDBRANCH   8  10
ENDBRANCH   6   8
ENDBRANCH   5   6
ENDBRANCH   3   5
ENDBRANCH   2   3
ENDBRANCH   1   2
BRANCH   1  18
ATOM     18  C   UNL A   1      31.726  30.426  25.882  1.00  0.00     0.275 C 
BRANCH  18  19
ATOM     19  O   UNL A   1      33.076  30.317  26.374  1.00  0.00    -0.458 OA
BRANCH  19  20
ATOM     20  C   UNL A   1      33.489  31.352  27.140  1.00  0.00     0.338 C 
ATOM     21  O   UNL A   1      32.863  32.354  27.437  1.00  0.00    -0.246 OA
BRANCH  20  22
ATOM     22  C   UNL A   1      34.816  31.068  27.696  1.00  0.00     0.060 A 
ATOM     23  C   UNL A   1      35.098  29.767  28.123  1.00  0.00     0.016 A 
ATOM     24  C   UNL A   1      35.724  32.103  27.910  1.00  0.00     0.016 A 
ATOM     25  C   UNL A   1      36.292  29.491  28.780  1.00  0.00     0.010 A 
ATOM     26  C   UNL A   1      36.925  31.825  28.562  1.00  0.00     0.010 A 
ATOM     27  C   UNL A   1      37.209  30.523  29.013  1.00  0.00    -0.014 A 
BRANCH  27  28
ATOM     28  C   UNL A   1      38.447  30.268  29.782  1.00  0.00     0.031 A 
ATOM     29  C   UNL A   1      39.484  29.346  29.217  1.00  0.00     0.074 A 
ATOM     30  C   UNL A   1      38.618  30.832  30.990  1.00  0.00     0.049 A 
ATOM     31  N   UNL A   1      40.517  28.801  29.805  1.00  0.00    -0.248 NA
ATOM     32  C   UNL A   1      39.333  28.984  27.799  1.00  0.00     0.031 C 
ATOM     33  C   UNL A   1      37.709  31.797  31.608  1.00  0.00     0.029 A 
ATOM     34  N   UNL A   1      39.606  30.653  31.924  1.00  0.00    -0.354 N 
ATOM     35  C   UNL A   1      41.115  27.999  28.844  1.00  0.00     0.074 A 
ATOM     36  C   UNL A   1      40.338  28.134  27.630  1.00  0.00     0.031 C 
ATOM     37  C   UNL A   1      38.167  32.106  32.832  1.00  0.00     0.029 A 
ATOM     38  C   UNL A   1      39.366  31.316  33.102  1.00  0.00     0.049 A 
ATOM     39  H   UNL A   1      40.408  30.104  31.766  1.00  0.00     0.167 HD
ATOM     40  C   UNL A   1      42.209  27.212  28.975  1.00  0.00     0.037 A 
ATOM     41  C   UNL A   1      40.010  31.248  34.282  1.00  0.00     0.037 A 
ATOM     42  C   UNL A   1      42.987  27.109  30.180  1.00  0.00     0.049 A 
ATOM     43  C   UNL A   1      41.196  30.332  34.417  1.00  0.00     0.074 A 
ATOM     44  C   UNL A   1      44.113  26.342  30.420  1.00  0.00     0.029 A 
ATOM     45  N   UNL A   1      42.718  27.804  31.350  1.00  0.00    -0.354 N 
ATOM     46  N   UNL A   1      41.736  29.542  33.521  1.00  0.00    -0.248 NA
ATOM     47  C   UNL A   1      41.855  30.286  35.731  1.00  0.00     0.031 C 
ATOM     48  C   UNL A   1      44.510  26.552  31.745  1.00  0.00     0.029 A 
ATOM     49  C   UNL A   1      43.653  27.478  32.317  1.00  0.00     0.049 A 
ATOM     50  H   UNL A   1      41.973  28.436  31.474  1.00  0.00     0.167 HD
ATOM     51  C   UNL A   1      42.807  28.926  34.150  1.00  0.00     0.074 A 
ATOM     52  C   UNL A   1      42.847  29.435  35.505  1.00  0.00     0.031 C 
ATOM     53  C   UNL A   1      43.682  28.019  33.651  1.00  0.00     0.037 A 
BRANCH  40  54
ATOM     54  C   UNL A   1      42.608  26.373  27.799  1.00  0.00     0.064 A 
ATOM     55  C   UNL A   1      42.043  25.113  27.564  1.00  0.00     0.173 A 
ATOM     56  C   UNL A   1      43.540  26.862  26.871  1.00  0.00     0.173 A 
ATOM     57  F   UNL A   1      41.158  24.598  28.432  1.00  0.00    -0.203 F 
ATOM     58  C   UNL A   1      42.407  24.364  26.448  1.00  0.00     0.198 A 
ATOM     59  C   UNL A   1      43.885  26.120  25.745  1.00  0.00     0.198 A 
ATOM     60  F   UNL A   1      44.108  28.064  27.051  1.00  0.00    -0.203 F 
ATOM     61  F   UNL A   1      41.877  23.148  26.257  1.00  0.00    -0.200 F 
ATOM     62  C   UNL A   1      43.321  24.871  25.536  1.00  0.00     0.200 A 
ATOM     63  F   UNL A   1      44.762  26.616  24.860  1.00  0.00    -0.200 F 
ATOM     64  F   UNL A   1      43.663  24.152  24.457  1.00  0.00    -0.200 F 
ENDBRANCH  40  54
BRANCH  41  65
ATOM     65  C   UNL A   1      39.517  32.037  35.439  1.00  0.00     0.064 A 
ATOM     66  C   UNL A   1      39.979  33.337  35.676  1.00  0.00     0.173 A 
ATOM     67  C   UNL A   1      38.570  31.507  36.329  1.00  0.00     0.173 A 
ATOM     68  F   UNL A   1      40.904  33.876  34.868  1.00  0.00    -0.203 F 
ATOM     69  C   UNL A   1      39.522  34.075  36.766  1.00  0.00     0.198 A 
ATOM     70  C   UNL A   1      38.093  32.255  37.403  1.00  0.00     0.198 A 
ATOM     71  F   UNL A   1      38.097  30.265  36.145  1.00  0.00    -0.203 F 
ATOM     72  F   UNL A   1      40.009  35.303  36.993  1.00  0.00    -0.200 F 
ATOM     73  C   UNL A   1      38.575  33.536  37.625  1.00  0.00     0.200 A 
ATOM     74  F   UNL A   1      37.171  31.734  38.223  1.00  0.00    -0.200 F 
ATOM     75  F   UNL A   1      38.132  34.248  38.669  1.00  0.00    -0.200 F 
ENDBRANCH  41  65
BRANCH  53  76
ATOM     76  C   UNL A   1      44.784  27.556  34.555  1.00  0.00     0.064 A 
ATOM     77  C   UNL A   1      45.992  28.257  34.653  1.00  0.00     0.173 A 
ATOM     78  C   UNL A   1      44.595  26.439  35.380  1.00  0.00     0.173 A 
ATOM     79  F   UNL A   1      46.220  29.323  33.872  1.00  0.00    -0.203 F 
ATOM     80  C   UNL A   1      46.981  27.847  35.544  1.00  0.00     0.198 A 
ATOM     81  C   UNL A   1      45.577  26.043  36.283  1.00  0.00     0.198 A 
ATOM     82  F   UNL A   1      43.450  25.741  35.322  1.00  0.00    -0.203 F 
ATOM     83  F   UNL A   1      48.141  28.514  35.605  1.00  0.00    -0.200 F 
ATOM     84  C   UNL A   1      46.770  26.747  36.362  1.00  0.00     0.200 A 
ATOM     85  F   UNL A   1      45.368  24.987  37.080  1.00  0.00    -0.200 F 
ATOM     86  F   UNL A   1      47.719  26.362  37.227  1.00  0.00    -0.200 F 
ENDBRANCH  53  76
ENDBRANCH  27  28
ENDBRANCH  20  22
ENDBRANCH  19  20
ENDBRANCH  18  19
ENDBRANCH   1  18
TORSDOF 15
ENDMDL
MODEL 2
REMARK VINA RESULT:     -11.3      1.486      3.097
REMARK SMILES CCc1ccc(C(=O)[C@@H](Br)CC(=O)OCCOC(=O)c2ccc(-c3c4nc(c(-c5c(F)c(F)c(F)c(F)c5F)c5ccc([nH]5)c(-c5c(F)c(F)c(F)c(F)c5F)c5nc(c(-c6c(F)c(F)c(F)c(F)c6F)c6ccc3[nH]6)C=C5)C=C4)cc2)cc1
REMARK SMILES IDX 15 1 14 2 12 3 13 4 11 5 9 6 10 7 7 8 8 9 6 10 3 11 4 12
REMARK SMILES IDX 84 13 5 14 83 15 2 16 1 17 16 18 17 19 18 20 19 21 20 22
REMARK SMILES IDX 21 23 82 24 22 25 81 26 23 27 24 28 25 29 75 30 26 31 80 32
REMARK SMILES IDX 74 33 76 34 27 35 79 36 73 37 72 38 28 40 60 41 40 42 59 43
REMARK SMILES IDX 41 44 44 45 58 46 77 47 42 48 43 49 57 51 78 52 45 53 29 54
REMARK SMILES IDX 30 55 38 56 31 57 32 58 36 59 39 60 33 61 34 62 37 63 35 64
REMARK SMILES IDX 61 65 62 66 70 67 63 68 64 69 68 70 71 71 65 72 66 73 69 74
REMARK SMILES IDX 67 75 46 76 47 77 55 78 48 79 49 80 53 81 56 82 50 83 51 84
REMARK SMILES IDX 54 85 52 86
REMARK H PARENT 76 39 44 50
REMARK Flexibility Score: inf
ROOT
ATOM      1  C   UNL A   1      31.760  28.483  27.033  1.00  0.00     0.274 C 
ENDROOT
BRANCH   1   2
ATOM      2  O   UNL A   1      32.241  27.787  25.865  1.00  0.00    -0.462 OA
BRANCH   2   3
ATOM      3  C   UNL A   1      32.458  26.459  26.010  1.00  0.00     0.307 C 
ATOM      4  O   UNL A   1      33.553  25.912  25.933  1.00  0.00    -0.252 OA
BRANCH   3   5
ATOM      5  C   UNL A   1      31.190  25.673  26.220  1.00  0.00     0.146 C 
BRANCH   5   6
ATOM      6  C   UNL A   1      30.662  25.003  24.962  1.00  0.00     0.140 C 
ATOM      7  Br  UNL A   1      31.527  23.254  24.717  1.00  0.00    -0.080 Br
BRANCH   6   8
ATOM      8  C   UNL A   1      30.814  25.742  23.640  1.00  0.00     0.177 C 
ATOM      9  O   UNL A   1      31.596  25.334  22.779  1.00  0.00    -0.293 OA
BRANCH   8  10
ATOM     10  C   UNL A   1      30.020  26.965  23.328  1.00  0.00     0.019 A 
ATOM     11  C   UNL A   1      28.625  29.312  22.620  1.00  0.00    -0.048 A 
ATOM     12  C   UNL A   1      29.999  29.199  22.377  1.00  0.00     0.004 A 
ATOM     13  C   UNL A   1      27.971  28.257  23.271  1.00  0.00     0.004 A 
ATOM     14  C   UNL A   1      30.689  28.033  22.720  1.00  0.00     0.012 A 
ATOM     15  C   UNL A   1      28.664  27.100  23.635  1.00  0.00     0.012 A 
BRANCH  11  16
ATOM     16  C   UNL A   1      27.846  30.560  22.276  1.00  0.00     0.032 C 
ATOM     17  C   UNL A   1      27.522  31.457  23.465  1.00  0.00     0.009 C 
ENDBRANCH  11  16
ENDBRANCH   8  10
ENDBRANCH   6   8
ENDBRANCH   5   6
ENDBRANCH   3   5
ENDBRANCH   2   3
ENDBRANCH   1   2
BRANCH   1  18
ATOM     18  C   UNL A   1      31.793  30.002  26.842  1.00  0.00     0.275 C 
BRANCH  18  19
ATOM     19  O   UNL A   1      33.108  30.467  26.480  1.00  0.00    -0.458 OA
BRANCH  19  20
ATOM     20  C   UNL A   1      33.563  31.513  27.205  1.00  0.00     0.338 C 
ATOM     21  O   UNL A   1      32.976  32.547  27.467  1.00  0.00    -0.246 OA
BRANCH  20  22
ATOM     22  C   UNL A   1      34.883  31.201  27.764  1.00  0.00     0.060 A 
ATOM     23  C   UNL A   1      35.135  29.895  28.195  1.00  0.00     0.016 A 
ATOM     24  C   UNL A   1      35.813  32.216  27.978  1.00  0.00     0.016 A 
ATOM     25  C   UNL A   1      36.321  29.595  28.855  1.00  0.00     0.010 A 
ATOM     26  C   UNL A   1      37.006  31.914  28.633  1.00  0.00     0.010 A 
ATOM     27  C   UNL A   1      37.260  30.606  29.088  1.00  0.00    -0.014 A 
BRANCH  27  28
ATOM     28  C   UNL A   1      38.491  30.326  29.860  1.00  0.00     0.031 A 
ATOM     29  C   UNL A   1      39.521  29.400  29.288  1.00  0.00     0.074 A 
ATOM     30  C   UNL A   1      38.661  30.871  31.077  1.00  0.00     0.049 A 
ATOM     31  N   UNL A   1      40.544  28.836  29.873  1.00  0.00    -0.248 NA
ATOM     32  C   UNL A   1      39.374  29.061  27.863  1.00  0.00     0.031 C 
ATOM     33  C   UNL A   1      37.759  31.836  31.704  1.00  0.00     0.029 A 
ATOM     34  N   UNL A   1      39.642  30.666  32.015  1.00  0.00    -0.354 N 
ATOM     35  C   UNL A   1      41.138  28.041  28.904  1.00  0.00     0.074 A 
ATOM     36  C   UNL A   1      40.370  28.202  27.687  1.00  0.00     0.031 C 
ATOM     37  C   UNL A   1      38.213  32.122  32.935  1.00  0.00     0.029 A 
ATOM     38  C   UNL A   1      39.401  31.315  33.201  1.00  0.00     0.049 A 
ATOM     39  H   UNL A   1      40.437  30.111  31.853  1.00  0.00     0.167 HD
ATOM     40  C   UNL A   1      42.222  27.240  29.030  1.00  0.00     0.037 A 
ATOM     41  C   UNL A   1      40.038  31.222  34.383  1.00  0.00     0.037 A 
ATOM     42  C   UNL A   1      42.992  27.109  30.238  1.00  0.00     0.049 A 
ATOM     43  C   UNL A   1      41.213  30.290  34.511  1.00  0.00     0.074 A 
ATOM     44  C   UNL A   1      44.108  26.326  30.473  1.00  0.00     0.029 A 
ATOM     45  N   UNL A   1      42.724  27.790  31.416  1.00  0.00    -0.354 N 
ATOM     46  N   UNL A   1      41.748  29.507  33.606  1.00  0.00    -0.248 NA
ATOM     47  C   UNL A   1      41.863  30.218  35.828  1.00  0.00     0.031 C 
ATOM     48  C   UNL A   1      44.499  26.512  31.803  1.00  0.00     0.029 A 
ATOM     49  C   UNL A   1      43.649  27.440  32.384  1.00  0.00     0.049 A 
ATOM     50  H   UNL A   1      41.986  28.429  31.545  1.00  0.00     0.167 HD
ATOM     51  C   UNL A   1      42.809  28.870  34.233  1.00  0.00     0.074 A 
ATOM     52  C   UNL A   1      42.846  29.358  35.596  1.00  0.00     0.031 C 
ATOM     53  C   UNL A   1      43.676  27.960  33.726  1.00  0.00     0.037 A 
BRANCH  40  54
ATOM     54  C   UNL A   1      42.619  26.414  27.844  1.00  0.00     0.064 A 
ATOM     55  C   UNL A   1      42.044  25.162  27.590  1.00  0.00     0.173 A 
ATOM     56  C   UNL A   1      43.559  26.908  26.926  1.00  0.00     0.173 A 
ATOM     57  F   UNL A   1      41.152  24.642  28.447  1.00  0.00    -0.203 F 
ATOM     58  C   UNL A   1      42.406  24.425  26.464  1.00  0.00     0.198 A 
ATOM     59  C   UNL A   1      43.902  26.178  25.791  1.00  0.00     0.198 A 
ATOM     60  F   UNL A   1      44.136  28.102  27.124  1.00  0.00    -0.203 F 
ATOM     61  F   UNL A   1      41.867  23.216  26.255  1.00  0.00    -0.200 F 
ATOM     62  C   UNL A   1      43.328  24.937  25.563  1.00  0.00     0.200 A 
ATOM     63  F   UNL A   1      44.786  26.679  24.916  1.00  0.00    -0.200 F 
ATOM     64  F   UNL A   1      43.668  24.230  24.475  1.00  0.00    -0.200 F 
ENDBRANCH  40  54
BRANCH  41  65
ATOM     65  C   UNL A   1      39.547  31.999  35.549  1.00  0.00     0.064 A 
ATOM     66  C   UNL A   1      40.027  33.288  35.811  1.00  0.00     0.173 A 
ATOM     67  C   UNL A   1      38.584  31.469  36.422  1.00  0.00     0.173 A 
ATOM     68  F   UNL A   1      40.967  33.826  35.020  1.00  0.00    -0.203 F 
ATOM     69  C   UNL A   1      39.572  34.015  36.910  1.00  0.00     0.198 A 
ATOM     70  C   UNL A   1      38.110  32.206  37.504  1.00  0.00     0.198 A 
ATOM     71  F   UNL A   1      38.093  30.238  36.213  1.00  0.00    -0.203 F 
ATOM     72  F   UNL A   1      40.075  35.231  37.161  1.00  0.00    -0.200 F 
ATOM     73  C   UNL A   1      38.609  33.476  37.751  1.00  0.00     0.200 A 
ATOM     74  F   UNL A   1      37.172  31.687  38.307  1.00  0.00    -0.200 F 
ATOM     75  F   UNL A   1      38.167  34.178  38.803  1.00  0.00    -0.200 F 
ENDBRANCH  41  65
BRANCH  53  76
ATOM     76  C   UNL A   1      44.767  27.472  34.629  1.00  0.00     0.064 A 
ATOM     77  C   UNL A   1      44.615  26.313  35.401  1.00  0.00     0.173 A 
ATOM     78  C   UNL A   1      46.001  28.136  34.665  1.00  0.00     0.173 A 
ATOM     79  F   UNL A   1      43.446  25.655  35.407  1.00  0.00    -0.203 F 
ATOM     80  C   UNL A   1      45.662  25.840  36.188  1.00  0.00     0.198 A 
ATOM     81  C   UNL A   1      47.052  27.650  35.436  1.00  0.00     0.198 A 
ATOM     82  F   UNL A   1      46.193  29.247  33.938  1.00  0.00    -0.203 F 
ATOM     83  F   UNL A   1      45.489  24.745  36.940  1.00  0.00    -0.200 F 
ATOM     84  C   UNL A   1      46.880  26.504  36.199  1.00  0.00     0.200 A 
ATOM     85  F   UNL A   1      48.232  28.285  35.439  1.00  0.00    -0.200 F 
ATOM     86  F   UNL A   1      47.890  26.039  36.948  1.00  0.00    -0.200 F 
ENDBRANCH  53  76
ENDBRANCH  27  28
ENDBRANCH  20  22
ENDBRANCH  19  20
ENDBRANCH  18  19
ENDBRANCH   1  18
TORSDOF 15
ENDMDL
MODEL 3
REMARK VINA RESULT:     -11.3      4.408      9.729
REMARK SMILES CCc1ccc(C(=O)[C@@H](Br)CC(=O)OCCOC(=O)c2ccc(-c3c4nc(c(-c5c(F)c(F)c(F)c(F)c5F)c5ccc([nH]5)c(-c5c(F)c(F)c(F)c(F)c5F)c5nc(c(-c6c(F)c(F)c(F)c(F)c6F)c6ccc3[nH]6)C=C5)C=C4)cc2)cc1
REMARK SMILES IDX 15 1 14 2 12 3 13 4 11 5 9 6 10 7 7 8 8 9 6 10 3 11 4 12
REMARK SMILES IDX 84 13 5 14 83 15 2 16 1 17 16 18 17 19 18 20 19 21 20 22
REMARK SMILES IDX 21 23 82 24 22 25 81 26 23 27 24 28 25 29 75 30 26 31 80 32
REMARK SMILES IDX 74 33 76 34 27 35 79 36 73 37 72 38 28 40 60 41 40 42 59 43
REMARK SMILES IDX 41 44 44 45 58 46 77 47 42 48 43 49 57 51 78 52 45 53 29 54
REMARK SMILES IDX 30 55 38 56 31 57 32 58 36 59 39 60 33 61 34 62 37 63 35 64
REMARK SMILES IDX 61 65 62 66 70 67 63 68 64 69 68 70 71 71 65 72 66 73 69 74
REMARK SMILES IDX 67 75 46 76 47 77 55 78 48 79 49 80 53 81 56 82 50 83 51 84
REMARK SMILES IDX 54 85 52 86
REMARK H PARENT 76 39 44 50
REMARK Flexibility Score: inf
ROOT
ATOM      1  C   UNL A   1      35.315  20.654  25.283  1.00  0.00     0.274 C 
ENDROOT
BRANCH   1   2
ATOM      2  O   UNL A   1      34.626  21.455  24.301  1.00  0.00    -0.462 OA
BRANCH   2   3
ATOM      3  C   UNL A   1      33.340  21.117  24.051  1.00  0.00     0.307 C 
ATOM      4  O   UNL A   1      32.796  20.087  24.433  1.00  0.00    -0.252 OA
BRANCH   3   5
ATOM      5  C   UNL A   1      32.625  22.118  23.181  1.00  0.00     0.146 C 
BRANCH   5   6
ATOM      6  C   UNL A   1      32.468  23.489  23.816  1.00  0.00     0.140 C 
ATOM      7  Br  UNL A   1      30.653  24.174  23.501  1.00  0.00    -0.080 Br
BRANCH   6   8
ATOM      8  C   UNL A   1      33.422  24.592  23.380  1.00  0.00     0.177 C 
ATOM      9  O   UNL A   1      34.126  24.453  22.376  1.00  0.00    -0.293 OA
BRANCH   8  10
ATOM     10  C   UNL A   1      33.531  25.877  24.126  1.00  0.00     0.019 A 
ATOM     11  C   UNL A   1      33.658  28.383  25.417  1.00  0.00    -0.048 A 
ATOM     12  C   UNL A   1      33.564  28.304  24.022  1.00  0.00     0.004 A 
ATOM     13  C   UNL A   1      33.743  27.192  26.150  1.00  0.00     0.004 A 
ATOM     14  C   UNL A   1      33.492  27.063  23.383  1.00  0.00     0.012 A 
ATOM     15  C   UNL A   1      33.694  25.950  25.511  1.00  0.00     0.012 A 
BRANCH  11  16
ATOM     16  C   UNL A   1      33.751  29.704  26.143  1.00  0.00     0.032 C 
ATOM     17  C   UNL A   1      34.439  29.637  27.501  1.00  0.00     0.009 C 
ENDBRANCH  11  16
ENDBRANCH   8  10
ENDBRANCH   6   8
ENDBRANCH   5   6
ENDBRANCH   3   5
ENDBRANCH   2   3
ENDBRANCH   1   2
BRANCH   1  18
ATOM     18  C   UNL A   1      36.819  20.580  25.001  1.00  0.00     0.275 C 
BRANCH  18  19
ATOM     19  O   UNL A   1      37.525  21.698  25.572  1.00  0.00    -0.458 OA
BRANCH  19  20
ATOM     20  C   UNL A   1      38.785  21.429  25.980  1.00  0.00     0.338 C 
ATOM     21  O   UNL A   1      39.412  20.397  25.826  1.00  0.00    -0.246 OA
BRANCH  20  22
ATOM     22  C   UNL A   1      39.388  22.629  26.571  1.00  0.00     0.060 A 
ATOM     23  C   UNL A   1      38.960  23.882  26.125  1.00  0.00     0.016 A 
ATOM     24  C   UNL A   1      40.455  22.513  27.461  1.00  0.00     0.016 A 
ATOM     25  C   UNL A   1      39.603  25.036  26.561  1.00  0.00     0.010 A 
ATOM     26  C   UNL A   1      41.096  23.670  27.904  1.00  0.00     0.010 A 
ATOM     27  C   UNL A   1      40.684  24.935  27.445  1.00  0.00    -0.014 A 
BRANCH  27  28
ATOM     28  C   UNL A   1      41.434  26.142  27.855  1.00  0.00     0.031 A 
ATOM     29  C   UNL A   1      40.727  27.221  28.617  1.00  0.00     0.074 A 
ATOM     30  C   UNL A   1      42.727  26.280  27.514  1.00  0.00     0.049 A 
ATOM     31  N   UNL A   1      41.111  28.444  28.871  1.00  0.00    -0.248 NA
ATOM     32  C   UNL A   1      39.405  26.875  29.164  1.00  0.00     0.031 C 
ATOM     33  C   UNL A   1      43.533  25.267  26.833  1.00  0.00     0.029 A 
ATOM     34  N   UNL A   1      43.581  27.342  27.672  1.00  0.00    -0.354 N 
ATOM     35  C   UNL A   1      40.063  29.030  29.567  1.00  0.00     0.074 A 
ATOM     36  C   UNL A   1      39.029  28.026  29.707  1.00  0.00     0.031 C 
ATOM     37  C   UNL A   1      44.759  25.767  26.606  1.00  0.00     0.029 A 
ATOM     38  C   UNL A   1      44.801  27.150  27.073  1.00  0.00     0.049 A 
ATOM     39  H   UNL A   1      43.342  28.160  28.164  1.00  0.00     0.167 HD
ATOM     40  C   UNL A   1      39.975  30.297  30.033  1.00  0.00     0.037 A 
ATOM     41  C   UNL A   1      45.815  28.014  26.876  1.00  0.00     0.037 A 
ATOM     42  C   UNL A   1      41.022  31.276  29.910  1.00  0.00     0.049 A 
ATOM     43  C   UNL A   1      45.676  29.431  27.364  1.00  0.00     0.074 A 
ATOM     44  C   UNL A   1      41.035  32.588  30.347  1.00  0.00     0.029 A 
ATOM     45  N   UNL A   1      42.248  31.041  29.306  1.00  0.00    -0.354 N 
ATOM     46  N   UNL A   1      44.668  29.995  27.984  1.00  0.00    -0.248 NA
ATOM     47  C   UNL A   1      46.807  30.335  27.111  1.00  0.00     0.031 C 
ATOM     48  C   UNL A   1      42.261  33.157  29.984  1.00  0.00     0.029 A 
ATOM     49  C   UNL A   1      43.024  32.186  29.353  1.00  0.00     0.049 A 
ATOM     50  H   UNL A   1      42.527  30.186  28.905  1.00  0.00     0.167 HD
ATOM     51  C   UNL A   1      45.050  31.308  28.218  1.00  0.00     0.074 A 
ATOM     52  C   UNL A   1      46.385  31.458  27.676  1.00  0.00     0.031 C 
ATOM     53  C   UNL A   1      44.359  32.301  28.827  1.00  0.00     0.037 A 
BRANCH  40  54
ATOM     54  C   UNL A   1      38.691  30.711  30.686  1.00  0.00     0.064 A 
ATOM     55  C   UNL A   1      38.543  30.730  32.079  1.00  0.00     0.173 A 
ATOM     56  C   UNL A   1      37.608  31.137  29.901  1.00  0.00     0.173 A 
ATOM     57  F   UNL A   1      39.545  30.317  32.870  1.00  0.00    -0.203 F 
ATOM     58  C   UNL A   1      37.350  31.147  32.665  1.00  0.00     0.198 A 
ATOM     59  C   UNL A   1      36.425  31.574  30.491  1.00  0.00     0.198 A 
ATOM     60  F   UNL A   1      37.702  31.138  28.563  1.00  0.00    -0.203 F 
ATOM     61  F   UNL A   1      37.218  31.129  33.998  1.00  0.00    -0.200 F 
ATOM     62  C   UNL A   1      36.296  31.576  31.870  1.00  0.00     0.200 A 
ATOM     63  F   UNL A   1      35.412  31.996  29.721  1.00  0.00    -0.200 F 
ATOM     64  F   UNL A   1      35.152  31.986  32.437  1.00  0.00    -0.200 F 
ENDBRANCH  40  54
BRANCH  41  65
ATOM     65  C   UNL A   1      47.030  27.572  26.145  1.00  0.00     0.064 A 
ATOM     66  C   UNL A   1      48.138  27.060  26.830  1.00  0.00     0.173 A 
ATOM     67  C   UNL A   1      47.103  27.650  24.746  1.00  0.00     0.173 A 
ATOM     68  F   UNL A   1      48.124  26.991  28.169  1.00  0.00    -0.203 F 
ATOM     69  C   UNL A   1      49.281  26.652  26.145  1.00  0.00     0.198 A 
ATOM     70  C   UNL A   1      48.235  27.217  24.060  1.00  0.00     0.198 A 
ATOM     71  F   UNL A   1      46.067  28.134  24.044  1.00  0.00    -0.203 F 
ATOM     72  F   UNL A   1      50.343  26.202  26.826  1.00  0.00    -0.200 F 
ATOM     73  C   UNL A   1      49.326  26.725  24.760  1.00  0.00     0.200 A 
ATOM     74  F   UNL A   1      48.270  27.280  22.722  1.00  0.00    -0.200 F 
ATOM     75  F   UNL A   1      50.423  26.327  24.101  1.00  0.00    -0.200 F 
ENDBRANCH  41  65
BRANCH  53  76
ATOM     76  C   UNL A   1      45.048  33.622  28.986  1.00  0.00     0.064 A 
ATOM     77  C   UNL A   1      44.913  34.637  28.030  1.00  0.00     0.173 A 
ATOM     78  C   UNL A   1      45.793  33.892  30.142  1.00  0.00     0.173 A 
ATOM     79  F   UNL A   1      44.221  34.416  26.903  1.00  0.00    -0.203 F 
ATOM     80  C   UNL A   1      45.511  35.880  28.224  1.00  0.00     0.198 A 
ATOM     81  C   UNL A   1      46.372  35.142  30.342  1.00  0.00     0.198 A 
ATOM     82  F   UNL A   1      45.944  32.950  31.085  1.00  0.00    -0.203 F 
ATOM     83  F   UNL A   1      45.393  36.830  27.288  1.00  0.00    -0.200 F 
ATOM     84  C   UNL A   1      46.232  36.133  29.382  1.00  0.00     0.200 A 
ATOM     85  F   UNL A   1      47.060  35.388  31.465  1.00  0.00    -0.200 F 
ATOM     86  F   UNL A   1      46.797  37.334  29.572  1.00  0.00    -0.200 F 
ENDBRANCH  53  76
ENDBRANCH  27  28
ENDBRANCH  20  22
ENDBRANCH  19  20
ENDBRANCH  18  19
ENDBRANCH   1  18
TORSDOF 15
ENDMDL
