MODEL 1
REMARK VINA RESULT:     -11.6      0.000      0.000
REMARK SMILES COc1cc(/C=C2/CCc3cc(OC(C)(C)C(=O)OCCOC(=O)c4ccc(-c5c6nc(c(-c7c(F)c(F)c(F)c(F)c7F)c7ccc([nH]7)c(-c7c(F)c(F)c(F)c(F)c7F)c7nc(c(-c8c(F)c(F)c(F)c(F)c8F)c8ccc5[nH]8)C=C7)C=C6)cc4)ccc3C2=O)cc(OC)c1O
REMARK SMILES IDX 20 1 19 2 17 3 18 4 14 5 15 6 16 7 13 8 12 9 6 10 7 11 8 12
REMARK SMILES IDX 91 13 9 14 90 15 92 16 10 17 89 18 11 19 88 20 5 21 3 22
REMARK SMILES IDX 4 23 97 24 94 25 93 26 2 27 1 28 98 29 95 31 96 32 21 33
REMARK SMILES IDX 22 34 23 35 24 36 25 37 26 38 87 39 27 40 86 41 28 42 29 43
REMARK SMILES IDX 30 44 80 45 31 46 85 47 79 48 81 49 32 50 84 51 78 52 77 53
REMARK SMILES IDX 33 55 65 56 45 57 64 58 46 59 49 60 63 61 82 62 47 63 48 64
REMARK SMILES IDX 62 66 83 67 50 68 34 69 35 70 43 71 36 72 37 73 41 74 44 75
REMARK SMILES IDX 38 76 39 77 42 78 40 79 66 80 67 81 75 82 68 83 69 84 73 85
REMARK SMILES IDX 76 86 70 87 71 88 74 89 72 90 51 91 52 92 60 93 53 94 54 95
REMARK SMILES IDX 58 96 61 97 55 98 56 99 59 100 57 101
REMARK H PARENT 98 30 81 54 49 65
REMARK Flexibility Score: inf
ROOT
ATOM      1  C   UNL A   1      34.778  33.575  30.058  1.00  0.00     0.274 C 
ENDROOT
BRANCH   1   2
ATOM      2  O   UNL A   1      33.742  34.156  31.242  1.00  0.00    -0.459 OA
BRANCH   2   3
ATOM      3  C   UNL A   1      33.804  33.992  32.705  1.00  0.00     0.350 C 
ATOM      4  O   UNL A   1      33.186  33.093  33.269  1.00  0.00    -0.247 OA
BRANCH   3   5
ATOM      5  C   UNL A   1      35.070  34.962  33.525  1.00  0.00     0.200 C 
ATOM      6  C   UNL A   1      35.133  34.183  34.834  1.00  0.00     0.069 C 
ATOM      7  C   UNL A   1      34.382  36.282  33.418  1.00  0.00     0.069 C 
BRANCH   5   8
ATOM      8  O   UNL A   1      36.497  35.342  33.206  1.00  0.00    -0.476 OA
BRANCH   8   9
ATOM      9  C   UNL A   1      37.339  34.297  32.656  1.00  0.00     0.121 A 
ATOM     10  C   UNL A   1      40.642  32.331  36.676  1.00  0.00     0.016 C 
ATOM     11  C   UNL A   1      40.143  31.931  35.480  1.00  0.00     0.001 C 
ATOM     12  C   UNL A   1      39.714  30.599  34.877  1.00  0.00     0.044 C 
ATOM     13  C   UNL A   1      39.508  32.970  34.701  1.00  0.00     0.189 C 
ATOM     14  C   UNL A   1      38.365  30.735  33.946  1.00  0.00     0.041 C 
ATOM     15  C   UNL A   1      39.487  32.749  33.210  1.00  0.00     0.026 A 
ATOM     16  O   UNL A   1      38.622  33.591  35.281  1.00  0.00    -0.289 OA
ATOM     17  C   UNL A   1      38.281  32.065  33.149  1.00  0.00    -0.033 A 
ATOM     18  C   UNL A   1      39.688  33.869  32.406  1.00  0.00     0.016 A 
ATOM     19  C   UNL A   1      37.143  32.913  32.962  1.00  0.00     0.051 A 
ATOM     20  C   UNL A   1      38.576  34.660  32.084  1.00  0.00     0.047 A 
BRANCH  10  21
ATOM     21  C   UNL A   1      40.267  33.661  37.309  1.00  0.00    -0.018 A 
ATOM     22  C   UNL A   1      41.016  35.983  37.460  1.00  0.00     0.165 A 
ATOM     23  C   UNL A   1      41.080  34.718  36.883  1.00  0.00     0.058 A 
ATOM     24  C   UNL A   1      40.135  36.188  38.542  1.00  0.00     0.200 A 
ATOM     25  C   UNL A   1      39.403  35.111  39.149  1.00  0.00     0.165 A 
ATOM     26  C   UNL A   1      39.404  33.887  38.427  1.00  0.00     0.058 A 
BRANCH  22  27
ATOM     27  O   UNL A   1      41.839  36.867  36.811  1.00  0.00    -0.493 OA
ATOM     28  C   UNL A   1      43.120  37.246  37.290  1.00  0.00     0.278 C 
ENDBRANCH  22  27
BRANCH  24  29
ATOM     29  O   UNL A   1      39.925  37.495  38.895  1.00  0.00    -0.502 OA
ATOM     30  H   UNL A   1      40.525  37.927  39.471  1.00  0.00     0.293 HD
ENDBRANCH  24  29
BRANCH  25  31
ATOM     31  O   UNL A   1      38.545  35.220  40.255  1.00  0.00    -0.493 OA
ATOM     32  C   UNL A   1      37.784  34.294  41.179  1.00  0.00     0.278 C 
ENDBRANCH  25  31
ENDBRANCH  10  21
ENDBRANCH   8   9
ENDBRANCH   5   8
ENDBRANCH   3   5
ENDBRANCH   2   3
ENDBRANCH   1   2
BRANCH   1  33
ATOM     33  C   UNL A   1      34.431  33.362  28.268  1.00  0.00     0.275 C 
BRANCH  33  34
ATOM     34  O   UNL A   1      34.938  32.119  27.399  1.00  0.00    -0.458 OA
BRANCH  34  35
ATOM     35  C   UNL A   1      34.824  30.745  27.727  1.00  0.00     0.338 C 
ATOM     36  O   UNL A   1      33.812  30.062  27.513  1.00  0.00    -0.246 OA
BRANCH  35  37
ATOM     37  C   UNL A   1      36.169  30.031  28.157  1.00  0.00     0.060 A 
ATOM     38  C   UNL A   1      37.230  29.837  27.243  1.00  0.00     0.016 A 
ATOM     39  C   UNL A   1      36.420  29.471  29.405  1.00  0.00     0.016 A 
ATOM     40  C   UNL A   1      38.572  29.553  27.621  1.00  0.00     0.010 A 
ATOM     41  C   UNL A   1      37.731  28.977  29.752  1.00  0.00     0.010 A 
ATOM     42  C   UNL A   1      38.856  29.103  28.902  1.00  0.00    -0.014 A 
BRANCH  42  43
ATOM     43  C   UNL A   1      40.222  28.527  29.215  1.00  0.00     0.031 A 
ATOM     44  C   UNL A   1      41.133  29.324  30.121  1.00  0.00     0.074 A 
ATOM     45  C   UNL A   1      40.674  27.304  28.843  1.00  0.00     0.049 A 
ATOM     46  N   UNL A   1      42.415  29.191  30.369  1.00  0.00    -0.248 NA
ATOM     47  C   UNL A   1      40.489  30.415  30.863  1.00  0.00     0.031 C 
ATOM     48  C   UNL A   1      39.906  26.275  28.147  1.00  0.00     0.029 A 
ATOM     49  N   UNL A   1      41.924  26.717  29.003  1.00  0.00    -0.354 N 
ATOM     50  C   UNL A   1      42.740  30.222  31.243  1.00  0.00     0.074 A 
ATOM     51  C   UNL A   1      41.517  30.953  31.500  1.00  0.00     0.031 C 
ATOM     52  C   UNL A   1      40.699  25.210  27.912  1.00  0.00     0.029 A 
ATOM     53  C   UNL A   1      42.059  25.494  28.377  1.00  0.00     0.049 A 
ATOM     54  H   UNL A   1      42.649  27.136  29.519  1.00  0.00     0.167 HD
ATOM     55  C   UNL A   1      43.945  30.547  31.773  1.00  0.00     0.037 A 
ATOM     56  C   UNL A   1      43.148  24.719  28.151  1.00  0.00     0.037 A 
ATOM     57  C   UNL A   1      45.165  29.807  31.570  1.00  0.00     0.049 A 
ATOM     58  C   UNL A   1      44.519  25.166  28.625  1.00  0.00     0.074 A 
ATOM     59  C   UNL A   1      46.434  30.092  32.049  1.00  0.00     0.029 A 
ATOM     60  N   UNL A   1      45.269  28.634  30.844  1.00  0.00    -0.354 N 
ATOM     61  N   UNL A   1      44.848  26.208  29.348  1.00  0.00    -0.248 NA
ATOM     62  C   UNL A   1      45.674  24.337  28.231  1.00  0.00     0.031 C 
ATOM     63  C   UNL A   1      47.315  29.120  31.565  1.00  0.00     0.029 A 
ATOM     64  C   UNL A   1      46.585  28.194  30.841  1.00  0.00     0.049 A 
ATOM     65  H   UNL A   1      44.521  28.178  30.396  1.00  0.00     0.167 HD
ATOM     66  C   UNL A   1      46.228  26.142  29.519  1.00  0.00     0.074 A 
ATOM     67  C   UNL A   1      46.681  24.951  28.836  1.00  0.00     0.031 C 
ATOM     68  C   UNL A   1      47.044  26.998  30.183  1.00  0.00     0.037 A 
BRANCH  55  69
ATOM     69  C   UNL A   1      44.026  31.816  32.572  1.00  0.00     0.064 A 
ATOM     70  C   UNL A   1      43.858  31.841  33.963  1.00  0.00     0.173 A 
ATOM     71  C   UNL A   1      44.306  33.029  31.923  1.00  0.00     0.173 A 
ATOM     72  F   UNL A   1      43.570  30.711  34.629  1.00  0.00    -0.203 F 
ATOM     73  C   UNL A   1      43.938  33.038  34.671  1.00  0.00     0.198 A 
ATOM     74  C   UNL A   1      44.421  34.218  32.638  1.00  0.00     0.198 A 
ATOM     75  F   UNL A   1      44.483  33.061  30.593  1.00  0.00    -0.203 F 
ATOM     76  F   UNL A   1      43.720  33.047  35.993  1.00  0.00    -0.200 F 
ATOM     77  C   UNL A   1      44.228  34.222  34.010  1.00  0.00     0.200 A 
ATOM     78  F   UNL A   1      44.718  35.357  31.998  1.00  0.00    -0.200 F 
ATOM     79  F   UNL A   1      44.313  35.371  34.695  1.00  0.00    -0.200 F 
ENDBRANCH  55  69
BRANCH  56  80
ATOM     80  C   UNL A   1      43.039  23.458  27.350  1.00  0.00     0.064 A 
ATOM     81  C   UNL A   1      42.560  22.264  27.915  1.00  0.00     0.173 A 
ATOM     82  C   UNL A   1      43.498  23.400  26.024  1.00  0.00     0.173 A 
ATOM     83  F   UNL A   1      42.165  22.241  29.196  1.00  0.00    -0.203 F 
ATOM     84  C   UNL A   1      42.552  21.070  27.191  1.00  0.00     0.198 A 
ATOM     85  C   UNL A   1      43.457  22.214  25.291  1.00  0.00     0.198 A 
ATOM     86  F   UNL A   1      44.004  24.496  25.441  1.00  0.00    -0.203 F 
ATOM     87  F   UNL A   1      42.149  19.933  27.778  1.00  0.00    -0.200 F 
ATOM     88  C   UNL A   1      42.991  21.048  25.876  1.00  0.00     0.200 A 
ATOM     89  F   UNL A   1      43.887  22.199  24.021  1.00  0.00    -0.200 F 
ATOM     90  F   UNL A   1      42.985  19.901  25.182  1.00  0.00    -0.200 F 
ENDBRANCH  56  80
BRANCH  68  91
ATOM     91  C   UNL A   1      48.510  26.665  30.269  1.00  0.00     0.064 A 
ATOM     92  C   UNL A   1      49.026  25.830  31.269  1.00  0.00     0.173 A 
ATOM     93  C   UNL A   1      49.403  27.146  29.296  1.00  0.00     0.173 A 
ATOM     94  F   UNL A   1      48.221  25.350  32.230  1.00  0.00    -0.203 F 
ATOM     95  C   UNL A   1      50.382  25.507  31.309  1.00  0.00     0.198 A 
ATOM     96  C   UNL A   1      50.752  26.796  29.320  1.00  0.00     0.198 A 
ATOM     97  F   UNL A   1      48.964  27.940  28.309  1.00  0.00    -0.203 F 
ATOM     98  F   UNL A   1      50.859  24.741  32.300  1.00  0.00    -0.200 F 
ATOM     99  C   UNL A   1      51.241  25.984  30.330  1.00  0.00     0.200 A 
ATOM    100  F   UNL A   1      51.576  27.244  28.364  1.00  0.00    -0.200 F 
ATOM    101  F   UNL A   1      52.542  25.663  30.363  1.00  0.00    -0.200 F 
ENDBRANCH  68  91
ENDBRANCH  42  43
ENDBRANCH  35  37
ENDBRANCH  34  35
ENDBRANCH  33  34
ENDBRANCH   1  33
TORSDOF 17
ENDMDL
MODEL 2
REMARK VINA RESULT:     -11.6      4.263      9.721
REMARK SMILES COc1cc(/C=C2/CCc3cc(OC(C)(C)C(=O)OCCOC(=O)c4ccc(-c5c6nc(c(-c7c(F)c(F)c(F)c(F)c7F)c7ccc([nH]7)c(-c7c(F)c(F)c(F)c(F)c7F)c7nc(c(-c8c(F)c(F)c(F)c(F)c8F)c8ccc5[nH]8)C=C7)C=C6)cc4)ccc3C2=O)cc(OC)c1O
REMARK SMILES IDX 20 1 19 2 17 3 18 4 14 5 15 6 16 7 13 8 12 9 6 10 7 11 8 12
REMARK SMILES IDX 91 13 9 14 90 15 92 16 10 17 89 18 11 19 88 20 5 21 3 22
REMARK SMILES IDX 4 23 97 24 94 25 93 26 2 27 1 28 98 29 95 31 96 32 21 33
REMARK SMILES IDX 22 34 23 35 24 36 25 37 26 38 87 39 27 40 86 41 28 42 29 43
REMARK SMILES IDX 30 44 80 45 31 46 85 47 79 48 81 49 32 50 84 51 78 52 77 53
REMARK SMILES IDX 33 55 65 56 45 57 64 58 46 59 49 60 63 61 82 62 47 63 48 64
REMARK SMILES IDX 62 66 83 67 50 68 34 69 35 70 43 71 36 72 37 73 41 74 44 75
REMARK SMILES IDX 38 76 39 77 42 78 40 79 66 80 67 81 75 82 68 83 69 84 73 85
REMARK SMILES IDX 76 86 70 87 71 88 74 89 72 90 51 91 52 92 60 93 53 94 54 95
REMARK SMILES IDX 58 96 61 97 55 98 56 99 59 100 57 101
REMARK H PARENT 98 30 81 54 49 65
REMARK Flexibility Score: inf
ROOT
ATOM      1  C   UNL A   1      43.337  36.660  37.619  1.00  0.00     0.274 C 
ENDROOT
BRANCH   1   2
ATOM      2  O   UNL A   1      43.809  37.182  36.097  1.00  0.00    -0.459 OA
BRANCH   2   3
ATOM      3  C   UNL A   1      43.116  37.048  34.803  1.00  0.00     0.350 C 
ATOM      4  O   UNL A   1      42.310  37.894  34.425  1.00  0.00    -0.247 OA
BRANCH   3   5
ATOM      5  C   UNL A   1      43.769  35.777  33.720  1.00  0.00     0.200 C 
ATOM      6  C   UNL A   1      43.442  34.563  34.582  1.00  0.00     0.069 C 
ATOM      7  C   UNL A   1      45.152  36.324  33.612  1.00  0.00     0.069 C 
BRANCH   5   8
ATOM      8  O   UNL A   1      43.504  35.349  32.295  1.00  0.00    -0.476 OA
BRANCH   8   9
ATOM      9  C   UNL A   1      43.037  33.990  32.102  1.00  0.00     0.121 A 
ATOM     10  C   UNL A   1      44.182  32.407  26.895  1.00  0.00     0.016 C 
ATOM     11  C   UNL A   1      43.930  31.839  28.100  1.00  0.00     0.001 C 
ATOM     12  C   UNL A   1      44.389  30.577  28.820  1.00  0.00     0.044 C 
ATOM     13  C   UNL A   1      43.431  32.744  29.112  1.00  0.00     0.189 C 
ATOM     14  C   UNL A   1      44.642  30.825  30.426  1.00  0.00     0.041 C 
ATOM     15  C   UNL A   1      42.605  32.112  30.204  1.00  0.00     0.026 A 
ATOM     16  O   UNL A   1      44.122  33.739  29.310  1.00  0.00    -0.289 OA
ATOM     17  C   UNL A   1      43.647  31.826  31.073  1.00  0.00    -0.033 A 
ATOM     18  C   UNL A   1      41.505  32.837  30.657  1.00  0.00     0.016 A 
ATOM     19  C   UNL A   1      43.931  32.877  32.002  1.00  0.00     0.051 A 
ATOM     20  C   UNL A   1      41.710  33.789  31.666  1.00  0.00     0.047 A 
BRANCH  10  21
ATOM     21  C   UNL A   1      44.274  33.913  26.709  1.00  0.00    -0.018 A 
ATOM     22  C   UNL A   1      45.850  35.770  26.921  1.00  0.00     0.165 A 
ATOM     23  C   UNL A   1      45.573  34.406  26.884  1.00  0.00     0.058 A 
ATOM     24  C   UNL A   1      44.777  36.680  26.827  1.00  0.00     0.200 A 
ATOM     25  C   UNL A   1      43.406  36.251  26.826  1.00  0.00     0.165 A 
ATOM     26  C   UNL A   1      43.202  34.856  26.645  1.00  0.00     0.058 A 
BRANCH  22  27
ATOM     27  O   UNL A   1      47.199  35.999  27.008  1.00  0.00    -0.493 OA
ATOM     28  C   UNL A   1      48.149  34.997  27.334  1.00  0.00     0.278 C 
ENDBRANCH  22  27
BRANCH  24  29
ATOM     29  O   UNL A   1      45.126  37.986  26.610  1.00  0.00    -0.502 OA
ATOM     30  H   UNL A   1      46.022  38.250  26.681  1.00  0.00     0.293 HD
ENDBRANCH  24  29
BRANCH  25  31
ATOM     31  O   UNL A   1      42.281  37.090  26.782  1.00  0.00    -0.493 OA
ATOM     32  C   UNL A   1      41.908  38.487  27.231  1.00  0.00     0.278 C 
ENDBRANCH  25  31
ENDBRANCH  10  21
ENDBRANCH   8   9
ENDBRANCH   5   8
ENDBRANCH   3   5
ENDBRANCH   2   3
ENDBRANCH   1   2
BRANCH   1  33
ATOM     33  C   UNL A   1      42.358  37.584  38.868  1.00  0.00     0.275 C 
BRANCH  33  34
ATOM     34  O   UNL A   1      41.014  37.034  39.538  1.00  0.00    -0.458 OA
BRANCH  34  35
ATOM     35  C   UNL A   1      39.730  36.961  38.941  1.00  0.00     0.338 C 
ATOM     36  O   UNL A   1      38.842  37.811  39.102  1.00  0.00    -0.246 OA
BRANCH  35  37
ATOM     37  C   UNL A   1      39.556  35.854  37.825  1.00  0.00     0.060 A 
ATOM     38  C   UNL A   1      39.967  36.077  36.490  1.00  0.00     0.016 A 
ATOM     39  C   UNL A   1      38.940  34.621  38.002  1.00  0.00     0.016 A 
ATOM     40  C   UNL A   1      40.187  35.045  35.535  1.00  0.00     0.010 A 
ATOM     41  C   UNL A   1      38.965  33.617  36.966  1.00  0.00     0.010 A 
ATOM     42  C   UNL A   1      39.677  33.774  35.753  1.00  0.00    -0.014 A 
BRANCH  42  43
ATOM     43  C   UNL A   1      39.657  32.764  34.622  1.00  0.00     0.031 A 
ATOM     44  C   UNL A   1      40.685  31.656  34.647  1.00  0.00     0.074 A 
ATOM     45  C   UNL A   1      38.731  32.696  33.634  1.00  0.00     0.049 A 
ATOM     46  N   UNL A   1      41.042  30.807  33.713  1.00  0.00    -0.248 NA
ATOM     47  C   UNL A   1      41.391  31.478  35.922  1.00  0.00     0.031 C 
ATOM     48  C   UNL A   1      37.532  33.522  33.517  1.00  0.00     0.029 A 
ATOM     49  N   UNL A   1      38.664  31.874  32.516  1.00  0.00    -0.354 N 
ATOM     50  C   UNL A   1      42.061  30.041  34.268  1.00  0.00     0.074 A 
ATOM     51  C   UNL A   1      42.243  30.509  35.626  1.00  0.00     0.031 C 
ATOM     52  C   UNL A   1      36.874  33.193  32.386  1.00  0.00     0.029 A 
ATOM     53  C   UNL A   1      37.632  32.178  31.651  1.00  0.00     0.049 A 
ATOM     54  H   UNL A   1      39.297  31.139  32.354  1.00  0.00     0.167 HD
ATOM     55  C   UNL A   1      42.792  29.049  33.702  1.00  0.00     0.037 A 
ATOM     56  C   UNL A   1      37.355  31.741  30.397  1.00  0.00     0.037 A 
ATOM     57  C   UNL A   1      42.597  28.534  32.370  1.00  0.00     0.049 A 
ATOM     58  C   UNL A   1      38.266  30.735  29.718  1.00  0.00     0.074 A 
ATOM     59  C   UNL A   1      43.319  27.550  31.713  1.00  0.00     0.029 A 
ATOM     60  N   UNL A   1      41.605  28.946  31.498  1.00  0.00    -0.354 N 
ATOM     61  N   UNL A   1      39.306  30.099  30.199  1.00  0.00    -0.248 NA
ATOM     62  C   UNL A   1      37.976  30.404  28.310  1.00  0.00     0.031 C 
ATOM     63  C   UNL A   1      42.797  27.408  30.424  1.00  0.00     0.029 A 
ATOM     64  C   UNL A   1      41.709  28.254  30.301  1.00  0.00     0.049 A 
ATOM     65  H   UNL A   1      40.924  29.629  31.698  1.00  0.00     0.167 HD
ATOM     66  C   UNL A   1      39.768  29.279  29.173  1.00  0.00     0.074 A 
ATOM     67  C   UNL A   1      38.893  29.484  28.042  1.00  0.00     0.031 C 
ATOM     68  C   UNL A   1      40.829  28.433  29.174  1.00  0.00     0.037 A 
BRANCH  55  69
ATOM     69  C   UNL A   1      43.939  28.499  34.499  1.00  0.00     0.064 A 
ATOM     70  C   UNL A   1      43.814  27.363  35.311  1.00  0.00     0.173 A 
ATOM     71  C   UNL A   1      45.199  29.115  34.422  1.00  0.00     0.173 A 
ATOM     72  F   UNL A   1      42.628  26.748  35.434  1.00  0.00    -0.203 F 
ATOM     73  C   UNL A   1      44.901  26.882  36.038  1.00  0.00     0.198 A 
ATOM     74  C   UNL A   1      46.291  28.610  35.121  1.00  0.00     0.198 A 
ATOM     75  F   UNL A   1      45.375  30.201  33.653  1.00  0.00    -0.203 F 
ATOM     76  F   UNL A   1      44.746  25.828  36.851  1.00  0.00    -0.200 F 
ATOM     77  C   UNL A   1      46.138  27.501  35.936  1.00  0.00     0.200 A 
ATOM     78  F   UNL A   1      47.489  29.200  35.007  1.00  0.00    -0.200 F 
ATOM     79  F   UNL A   1      47.184  27.030  36.630  1.00  0.00    -0.200 F 
ENDBRANCH  55  69
BRANCH  56  80
ATOM     80  C   UNL A   1      36.204  32.307  29.624  1.00  0.00     0.064 A 
ATOM     81  C   UNL A   1      35.145  31.499  29.179  1.00  0.00     0.173 A 
ATOM     82  C   UNL A   1      36.186  33.656  29.237  1.00  0.00     0.173 A 
ATOM     83  F   UNL A   1      35.137  30.188  29.464  1.00  0.00    -0.203 F 
ATOM     84  C   UNL A   1      34.125  32.014  28.377  1.00  0.00     0.198 A 
ATOM     85  C   UNL A   1      35.148  34.179  28.464  1.00  0.00     0.198 A 
ATOM     86  F   UNL A   1      37.189  34.471  29.597  1.00  0.00    -0.203 F 
ATOM     87  F   UNL A   1      33.162  31.204  27.914  1.00  0.00    -0.200 F 
ATOM     88  C   UNL A   1      34.122  33.356  28.028  1.00  0.00     0.200 A 
ATOM     89  F   UNL A   1      35.153  35.477  28.129  1.00  0.00    -0.200 F 
ATOM     90  F   UNL A   1      33.144  33.851  27.257  1.00  0.00    -0.200 F 
ENDBRANCH  56  80
BRANCH  68  91
ATOM     91  C   UNL A   1      41.085  27.608  27.942  1.00  0.00     0.064 A 
ATOM     92  C   UNL A   1      41.794  28.112  26.842  1.00  0.00     0.173 A 
ATOM     93  C   UNL A   1      40.660  26.270  27.884  1.00  0.00     0.173 A 
ATOM     94  F   UNL A   1      42.216  29.387  26.838  1.00  0.00    -0.203 F 
ATOM     95  C   UNL A   1      42.049  27.319  25.725  1.00  0.00     0.198 A 
ATOM     96  C   UNL A   1      40.943  25.470  26.780  1.00  0.00     0.198 A 
ATOM     97  F   UNL A   1      39.986  25.730  28.911  1.00  0.00    -0.203 F 
ATOM     98  F   UNL A   1      42.693  27.837  24.669  1.00  0.00    -0.200 F 
ATOM     99  C   UNL A   1      41.631  25.996  25.698  1.00  0.00     0.200 A 
ATOM    100  F   UNL A   1      40.553  24.188  26.764  1.00  0.00    -0.200 F 
ATOM    101  F   UNL A   1      41.887  25.232  24.627  1.00  0.00    -0.200 F 
ENDBRANCH  68  91
ENDBRANCH  42  43
ENDBRANCH  35  37
ENDBRANCH  34  35
ENDBRANCH  33  34
ENDBRANCH   1  33
TORSDOF 17
ENDMDL
MODEL 3
REMARK VINA RESULT:     -11.5      4.295      9.841
REMARK SMILES COc1cc(/C=C2/CCc3cc(OC(C)(C)C(=O)OCCOC(=O)c4ccc(-c5c6nc(c(-c7c(F)c(F)c(F)c(F)c7F)c7ccc([nH]7)c(-c7c(F)c(F)c(F)c(F)c7F)c7nc(c(-c8c(F)c(F)c(F)c(F)c8F)c8ccc5[nH]8)C=C7)C=C6)cc4)ccc3C2=O)cc(OC)c1O
REMARK SMILES IDX 20 1 19 2 17 3 18 4 14 5 15 6 16 7 13 8 12 9 6 10 7 11 8 12
REMARK SMILES IDX 91 13 9 14 90 15 92 16 10 17 89 18 11 19 88 20 5 21 3 22
REMARK SMILES IDX 4 23 97 24 94 25 93 26 2 27 1 28 98 29 95 31 96 32 21 33
REMARK SMILES IDX 22 34 23 35 24 36 25 37 26 38 87 39 27 40 86 41 28 42 29 43
REMARK SMILES IDX 30 44 80 45 31 46 85 47 79 48 81 49 32 50 84 51 78 52 77 53
REMARK SMILES IDX 33 55 65 56 45 57 64 58 46 59 49 60 63 61 82 62 47 63 48 64
REMARK SMILES IDX 62 66 83 67 50 68 34 69 35 70 43 71 36 72 37 73 41 74 44 75
REMARK SMILES IDX 38 76 39 77 42 78 40 79 66 80 67 81 75 82 68 83 69 84 73 85
REMARK SMILES IDX 76 86 70 87 71 88 74 89 72 90 51 91 52 92 60 93 53 94 54 95
REMARK SMILES IDX 58 96 61 97 55 98 56 99 59 100 57 101
REMARK H PARENT 98 30 81 54 49 65
REMARK Flexibility Score: inf
ROOT
ATOM      1  C   UNL A   1      43.162  36.508  37.938  1.00  0.00     0.274 C 
ENDROOT
BRANCH   1   2
ATOM      2  O   UNL A   1      43.696  37.014  36.431  1.00  0.00    -0.459 OA
BRANCH   2   3
ATOM      3  C   UNL A   1      43.132  36.742  35.096  1.00  0.00     0.350 C 
ATOM      4  O   UNL A   1      42.323  37.508  34.582  1.00  0.00    -0.247 OA
BRANCH   3   5
ATOM      5  C   UNL A   1      43.945  35.430  34.183  1.00  0.00     0.200 C 
ATOM      6  C   UNL A   1      43.420  34.244  34.983  1.00  0.00     0.069 C 
ATOM      7  C   UNL A   1      45.339  35.939  34.338  1.00  0.00     0.069 C 
BRANCH   5   8
ATOM      8  O   UNL A   1      43.950  34.979  32.741  1.00  0.00    -0.476 OA
BRANCH   8   9
ATOM      9  C   UNL A   1      43.413  33.659  32.472  1.00  0.00     0.121 A 
ATOM     10  C   UNL A   1      44.849  32.138  27.319  1.00  0.00     0.016 C 
ATOM     11  C   UNL A   1      44.470  31.558  28.484  1.00  0.00     0.001 C 
ATOM     12  C   UNL A   1      44.791  30.250  29.197  1.00  0.00     0.044 C 
ATOM     13  C   UNL A   1      43.954  32.467  29.483  1.00  0.00     0.189 C 
ATOM     14  C   UNL A   1      44.936  30.439  30.824  1.00  0.00     0.041 C 
ATOM     15  C   UNL A   1      43.008  31.863  30.490  1.00  0.00     0.026 A 
ATOM     16  O   UNL A   1      44.690  33.408  29.762  1.00  0.00    -0.289 OA
ATOM     17  C   UNL A   1      43.960  31.487  31.426  1.00  0.00    -0.033 A 
ATOM     18  C   UNL A   1      41.925  32.648  30.882  1.00  0.00     0.016 A 
ATOM     19  C   UNL A   1      44.239  32.493  32.405  1.00  0.00     0.051 A 
ATOM     20  C   UNL A   1      42.113  33.558  31.932  1.00  0.00     0.047 A 
BRANCH  10  21
ATOM     21  C   UNL A   1      45.052  33.639  27.186  1.00  0.00    -0.018 A 
ATOM     22  C   UNL A   1      43.851  35.682  26.586  1.00  0.00     0.165 A 
ATOM     23  C   UNL A   1      43.864  34.328  26.908  1.00  0.00     0.058 A 
ATOM     24  C   UNL A   1      45.081  36.366  26.490  1.00  0.00     0.200 A 
ATOM     25  C   UNL A   1      46.344  35.688  26.584  1.00  0.00     0.165 A 
ATOM     26  C   UNL A   1      46.285  34.348  27.053  1.00  0.00     0.058 A 
BRANCH  22  27
ATOM     27  O   UNL A   1      42.568  36.146  26.450  1.00  0.00    -0.493 OA
ATOM     28  C   UNL A   1      41.807  36.680  27.522  1.00  0.00     0.278 C 
ENDBRANCH  22  27
BRANCH  24  29
ATOM     29  O   UNL A   1      44.995  37.732  26.428  1.00  0.00    -0.502 OA
ATOM     30  H   UNL A   1      44.769  38.222  27.194  1.00  0.00     0.293 HD
ENDBRANCH  24  29
BRANCH  25  31
ATOM     31  O   UNL A   1      47.608  36.284  26.453  1.00  0.00    -0.493 OA
ATOM     32  C   UNL A   1      48.226  37.452  25.714  1.00  0.00     0.278 C 
ENDBRANCH  25  31
ENDBRANCH  10  21
ENDBRANCH   8   9
ENDBRANCH   5   8
ENDBRANCH   3   5
ENDBRANCH   2   3
ENDBRANCH   1   2
BRANCH   1  33
ATOM     33  C   UNL A   1      42.073  37.415  39.106  1.00  0.00     0.275 C 
BRANCH  33  34
ATOM     34  O   UNL A   1      40.699  36.836  39.682  1.00  0.00    -0.458 OA
BRANCH  34  35
ATOM     35  C   UNL A   1      39.452  36.772  39.011  1.00  0.00     0.338 C 
ATOM     36  O   UNL A   1      38.560  37.626  39.121  1.00  0.00    -0.246 OA
BRANCH  35  37
ATOM     37  C   UNL A   1      39.337  35.667  37.884  1.00  0.00     0.060 A 
ATOM     38  C   UNL A   1      39.778  35.909  36.562  1.00  0.00     0.016 A 
ATOM     39  C   UNL A   1      38.750  34.416  38.038  1.00  0.00     0.016 A 
ATOM     40  C   UNL A   1      40.051  34.889  35.608  1.00  0.00     0.010 A 
ATOM     41  C   UNL A   1      38.830  33.420  36.998  1.00  0.00     0.010 A 
ATOM     42  C   UNL A   1      39.570  33.604  35.805  1.00  0.00    -0.014 A 
BRANCH  42  43
ATOM     43  C   UNL A   1      39.607  32.601  34.669  1.00  0.00     0.031 A 
ATOM     44  C   UNL A   1      40.632  31.492  34.739  1.00  0.00     0.074 A 
ATOM     45  C   UNL A   1      38.732  32.539  33.634  1.00  0.00     0.049 A 
ATOM     46  N   UNL A   1      41.037  30.649  33.819  1.00  0.00    -0.248 NA
ATOM     47  C   UNL A   1      41.273  31.307  36.047  1.00  0.00     0.031 C 
ATOM     48  C   UNL A   1      37.540  33.365  33.461  1.00  0.00     0.029 A 
ATOM     49  N   UNL A   1      38.722  31.724  32.509  1.00  0.00    -0.354 N 
ATOM     50  C   UNL A   1      42.026  29.879  34.421  1.00  0.00     0.074 A 
ATOM     51  C   UNL A   1      42.140  30.340  35.788  1.00  0.00     0.031 C 
ATOM     52  C   UNL A   1      36.941  33.044  32.297  1.00  0.00     0.029 A 
ATOM     53  C   UNL A   1      37.735  32.032  31.595  1.00  0.00     0.049 A 
ATOM     54  H   UNL A   1      39.363  30.989  32.376  1.00  0.00     0.167 HD
ATOM     55  C   UNL A   1      42.785  28.891  33.886  1.00  0.00     0.037 A 
ATOM     56  C   UNL A   1      37.522  31.603  30.327  1.00  0.00     0.037 A 
ATOM     57  C   UNL A   1      42.658  28.384  32.543  1.00  0.00     0.049 A 
ATOM     58  C   UNL A   1      38.467  30.601  29.688  1.00  0.00     0.074 A 
ATOM     59  C   UNL A   1      43.413  27.404  31.917  1.00  0.00     0.029 A 
ATOM     60  N   UNL A   1      41.711  28.801  31.624  1.00  0.00    -0.354 N 
ATOM     61  N   UNL A   1      39.481  29.962  30.218  1.00  0.00    -0.248 NA
ATOM     62  C   UNL A   1      38.248  30.278  28.265  1.00  0.00     0.031 C 
ATOM     63  C   UNL A   1      42.957  27.269  30.603  1.00  0.00     0.029 A 
ATOM     64  C   UNL A   1      41.877  28.117  30.430  1.00  0.00     0.049 A 
ATOM     65  H   UNL A   1      41.021  29.483  31.793  1.00  0.00     0.167 HD
ATOM     66  C   UNL A   1      39.995  29.148  29.212  1.00  0.00     0.074 A 
ATOM     67  C   UNL A   1      39.177  29.360  28.039  1.00  0.00     0.031 C 
ATOM     68  C   UNL A   1      41.055  28.303  29.261  1.00  0.00     0.037 A 
BRANCH  55  69
ATOM     69  C   UNL A   1      43.890  28.336  34.737  1.00  0.00     0.064 A 
ATOM     70  C   UNL A   1      45.150  28.943  34.826  1.00  0.00     0.173 A 
ATOM     71  C   UNL A   1      43.665  27.179  35.501  1.00  0.00     0.173 A 
ATOM     72  F   UNL A   1      45.422  30.041  34.102  1.00  0.00    -0.203 F 
ATOM     73  C   UNL A   1      46.152  28.398  35.625  1.00  0.00     0.198 A 
ATOM     74  C   UNL A   1      44.656  26.657  36.327  1.00  0.00     0.198 A 
ATOM     75  F   UNL A   1      42.474  26.560  35.458  1.00  0.00    -0.203 F 
ATOM     76  F   UNL A   1      47.366  28.965  35.653  1.00  0.00    -0.200 F 
ATOM     77  C   UNL A   1      45.902  27.261  36.380  1.00  0.00     0.200 A 
ATOM     78  F   UNL A   1      44.406  25.568  37.067  1.00  0.00    -0.200 F 
ATOM     79  F   UNL A   1      46.865  26.744  37.155  1.00  0.00    -0.200 F 
ENDBRANCH  55  69
BRANCH  56  80
ATOM     80  C   UNL A   1      36.412  32.174  29.499  1.00  0.00     0.064 A 
ATOM     81  C   UNL A   1      36.366  33.538  29.166  1.00  0.00     0.173 A 
ATOM     82  C   UNL A   1      35.325  31.380  29.100  1.00  0.00     0.173 A 
ATOM     83  F   UNL A   1      37.344  34.360  29.572  1.00  0.00    -0.203 F 
ATOM     84  C   UNL A   1      35.279  34.081  28.477  1.00  0.00     0.198 A 
ATOM     85  C   UNL A   1      34.256  31.917  28.382  1.00  0.00     0.198 A 
ATOM     86  F   UNL A   1      35.290  30.079  29.422  1.00  0.00    -0.203 F 
ATOM     87  F   UNL A   1      35.234  35.398  28.230  1.00  0.00    -0.200 F 
ATOM     88  C   UNL A   1      34.230  33.268  28.076  1.00  0.00     0.200 A 
ATOM     89  F   UNL A   1      33.243  31.126  28.000  1.00  0.00    -0.200 F 
ATOM     90  F   UNL A   1      33.186  33.790  27.417  1.00  0.00    -0.200 F 
ENDBRANCH  56  80
BRANCH  68  91
ATOM     91  C   UNL A   1      41.372  27.485  28.038  1.00  0.00     0.064 A 
ATOM     92  C   UNL A   1      42.140  27.994  26.981  1.00  0.00     0.173 A 
ATOM     93  C   UNL A   1      40.948  26.148  27.950  1.00  0.00     0.173 A 
ATOM     94  F   UNL A   1      42.564  29.267  27.007  1.00  0.00    -0.203 F 
ATOM     95  C   UNL A   1      42.451  27.207  25.873  1.00  0.00     0.198 A 
ATOM     96  C   UNL A   1      41.286  25.355  26.856  1.00  0.00     0.198 A 
ATOM     97  F   UNL A   1      40.219  25.604  28.935  1.00  0.00    -0.203 F 
ATOM     98  F   UNL A   1      43.150  27.730  24.856  1.00  0.00    -0.200 F 
ATOM     99  C   UNL A   1      42.031  25.886  25.815  1.00  0.00     0.200 A 
ATOM    100  F   UNL A   1      40.895  24.074  26.811  1.00  0.00    -0.200 F 
ATOM    101  F   UNL A   1      42.341  25.128  24.754  1.00  0.00    -0.200 F 
ENDBRANCH  68  91
ENDBRANCH  42  43
ENDBRANCH  35  37
ENDBRANCH  34  35
ENDBRANCH  33  34
ENDBRANCH   1  33
TORSDOF 17
ENDMDL
