MODEL 1
REMARK VINA RESULT:     -12.2      0.000      0.000
REMARK SMILES Cc1ccc([C@H](C)[N@@H+](CC(=O)OCCOC(=O)c2ccc(-c3c4nc(c(-c5c(F)c(F)c(F)c(F)c5F)c5ccc([nH]5)c(-c5c(F)c(F)c(F)c(F)c5F)c5nc(c(-c6c(F)c(F)c(F)c(F)c6F)c6ccc3[nH]6)C=C5)C=C4)cc2)CC(F)(F)F)cc1
REMARK SMILES IDX 13 1 12 2 10 3 11 4 9 5 8 6 6 8 7 9 5 10 1 11 2 12 3 13
REMARK SMILES IDX 87 14 4 15 86 16 81 17 82 18 83 19 84 20 85 21 14 22 15 23
REMARK SMILES IDX 16 24 17 25 18 26 19 27 80 28 20 29 79 30 21 31 22 32 23 33
REMARK SMILES IDX 73 34 24 35 78 36 72 37 74 38 25 39 77 40 71 41 70 42 26 44
REMARK SMILES IDX 58 45 38 46 57 47 39 48 42 49 56 50 75 51 40 52 41 53 55 55
REMARK SMILES IDX 76 56 43 57 27 58 28 59 36 60 29 61 30 62 34 63 37 64 31 65
REMARK SMILES IDX 32 66 35 67 33 68 59 69 60 70 68 71 61 72 62 73 66 74 69 75
REMARK SMILES IDX 63 76 64 77 67 78 65 79 44 80 45 81 53 82 46 83 47 84 51 85
REMARK SMILES IDX 54 86 48 87 49 88 52 89 50 90
REMARK H PARENT 8 7 74 43 42 54
REMARK Flexibility Score: inf
ROOT
ATOM      1  C   UNL A   1      37.250  23.359  24.553  1.00  0.00     0.274 C 
ENDROOT
BRANCH   1   2
ATOM      2  O   UNL A   1      36.065  22.566  24.446  1.00  0.00    -0.458 OA
BRANCH   2   3
ATOM      3  C   UNL A   1      36.114  21.382  25.080  1.00  0.00     0.361 C 
ATOM      4  O   UNL A   1      37.079  20.639  25.006  1.00  0.00    -0.245 OA
BRANCH   3   5
ATOM      5  C   UNL A   1      34.825  21.059  25.819  1.00  0.00     0.387 C 
BRANCH   5   6
ATOM      6  N   UNL A   1      33.707  21.864  25.301  1.00  0.00    -0.312 N 
ATOM      7  H   UNL A   1      34.065  22.690  24.822  1.00  0.00     0.349 HD
BRANCH   6   8
ATOM      8  C   UNL A   1      32.976  22.645  26.328  1.00  0.00     0.212 C 
ATOM      9  C   UNL A   1      33.381  22.364  27.774  1.00  0.00     0.081 C 
BRANCH   8  10
ATOM     10  C   UNL A   1      32.811  24.141  26.009  1.00  0.00     0.009 A 
ATOM     11  C   UNL A   1      32.903  28.444  26.443  1.00  0.00     0.044 C 
ATOM     12  C   UNL A   1      32.835  26.970  26.170  1.00  0.00    -0.051 A 
ATOM     13  C   UNL A   1      33.950  26.283  25.686  1.00  0.00     0.004 A 
ATOM     14  C   UNL A   1      31.663  26.249  26.428  1.00  0.00     0.004 A 
ATOM     15  C   UNL A   1      33.937  24.886  25.602  1.00  0.00     0.010 A 
ATOM     16  C   UNL A   1      31.644  24.848  26.329  1.00  0.00     0.010 A 
ENDBRANCH   8  10
ENDBRANCH   6   8
BRANCH   6  17
ATOM     17  C   UNL A   1      33.042  21.281  24.099  1.00  0.00     0.380 C 
BRANCH  17  18
ATOM     18  C   UNL A   1      32.364  22.000  22.889  1.00  0.00     0.438 C 
ATOM     19  F   UNL A   1      31.340  22.799  23.249  1.00  0.00    -0.165 F 
ATOM     20  F   UNL A   1      33.292  22.811  22.304  1.00  0.00    -0.165 F 
ATOM     21  F   UNL A   1      31.943  21.180  21.910  1.00  0.00    -0.165 F 
ENDBRANCH  17  18
ENDBRANCH   6  17
ENDBRANCH   5   6
ENDBRANCH   3   5
ENDBRANCH   2   3
ENDBRANCH   1   2
BRANCH   1  22
ATOM     22  C   UNL A   1      37.763  23.832  25.959  1.00  0.00     0.275 C 
BRANCH  22  23
ATOM     23  O   UNL A   1      39.189  23.930  26.400  1.00  0.00    -0.458 OA
BRANCH  23  24
ATOM     24  C   UNL A   1      39.992  24.390  27.408  1.00  0.00     0.338 C 
ATOM     25  O   UNL A   1      40.738  23.675  28.030  1.00  0.00    -0.246 OA
BRANCH  24  26
ATOM     26  C   UNL A   1      39.988  25.837  27.692  1.00  0.00     0.060 A 
ATOM     27  C   UNL A   1      40.321  26.869  26.798  1.00  0.00     0.016 A 
ATOM     28  C   UNL A   1      39.519  26.177  28.915  1.00  0.00     0.016 A 
ATOM     29  C   UNL A   1      40.067  28.205  27.180  1.00  0.00     0.010 A 
ATOM     30  C   UNL A   1      38.785  27.316  28.979  1.00  0.00     0.010 A 
ATOM     31  C   UNL A   1      39.271  28.412  28.306  1.00  0.00    -0.014 A 
BRANCH  31  32
ATOM     32  C   UNL A   1      39.076  29.587  29.152  1.00  0.00     0.031 A 
ATOM     33  C   UNL A   1      38.023  30.567  28.930  1.00  0.00     0.074 A 
ATOM     34  C   UNL A   1      39.738  29.552  30.344  1.00  0.00     0.049 A 
ATOM     35  N   UNL A   1      38.219  31.839  28.931  1.00  0.00    -0.248 NA
ATOM     36  C   UNL A   1      36.625  30.170  28.799  1.00  0.00     0.031 C 
ATOM     37  C   UNL A   1      39.646  30.372  31.535  1.00  0.00     0.029 A 
ATOM     38  N   UNL A   1      40.738  28.615  30.692  1.00  0.00    -0.354 N 
ATOM     39  C   UNL A   1      36.981  32.405  29.144  1.00  0.00     0.074 A 
ATOM     40  C   UNL A   1      36.011  31.357  28.887  1.00  0.00     0.031 C 
ATOM     41  C   UNL A   1      40.754  30.151  32.280  1.00  0.00     0.029 A 
ATOM     42  C   UNL A   1      41.632  29.235  31.550  1.00  0.00     0.049 A 
ATOM     43  H   UNL A   1      40.791  27.683  30.380  1.00  0.00     0.167 HD
ATOM     44  C   UNL A   1      36.872  33.586  29.820  1.00  0.00     0.037 A 
ATOM     45  C   UNL A   1      42.881  29.440  31.044  1.00  0.00     0.037 A 
ATOM     46  C   UNL A   1      38.131  33.891  30.508  1.00  0.00     0.049 A 
ATOM     47  C   UNL A   1      43.090  30.900  30.754  1.00  0.00     0.074 A 
ATOM     48  C   UNL A   1      38.494  33.718  31.835  1.00  0.00     0.029 A 
ATOM     49  N   UNL A   1      39.318  34.070  29.803  1.00  0.00    -0.354 N 
ATOM     50  N   UNL A   1      42.127  31.774  30.753  1.00  0.00    -0.248 NA
ATOM     51  C   UNL A   1      44.377  31.477  30.388  1.00  0.00     0.031 C 
ATOM     52  C   UNL A   1      39.907  33.731  31.916  1.00  0.00     0.029 A 
ATOM     53  C   UNL A   1      40.412  33.920  30.643  1.00  0.00     0.049 A 
ATOM     54  H   UNL A   1      39.375  34.275  28.842  1.00  0.00     0.167 HD
ATOM     55  C   UNL A   1      42.602  32.975  30.333  1.00  0.00     0.074 A 
ATOM     56  C   UNL A   1      44.026  32.754  30.156  1.00  0.00     0.031 C 
ATOM     57  C   UNL A   1      41.770  34.035  30.132  1.00  0.00     0.037 A 
BRANCH  44  58
ATOM     58  C   UNL A   1      35.550  34.234  30.175  1.00  0.00     0.064 A 
ATOM     59  C   UNL A   1      34.735  34.849  29.201  1.00  0.00     0.173 A 
ATOM     60  C   UNL A   1      35.010  34.226  31.478  1.00  0.00     0.173 A 
ATOM     61  F   UNL A   1      35.059  34.837  27.903  1.00  0.00    -0.203 F 
ATOM     62  C   UNL A   1      33.536  35.493  29.518  1.00  0.00     0.198 A 
ATOM     63  C   UNL A   1      33.822  34.895  31.801  1.00  0.00     0.198 A 
ATOM     64  F   UNL A   1      35.603  33.543  32.469  1.00  0.00    -0.203 F 
ATOM     65  F   UNL A   1      32.816  36.069  28.546  1.00  0.00    -0.200 F 
ATOM     66  C   UNL A   1      33.091  35.537  30.822  1.00  0.00     0.200 A 
ATOM     67  F   UNL A   1      33.390  34.911  33.071  1.00  0.00    -0.200 F 
ATOM     68  F   UNL A   1      31.951  36.173  31.128  1.00  0.00    -0.200 F 
ENDBRANCH  44  58
BRANCH  45  69
ATOM     69  C   UNL A   1      43.376  28.321  30.158  1.00  0.00     0.064 A 
ATOM     70  C   UNL A   1      43.639  27.057  30.730  1.00  0.00     0.173 A 
ATOM     71  C   UNL A   1      43.331  28.372  28.756  1.00  0.00     0.173 A 
ATOM     72  F   UNL A   1      43.644  26.913  32.065  1.00  0.00    -0.203 F 
ATOM     73  C   UNL A   1      43.805  25.909  29.950  1.00  0.00     0.198 A 
ATOM     74  C   UNL A   1      43.513  27.222  27.974  1.00  0.00     0.198 A 
ATOM     75  F   UNL A   1      43.039  29.519  28.127  1.00  0.00    -0.203 F 
ATOM     76  F   UNL A   1      43.960  24.714  30.541  1.00  0.00    -0.200 F 
ATOM     77  C   UNL A   1      43.738  25.991  28.571  1.00  0.00     0.200 A 
ATOM     78  F   UNL A   1      43.411  27.297  26.639  1.00  0.00    -0.200 F 
ATOM     79  F   UNL A   1      43.844  24.883  27.826  1.00  0.00    -0.200 F 
ENDBRANCH  45  69
BRANCH  57  80
ATOM     80  C   UNL A   1      42.209  35.322  29.517  1.00  0.00     0.064 A 
ATOM     81  C   UNL A   1      41.704  35.806  28.303  1.00  0.00     0.173 A 
ATOM     82  C   UNL A   1      43.093  36.168  30.218  1.00  0.00     0.173 A 
ATOM     83  F   UNL A   1      40.764  35.134  27.622  1.00  0.00    -0.203 F 
ATOM     84  C   UNL A   1      42.127  37.025  27.778  1.00  0.00     0.198 A 
ATOM     85  C   UNL A   1      43.462  37.412  29.721  1.00  0.00     0.198 A 
ATOM     86  F   UNL A   1      43.603  35.815  31.408  1.00  0.00    -0.203 F 
ATOM     87  F   UNL A   1      41.670  37.423  26.582  1.00  0.00    -0.200 F 
ATOM     88  C   UNL A   1      42.999  37.829  28.489  1.00  0.00     0.200 A 
ATOM     89  F   UNL A   1      44.262  38.205  30.446  1.00  0.00    -0.200 F 
ATOM     90  F   UNL A   1      43.381  39.013  27.994  1.00  0.00    -0.200 F 
ENDBRANCH  57  80
ENDBRANCH  31  32
ENDBRANCH  24  26
ENDBRANCH  23  24
ENDBRANCH  22  23
ENDBRANCH   1  22
TORSDOF 16
ENDMDL
MODEL 2
REMARK VINA RESULT:     -12.1      3.678      9.730
REMARK SMILES Cc1ccc([C@H](C)[N@@H+](CC(=O)OCCOC(=O)c2ccc(-c3c4nc(c(-c5c(F)c(F)c(F)c(F)c5F)c5ccc([nH]5)c(-c5c(F)c(F)c(F)c(F)c5F)c5nc(c(-c6c(F)c(F)c(F)c(F)c6F)c6ccc3[nH]6)C=C5)C=C4)cc2)CC(F)(F)F)cc1
REMARK SMILES IDX 13 1 12 2 10 3 11 4 9 5 8 6 6 8 7 9 5 10 1 11 2 12 3 13
REMARK SMILES IDX 87 14 4 15 86 16 81 17 82 18 83 19 84 20 85 21 14 22 15 23
REMARK SMILES IDX 16 24 17 25 18 26 19 27 80 28 20 29 79 30 21 31 22 32 23 33
REMARK SMILES IDX 73 34 24 35 78 36 72 37 74 38 25 39 77 40 71 41 70 42 26 44
REMARK SMILES IDX 58 45 38 46 57 47 39 48 42 49 56 50 75 51 40 52 41 53 55 55
REMARK SMILES IDX 76 56 43 57 27 58 28 59 36 60 29 61 30 62 34 63 37 64 31 65
REMARK SMILES IDX 32 66 35 67 33 68 59 69 60 70 68 71 61 72 62 73 66 74 69 75
REMARK SMILES IDX 63 76 64 77 67 78 65 79 44 80 45 81 53 82 46 83 47 84 51 85
REMARK SMILES IDX 54 86 48 87 49 88 52 89 50 90
REMARK H PARENT 8 7 74 43 42 54
REMARK Flexibility Score: inf
ROOT
ATOM      1  C   UNL A   1      33.615  28.672  25.399  1.00  0.00     0.274 C 
ENDROOT
BRANCH   1   2
ATOM      2  O   UNL A   1      33.980  27.616  24.506  1.00  0.00    -0.458 OA
BRANCH   2   3
ATOM      3  C   UNL A   1      33.484  27.727  23.261  1.00  0.00     0.361 C 
ATOM      4  O   UNL A   1      33.359  28.802  22.699  1.00  0.00    -0.245 OA
BRANCH   3   5
ATOM      5  C   UNL A   1      33.041  26.391  22.687  1.00  0.00     0.387 C 
BRANCH   5   6
ATOM      6  N   UNL A   1      32.801  25.411  23.758  1.00  0.00    -0.312 N 
ATOM      7  H   UNL A   1      33.397  25.618  24.559  1.00  0.00     0.349 HD
BRANCH   6   8
ATOM      8  C   UNL A   1      33.398  24.074  23.523  1.00  0.00     0.212 C 
ATOM      9  C   UNL A   1      33.143  23.479  22.140  1.00  0.00     0.081 C 
BRANCH   8  10
ATOM     10  C   UNL A   1      34.850  23.918  24.008  1.00  0.00     0.009 A 
ATOM     11  C   UNL A   1      38.374  22.244  25.876  1.00  0.00     0.044 C 
ATOM     12  C   UNL A   1      37.227  22.920  25.182  1.00  0.00    -0.051 A 
ATOM     13  C   UNL A   1      36.905  22.597  23.863  1.00  0.00     0.004 A 
ATOM     14  C   UNL A   1      36.436  23.858  25.855  1.00  0.00     0.004 A 
ATOM     15  C   UNL A   1      35.733  23.094  23.280  1.00  0.00     0.010 A 
ATOM     16  C   UNL A   1      35.269  24.370  25.267  1.00  0.00     0.010 A 
ENDBRANCH   8  10
ENDBRANCH   6   8
BRANCH   6  17
ATOM     17  C   UNL A   1      31.514  25.609  24.487  1.00  0.00     0.380 C 
BRANCH  17  18
ATOM     18  C   UNL A   1      31.228  25.602  26.023  1.00  0.00     0.438 C 
ATOM     19  F   UNL A   1      30.791  24.412  26.479  1.00  0.00    -0.165 F 
ATOM     20  F   UNL A   1      32.401  25.851  26.673  1.00  0.00    -0.165 F 
ATOM     21  F   UNL A   1      30.381  26.558  26.443  1.00  0.00    -0.165 F 
ENDBRANCH  17  18
ENDBRANCH   6  17
ENDBRANCH   5   6
ENDBRANCH   3   5
ENDBRANCH   2   3
ENDBRANCH   1   2
BRANCH   1  22
ATOM     22  C   UNL A   1      34.366  28.847  26.766  1.00  0.00     0.275 C 
BRANCH  22  23
ATOM     23  O   UNL A   1      34.710  30.141  27.433  1.00  0.00    -0.458 OA
BRANCH  23  24
ATOM     24  C   UNL A   1      35.477  30.689  28.425  1.00  0.00     0.338 C 
ATOM     25  O   UNL A   1      35.163  31.691  29.020  1.00  0.00    -0.246 OA
BRANCH  24  26
ATOM     26  C   UNL A   1      36.706  29.979  28.824  1.00  0.00     0.060 A 
ATOM     27  C   UNL A   1      36.918  29.278  30.024  1.00  0.00     0.016 A 
ATOM     28  C   UNL A   1      37.672  29.933  27.878  1.00  0.00     0.016 A 
ATOM     29  C   UNL A   1      38.083  28.489  30.152  1.00  0.00     0.010 A 
ATOM     30  C   UNL A   1      38.388  28.783  27.809  1.00  0.00     0.010 A 
ATOM     31  C   UNL A   1      38.823  28.245  28.996  1.00  0.00    -0.014 A 
BRANCH  31  32
ATOM     32  C   UNL A   1      40.193  27.773  28.804  1.00  0.00     0.031 A 
ATOM     33  C   UNL A   1      40.520  26.449  28.296  1.00  0.00     0.074 A 
ATOM     34  C   UNL A   1      41.145  28.749  28.834  1.00  0.00     0.049 A 
ATOM     35  N   UNL A   1      41.392  25.671  28.836  1.00  0.00    -0.248 NA
ATOM     36  C   UNL A   1      39.951  25.947  27.049  1.00  0.00     0.031 C 
ATOM     37  C   UNL A   1      42.549  28.753  28.475  1.00  0.00     0.029 A 
ATOM     38  N   UNL A   1      40.932  30.082  29.254  1.00  0.00    -0.354 N 
ATOM     39  C   UNL A   1      41.736  24.765  27.857  1.00  0.00     0.074 A 
ATOM     40  C   UNL A   1      40.709  24.864  26.838  1.00  0.00     0.031 C 
ATOM     41  C   UNL A   1      43.117  29.852  29.023  1.00  0.00     0.029 A 
ATOM     42  C   UNL A   1      42.106  30.550  29.820  1.00  0.00     0.049 A 
ATOM     43  H   UNL A   1      40.094  30.589  29.162  1.00  0.00     0.167 HD
ATOM     44  C   UNL A   1      42.998  24.244  27.815  1.00  0.00     0.037 A 
ATOM     45  C   UNL A   1      42.059  30.779  31.163  1.00  0.00     0.037 A 
ATOM     46  C   UNL A   1      43.895  25.027  28.672  1.00  0.00     0.049 A 
ATOM     47  C   UNL A   1      42.842  29.728  31.897  1.00  0.00     0.074 A 
ATOM     48  C   UNL A   1      44.810  26.017  28.349  1.00  0.00     0.029 A 
ATOM     49  N   UNL A   1      43.674  25.140  30.043  1.00  0.00    -0.354 N 
ATOM     50  N   UNL A   1      43.275  28.637  31.337  1.00  0.00    -0.248 NA
ATOM     51  C   UNL A   1      43.149  29.792  33.320  1.00  0.00     0.031 C 
ATOM     52  C   UNL A   1      45.090  26.765  29.516  1.00  0.00     0.029 A 
ATOM     53  C   UNL A   1      44.356  26.231  30.559  1.00  0.00     0.049 A 
ATOM     54  H   UNL A   1      43.111  24.530  30.572  1.00  0.00     0.167 HD
ATOM     55  C   UNL A   1      43.833  27.832  32.277  1.00  0.00     0.074 A 
ATOM     56  C   UNL A   1      43.771  28.613  33.499  1.00  0.00     0.031 C 
ATOM     57  C   UNL A   1      44.261  26.576  31.970  1.00  0.00     0.037 A 
BRANCH  44  58
ATOM     58  C   UNL A   1      43.489  23.312  26.728  1.00  0.00     0.064 A 
ATOM     59  C   UNL A   1      43.201  21.930  26.743  1.00  0.00     0.173 A 
ATOM     60  C   UNL A   1      44.214  23.752  25.600  1.00  0.00     0.173 A 
ATOM     61  F   UNL A   1      42.427  21.383  27.688  1.00  0.00    -0.203 F 
ATOM     62  C   UNL A   1      43.685  21.048  25.774  1.00  0.00     0.198 A 
ATOM     63  C   UNL A   1      44.723  22.864  24.643  1.00  0.00     0.198 A 
ATOM     64  F   UNL A   1      44.423  25.058  25.380  1.00  0.00    -0.203 F 
ATOM     65  F   UNL A   1      43.386  19.744  25.855  1.00  0.00    -0.200 F 
ATOM     66  C   UNL A   1      44.467  21.511  24.737  1.00  0.00     0.200 A 
ATOM     67  F   UNL A   1      45.463  23.332  23.628  1.00  0.00    -0.200 F 
ATOM     68  F   UNL A   1      44.948  20.661  23.819  1.00  0.00    -0.200 F 
ENDBRANCH  44  58
BRANCH  45  69
ATOM     69  C   UNL A   1      40.742  31.343  31.643  1.00  0.00     0.064 A 
ATOM     70  C   UNL A   1      39.851  30.504  32.349  1.00  0.00     0.173 A 
ATOM     71  C   UNL A   1      40.459  32.718  31.676  1.00  0.00     0.173 A 
ATOM     72  F   UNL A   1      40.082  29.183  32.413  1.00  0.00    -0.203 F 
ATOM     73  C   UNL A   1      38.770  31.013  33.075  1.00  0.00     0.198 A 
ATOM     74  C   UNL A   1      39.365  33.225  32.392  1.00  0.00     0.198 A 
ATOM     75  F   UNL A   1      41.277  33.593  31.075  1.00  0.00    -0.203 F 
ATOM     76  F   UNL A   1      38.007  30.186  33.807  1.00  0.00    -0.200 F 
ATOM     77  C   UNL A   1      38.530  32.374  33.100  1.00  0.00     0.200 A 
ATOM     78  F   UNL A   1      39.156  34.549  32.446  1.00  0.00    -0.200 F 
ATOM     79  F   UNL A   1      37.527  32.866  33.840  1.00  0.00    -0.200 F 
ENDBRANCH  45  69
BRANCH  57  80
ATOM     80  C   UNL A   1      44.726  25.591  32.991  1.00  0.00     0.064 A 
ATOM     81  C   UNL A   1      46.044  25.121  33.063  1.00  0.00     0.173 A 
ATOM     82  C   UNL A   1      43.849  25.176  34.015  1.00  0.00     0.173 A 
ATOM     83  F   UNL A   1      46.985  25.554  32.211  1.00  0.00    -0.203 F 
ATOM     84  C   UNL A   1      46.438  24.218  34.048  1.00  0.00     0.198 A 
ATOM     85  C   UNL A   1      44.264  24.326  35.032  1.00  0.00     0.198 A 
ATOM     86  F   UNL A   1      42.577  25.599  34.059  1.00  0.00    -0.203 F 
ATOM     87  F   UNL A   1      47.691  23.742  34.045  1.00  0.00    -0.200 F 
ATOM     88  C   UNL A   1      45.551  23.827  35.035  1.00  0.00     0.200 A 
ATOM     89  F   UNL A   1      43.411  24.001  36.014  1.00  0.00    -0.200 F 
ATOM     90  F   UNL A   1      45.942  22.983  35.997  1.00  0.00    -0.200 F 
ENDBRANCH  57  80
ENDBRANCH  31  32
ENDBRANCH  24  26
ENDBRANCH  23  24
ENDBRANCH  22  23
ENDBRANCH   1  22
TORSDOF 16
ENDMDL
MODEL 3
REMARK VINA RESULT:     -12.0      3.399      9.664
REMARK SMILES Cc1ccc([C@H](C)[N@@H+](CC(=O)OCCOC(=O)c2ccc(-c3c4nc(c(-c5c(F)c(F)c(F)c(F)c5F)c5ccc([nH]5)c(-c5c(F)c(F)c(F)c(F)c5F)c5nc(c(-c6c(F)c(F)c(F)c(F)c6F)c6ccc3[nH]6)C=C5)C=C4)cc2)CC(F)(F)F)cc1
REMARK SMILES IDX 13 1 12 2 10 3 11 4 9 5 8 6 6 8 7 9 5 10 1 11 2 12 3 13
REMARK SMILES IDX 87 14 4 15 86 16 81 17 82 18 83 19 84 20 85 21 14 22 15 23
REMARK SMILES IDX 16 24 17 25 18 26 19 27 80 28 20 29 79 30 21 31 22 32 23 33
REMARK SMILES IDX 73 34 24 35 78 36 72 37 74 38 25 39 77 40 71 41 70 42 26 44
REMARK SMILES IDX 58 45 38 46 57 47 39 48 42 49 56 50 75 51 40 52 41 53 55 55
REMARK SMILES IDX 76 56 43 57 27 58 28 59 36 60 29 61 30 62 34 63 37 64 31 65
REMARK SMILES IDX 32 66 35 67 33 68 59 69 60 70 68 71 61 72 62 73 66 74 69 75
REMARK SMILES IDX 63 76 64 77 67 78 65 79 44 80 45 81 53 82 46 83 47 84 51 85
REMARK SMILES IDX 54 86 48 87 49 88 52 89 50 90
REMARK H PARENT 8 7 74 43 42 54
REMARK Flexibility Score: inf
ROOT
ATOM      1  C   UNL A   1      33.487  28.318  27.071  1.00  0.00     0.274 C 
ENDROOT
BRANCH   1   2
ATOM      2  O   UNL A   1      33.002  27.754  25.849  1.00  0.00    -0.458 OA
BRANCH   2   3
ATOM      3  C   UNL A   1      31.873  27.033  25.965  1.00  0.00     0.361 C 
ATOM      4  O   UNL A   1      31.224  26.993  26.997  1.00  0.00    -0.245 OA
BRANCH   3   5
ATOM      5  C   UNL A   1      31.556  26.237  24.708  1.00  0.00     0.387 C 
BRANCH   5   6
ATOM      6  N   UNL A   1      32.034  24.851  24.829  1.00  0.00    -0.312 N 
ATOM      7  H   UNL A   1      32.556  24.737  25.698  1.00  0.00     0.349 HD
BRANCH   6   8
ATOM      8  C   UNL A   1      33.191  24.515  23.964  1.00  0.00     0.212 C 
ATOM      9  C   UNL A   1      33.698  25.653  23.080  1.00  0.00     0.081 C 
BRANCH   8  10
ATOM     10  C   UNL A   1      34.312  23.724  24.660  1.00  0.00     0.009 A 
ATOM     11  C   UNL A   1      38.204  22.027  25.491  1.00  0.00     0.044 C 
ATOM     12  C   UNL A   1      36.814  22.569  25.317  1.00  0.00    -0.051 A 
ATOM     13  C   UNL A   1      36.485  23.843  25.780  1.00  0.00     0.004 A 
ATOM     14  C   UNL A   1      35.834  21.821  24.655  1.00  0.00     0.004 A 
ATOM     15  C   UNL A   1      35.247  24.413  25.460  1.00  0.00     0.010 A 
ATOM     16  C   UNL A   1      34.585  22.385  24.346  1.00  0.00     0.010 A 
ENDBRANCH   8  10
ENDBRANCH   6   8
BRANCH   6  17
ATOM     17  C   UNL A   1      30.967  23.867  25.176  1.00  0.00     0.380 C 
BRANCH  17  18
ATOM     18  C   UNL A   1      31.004  22.671  26.181  1.00  0.00     0.438 C 
ATOM     19  F   UNL A   1      31.695  22.940  27.306  1.00  0.00    -0.165 F 
ATOM     20  F   UNL A   1      29.724  22.410  26.575  1.00  0.00    -0.165 F 
ATOM     21  F   UNL A   1      31.458  21.516  25.666  1.00  0.00    -0.165 F 
ENDBRANCH  17  18
ENDBRANCH   6  17
ENDBRANCH   5   6
ENDBRANCH   3   5
ENDBRANCH   2   3
ENDBRANCH   1   2
BRANCH   1  22
ATOM     22  C   UNL A   1      33.578  29.876  27.242  1.00  0.00     0.275 C 
BRANCH  22  23
ATOM     23  O   UNL A   1      34.784  30.657  27.655  1.00  0.00    -0.458 OA
BRANCH  23  24
ATOM     24  C   UNL A   1      35.542  31.005  28.740  1.00  0.00     0.338 C 
ATOM     25  O   UNL A   1      35.252  31.914  29.479  1.00  0.00    -0.246 OA
BRANCH  24  26
ATOM     26  C   UNL A   1      36.726  30.183  29.052  1.00  0.00     0.060 A 
ATOM     27  C   UNL A   1      36.864  29.282  30.122  1.00  0.00     0.016 A 
ATOM     28  C   UNL A   1      37.725  30.253  28.143  1.00  0.00     0.016 A 
ATOM     29  C   UNL A   1      37.991  28.431  30.151  1.00  0.00     0.010 A 
ATOM     30  C   UNL A   1      38.398  29.101  27.902  1.00  0.00     0.010 A 
ATOM     31  C   UNL A   1      38.766  28.352  28.994  1.00  0.00    -0.014 A 
BRANCH  31  32
ATOM     32  C   UNL A   1      40.123  27.858  28.769  1.00  0.00     0.031 A 
ATOM     33  C   UNL A   1      40.417  26.508  28.312  1.00  0.00     0.074 A 
ATOM     34  C   UNL A   1      41.083  28.824  28.712  1.00  0.00     0.049 A 
ATOM     35  N   UNL A   1      41.305  25.748  28.853  1.00  0.00    -0.248 NA
ATOM     36  C   UNL A   1      39.792  25.952  27.116  1.00  0.00     0.031 C 
ATOM     37  C   UNL A   1      42.470  28.797  28.295  1.00  0.00     0.029 A 
ATOM     38  N   UNL A   1      40.898  30.178  29.076  1.00  0.00    -0.354 N 
ATOM     39  C   UNL A   1      41.601  24.793  27.906  1.00  0.00     0.074 A 
ATOM     40  C   UNL A   1      40.532  24.852  26.927  1.00  0.00     0.031 C 
ATOM     41  C   UNL A   1      43.069  29.916  28.765  1.00  0.00     0.029 A 
ATOM     42  C   UNL A   1      42.098  30.662  29.568  1.00  0.00     0.049 A 
ATOM     43  H   UNL A   1      40.060  30.689  28.994  1.00  0.00     0.167 HD
ATOM     44  C   UNL A   1      42.856  24.258  27.836  1.00  0.00     0.037 A 
ATOM     45  C   UNL A   1      42.109  30.955  30.900  1.00  0.00     0.037 A 
ATOM     46  C   UNL A   1      43.794  25.072  28.617  1.00  0.00     0.049 A 
ATOM     47  C   UNL A   1      42.915  29.934  31.650  1.00  0.00     0.074 A 
ATOM     48  C   UNL A   1      44.702  26.037  28.207  1.00  0.00     0.029 A 
ATOM     49  N   UNL A   1      43.632  25.253  29.988  1.00  0.00    -0.354 N 
ATOM     50  N   UNL A   1      43.315  28.812  31.126  1.00  0.00    -0.248 NA
ATOM     51  C   UNL A   1      43.282  30.062  33.055  1.00  0.00     0.031 C 
ATOM     52  C   UNL A   1      45.037  26.837  29.324  1.00  0.00     0.029 A 
ATOM     53  C   UNL A   1      44.344  26.361  30.422  1.00  0.00     0.049 A 
ATOM     54  H   UNL A   1      43.087  24.675  30.569  1.00  0.00     0.167 HD
ATOM     55  C   UNL A   1      43.905  28.048  32.081  1.00  0.00     0.074 A 
ATOM     56  C   UNL A   1      43.901  28.887  33.264  1.00  0.00     0.031 C 
ATOM     57  C   UNL A   1      44.311  26.774  31.817  1.00  0.00     0.037 A 
BRANCH  44  58
ATOM     58  C   UNL A   1      43.293  23.270  26.776  1.00  0.00     0.064 A 
ATOM     59  C   UNL A   1      43.043  21.886  26.897  1.00  0.00     0.173 A 
ATOM     60  C   UNL A   1      43.926  23.653  25.574  1.00  0.00     0.173 A 
ATOM     61  F   UNL A   1      42.352  21.383  27.926  1.00  0.00    -0.203 F 
ATOM     62  C   UNL A   1      43.481  20.955  25.951  1.00  0.00     0.198 A 
ATOM     63  C   UNL A   1      44.389  22.718  24.640  1.00  0.00     0.198 A 
ATOM     64  F   UNL A   1      44.084  24.947  25.259  1.00  0.00    -0.203 F 
ATOM     65  F   UNL A   1      43.222  19.653  26.134  1.00  0.00    -0.200 F 
ATOM     66  C   UNL A   1      44.176  21.368  24.834  1.00  0.00     0.200 A 
ATOM     67  F   UNL A   1      45.043  23.136  23.547  1.00  0.00    -0.200 F 
ATOM     68  F   UNL A   1      44.613  20.472  23.939  1.00  0.00    -0.200 F 
ENDBRANCH  44  58
BRANCH  45  69
ATOM     69  C   UNL A   1      40.818  31.555  31.406  1.00  0.00     0.064 A 
ATOM     70  C   UNL A   1      40.425  32.831  30.943  1.00  0.00     0.173 A 
ATOM     71  C   UNL A   1      39.843  30.815  32.094  1.00  0.00     0.173 A 
ATOM     72  F   UNL A   1      41.281  33.578  30.228  1.00  0.00    -0.203 F 
ATOM     73  C   UNL A   1      39.126  33.317  31.122  1.00  0.00     0.198 A 
ATOM     74  C   UNL A   1      38.546  31.311  32.286  1.00  0.00     0.198 A 
ATOM     75  F   UNL A   1      40.112  29.575  32.526  1.00  0.00    -0.203 F 
ATOM     76  F   UNL A   1      38.773  34.494  30.584  1.00  0.00    -0.200 F 
ATOM     77  C   UNL A   1      38.186  32.555  31.791  1.00  0.00     0.200 A 
ATOM     78  F   UNL A   1      37.625  30.555  32.902  1.00  0.00    -0.200 F 
ATOM     79  F   UNL A   1      36.928  32.999  31.915  1.00  0.00    -0.200 F 
ENDBRANCH  45  69
BRANCH  57  80
ATOM     80  C   UNL A   1      44.811  25.835  32.864  1.00  0.00     0.064 A 
ATOM     81  C   UNL A   1      46.131  25.370  32.915  1.00  0.00     0.173 A 
ATOM     82  C   UNL A   1      43.967  25.464  33.933  1.00  0.00     0.173 A 
ATOM     83  F   UNL A   1      47.043  25.768  32.015  1.00  0.00    -0.203 F 
ATOM     84  C   UNL A   1      46.559  24.512  33.924  1.00  0.00     0.198 A 
ATOM     85  C   UNL A   1      44.417  24.659  34.972  1.00  0.00     0.198 A 
ATOM     86  F   UNL A   1      42.696  25.887  33.999  1.00  0.00    -0.203 F 
ATOM     87  F   UNL A   1      47.812  24.037  33.902  1.00  0.00    -0.200 F 
ATOM     88  C   UNL A   1      45.705  24.163  34.955  1.00  0.00     0.200 A 
ATOM     89  F   UNL A   1      43.597  24.376  35.993  1.00  0.00    -0.200 F 
ATOM     90  F   UNL A   1      46.128  23.361  35.940  1.00  0.00    -0.200 F 
ENDBRANCH  57  80
ENDBRANCH  31  32
ENDBRANCH  24  26
ENDBRANCH  23  24
ENDBRANCH  22  23
ENDBRANCH   1  22
TORSDOF 16
ENDMDL
