MODEL 1
REMARK VINA RESULT:     -11.9      0.000      0.000
REMARK SMILES CCCOC(=O)c1c(NC(=O)[C@@H]2CC=CC[C@H]2C(=O)OCCOC(=O)c2ccc(-c3c4nc(c(-c5c(F)c(F)c(F)c(F)c5F)c5ccc([nH]5)c(-c5c(F)c(F)c(F)c(F)c5F)c5nc(c(-c6c(F)c(F)c(F)c(F)c6F)c6ccc3[nH]6)C=C5)C=C4)cc2)sc2c1CCCC2
REMARK SMILES IDX 18 1 19 2 17 3 12 4 13 5 14 6 16 7 15 8 10 9 9 10 11 12 8 13
REMARK SMILES IDX 7 14 91 15 89 16 90 17 92 18 95 19 93 20 94 21 5 22 6 23
REMARK SMILES IDX 4 24 3 25 2 26 1 27 20 28 21 29 22 30 23 31 24 32 25 33
REMARK SMILES IDX 26 34 27 35 88 36 28 37 87 38 29 39 30 40 31 41 81 42 32 43
REMARK SMILES IDX 86 44 80 45 82 46 33 47 85 48 79 49 78 50 34 52 66 53 46 54
REMARK SMILES IDX 65 55 47 56 50 57 64 58 83 59 48 60 49 61 63 63 84 64 51 65
REMARK SMILES IDX 35 66 36 67 44 68 37 69 38 70 42 71 45 72 39 73 40 74 43 75
REMARK SMILES IDX 41 76 67 77 68 78 76 79 69 80 70 81 74 82 77 83 71 84 72 85
REMARK SMILES IDX 75 86 73 87 52 88 53 89 61 90 54 91 55 92 59 93 62 94 56 95
REMARK SMILES IDX 57 96 60 97 58 98
REMARK H PARENT 9 11 82 51 50 62
REMARK Flexibility Score: inf
ROOT
ATOM      1  C   UNL A   1      30.654  26.544  24.674  1.00  0.00     0.310 C 
ATOM      2  O   UNL A   1      29.931  25.606  25.004  1.00  0.00    -0.252 OA
ENDROOT
BRANCH   1   3
ATOM      3  C   UNL A   1      31.945  26.323  23.893  1.00  0.00     0.116 C 
ATOM      4  C   UNL A   1      32.747  25.089  24.303  1.00  0.00     0.097 C 
ATOM      5  C   UNL A   1      34.027  24.969  23.459  1.00  0.00     0.041 C 
ATOM      6  C   UNL A   1      33.695  24.961  21.997  1.00  0.00    -0.030 C 
ATOM      7  C   UNL A   1      31.553  26.194  22.398  1.00  0.00     0.043 C 
ATOM      8  C   UNL A   1      32.563  25.500  21.525  1.00  0.00    -0.030 C 
BRANCH   4   9
ATOM      9  C   UNL A   1      33.110  24.999  25.777  1.00  0.00     0.229 C 
ATOM     10  N   UNL A   1      33.489  23.784  26.304  1.00  0.00    -0.317 N 
ATOM     11  H   UNL A   1      33.673  23.749  27.271  1.00  0.00     0.170 HD
ATOM     12  O   UNL A   1      33.184  26.016  26.471  1.00  0.00    -0.274 OA
BRANCH  10  13
ATOM     13  C   UNL A   1      33.631  22.614  25.588  1.00  0.00     0.110 A 
ATOM     14  C   UNL A   1      34.700  21.875  25.101  1.00  0.00     0.098 A 
ATOM     15  C   UNL A   1      34.284  20.493  24.962  1.00  0.00    -0.017 A 
ATOM     16  S   UNL A   1      32.133  21.835  25.361  1.00  0.00    -0.122 S 
ATOM     17  C   UNL A   1      32.915  20.350  25.104  1.00  0.00     0.011 A 
ATOM     18  C   UNL A   1      35.169  19.303  24.720  1.00  0.00     0.038 C 
ATOM     19  C   UNL A   1      32.154  19.064  25.002  1.00  0.00     0.047 C 
ATOM     20  C   UNL A   1      34.373  18.078  24.250  1.00  0.00     0.005 C 
ATOM     21  C   UNL A   1      33.108  17.864  25.091  1.00  0.00     0.006 C 
BRANCH  14  22
ATOM     22  C   UNL A   1      36.052  22.409  24.831  1.00  0.00     0.341 C 
ATOM     23  O   UNL A   1      36.651  22.202  23.799  1.00  0.00    -0.246 OA
BRANCH  22  24
ATOM     24  O   UNL A   1      36.513  23.154  25.877  1.00  0.00    -0.462 OA
BRANCH  24  25
ATOM     25  C   UNL A   1      37.816  23.778  25.941  1.00  0.00     0.233 C 
BRANCH  25  26
ATOM     26  C   UNL A   1      38.981  23.136  26.694  1.00  0.00     0.038 C 
ATOM     27  C   UNL A   1      39.396  21.794  26.126  1.00  0.00     0.007 C 
ENDBRANCH  25  26
ENDBRANCH  24  25
ENDBRANCH  22  24
ENDBRANCH  14  22
ENDBRANCH  10  13
ENDBRANCH   4   9
ENDBRANCH   1   3
BRANCH   1  28
ATOM     28  O   UNL A   1      30.386  27.846  24.943  1.00  0.00    -0.462 OA
BRANCH  28  29
ATOM     29  C   UNL A   1      31.479  28.786  24.839  1.00  0.00     0.274 C 
BRANCH  29  30
ATOM     30  C   UNL A   1      31.853  29.344  26.214  1.00  0.00     0.275 C 
BRANCH  30  31
ATOM     31  O   UNL A   1      33.091  30.056  26.088  1.00  0.00    -0.458 OA
BRANCH  31  32
ATOM     32  C   UNL A   1      33.316  31.044  26.987  1.00  0.00     0.338 C 
ATOM     33  O   UNL A   1      32.556  31.947  27.292  1.00  0.00    -0.246 OA
BRANCH  32  34
ATOM     34  C   UNL A   1      34.651  30.835  27.600  1.00  0.00     0.060 A 
ATOM     35  C   UNL A   1      35.068  29.548  27.941  1.00  0.00     0.016 A 
ATOM     36  C   UNL A   1      35.461  31.916  27.934  1.00  0.00     0.016 A 
ATOM     37  C   UNL A   1      36.208  29.329  28.697  1.00  0.00     0.010 A 
ATOM     38  C   UNL A   1      36.678  31.690  28.591  1.00  0.00     0.010 A 
ATOM     39  C   UNL A   1      37.046  30.396  29.010  1.00  0.00    -0.014 A 
BRANCH  39  40
ATOM     40  C   UNL A   1      38.262  30.173  29.832  1.00  0.00     0.031 A 
ATOM     41  C   UNL A   1      39.389  29.367  29.256  1.00  0.00     0.074 A 
ATOM     42  C   UNL A   1      38.376  30.698  31.069  1.00  0.00     0.049 A 
ATOM     43  N   UNL A   1      40.395  28.792  29.862  1.00  0.00    -0.248 NA
ATOM     44  C   UNL A   1      39.366  29.161  27.798  1.00  0.00     0.031 C 
ATOM     45  C   UNL A   1      37.405  31.585  31.714  1.00  0.00     0.029 A 
ATOM     46  N   UNL A   1      39.367  30.557  32.009  1.00  0.00    -0.354 N 
ATOM     47  C   UNL A   1      41.069  28.083  28.877  1.00  0.00     0.074 A 
ATOM     48  C   UNL A   1      40.371  28.314  27.630  1.00  0.00     0.031 C 
ATOM     49  C   UNL A   1      37.860  31.932  32.927  1.00  0.00     0.029 A 
ATOM     50  C   UNL A   1      39.095  31.204  33.191  1.00  0.00     0.049 A 
ATOM     51  H   UNL A   1      40.192  30.044  31.852  1.00  0.00     0.167 HD
ATOM     52  C   UNL A   1      42.163  27.299  29.015  1.00  0.00     0.037 A 
ATOM     53  C   UNL A   1      39.733  31.161  34.376  1.00  0.00     0.037 A 
ATOM     54  C   UNL A   1      42.883  27.144  30.252  1.00  0.00     0.049 A 
ATOM     55  C   UNL A   1      40.932  30.265  34.514  1.00  0.00     0.074 A 
ATOM     56  C   UNL A   1      43.999  26.371  30.516  1.00  0.00     0.029 A 
ATOM     57  N   UNL A   1      42.563  27.803  31.431  1.00  0.00    -0.354 N 
ATOM     58  N   UNL A   1      41.504  29.503  33.614  1.00  0.00    -0.248 NA
ATOM     59  C   UNL A   1      41.557  30.201  35.841  1.00  0.00     0.031 C 
ATOM     60  C   UNL A   1      44.339  26.544  31.862  1.00  0.00     0.029 A 
ATOM     61  C   UNL A   1      43.460  27.456  32.427  1.00  0.00     0.049 A 
ATOM     62  H   UNL A   1      41.808  28.426  31.544  1.00  0.00     0.167 HD
ATOM     63  C   UNL A   1      42.560  28.876  34.258  1.00  0.00     0.074 A 
ATOM     64  C   UNL A   1      42.563  29.366  35.623  1.00  0.00     0.031 C 
ATOM     65  C   UNL A   1      43.442  27.970  33.772  1.00  0.00     0.037 A 
BRANCH  52  66
ATOM     66  C   UNL A   1      42.610  26.515  27.816  1.00  0.00     0.064 A 
ATOM     67  C   UNL A   1      42.187  25.199  27.581  1.00  0.00     0.173 A 
ATOM     68  C   UNL A   1      43.483  27.100  26.884  1.00  0.00     0.173 A 
ATOM     69  F   UNL A   1      41.370  24.587  28.450  1.00  0.00    -0.203 F 
ATOM     70  C   UNL A   1      42.641  24.489  26.472  1.00  0.00     0.198 A 
ATOM     71  C   UNL A   1      43.911  26.397  25.761  1.00  0.00     0.198 A 
ATOM     72  F   UNL A   1      43.918  28.357  27.060  1.00  0.00    -0.203 F 
ATOM     73  F   UNL A   1      42.265  23.215  26.293  1.00  0.00    -0.200 F 
ATOM     74  C   UNL A   1      43.498  25.090  25.560  1.00  0.00     0.200 A 
ATOM     75  F   UNL A   1      44.730  26.984  24.877  1.00  0.00    -0.200 F 
ATOM     76  F   UNL A   1      43.931  24.405  24.492  1.00  0.00    -0.200 F 
ENDBRANCH  52  66
BRANCH  53  77
ATOM     77  C   UNL A   1      39.211  31.937  35.532  1.00  0.00     0.064 A 
ATOM     78  C   UNL A   1      38.344  31.349  36.462  1.00  0.00     0.173 A 
ATOM     79  C   UNL A   1      39.573  33.278  35.737  1.00  0.00     0.173 A 
ATOM     80  F   UNL A   1      37.945  30.079  36.296  1.00  0.00    -0.203 F 
ATOM     81  C   UNL A   1      37.852  32.073  37.547  1.00  0.00     0.198 A 
ATOM     82  C   UNL A   1      39.108  33.991  36.839  1.00  0.00     0.198 A 
ATOM     83  F   UNL A   1      40.398  33.891  34.875  1.00  0.00    -0.203 F 
ATOM     84  F   UNL A   1      36.993  31.498  38.398  1.00  0.00    -0.200 F 
ATOM     85  C   UNL A   1      38.243  33.391  37.740  1.00  0.00     0.200 A 
ATOM     86  F   UNL A   1      39.499  35.258  37.029  1.00  0.00    -0.200 F 
ATOM     87  F   UNL A   1      37.779  34.082  38.789  1.00  0.00    -0.200 F 
ENDBRANCH  53  77
BRANCH  65  88
ATOM     88  C   UNL A   1      44.506  27.490  34.712  1.00  0.00     0.064 A 
ATOM     89  C   UNL A   1      44.337  26.330  35.481  1.00  0.00     0.173 A 
ATOM     90  C   UNL A   1      45.719  28.186  34.821  1.00  0.00     0.173 A 
ATOM     91  F   UNL A   1      43.185  25.644  35.422  1.00  0.00    -0.203 F 
ATOM     92  C   UNL A   1      45.336  25.898  36.347  1.00  0.00     0.198 A 
ATOM     93  C   UNL A   1      46.727  27.735  35.668  1.00  0.00     0.198 A 
ATOM     94  F   UNL A   1      45.928  29.298  34.102  1.00  0.00    -0.203 F 
ATOM     95  F   UNL A   1      45.136  24.813  37.109  1.00  0.00    -0.200 F 
ATOM     96  C   UNL A   1      46.532  26.596  36.435  1.00  0.00     0.200 A 
ATOM     97  F   UNL A   1      47.884  28.404  35.745  1.00  0.00    -0.200 F 
ATOM     98  F   UNL A   1      47.494  26.175  37.267  1.00  0.00    -0.200 F 
ENDBRANCH  65  88
ENDBRANCH  39  40
ENDBRANCH  32  34
ENDBRANCH  31  32
ENDBRANCH  30  31
ENDBRANCH  29  30
ENDBRANCH  28  29
ENDBRANCH   1  28
TORSDOF 17
ENDMDL
MODEL 2
REMARK VINA RESULT:     -11.8      3.986      9.740
REMARK SMILES CCCOC(=O)c1c(NC(=O)[C@@H]2CC=CC[C@H]2C(=O)OCCOC(=O)c2ccc(-c3c4nc(c(-c5c(F)c(F)c(F)c(F)c5F)c5ccc([nH]5)c(-c5c(F)c(F)c(F)c(F)c5F)c5nc(c(-c6c(F)c(F)c(F)c(F)c6F)c6ccc3[nH]6)C=C5)C=C4)cc2)sc2c1CCCC2
REMARK SMILES IDX 18 1 19 2 17 3 12 4 13 5 14 6 16 7 15 8 10 9 9 10 11 12 8 13
REMARK SMILES IDX 7 14 91 15 89 16 90 17 92 18 95 19 93 20 94 21 5 22 6 23
REMARK SMILES IDX 4 24 3 25 2 26 1 27 20 28 21 29 22 30 23 31 24 32 25 33
REMARK SMILES IDX 26 34 27 35 88 36 28 37 87 38 29 39 30 40 31 41 81 42 32 43
REMARK SMILES IDX 86 44 80 45 82 46 33 47 85 48 79 49 78 50 34 52 66 53 46 54
REMARK SMILES IDX 65 55 47 56 50 57 64 58 83 59 48 60 49 61 63 63 84 64 51 65
REMARK SMILES IDX 35 66 36 67 44 68 37 69 38 70 42 71 45 72 39 73 40 74 43 75
REMARK SMILES IDX 41 76 67 77 68 78 76 79 69 80 70 81 74 82 77 83 71 84 72 85
REMARK SMILES IDX 75 86 73 87 52 88 53 89 61 90 54 91 55 92 59 93 62 94 56 95
REMARK SMILES IDX 57 96 60 97 58 98
REMARK H PARENT 9 11 82 51 50 62
REMARK Flexibility Score: inf
ROOT
ATOM      1  C   UNL A   1      35.133  23.382  25.373  1.00  0.00     0.310 C 
ATOM      2  O   UNL A   1      35.552  24.527  25.221  1.00  0.00    -0.252 OA
ENDROOT
BRANCH   1   3
ATOM      3  C   UNL A   1      33.901  22.874  24.631  1.00  0.00     0.116 C 
ATOM      4  C   UNL A   1      32.594  23.579  24.987  1.00  0.00     0.097 C 
ATOM      5  C   UNL A   1      31.422  22.985  24.188  1.00  0.00     0.041 C 
ATOM      6  C   UNL A   1      31.705  23.040  22.718  1.00  0.00    -0.030 C 
ATOM      7  C   UNL A   1      34.177  23.061  23.117  1.00  0.00     0.043 C 
ATOM      8  C   UNL A   1      32.955  23.095  22.239  1.00  0.00    -0.030 C 
BRANCH   4   9
ATOM      9  C   UNL A   1      32.235  23.594  26.465  1.00  0.00     0.229 C 
ATOM     10  N   UNL A   1      31.699  24.737  27.016  1.00  0.00    -0.317 N 
ATOM     11  H   UNL A   1      31.520  24.731  27.984  1.00  0.00     0.170 HD
ATOM     12  O   UNL A   1      32.306  22.565  27.141  1.00  0.00    -0.274 OA
BRANCH  10  13
ATOM     13  C   UNL A   1      31.392  25.888  26.322  1.00  0.00     0.110 A 
ATOM     14  C   UNL A   1      32.096  27.007  25.899  1.00  0.00     0.098 A 
ATOM     15  C   UNL A   1      31.421  27.573  24.747  1.00  0.00    -0.017 A 
ATOM     16  S   UNL A   1      29.789  25.861  25.744  1.00  0.00    -0.122 S 
ATOM     17  C   UNL A   1      30.170  27.012  24.555  1.00  0.00     0.011 A 
ATOM     18  C   UNL A   1      31.955  28.620  23.811  1.00  0.00     0.038 C 
ATOM     19  C   UNL A   1      29.204  27.377  23.471  1.00  0.00     0.047 C 
ATOM     20  C   UNL A   1      30.848  29.247  22.953  1.00  0.00     0.005 C 
ATOM     21  C   UNL A   1      29.909  28.183  22.369  1.00  0.00     0.006 C 
BRANCH  14  22
ATOM     22  C   UNL A   1      33.357  27.495  26.496  1.00  0.00     0.341 C 
ATOM     23  O   UNL A   1      34.451  27.115  26.135  1.00  0.00    -0.246 OA
BRANCH  22  24
ATOM     24  O   UNL A   1      33.123  28.413  27.477  1.00  0.00    -0.462 OA
BRANCH  24  25
ATOM     25  C   UNL A   1      32.772  29.797  27.252  1.00  0.00     0.233 C 
BRANCH  25  26
ATOM     26  C   UNL A   1      33.830  30.901  27.211  1.00  0.00     0.038 C 
ATOM     27  C   UNL A   1      33.333  32.228  27.746  1.00  0.00     0.007 C 
ENDBRANCH  25  26
ENDBRANCH  24  25
ENDBRANCH  22  24
ENDBRANCH  14  22
ENDBRANCH  10  13
ENDBRANCH   4   9
ENDBRANCH   1   3
BRANCH   1  28
ATOM     28  O   UNL A   1      35.711  22.460  26.183  1.00  0.00    -0.462 OA
BRANCH  28  29
ATOM     29  C   UNL A   1      35.690  21.082  25.744  1.00  0.00     0.274 C 
BRANCH  29  30
ATOM     30  C   UNL A   1      36.963  20.735  24.970  1.00  0.00     0.275 C 
BRANCH  30  31
ATOM     31  O   UNL A   1      37.959  21.719  25.278  1.00  0.00    -0.458 OA
BRANCH  31  32
ATOM     32  C   UNL A   1      38.960  21.332  26.105  1.00  0.00     0.338 C 
ATOM     33  O   UNL A   1      39.317  20.191  26.340  1.00  0.00    -0.246 OA
BRANCH  32  34
ATOM     34  C   UNL A   1      39.608  22.542  26.668  1.00  0.00     0.060 A 
ATOM     35  C   UNL A   1      39.135  23.810  26.327  1.00  0.00     0.016 A 
ATOM     36  C   UNL A   1      40.748  22.438  27.459  1.00  0.00     0.016 A 
ATOM     37  C   UNL A   1      39.832  24.960  26.661  1.00  0.00     0.010 A 
ATOM     38  C   UNL A   1      41.387  23.603  27.905  1.00  0.00     0.010 A 
ATOM     39  C   UNL A   1      40.954  24.875  27.480  1.00  0.00    -0.014 A 
BRANCH  39  40
ATOM     40  C   UNL A   1      41.715  26.101  27.831  1.00  0.00     0.031 A 
ATOM     41  C   UNL A   1      41.057  27.142  28.688  1.00  0.00     0.074 A 
ATOM     42  C   UNL A   1      42.984  26.280  27.413  1.00  0.00     0.049 A 
ATOM     43  N   UNL A   1      41.385  28.394  28.875  1.00  0.00    -0.248 NA
ATOM     44  C   UNL A   1      39.849  26.721  29.416  1.00  0.00     0.031 C 
ATOM     45  C   UNL A   1      43.783  25.308  26.662  1.00  0.00     0.029 A 
ATOM     46  N   UNL A   1      43.829  27.352  27.562  1.00  0.00    -0.354 N 
ATOM     47  C   UNL A   1      40.377  28.930  29.665  1.00  0.00     0.074 A 
ATOM     48  C   UNL A   1      39.436  27.866  29.939  1.00  0.00     0.031 C 
ATOM     49  C   UNL A   1      45.005  25.814  26.443  1.00  0.00     0.029 A 
ATOM     50  C   UNL A   1      45.041  27.186  26.935  1.00  0.00     0.049 A 
ATOM     51  H   UNL A   1      43.591  28.162  28.068  1.00  0.00     0.167 HD
ATOM     52  C   UNL A   1      40.250  30.205  30.103  1.00  0.00     0.037 A 
ATOM     53  C   UNL A   1      46.041  28.061  26.722  1.00  0.00     0.037 A 
ATOM     54  C   UNL A   1      41.238  31.228  29.879  1.00  0.00     0.049 A 
ATOM     55  C   UNL A   1      45.869  29.477  27.196  1.00  0.00     0.074 A 
ATOM     56  C   UNL A   1      41.217  32.555  30.267  1.00  0.00     0.029 A 
ATOM     57  N   UNL A   1      42.444  31.020  29.224  1.00  0.00    -0.354 N 
ATOM     58  N   UNL A   1      44.865  30.017  27.842  1.00  0.00    -0.248 NA
ATOM     59  C   UNL A   1      46.958  30.413  26.885  1.00  0.00     0.031 C 
ATOM     60  C   UNL A   1      42.399  33.157  29.823  1.00  0.00     0.029 A 
ATOM     61  C   UNL A   1      43.176  32.195  29.195  1.00  0.00     0.049 A 
ATOM     62  H   UNL A   1      42.736  30.164  28.834  1.00  0.00     0.167 HD
ATOM     63  C   UNL A   1      45.201  31.350  28.026  1.00  0.00     0.074 A 
ATOM     64  C   UNL A   1      46.515  31.532  27.441  1.00  0.00     0.031 C 
ATOM     65  C   UNL A   1      44.486  32.339  28.615  1.00  0.00     0.037 A 
BRANCH  52  66
ATOM     66  C   UNL A   1      38.982  30.569  30.818  1.00  0.00     0.064 A 
ATOM     67  C   UNL A   1      37.830  30.983  30.135  1.00  0.00     0.173 A 
ATOM     68  C   UNL A   1      38.925  30.499  32.220  1.00  0.00     0.173 A 
ATOM     69  F   UNL A   1      37.838  31.086  28.798  1.00  0.00    -0.203 F 
ATOM     70  C   UNL A   1      36.676  31.340  30.830  1.00  0.00     0.198 A 
ATOM     71  C   UNL A   1      37.761  30.829  32.909  1.00  0.00     0.198 A 
ATOM     72  F   UNL A   1      39.999  30.109  32.923  1.00  0.00    -0.203 F 
ATOM     73  F   UNL A   1      35.603  31.783  30.160  1.00  0.00    -0.200 F 
ATOM     74  C   UNL A   1      36.640  31.258  32.215  1.00  0.00     0.200 A 
ATOM     75  F   UNL A   1      37.726  30.737  34.245  1.00  0.00    -0.200 F 
ATOM     76  F   UNL A   1      35.528  31.599  32.880  1.00  0.00    -0.200 F 
ENDBRANCH  52  66
BRANCH  53  77
ATOM     77  C   UNL A   1      47.255  27.639  25.973  1.00  0.00     0.064 A 
ATOM     78  C   UNL A   1      47.285  27.673  24.573  1.00  0.00     0.173 A 
ATOM     79  C   UNL A   1      48.411  27.201  26.639  1.00  0.00     0.173 A 
ATOM     80  F   UNL A   1      46.198  28.056  23.889  1.00  0.00    -0.203 F 
ATOM     81  C   UNL A   1      48.421  27.277  23.868  1.00  0.00     0.198 A 
ATOM     82  C   UNL A   1      49.556  26.837  25.934  1.00  0.00     0.198 A 
ATOM     83  F   UNL A   1      48.434  27.146  27.979  1.00  0.00    -0.203 F 
ATOM     84  F   UNL A   1      48.409  27.281  22.528  1.00  0.00    -0.200 F 
ATOM     85  C   UNL A   1      49.558  26.870  24.549  1.00  0.00     0.200 A 
ATOM     86  F   UNL A   1      50.656  26.458  26.598  1.00  0.00    -0.200 F 
ATOM     87  F   UNL A   1      50.653  26.501  23.870  1.00  0.00    -0.200 F 
ENDBRANCH  53  77
BRANCH  65  88
ATOM     88  C   UNL A   1      45.134  33.688  28.692  1.00  0.00     0.064 A 
ATOM     89  C   UNL A   1      44.932  34.657  27.698  1.00  0.00     0.173 A 
ATOM     90  C   UNL A   1      45.943  34.023  29.787  1.00  0.00     0.173 A 
ATOM     91  F   UNL A   1      44.181  34.374  26.623  1.00  0.00    -0.203 F 
ATOM     92  C   UNL A   1      45.540  35.905  27.787  1.00  0.00     0.198 A 
ATOM     93  C   UNL A   1      46.527  35.282  29.887  1.00  0.00     0.198 A 
ATOM     94  F   UNL A   1      46.161  33.130  30.764  1.00  0.00    -0.203 F 
ATOM     95  F   UNL A   1      45.373  36.801  26.804  1.00  0.00    -0.200 F 
ATOM     96  C   UNL A   1      46.330  36.219  28.883  1.00  0.00     0.200 A 
ATOM     97  F   UNL A   1      47.282  35.586  30.949  1.00  0.00    -0.200 F 
ATOM     98  F   UNL A   1      46.912  37.423  28.968  1.00  0.00    -0.200 F 
ENDBRANCH  65  88
ENDBRANCH  39  40
ENDBRANCH  32  34
ENDBRANCH  31  32
ENDBRANCH  30  31
ENDBRANCH  29  30
ENDBRANCH  28  29
ENDBRANCH   1  28
TORSDOF 17
ENDMDL
MODEL 3
REMARK VINA RESULT:     -11.5      4.017      9.746
REMARK SMILES CCCOC(=O)c1c(NC(=O)[C@@H]2CC=CC[C@H]2C(=O)OCCOC(=O)c2ccc(-c3c4nc(c(-c5c(F)c(F)c(F)c(F)c5F)c5ccc([nH]5)c(-c5c(F)c(F)c(F)c(F)c5F)c5nc(c(-c6c(F)c(F)c(F)c(F)c6F)c6ccc3[nH]6)C=C5)C=C4)cc2)sc2c1CCCC2
REMARK SMILES IDX 18 1 19 2 17 3 12 4 13 5 14 6 16 7 15 8 10 9 9 10 11 12 8 13
REMARK SMILES IDX 7 14 91 15 89 16 90 17 92 18 95 19 93 20 94 21 5 22 6 23
REMARK SMILES IDX 4 24 3 25 2 26 1 27 20 28 21 29 22 30 23 31 24 32 25 33
REMARK SMILES IDX 26 34 27 35 88 36 28 37 87 38 29 39 30 40 31 41 81 42 32 43
REMARK SMILES IDX 86 44 80 45 82 46 33 47 85 48 79 49 78 50 34 52 66 53 46 54
REMARK SMILES IDX 65 55 47 56 50 57 64 58 83 59 48 60 49 61 63 63 84 64 51 65
REMARK SMILES IDX 35 66 36 67 44 68 37 69 38 70 42 71 45 72 39 73 40 74 43 75
REMARK SMILES IDX 41 76 67 77 68 78 76 79 69 80 70 81 74 82 77 83 71 84 72 85
REMARK SMILES IDX 75 86 73 87 52 88 53 89 61 90 54 91 55 92 59 93 62 94 56 95
REMARK SMILES IDX 57 96 60 97 58 98
REMARK H PARENT 9 11 82 51 50 62
REMARK Flexibility Score: inf
ROOT
ATOM      1  C   UNL A   1      34.527  23.611  25.725  1.00  0.00     0.310 C 
ATOM      2  O   UNL A   1      34.788  24.808  25.831  1.00  0.00    -0.252 OA
ENDROOT
BRANCH   1   3
ATOM      3  C   UNL A   1      33.634  23.083  24.606  1.00  0.00     0.116 C 
ATOM      4  C   UNL A   1      32.253  23.730  24.520  1.00  0.00     0.097 C 
ATOM      5  C   UNL A   1      31.440  23.119  23.367  1.00  0.00     0.041 C 
ATOM      6  C   UNL A   1      32.192  23.230  22.075  1.00  0.00    -0.030 C 
ATOM      7  C   UNL A   1      34.388  23.327  23.273  1.00  0.00     0.043 C 
ATOM      8  C   UNL A   1      33.526  23.344  22.040  1.00  0.00    -0.030 C 
BRANCH   4   9
ATOM      9  C   UNL A   1      31.424  23.687  25.795  1.00  0.00     0.229 C 
ATOM     10  N   UNL A   1      31.078  24.868  26.412  1.00  0.00    -0.317 N 
ATOM     11  H   UNL A   1      30.581  24.806  27.260  1.00  0.00     0.170 HD
ATOM     12  O   UNL A   1      30.962  22.622  26.209  1.00  0.00    -0.274 OA
BRANCH  10  13
ATOM     13  C   UNL A   1      31.371  26.130  25.940  1.00  0.00     0.110 A 
ATOM     14  C   UNL A   1      30.870  26.956  24.943  1.00  0.00     0.098 A 
ATOM     15  C   UNL A   1      31.156  28.333  25.293  1.00  0.00    -0.017 A 
ATOM     16  S   UNL A   1      32.550  26.899  26.901  1.00  0.00    -0.122 S 
ATOM     17  C   UNL A   1      32.040  28.424  26.354  1.00  0.00     0.011 A 
ATOM     18  C   UNL A   1      30.584  29.566  24.651  1.00  0.00     0.038 C 
ATOM     19  C   UNL A   1      32.558  29.692  26.957  1.00  0.00     0.047 C 
ATOM     20  C   UNL A   1      31.384  30.826  25.007  1.00  0.00     0.005 C 
ATOM     21  C   UNL A   1      31.709  30.890  26.506  1.00  0.00     0.006 C 
BRANCH  14  22
ATOM     22  C   UNL A   1      30.118  26.497  23.756  1.00  0.00     0.341 C 
ATOM     23  O   UNL A   1      29.158  25.761  23.825  1.00  0.00    -0.246 OA
BRANCH  22  24
ATOM     24  O   UNL A   1      30.639  27.011  22.605  1.00  0.00    -0.462 OA
BRANCH  24  25
ATOM     25  C   UNL A   1      31.937  26.680  22.061  1.00  0.00     0.233 C 
BRANCH  25  26
ATOM     26  C   UNL A   1      33.227  26.946  22.837  1.00  0.00     0.038 C 
ATOM     27  C   UNL A   1      34.010  28.132  22.310  1.00  0.00     0.007 C 
ENDBRANCH  25  26
ENDBRANCH  24  25
ENDBRANCH  22  24
ENDBRANCH  14  22
ENDBRANCH  10  13
ENDBRANCH   4   9
ENDBRANCH   1   3
BRANCH   1  28
ATOM     28  O   UNL A   1      35.002  22.650  26.554  1.00  0.00    -0.462 OA
BRANCH  28  29
ATOM     29  C   UNL A   1      34.991  21.288  26.071  1.00  0.00     0.274 C 
BRANCH  29  30
ATOM     30  C   UNL A   1      36.316  20.937  25.393  1.00  0.00     0.275 C 
BRANCH  30  31
ATOM     31  O   UNL A   1      37.243  22.003  25.638  1.00  0.00    -0.458 OA
BRANCH  31  32
ATOM     32  C   UNL A   1      38.515  21.645  25.936  1.00  0.00     0.338 C 
ATOM     33  O   UNL A   1      39.040  20.564  25.733  1.00  0.00    -0.246 OA
BRANCH  32  34
ATOM     34  C   UNL A   1      39.213  22.814  26.525  1.00  0.00     0.060 A 
ATOM     35  C   UNL A   1      38.801  24.107  26.205  1.00  0.00     0.016 A 
ATOM     36  C   UNL A   1      40.342  22.644  27.321  1.00  0.00     0.016 A 
ATOM     37  C   UNL A   1      39.547  25.218  26.564  1.00  0.00     0.010 A 
ATOM     38  C   UNL A   1      41.031  23.770  27.792  1.00  0.00     0.010 A 
ATOM     39  C   UNL A   1      40.659  25.068  27.387  1.00  0.00    -0.014 A 
BRANCH  39  40
ATOM     40  C   UNL A   1      41.472  26.252  27.765  1.00  0.00     0.031 A 
ATOM     41  C   UNL A   1      40.857  27.305  28.640  1.00  0.00     0.074 A 
ATOM     42  C   UNL A   1      42.750  26.382  27.356  1.00  0.00     0.049 A 
ATOM     43  N   UNL A   1      41.240  28.537  28.852  1.00  0.00    -0.248 NA
ATOM     44  C   UNL A   1      39.627  26.924  29.354  1.00  0.00     0.031 C 
ATOM     45  C   UNL A   1      43.508  25.390  26.590  1.00  0.00     0.029 A 
ATOM     46  N   UNL A   1      43.641  27.412  27.529  1.00  0.00    -0.354 N 
ATOM     47  C   UNL A   1      40.253  29.103  29.649  1.00  0.00     0.074 A 
ATOM     48  C   UNL A   1      39.263  28.076  29.897  1.00  0.00     0.031 C 
ATOM     49  C   UNL A   1      44.753  25.845  26.385  1.00  0.00     0.029 A 
ATOM     50  C   UNL A   1      44.847  27.203  26.904  1.00  0.00     0.049 A 
ATOM     51  H   UNL A   1      43.437  28.222  28.050  1.00  0.00     0.167 HD
ATOM     52  C   UNL A   1      40.181  30.373  30.111  1.00  0.00     0.037 A 
ATOM     53  C   UNL A   1      45.886  28.037  26.712  1.00  0.00     0.037 A 
ATOM     54  C   UNL A   1      41.214  31.354  29.910  1.00  0.00     0.049 A 
ATOM     55  C   UNL A   1      45.776  29.450  27.213  1.00  0.00     0.074 A 
ATOM     56  C   UNL A   1      41.250  32.674  30.324  1.00  0.00     0.029 A 
ATOM     57  N   UNL A   1      42.413  31.106  29.256  1.00  0.00    -0.354 N 
ATOM     58  N   UNL A   1      44.794  30.022  27.866  1.00  0.00    -0.248 NA
ATOM     59  C   UNL A   1      46.907  30.341  26.925  1.00  0.00     0.031 C 
ATOM     60  C   UNL A   1      42.461  33.231  29.897  1.00  0.00     0.029 A 
ATOM     61  C   UNL A   1      43.197  32.247  29.254  1.00  0.00     0.049 A 
ATOM     62  H   UNL A   1      42.669  30.245  28.851  1.00  0.00     0.167 HD
ATOM     63  C   UNL A   1      45.188  31.335  28.076  1.00  0.00     0.074 A 
ATOM     64  C   UNL A   1      46.512  31.469  27.500  1.00  0.00     0.031 C 
ATOM     65  C   UNL A   1      44.515  32.343  28.682  1.00  0.00     0.037 A 
BRANCH  52  66
ATOM     66  C   UNL A   1      38.927  30.780  30.827  1.00  0.00     0.064 A 
ATOM     67  C   UNL A   1      37.810  31.292  30.151  1.00  0.00     0.173 A 
ATOM     68  C   UNL A   1      38.846  30.652  32.223  1.00  0.00     0.173 A 
ATOM     69  F   UNL A   1      37.842  31.452  28.820  1.00  0.00    -0.203 F 
ATOM     70  C   UNL A   1      36.670  31.685  30.848  1.00  0.00     0.198 A 
ATOM     71  C   UNL A   1      37.694  31.019  32.913  1.00  0.00     0.198 A 
ATOM     72  F   UNL A   1      39.886  30.167  32.920  1.00  0.00    -0.203 F 
ATOM     73  F   UNL A   1      35.633  32.220  30.187  1.00  0.00    -0.200 F 
ATOM     74  C   UNL A   1      36.611  31.544  32.227  1.00  0.00     0.200 A 
ATOM     75  F   UNL A   1      37.636  30.871  34.244  1.00  0.00    -0.200 F 
ATOM     76  F   UNL A   1      35.511  31.921  32.895  1.00  0.00    -0.200 F 
ENDBRANCH  52  66
BRANCH  53  77
ATOM     77  C   UNL A   1      47.084  27.575  25.961  1.00  0.00     0.064 A 
ATOM     78  C   UNL A   1      47.151  27.699  24.567  1.00  0.00     0.173 A 
ATOM     79  C   UNL A   1      48.188  27.009  26.618  1.00  0.00     0.173 A 
ATOM     80  F   UNL A   1      46.112  28.208  23.889  1.00  0.00    -0.203 F 
ATOM     81  C   UNL A   1      48.272  27.267  23.859  1.00  0.00     0.198 A 
ATOM     82  C   UNL A   1      49.320  26.607  25.913  1.00  0.00     0.198 A 
ATOM     83  F   UNL A   1      48.174  26.863  27.951  1.00  0.00    -0.203 F 
ATOM     84  F   UNL A   1      48.293  27.361  22.522  1.00  0.00    -0.200 F 
ATOM     85  C   UNL A   1      49.359  26.731  24.533  1.00  0.00     0.200 A 
ATOM     86  F   UNL A   1      50.373  26.103  26.570  1.00  0.00    -0.200 F 
ATOM     87  F   UNL A   1      50.440  26.327  23.853  1.00  0.00    -0.200 F 
ENDBRANCH  53  77
BRANCH  65  88
ATOM     88  C   UNL A   1      45.222  33.660  28.787  1.00  0.00     0.064 A 
ATOM     89  C   UNL A   1      46.076  33.951  29.861  1.00  0.00     0.173 A 
ATOM     90  C   UNL A   1      45.063  34.630  27.787  1.00  0.00     0.173 A 
ATOM     91  F   UNL A   1      46.243  33.060  30.850  1.00  0.00    -0.203 F 
ATOM     92  C   UNL A   1      46.726  35.178  29.941  1.00  0.00     0.198 A 
ATOM     93  C   UNL A   1      45.737  35.846  27.857  1.00  0.00     0.198 A 
ATOM     94  F   UNL A   1      44.261  34.395  26.739  1.00  0.00    -0.203 F 
ATOM     95  F   UNL A   1      47.502  35.455  30.999  1.00  0.00    -0.200 F 
ATOM     96  C   UNL A   1      46.562  36.121  28.937  1.00  0.00     0.200 A 
ATOM     97  F   UNL A   1      45.584  36.752  26.882  1.00  0.00    -0.200 F 
ATOM     98  F   UNL A   1      47.192  37.301  29.015  1.00  0.00    -0.200 F 
ENDBRANCH  65  88
ENDBRANCH  39  40
ENDBRANCH  32  34
ENDBRANCH  31  32
ENDBRANCH  30  31
ENDBRANCH  29  30
ENDBRANCH  28  29
ENDBRANCH   1  28
TORSDOF 17
ENDMDL
