MODEL 1
REMARK VINA RESULT:     -11.4      0.000      0.000
REMARK SMILES O=C(C[C@H]([NH2+]Cc1ccccc1C1CC1)c1cccs1)OCCOC(=O)c1ccc(-c2c3nc(c(-c4c(F)c(F)c(F)c(F)c4F)c4ccc([nH]4)c(-c4c(F)c(F)c(F)c(F)c4F)c4nc(c(-c5c(F)c(F)c(F)c(F)c5F)c5ccc2[nH]5)C=C4)C=C3)cc1
REMARK SMILES IDX 21 1 2 2 1 3 3 4 4 5 16 6 17 7 20 8 18 9 19 10 5 11 6 14
REMARK SMILES IDX 7 15 8 16 12 17 9 18 11 19 10 20 13 21 14 22 15 23 22 24
REMARK SMILES IDX 23 25 24 26 25 27 26 28 27 29 28 30 89 31 29 32 88 33 30 34
REMARK SMILES IDX 31 35 32 36 82 37 33 38 87 39 81 40 83 41 34 42 86 43 80 44
REMARK SMILES IDX 79 45 35 47 67 48 47 49 66 50 48 51 51 52 65 53 84 54 49 55
REMARK SMILES IDX 50 56 64 58 85 59 52 60 36 61 37 62 45 63 38 64 39 65 43 66
REMARK SMILES IDX 46 67 40 68 41 69 44 70 42 71 68 72 69 73 77 74 70 75 71 76
REMARK SMILES IDX 75 77 78 78 72 79 73 80 76 81 74 82 53 83 54 84 62 85 55 86
REMARK SMILES IDX 56 87 60 88 63 89 57 90 58 91 61 92 59 93
REMARK H PARENT 5 12 5 13 83 46 51 57
REMARK Flexibility Score: inf
ROOT
ATOM      1  O   UNL A   1      32.024  28.397  23.683  1.00  0.00    -0.462 OA
ENDROOT
BRANCH   1   2
ATOM      2  C   UNL A   1      31.431  27.412  22.977  1.00  0.00     0.312 C 
ATOM      3  O   UNL A   1      30.655  27.689  22.066  1.00  0.00    -0.252 OA
BRANCH   2   4
ATOM      4  C   UNL A   1      31.798  25.970  23.310  1.00  0.00     0.193 C 
BRANCH   4   5
ATOM      5  C   UNL A   1      32.860  25.739  24.387  1.00  0.00     0.235 C 
BRANCH   5   6
ATOM      6  C   UNL A   1      32.180  24.945  25.507  1.00  0.00     0.062 A 
ATOM      7  C   UNL A   1      32.720  24.187  26.534  1.00  0.00     0.021 A 
ATOM      8  S   UNL A   1      30.465  24.706  25.429  1.00  0.00    -0.143 S 
ATOM      9  C   UNL A   1      31.781  23.250  27.069  1.00  0.00     0.012 A 
ATOM     10  C   UNL A   1      30.532  23.383  26.505  1.00  0.00     0.065 A 
ENDBRANCH   5   6
BRANCH   5  11
ATOM     11  N   UNL A   1      34.126  25.151  23.909  1.00  0.00    -0.335 N 
ATOM     12  H   UNL A   1      34.636  24.827  24.732  1.00  0.00     0.347 HD
ATOM     13  H   UNL A   1      34.562  25.902  23.374  1.00  0.00     0.347 HD
BRANCH  11  14
ATOM     14  C   UNL A   1      34.068  24.004  22.946  1.00  0.00     0.298 C 
BRANCH  14  15
ATOM     15  C   UNL A   1      33.984  22.651  23.676  1.00  0.00     0.010 A 
ATOM     16  C   UNL A   1      32.734  21.983  23.492  1.00  0.00     0.010 A 
ATOM     17  C   UNL A   1      34.972  22.026  24.501  1.00  0.00    -0.036 A 
ATOM     18  C   UNL A   1      32.473  20.704  23.970  1.00  0.00     0.001 A 
ATOM     19  C   UNL A   1      34.671  20.681  24.892  1.00  0.00     0.004 A 
ATOM     20  C   UNL A   1      33.465  20.031  24.642  1.00  0.00     0.000 A 
BRANCH  17  21
ATOM     21  C   UNL A   1      36.261  22.515  25.192  1.00  0.00     0.020 C 
ATOM     22  C   UNL A   1      37.192  23.643  24.899  1.00  0.00     0.009 C 
ATOM     23  C   UNL A   1      36.337  23.685  26.128  1.00  0.00     0.009 C 
ENDBRANCH  17  21
ENDBRANCH  14  15
ENDBRANCH  11  14
ENDBRANCH   5  11
ENDBRANCH   4   5
ENDBRANCH   2   4
ENDBRANCH   1   2
BRANCH   1  24
ATOM     24  C   UNL A   1      31.289  29.268  24.558  1.00  0.00     0.274 C 
BRANCH  24  25
ATOM     25  C   UNL A   1      31.780  29.486  25.990  1.00  0.00     0.275 C 
BRANCH  25  26
ATOM     26  O   UNL A   1      33.098  30.061  26.048  1.00  0.00    -0.458 OA
BRANCH  26  27
ATOM     27  C   UNL A   1      33.328  30.994  27.002  1.00  0.00     0.338 C 
ATOM     28  O   UNL A   1      32.503  31.762  27.473  1.00  0.00    -0.246 OA
BRANCH  27  29
ATOM     29  C   UNL A   1      34.706  30.851  27.537  1.00  0.00     0.060 A 
ATOM     30  C   UNL A   1      35.174  29.550  27.740  1.00  0.00     0.016 A 
ATOM     31  C   UNL A   1      35.530  31.938  27.855  1.00  0.00     0.016 A 
ATOM     32  C   UNL A   1      36.440  29.329  28.289  1.00  0.00     0.010 A 
ATOM     33  C   UNL A   1      36.808  31.711  28.412  1.00  0.00     0.010 A 
ATOM     34  C   UNL A   1      37.262  30.402  28.661  1.00  0.00    -0.014 A 
BRANCH  34  35
ATOM     35  C   UNL A   1      38.531  30.091  29.389  1.00  0.00     0.031 A 
ATOM     36  C   UNL A   1      38.741  30.613  30.788  1.00  0.00     0.074 A 
ATOM     37  C   UNL A   1      39.426  29.227  28.872  1.00  0.00     0.049 A 
ATOM     38  N   UNL A   1      39.658  30.288  31.669  1.00  0.00    -0.248 NA
ATOM     39  C   UNL A   1      37.791  31.629  31.260  1.00  0.00     0.031 C 
ATOM     40  C   UNL A   1      39.353  28.635  27.538  1.00  0.00     0.029 A 
ATOM     41  N   UNL A   1      40.560  28.672  29.422  1.00  0.00    -0.354 N 
ATOM     42  C   UNL A   1      39.370  31.028  32.810  1.00  0.00     0.074 A 
ATOM     43  C   UNL A   1      38.234  31.867  32.486  1.00  0.00     0.031 C 
ATOM     44  C   UNL A   1      40.383  27.788  27.378  1.00  0.00     0.029 A 
ATOM     45  C   UNL A   1      41.197  27.778  28.594  1.00  0.00     0.049 A 
ATOM     46  H   UNL A   1      40.886  28.895  30.324  1.00  0.00     0.167 HD
ATOM     47  C   UNL A   1      39.973  30.994  34.024  1.00  0.00     0.037 A 
ATOM     48  C   UNL A   1      42.300  27.028  28.791  1.00  0.00     0.037 A 
ATOM     49  C   UNL A   1      41.118  30.181  34.350  1.00  0.00     0.049 A 
ATOM     50  C   UNL A   1      42.990  27.054  30.134  1.00  0.00     0.074 A 
ATOM     51  C   UNL A   1      41.797  30.086  35.554  1.00  0.00     0.029 A 
ATOM     52  N   UNL A   1      41.765  29.332  33.464  1.00  0.00    -0.354 N 
ATOM     53  N   UNL A   1      42.670  27.712  31.222  1.00  0.00    -0.248 NA
ATOM     54  C   UNL A   1      44.189  26.212  30.281  1.00  0.00     0.031 C 
ATOM     55  C   UNL A   1      42.885  29.224  35.382  1.00  0.00     0.029 A 
ATOM     56  C   UNL A   1      42.848  28.730  34.088  1.00  0.00     0.049 A 
ATOM     57  H   UNL A   1      41.494  29.178  32.531  1.00  0.00     0.167 HD
ATOM     58  C   UNL A   1      43.607  27.348  32.182  1.00  0.00     0.074 A 
ATOM     59  C   UNL A   1      44.488  26.383  31.560  1.00  0.00     0.031 C 
ATOM     60  C   UNL A   1      43.730  27.777  33.463  1.00  0.00     0.037 A 
BRANCH  47  61
ATOM     61  C   UNL A   1      39.404  31.871  35.106  1.00  0.00     0.064 A 
ATOM     62  C   UNL A   1      38.539  31.358  36.085  1.00  0.00     0.173 A 
ATOM     63  C   UNL A   1      39.767  33.222  35.199  1.00  0.00     0.173 A 
ATOM     64  F   UNL A   1      38.153  30.073  36.040  1.00  0.00    -0.203 F 
ATOM     65  C   UNL A   1      38.040  32.170  37.100  1.00  0.00     0.198 A 
ATOM     66  C   UNL A   1      39.291  34.026  36.232  1.00  0.00     0.198 A 
ATOM     67  F   UNL A   1      40.599  33.763  34.295  1.00  0.00    -0.203 F 
ATOM     68  F   UNL A   1      37.181  31.669  37.997  1.00  0.00    -0.200 F 
ATOM     69  C   UNL A   1      38.423  33.501  37.177  1.00  0.00     0.200 A 
ATOM     70  F   UNL A   1      39.676  35.307  36.315  1.00  0.00    -0.200 F 
ATOM     71  F   UNL A   1      37.950  34.280  38.161  1.00  0.00    -0.200 F 
ENDBRANCH  47  61
BRANCH  48  72
ATOM     72  C   UNL A   1      42.839  26.182  27.689  1.00  0.00     0.064 A 
ATOM     73  C   UNL A   1      43.858  26.636  26.840  1.00  0.00     0.173 A 
ATOM     74  C   UNL A   1      42.296  24.914  27.429  1.00  0.00     0.173 A 
ATOM     75  F   UNL A   1      44.391  27.854  27.023  1.00  0.00    -0.203 F 
ATOM     76  C   UNL A   1      44.292  25.870  25.758  1.00  0.00     0.198 A 
ATOM     77  C   UNL A   1      42.755  24.135  26.370  1.00  0.00     0.198 A 
ATOM     78  F   UNL A   1      41.313  24.433  28.204  1.00  0.00    -0.203 F 
ATOM     79  F   UNL A   1      45.219  26.358  24.922  1.00  0.00    -0.200 F 
ATOM     80  C   UNL A   1      43.744  24.617  25.527  1.00  0.00     0.200 A 
ATOM     81  F   UNL A   1      42.228  22.920  26.157  1.00  0.00    -0.200 F 
ATOM     82  F   UNL A   1      44.156  23.884  24.485  1.00  0.00    -0.200 F 
ENDBRANCH  48  72
BRANCH  60  83
ATOM     83  C   UNL A   1      44.849  27.191  34.283  1.00  0.00     0.064 A 
ATOM     84  C   UNL A   1      44.682  26.012  35.027  1.00  0.00     0.173 A 
ATOM     85  C   UNL A   1      46.107  27.814  34.324  1.00  0.00     0.173 A 
ATOM     86  F   UNL A   1      43.500  25.379  35.033  1.00  0.00    -0.203 F 
ATOM     87  C   UNL A   1      45.714  25.509  35.818  1.00  0.00     0.198 A 
ATOM     88  C   UNL A   1      47.147  27.287  35.086  1.00  0.00     0.198 A 
ATOM     89  F   UNL A   1      46.330  28.936  33.624  1.00  0.00    -0.203 F 
ATOM     90  F   UNL A   1      45.504  24.423  36.575  1.00  0.00    -0.200 F 
ATOM     91  C   UNL A   1      46.945  26.144  35.844  1.00  0.00     0.200 A 
ATOM     92  F   UNL A   1      48.343  27.892  35.095  1.00  0.00    -0.200 F 
ATOM     93  F   UNL A   1      47.934  25.660  36.608  1.00  0.00    -0.200 F 
ENDBRANCH  60  83
ENDBRANCH  34  35
ENDBRANCH  27  29
ENDBRANCH  26  27
ENDBRANCH  25  26
ENDBRANCH  24  25
ENDBRANCH   1  24
TORSDOF 17
ENDMDL
MODEL 2
REMARK VINA RESULT:     -11.4      0.987      2.219
REMARK SMILES O=C(C[C@H]([NH2+]Cc1ccccc1C1CC1)c1cccs1)OCCOC(=O)c1ccc(-c2c3nc(c(-c4c(F)c(F)c(F)c(F)c4F)c4ccc([nH]4)c(-c4c(F)c(F)c(F)c(F)c4F)c4nc(c(-c5c(F)c(F)c(F)c(F)c5F)c5ccc2[nH]5)C=C4)C=C3)cc1
REMARK SMILES IDX 21 1 2 2 1 3 3 4 4 5 16 6 17 7 20 8 18 9 19 10 5 11 6 14
REMARK SMILES IDX 7 15 8 16 12 17 9 18 11 19 10 20 13 21 14 22 15 23 22 24
REMARK SMILES IDX 23 25 24 26 25 27 26 28 27 29 28 30 89 31 29 32 88 33 30 34
REMARK SMILES IDX 31 35 32 36 82 37 33 38 87 39 81 40 83 41 34 42 86 43 80 44
REMARK SMILES IDX 79 45 35 47 67 48 47 49 66 50 48 51 51 52 65 53 84 54 49 55
REMARK SMILES IDX 50 56 64 58 85 59 52 60 36 61 37 62 45 63 38 64 39 65 43 66
REMARK SMILES IDX 46 67 40 68 41 69 44 70 42 71 68 72 69 73 77 74 70 75 71 76
REMARK SMILES IDX 75 77 78 78 72 79 73 80 76 81 74 82 53 83 54 84 62 85 55 86
REMARK SMILES IDX 56 87 60 88 63 89 57 90 58 91 61 92 59 93
REMARK H PARENT 5 12 5 13 83 46 51 57
REMARK Flexibility Score: inf
ROOT
ATOM      1  O   UNL A   1      31.104  27.348  27.257  1.00  0.00    -0.462 OA
ENDROOT
BRANCH   1   2
ATOM      2  C   UNL A   1      31.408  26.221  26.580  1.00  0.00     0.312 C 
ATOM      3  O   UNL A   1      30.576  25.323  26.475  1.00  0.00    -0.252 OA
BRANCH   2   4
ATOM      4  C   UNL A   1      32.777  26.130  25.916  1.00  0.00     0.193 C 
BRANCH   4   5
ATOM      5  C   UNL A   1      32.828  25.682  24.454  1.00  0.00     0.235 C 
BRANCH   5   6
ATOM      6  C   UNL A   1      32.332  26.866  23.617  1.00  0.00     0.062 A 
ATOM      7  C   UNL A   1      32.756  28.185  23.577  1.00  0.00     0.021 A 
ATOM      8  S   UNL A   1      30.863  26.686  22.716  1.00  0.00    -0.143 S 
ATOM      9  C   UNL A   1      31.764  29.058  23.033  1.00  0.00     0.012 A 
ATOM     10  C   UNL A   1      30.655  28.375  22.588  1.00  0.00     0.065 A 
ENDBRANCH   5   6
BRANCH   5  11
ATOM     11  N   UNL A   1      34.119  25.123  24.009  1.00  0.00    -0.335 N 
ATOM     12  H   UNL A   1      34.618  24.818  24.845  1.00  0.00     0.347 HD
ATOM     13  H   UNL A   1      34.548  25.882  23.479  1.00  0.00     0.347 HD
BRANCH  11  14
ATOM     14  C   UNL A   1      34.112  23.969  23.052  1.00  0.00     0.298 C 
BRANCH  14  15
ATOM     15  C   UNL A   1      34.017  22.620  23.788  1.00  0.00     0.010 A 
ATOM     16  C   UNL A   1      32.756  21.970  23.621  1.00  0.00     0.010 A 
ATOM     17  C   UNL A   1      35.005  21.984  24.604  1.00  0.00    -0.036 A 
ATOM     18  C   UNL A   1      32.481  20.696  24.106  1.00  0.00     0.001 A 
ATOM     19  C   UNL A   1      34.689  20.645  25.003  1.00  0.00     0.004 A 
ATOM     20  C   UNL A   1      33.471  20.011  24.769  1.00  0.00     0.000 A 
BRANCH  17  21
ATOM     21  C   UNL A   1      36.308  22.456  25.278  1.00  0.00     0.020 C 
ATOM     22  C   UNL A   1      37.284  23.534  24.937  1.00  0.00     0.009 C 
ATOM     23  C   UNL A   1      36.425  23.666  26.157  1.00  0.00     0.009 C 
ENDBRANCH  17  21
ENDBRANCH  14  15
ENDBRANCH  11  14
ENDBRANCH   5  11
ENDBRANCH   4   5
ENDBRANCH   2   4
ENDBRANCH   1   2
BRANCH   1  24
ATOM     24  C   UNL A   1      32.064  28.391  27.490  1.00  0.00     0.274 C 
BRANCH  24  25
ATOM     25  C   UNL A   1      31.823  29.782  26.903  1.00  0.00     0.275 C 
BRANCH  25  26
ATOM     26  O   UNL A   1      33.038  30.437  26.497  1.00  0.00    -0.458 OA
BRANCH  26  27
ATOM     27  C   UNL A   1      33.446  31.501  27.229  1.00  0.00     0.338 C 
ATOM     28  O   UNL A   1      32.761  32.458  27.553  1.00  0.00    -0.246 OA
BRANCH  27  29
ATOM     29  C   UNL A   1      34.820  31.271  27.743  1.00  0.00     0.060 A 
ATOM     30  C   UNL A   1      35.189  29.947  27.995  1.00  0.00     0.016 A 
ATOM     31  C   UNL A   1      35.735  32.302  27.995  1.00  0.00     0.016 A 
ATOM     32  C   UNL A   1      36.446  29.649  28.527  1.00  0.00     0.010 A 
ATOM     33  C   UNL A   1      37.004  31.998  28.536  1.00  0.00     0.010 A 
ATOM     34  C   UNL A   1      37.359  30.669  28.835  1.00  0.00    -0.014 A 
BRANCH  34  35
ATOM     35  C   UNL A   1      38.615  30.289  29.551  1.00  0.00     0.031 A 
ATOM     36  C   UNL A   1      38.842  30.752  30.968  1.00  0.00     0.074 A 
ATOM     37  C   UNL A   1      39.483  29.416  29.003  1.00  0.00     0.049 A 
ATOM     38  N   UNL A   1      39.745  30.365  31.837  1.00  0.00    -0.248 NA
ATOM     39  C   UNL A   1      37.925  31.781  31.478  1.00  0.00     0.031 C 
ATOM     40  C   UNL A   1      39.391  28.876  27.648  1.00  0.00     0.029 A 
ATOM     41  N   UNL A   1      40.597  28.804  29.532  1.00  0.00    -0.354 N 
ATOM     42  C   UNL A   1      39.481  31.072  33.004  1.00  0.00     0.074 A 
ATOM     43  C   UNL A   1      38.374  31.959  32.711  1.00  0.00     0.031 C 
ATOM     44  C   UNL A   1      40.393  28.001  27.457  1.00  0.00     0.029 A 
ATOM     45  C   UNL A   1      41.205  27.920  28.672  1.00  0.00     0.049 A 
ATOM     46  H   UNL A   1      40.929  28.983  30.442  1.00  0.00     0.167 HD
ATOM     47  C   UNL A   1      40.081  30.973  34.216  1.00  0.00     0.037 A 
ATOM     48  C   UNL A   1      42.282  27.127  28.841  1.00  0.00     0.037 A 
ATOM     49  C   UNL A   1      41.198  30.111  34.512  1.00  0.00     0.049 A 
ATOM     50  C   UNL A   1      42.971  27.081  30.184  1.00  0.00     0.074 A 
ATOM     51  C   UNL A   1      41.872  29.950  35.712  1.00  0.00     0.029 A 
ATOM     52  N   UNL A   1      41.818  29.274  33.596  1.00  0.00    -0.354 N 
ATOM     53  N   UNL A   1      42.671  27.709  31.295  1.00  0.00    -0.248 NA
ATOM     54  C   UNL A   1      44.141  26.195  30.300  1.00  0.00     0.031 C 
ATOM     55  C   UNL A   1      42.931  29.059  35.508  1.00  0.00     0.029 A 
ATOM     56  C   UNL A   1      42.880  28.615  34.198  1.00  0.00     0.049 A 
ATOM     57  H   UNL A   1      41.543  29.163  32.658  1.00  0.00     0.167 HD
ATOM     58  C   UNL A   1      43.595  27.278  32.242  1.00  0.00     0.074 A 
ATOM     59  C   UNL A   1      44.444  26.309  31.584  1.00  0.00     0.031 C 
ATOM     60  C   UNL A   1      43.730  27.656  33.538  1.00  0.00     0.037 A 
BRANCH  47  61
ATOM     61  C   UNL A   1      39.540  31.828  35.329  1.00  0.00     0.064 A 
ATOM     62  C   UNL A   1      38.607  31.327  36.250  1.00  0.00     0.173 A 
ATOM     63  C   UNL A   1      39.997  33.141  35.512  1.00  0.00     0.173 A 
ATOM     64  F   UNL A   1      38.130  30.079  36.118  1.00  0.00    -0.203 F 
ATOM     65  C   UNL A   1      38.133  32.116  37.295  1.00  0.00     0.198 A 
ATOM     66  C   UNL A   1      39.545  33.919  36.576  1.00  0.00     0.198 A 
ATOM     67  F   UNL A   1      40.897  33.668  34.668  1.00  0.00    -0.203 F 
ATOM     68  F   UNL A   1      37.209  31.630  38.135  1.00  0.00    -0.200 F 
ATOM     69  C   UNL A   1      38.608  33.408  37.462  1.00  0.00     0.200 A 
ATOM     70  F   UNL A   1      40.019  35.161  36.746  1.00  0.00    -0.200 F 
ATOM     71  F   UNL A   1      38.159  34.164  38.474  1.00  0.00    -0.200 F 
ENDBRANCH  47  61
BRANCH  48  72
ATOM     72  C   UNL A   1      42.794  26.305  27.708  1.00  0.00     0.064 A 
ATOM     73  C   UNL A   1      42.371  24.984  27.505  1.00  0.00     0.173 A 
ATOM     74  C   UNL A   1      43.766  26.817  26.835  1.00  0.00     0.173 A 
ATOM     75  F   UNL A   1      41.467  24.434  28.330  1.00  0.00    -0.203 F 
ATOM     76  C   UNL A   1      42.923  24.197  26.493  1.00  0.00     0.198 A 
ATOM     77  C   UNL A   1      44.289  26.042  25.802  1.00  0.00     0.198 A 
ATOM     78  F   UNL A   1      44.212  28.072  26.987  1.00  0.00    -0.203 F 
ATOM     79  F   UNL A   1      42.551  22.916  26.365  1.00  0.00    -0.200 F 
ATOM     80  C   UNL A   1      43.877  24.729  25.639  1.00  0.00     0.200 A 
ATOM     81  F   UNL A   1      45.205  26.564  24.974  1.00  0.00    -0.200 F 
ATOM     82  F   UNL A   1      44.411  23.971  24.672  1.00  0.00    -0.200 F 
ENDBRANCH  48  72
BRANCH  60  83
ATOM     83  C   UNL A   1      44.828  27.004  34.335  1.00  0.00     0.064 A 
ATOM     84  C   UNL A   1      46.111  27.566  34.426  1.00  0.00     0.173 A 
ATOM     85  C   UNL A   1      44.595  25.801  35.021  1.00  0.00     0.173 A 
ATOM     86  F   UNL A   1      46.394  28.709  33.783  1.00  0.00    -0.203 F 
ATOM     87  C   UNL A   1      47.129  26.925  35.129  1.00  0.00     0.198 A 
ATOM     88  C   UNL A   1      45.605  25.183  35.755  1.00  0.00     0.198 A 
ATOM     89  F   UNL A   1      43.386  25.222  34.983  1.00  0.00    -0.203 F 
ATOM     90  F   UNL A   1      48.364  27.447  35.138  1.00  0.00    -0.200 F 
ATOM     91  C   UNL A   1      46.875  25.737  35.796  1.00  0.00     0.200 A 
ATOM     92  F   UNL A   1      45.352  24.044  36.415  1.00  0.00    -0.200 F 
ATOM     93  F   UNL A   1      47.857  25.121  36.469  1.00  0.00    -0.200 F 
ENDBRANCH  60  83
ENDBRANCH  34  35
ENDBRANCH  27  29
ENDBRANCH  26  27
ENDBRANCH  25  26
ENDBRANCH  24  25
ENDBRANCH   1  24
TORSDOF 17
ENDMDL
MODEL 3
REMARK VINA RESULT:     -11.2      4.250      9.664
REMARK SMILES O=C(C[C@H]([NH2+]Cc1ccccc1C1CC1)c1cccs1)OCCOC(=O)c1ccc(-c2c3nc(c(-c4c(F)c(F)c(F)c(F)c4F)c4ccc([nH]4)c(-c4c(F)c(F)c(F)c(F)c4F)c4nc(c(-c5c(F)c(F)c(F)c(F)c5F)c5ccc2[nH]5)C=C4)C=C3)cc1
REMARK SMILES IDX 21 1 2 2 1 3 3 4 4 5 16 6 17 7 20 8 18 9 19 10 5 11 6 14
REMARK SMILES IDX 7 15 8 16 12 17 9 18 11 19 10 20 13 21 14 22 15 23 22 24
REMARK SMILES IDX 23 25 24 26 25 27 26 28 27 29 28 30 89 31 29 32 88 33 30 34
REMARK SMILES IDX 31 35 32 36 82 37 33 38 87 39 81 40 83 41 34 42 86 43 80 44
REMARK SMILES IDX 79 45 35 47 67 48 47 49 66 50 48 51 51 52 65 53 84 54 49 55
REMARK SMILES IDX 50 56 64 58 85 59 52 60 36 61 37 62 45 63 38 64 39 65 43 66
REMARK SMILES IDX 46 67 40 68 41 69 44 70 42 71 68 72 69 73 77 74 70 75 71 76
REMARK SMILES IDX 75 77 78 78 72 79 73 80 76 81 74 82 53 83 54 84 62 85 55 86
REMARK SMILES IDX 56 87 60 88 63 89 57 90 58 91 61 92 59 93
REMARK H PARENT 5 12 5 13 83 46 51 57
REMARK Flexibility Score: inf
ROOT
ATOM      1  O   UNL A   1      35.843  23.506  24.554  1.00  0.00    -0.462 OA
ENDROOT
BRANCH   1   2
ATOM      2  C   UNL A   1      34.795  24.213  24.082  1.00  0.00     0.312 C 
ATOM      3  O   UNL A   1      34.707  24.457  22.881  1.00  0.00    -0.252 OA
BRANCH   2   4
ATOM      4  C   UNL A   1      33.716  24.642  25.070  1.00  0.00     0.193 C 
BRANCH   4   5
ATOM      5  C   UNL A   1      32.267  24.273  24.742  1.00  0.00     0.235 C 
BRANCH   5   6
ATOM      6  C   UNL A   1      32.200  22.743  24.721  1.00  0.00     0.062 A 
ATOM      7  C   UNL A   1      32.356  21.817  25.741  1.00  0.00     0.021 A 
ATOM      8  S   UNL A   1      32.156  21.936  23.188  1.00  0.00    -0.143 S 
ATOM      9  C   UNL A   1      32.681  20.515  25.248  1.00  0.00     0.012 A 
ATOM     10  C   UNL A   1      32.672  20.460  23.873  1.00  0.00     0.065 A 
ENDBRANCH   5   6
BRANCH   5  11
ATOM     11  N   UNL A   1      31.245  24.913  25.591  1.00  0.00    -0.335 N 
ATOM     12  H   UNL A   1      31.720  25.259  26.425  1.00  0.00     0.347 HD
ATOM     13  H   UNL A   1      30.551  24.180  25.739  1.00  0.00     0.347 HD
BRANCH  11  14
ATOM     14  C   UNL A   1      30.454  26.056  25.028  1.00  0.00     0.298 C 
BRANCH  14  15
ATOM     15  C   UNL A   1      30.997  27.414  25.506  1.00  0.00     0.010 A 
ATOM     16  C   UNL A   1      31.403  27.413  26.876  1.00  0.00     0.010 A 
ATOM     17  C   UNL A   1      31.116  28.632  24.764  1.00  0.00    -0.036 A 
ATOM     18  C   UNL A   1      32.021  28.496  27.492  1.00  0.00     0.001 A 
ATOM     19  C   UNL A   1      31.831  29.679  25.431  1.00  0.00     0.004 A 
ATOM     20  C   UNL A   1      32.273  29.625  26.752  1.00  0.00     0.000 A 
BRANCH  17  21
ATOM     21  C   UNL A   1      30.530  29.141  23.432  1.00  0.00     0.020 C 
ATOM     22  C   UNL A   1      29.305  28.768  22.665  1.00  0.00     0.009 C 
ATOM     23  C   UNL A   1      29.396  30.115  23.314  1.00  0.00     0.009 C 
ENDBRANCH  17  21
ENDBRANCH  14  15
ENDBRANCH  11  14
ENDBRANCH   5  11
ENDBRANCH   4   5
ENDBRANCH   2   4
ENDBRANCH   1   2
BRANCH   1  24
ATOM     24  C   UNL A   1      36.572  22.573  23.741  1.00  0.00     0.274 C 
BRANCH  24  25
ATOM     25  C   UNL A   1      37.260  21.377  24.400  1.00  0.00     0.275 C 
BRANCH  25  26
ATOM     26  O   UNL A   1      37.674  21.644  25.752  1.00  0.00    -0.458 OA
BRANCH  26  27
ATOM     27  C   UNL A   1      38.957  21.356  26.079  1.00  0.00     0.338 C 
ATOM     28  O   UNL A   1      39.573  20.352  25.759  1.00  0.00    -0.246 OA
BRANCH  27  29
ATOM     29  C   UNL A   1      39.587  22.521  26.751  1.00  0.00     0.060 A 
ATOM     30  C   UNL A   1      39.056  23.781  26.465  1.00  0.00     0.016 A 
ATOM     31  C   UNL A   1      40.677  22.414  27.625  1.00  0.00     0.016 A 
ATOM     32  C   UNL A   1      39.624  24.933  27.015  1.00  0.00     0.010 A 
ATOM     33  C   UNL A   1      41.251  23.580  28.178  1.00  0.00     0.010 A 
ATOM     34  C   UNL A   1      40.746  24.853  27.853  1.00  0.00    -0.014 A 
BRANCH  34  35
ATOM     35  C   UNL A   1      41.397  26.132  28.272  1.00  0.00     0.031 A 
ATOM     36  C   UNL A   1      42.797  26.450  27.811  1.00  0.00     0.074 A 
ATOM     37  C   UNL A   1      40.698  27.075  28.935  1.00  0.00     0.049 A 
ATOM     38  N   UNL A   1      43.460  27.580  27.875  1.00  0.00    -0.248 NA
ATOM     39  C   UNL A   1      43.548  25.352  27.186  1.00  0.00     0.031 C 
ATOM     40  C   UNL A   1      39.335  26.916  29.437  1.00  0.00     0.029 A 
ATOM     41  N   UNL A   1      41.030  28.368  29.271  1.00  0.00    -0.354 N 
ATOM     42  C   UNL A   1      44.686  27.340  27.266  1.00  0.00     0.074 A 
ATOM     43  C   UNL A   1      44.700  25.939  26.897  1.00  0.00     0.031 C 
ATOM     44  C   UNL A   1      38.939  28.069  30.001  1.00  0.00     0.029 A 
ATOM     45  C   UNL A   1      40.020  29.051  29.908  1.00  0.00     0.049 A 
ATOM     46  H   UNL A   1      41.908  28.768  29.075  1.00  0.00     0.167 HD
ATOM     47  C   UNL A   1      45.695  28.208  27.009  1.00  0.00     0.037 A 
ATOM     48  C   UNL A   1      39.963  30.322  30.356  1.00  0.00     0.037 A 
ATOM     49  C   UNL A   1      45.702  29.598  27.392  1.00  0.00     0.049 A 
ATOM     50  C   UNL A   1      41.127  31.252  30.111  1.00  0.00     0.074 A 
ATOM     51  C   UNL A   1      46.685  30.550  27.176  1.00  0.00     0.029 A 
ATOM     52  N   UNL A   1      44.682  30.234  28.085  1.00  0.00    -0.354 N 
ATOM     53  N   UNL A   1      42.253  31.028  29.479  1.00  0.00    -0.248 NA
ATOM     54  C   UNL A   1      40.999  32.625  30.627  1.00  0.00     0.031 C 
ATOM     55  C   UNL A   1      46.285  31.744  27.785  1.00  0.00     0.029 A 
ATOM     56  C   UNL A   1      45.024  31.556  28.326  1.00  0.00     0.049 A 
ATOM     57  H   UNL A   1      43.840  29.809  28.364  1.00  0.00     0.167 HD
ATOM     58  C   UNL A   1      42.953  32.229  29.501  1.00  0.00     0.074 A 
ATOM     59  C   UNL A   1      42.110  33.190  30.178  1.00  0.00     0.031 C 
ATOM     60  C   UNL A   1      44.186  32.510  29.008  1.00  0.00     0.037 A 
BRANCH  47  61
ATOM     61  C   UNL A   1      46.894  27.678  26.271  1.00  0.00     0.064 A 
ATOM     62  C   UNL A   1      46.971  27.724  24.871  1.00  0.00     0.173 A 
ATOM     63  C   UNL A   1      47.999  27.169  26.969  1.00  0.00     0.173 A 
ATOM     64  F   UNL A   1      45.940  28.195  24.151  1.00  0.00    -0.203 F 
ATOM     65  C   UNL A   1      48.098  27.258  24.197  1.00  0.00     0.198 A 
ATOM     66  C   UNL A   1      49.137  26.731  26.296  1.00  0.00     0.198 A 
ATOM     67  F   UNL A   1      47.983  27.110  28.310  1.00  0.00    -0.203 F 
ATOM     68  F   UNL A   1      48.130  27.272  22.858  1.00  0.00    -0.200 F 
ATOM     69  C   UNL A   1      49.183  26.769  24.910  1.00  0.00     0.200 A 
ATOM     70  F   UNL A   1      50.190  26.275  26.988  1.00  0.00    -0.200 F 
ATOM     71  F   UNL A   1      50.270  26.330  24.262  1.00  0.00    -0.200 F 
ENDBRANCH  47  61
BRANCH  48  72
ATOM     72  C   UNL A   1      38.761  30.803  31.094  1.00  0.00     0.064 A 
ATOM     73  C   UNL A   1      37.682  31.407  30.433  1.00  0.00     0.173 A 
ATOM     74  C   UNL A   1      38.698  30.718  32.493  1.00  0.00     0.173 A 
ATOM     75  F   UNL A   1      37.704  31.544  29.098  1.00  0.00    -0.203 F 
ATOM     76  C   UNL A   1      36.602  31.932  31.143  1.00  0.00     0.198 A 
ATOM     77  C   UNL A   1      37.603  31.210  33.199  1.00  0.00     0.198 A 
ATOM     78  F   UNL A   1      39.706  30.157  33.178  1.00  0.00    -0.203 F 
ATOM     79  F   UNL A   1      35.618  32.565  30.491  1.00  0.00    -0.200 F 
ATOM     80  C   UNL A   1      36.561  31.828  32.525  1.00  0.00     0.200 A 
ATOM     81  F   UNL A   1      37.564  31.098  34.534  1.00  0.00    -0.200 F 
ATOM     82  F   UNL A   1      35.527  32.337  33.208  1.00  0.00    -0.200 F 
ENDBRANCH  48  72
BRANCH  60  83
ATOM     83  C   UNL A   1      44.688  33.920  29.169  1.00  0.00     0.064 A 
ATOM     84  C   UNL A   1      44.431  34.911  28.209  1.00  0.00     0.173 A 
ATOM     85  C   UNL A   1      45.435  34.288  30.300  1.00  0.00     0.173 A 
ATOM     86  F   UNL A   1      43.731  34.614  27.104  1.00  0.00    -0.203 F 
ATOM     87  C   UNL A   1      44.943  36.199  28.349  1.00  0.00     0.198 A 
ATOM     88  C   UNL A   1      45.914  35.587  30.455  1.00  0.00     0.198 A 
ATOM     89  F   UNL A   1      45.702  33.388  31.257  1.00  0.00    -0.203 F 
ATOM     90  F   UNL A   1      44.745  37.105  27.382  1.00  0.00    -0.200 F 
ATOM     91  C   UNL A   1      45.680  36.537  29.474  1.00  0.00     0.200 A 
ATOM     92  F   UNL A   1      46.610  35.917  31.552  1.00  0.00    -0.200 F 
ATOM     93  F   UNL A   1      46.176  37.776  29.604  1.00  0.00    -0.200 F 
ENDBRANCH  60  83
ENDBRANCH  34  35
ENDBRANCH  27  29
ENDBRANCH  26  27
ENDBRANCH  25  26
ENDBRANCH  24  25
ENDBRANCH   1  24
TORSDOF 17
ENDMDL
