MODEL 1
REMARK VINA RESULT:     -12.4      0.000      0.000
REMARK SMILES O=C(C[C@H]1C[C@H]2CC[C@@H](C1)[N@H+]2[C@@H]1CCCSC1)OCCOC(=O)c1ccc(-c2c3nc(c(-c4c(F)c(F)c(F)c(F)c4F)c4ccc([nH]4)c(-c4c(F)c(F)c(F)c(F)c4F)c4nc(c(-c5c(F)c(F)c(F)c(F)c5F)c5ccc2[nH]5)C=C4)C=C3)cc1
REMARK SMILES IDX 19 1 18 2 2 3 1 4 3 5 4 6 5 7 10 8 6 9 9 10 7 11 11 12 8 13
REMARK SMILES IDX 12 15 13 16 17 17 14 18 16 19 15 20 20 21 21 22 22 23 23 24
REMARK SMILES IDX 24 25 25 26 86 27 26 28 85 29 27 30 28 31 29 32 79 33 30 34
REMARK SMILES IDX 84 35 78 36 80 37 31 38 83 39 77 40 76 41 32 43 64 44 44 45
REMARK SMILES IDX 63 46 45 47 48 48 62 49 81 50 46 51 47 52 61 54 82 55 49 56
REMARK SMILES IDX 33 57 34 58 42 59 35 60 36 61 40 62 43 63 37 64 38 65 41 66
REMARK SMILES IDX 39 67 65 68 66 69 74 70 67 71 68 72 72 73 75 74 69 75 70 76
REMARK SMILES IDX 73 77 71 78 50 79 51 80 59 81 52 82 53 83 57 84 60 85 54 86
REMARK SMILES IDX 55 87 58 88 56 89
REMARK H PARENT 11 14 80 42 48 53
REMARK Flexibility Score: inf
ROOT
ATOM      1  C   UNL A   1      32.036  30.068  25.381  1.00  0.00     0.274 C 
ENDROOT
BRANCH   1   2
ATOM      2  O   UNL A   1      30.843  29.831  24.614  1.00  0.00    -0.462 OA
BRANCH   2   3
ATOM      3  C   UNL A   1      30.900  28.880  23.638  1.00  0.00     0.306 C 
ATOM      4  O   UNL A   1      30.793  29.159  22.451  1.00  0.00    -0.252 OA
BRANCH   3   5
ATOM      5  C   UNL A   1      30.906  27.456  24.148  1.00  0.00     0.126 C 
BRANCH   5   6
ATOM      6  C   UNL A   1      32.253  26.728  24.176  1.00  0.00     0.012 C 
ATOM      7  C   UNL A   1      32.568  26.077  25.543  1.00  0.00     0.069 C 
ATOM      8  C   UNL A   1      32.296  25.746  22.970  1.00  0.00     0.069 C 
ATOM      9  C   UNL A   1      32.413  24.554  25.599  1.00  0.00     0.185 C 
ATOM     10  C   UNL A   1      32.254  24.247  23.315  1.00  0.00     0.185 C 
ATOM     11  C   UNL A   1      30.962  24.113  25.355  1.00  0.00     0.071 C 
ATOM     12  N   UNL A   1      33.055  23.895  24.475  1.00  0.00    -0.327 N 
ATOM     13  C   UNL A   1      30.878  23.840  23.853  1.00  0.00     0.071 C 
ATOM     14  H   UNL A   1      33.051  22.882  24.585  1.00  0.00     0.348 HD
BRANCH  12  15
ATOM     15  C   UNL A   1      34.510  23.757  24.417  1.00  0.00     0.194 C 
ATOM     16  C   UNL A   1      35.083  23.086  23.156  1.00  0.00     0.067 C 
ATOM     17  C   UNL A   1      34.952  23.036  25.716  1.00  0.00     0.134 C 
ATOM     18  C   UNL A   1      36.600  22.917  23.164  1.00  0.00     0.017 C 
ATOM     19  S   UNL A   1      36.749  22.813  25.887  1.00  0.00    -0.156 SA
ATOM     20  C   UNL A   1      37.062  22.013  24.294  1.00  0.00     0.070 C 
ENDBRANCH  12  15
ENDBRANCH   5   6
ENDBRANCH   3   5
ENDBRANCH   2   3
ENDBRANCH   1   2
BRANCH   1  21
ATOM     21  C   UNL A   1      31.789  30.706  26.759  1.00  0.00     0.275 C 
BRANCH  21  22
ATOM     22  O   UNL A   1      32.934  30.599  27.622  1.00  0.00    -0.458 OA
BRANCH  22  23
ATOM     23  C   UNL A   1      33.618  31.760  27.754  1.00  0.00     0.338 C 
ATOM     24  O   UNL A   1      33.132  32.870  27.907  1.00  0.00    -0.246 OA
BRANCH  23  25
ATOM     25  C   UNL A   1      35.073  31.512  27.868  1.00  0.00     0.060 A 
ATOM     26  C   UNL A   1      35.481  30.176  27.780  1.00  0.00     0.016 A 
ATOM     27  C   UNL A   1      36.018  32.518  28.103  1.00  0.00     0.016 A 
ATOM     28  C   UNL A   1      36.799  29.826  28.052  1.00  0.00     0.010 A 
ATOM     29  C   UNL A   1      37.351  32.166  28.369  1.00  0.00     0.010 A 
ATOM     30  C   UNL A   1      37.725  30.810  28.425  1.00  0.00    -0.014 A 
BRANCH  30  31
ATOM     31  C   UNL A   1      38.942  30.350  29.145  1.00  0.00     0.031 A 
ATOM     32  C   UNL A   1      39.117  30.779  30.581  1.00  0.00     0.074 A 
ATOM     33  C   UNL A   1      39.783  29.443  28.614  1.00  0.00     0.049 A 
ATOM     34  N   UNL A   1      39.931  30.318  31.496  1.00  0.00    -0.248 NA
ATOM     35  C   UNL A   1      38.243  31.866  31.051  1.00  0.00     0.031 C 
ATOM     36  C   UNL A   1      39.722  28.924  27.252  1.00  0.00     0.029 A 
ATOM     37  N   UNL A   1      40.839  28.774  29.186  1.00  0.00    -0.354 N 
ATOM     38  C   UNL A   1      39.644  31.036  32.651  1.00  0.00     0.074 A 
ATOM     39  C   UNL A   1      38.629  32.007  32.309  1.00  0.00     0.031 C 
ATOM     40  C   UNL A   1      40.687  27.998  27.096  1.00  0.00     0.029 A 
ATOM     41  C   UNL A   1      41.425  27.856  28.350  1.00  0.00     0.049 A 
ATOM     42  H   UNL A   1      41.145  28.937  30.107  1.00  0.00     0.167 HD
ATOM     43  C   UNL A   1      40.154  30.886  33.896  1.00  0.00     0.037 A 
ATOM     44  C   UNL A   1      42.427  26.982  28.582  1.00  0.00     0.037 A 
ATOM     45  C   UNL A   1      41.167  29.932  34.250  1.00  0.00     0.049 A 
ATOM     46  C   UNL A   1      43.022  26.875  29.965  1.00  0.00     0.074 A 
ATOM     47  C   UNL A   1      41.739  29.699  35.487  1.00  0.00     0.029 A 
ATOM     48  N   UNL A   1      41.768  29.059  33.358  1.00  0.00    -0.354 N 
ATOM     49  N   UNL A   1      42.687  27.502  31.067  1.00  0.00    -0.248 NA
ATOM     50  C   UNL A   1      44.123  25.915  30.138  1.00  0.00     0.031 C 
ATOM     51  C   UNL A   1      42.723  28.716  35.334  1.00  0.00     0.029 A 
ATOM     52  C   UNL A   1      42.725  28.302  34.012  1.00  0.00     0.049 A 
ATOM     53  H   UNL A   1      41.549  28.989  32.400  1.00  0.00     0.167 HD
ATOM     54  C   UNL A   1      43.499  26.979  32.068  1.00  0.00     0.074 A 
ATOM     55  C   UNL A   1      44.342  25.982  31.444  1.00  0.00     0.031 C 
ATOM     56  C   UNL A   1      43.539  27.293  33.386  1.00  0.00     0.037 A 
BRANCH  43  57
ATOM     57  C   UNL A   1      39.622  31.793  34.965  1.00  0.00     0.064 A 
ATOM     58  C   UNL A   1      38.645  31.361  35.875  1.00  0.00     0.173 A 
ATOM     59  C   UNL A   1      40.097  33.108  35.083  1.00  0.00     0.173 A 
ATOM     60  F   UNL A   1      38.144  30.120  35.789  1.00  0.00    -0.203 F 
ATOM     61  C   UNL A   1      38.145  32.221  36.849  1.00  0.00     0.198 A 
ATOM     62  C   UNL A   1      39.614  33.955  36.074  1.00  0.00     0.198 A 
ATOM     63  F   UNL A   1      41.029  33.568  34.235  1.00  0.00    -0.203 F 
ATOM     64  F   UNL A   1      37.176  31.804  37.675  1.00  0.00    -0.200 F 
ATOM     65  C   UNL A   1      38.633  33.515  36.951  1.00  0.00     0.200 A 
ATOM     66  F   UNL A   1      40.091  35.203  36.177  1.00  0.00    -0.200 F 
ATOM     67  F   UNL A   1      38.151  34.342  37.888  1.00  0.00    -0.200 F 
ENDBRANCH  43  57
BRANCH  44  68
ATOM     68  C   UNL A   1      42.915  26.098  27.491  1.00  0.00     0.064 A 
ATOM     69  C   UNL A   1      43.960  26.498  26.645  1.00  0.00     0.173 A 
ATOM     70  C   UNL A   1      42.311  24.858  27.241  1.00  0.00     0.173 A 
ATOM     71  F   UNL A   1      44.550  27.689  26.826  1.00  0.00    -0.203 F 
ATOM     72  C   UNL A   1      44.362  25.703  25.574  1.00  0.00     0.198 A 
ATOM     73  C   UNL A   1      42.732  24.053  26.186  1.00  0.00     0.198 A 
ATOM     74  F   UNL A   1      41.304  24.433  28.019  1.00  0.00    -0.203 F 
ATOM     75  F   UNL A   1      45.324  26.133  24.746  1.00  0.00    -0.200 F 
ATOM     76  C   UNL A   1      43.750  24.479  25.347  1.00  0.00     0.200 A 
ATOM     77  F   UNL A   1      42.141  22.869  25.974  1.00  0.00    -0.200 F 
ATOM     78  F   UNL A   1      44.131  23.718  24.312  1.00  0.00    -0.200 F 
ENDBRANCH  44  68
BRANCH  56  79
ATOM     79  C   UNL A   1      44.481  26.517  34.261  1.00  0.00     0.064 A 
ATOM     80  C   UNL A   1      45.785  26.962  34.524  1.00  0.00     0.173 A 
ATOM     81  C   UNL A   1      44.054  25.333  34.884  1.00  0.00     0.173 A 
ATOM     82  F   UNL A   1      46.245  28.082  33.947  1.00  0.00    -0.203 F 
ATOM     83  C   UNL A   1      46.636  26.235  35.354  1.00  0.00     0.198 A 
ATOM     84  C   UNL A   1      44.897  24.626  35.736  1.00  0.00     0.198 A 
ATOM     85  F   UNL A   1      42.812  24.869  34.675  1.00  0.00    -0.203 F 
ATOM     86  F   UNL A   1      47.893  26.654  35.553  1.00  0.00    -0.200 F 
ATOM     87  C   UNL A   1      46.189  25.072  35.965  1.00  0.00     0.200 A 
ATOM     88  F   UNL A   1      44.458  23.510  36.337  1.00  0.00    -0.200 F 
ATOM     89  F   UNL A   1      47.007  24.379  36.768  1.00  0.00    -0.200 F 
ENDBRANCH  56  79
ENDBRANCH  30  31
ENDBRANCH  23  25
ENDBRANCH  22  23
ENDBRANCH  21  22
ENDBRANCH   1  21
TORSDOF 13
ENDMDL
MODEL 2
REMARK VINA RESULT:     -12.4      0.291      1.651
REMARK SMILES O=C(C[C@H]1C[C@H]2CC[C@@H](C1)[N@H+]2[C@@H]1CCCSC1)OCCOC(=O)c1ccc(-c2c3nc(c(-c4c(F)c(F)c(F)c(F)c4F)c4ccc([nH]4)c(-c4c(F)c(F)c(F)c(F)c4F)c4nc(c(-c5c(F)c(F)c(F)c(F)c5F)c5ccc2[nH]5)C=C4)C=C3)cc1
REMARK SMILES IDX 19 1 18 2 2 3 1 4 3 5 4 6 5 7 10 8 6 9 9 10 7 11 11 12 8 13
REMARK SMILES IDX 12 15 13 16 17 17 14 18 16 19 15 20 20 21 21 22 22 23 23 24
REMARK SMILES IDX 24 25 25 26 86 27 26 28 85 29 27 30 28 31 29 32 79 33 30 34
REMARK SMILES IDX 84 35 78 36 80 37 31 38 83 39 77 40 76 41 32 43 64 44 44 45
REMARK SMILES IDX 63 46 45 47 48 48 62 49 81 50 46 51 47 52 61 54 82 55 49 56
REMARK SMILES IDX 33 57 34 58 42 59 35 60 36 61 40 62 43 63 37 64 38 65 41 66
REMARK SMILES IDX 39 67 65 68 66 69 74 70 67 71 68 72 72 73 75 74 69 75 70 76
REMARK SMILES IDX 73 77 71 78 50 79 51 80 59 81 52 82 53 83 57 84 60 85 54 86
REMARK SMILES IDX 55 87 58 88 56 89
REMARK H PARENT 11 14 80 42 48 53
REMARK Flexibility Score: inf
ROOT
ATOM      1  C   UNL A   1      32.043  30.077  25.387  1.00  0.00     0.274 C 
ENDROOT
BRANCH   1   2
ATOM      2  O   UNL A   1      30.852  29.753  24.648  1.00  0.00    -0.462 OA
BRANCH   2   3
ATOM      3  C   UNL A   1      30.930  28.739  23.740  1.00  0.00     0.306 C 
ATOM      4  O   UNL A   1      30.763  28.924  22.542  1.00  0.00    -0.252 OA
BRANCH   3   5
ATOM      5  C   UNL A   1      31.039  27.358  24.350  1.00  0.00     0.126 C 
BRANCH   5   6
ATOM      6  C   UNL A   1      32.394  26.653  24.246  1.00  0.00     0.012 C 
ATOM      7  C   UNL A   1      33.072  26.426  25.617  1.00  0.00     0.069 C 
ATOM      8  C   UNL A   1      32.203  25.361  23.400  1.00  0.00     0.069 C 
ATOM      9  C   UNL A   1      33.030  24.988  26.143  1.00  0.00     0.185 C 
ATOM     10  C   UNL A   1      32.339  24.029  24.158  1.00  0.00     0.185 C 
ATOM     11  C   UNL A   1      31.593  24.513  26.407  1.00  0.00     0.071 C 
ATOM     12  N   UNL A   1      33.418  24.021  25.131  1.00  0.00    -0.327 N 
ATOM     13  C   UNL A   1      31.163  23.815  25.117  1.00  0.00     0.071 C 
ATOM     14  H   UNL A   1      33.503  23.084  25.524  1.00  0.00     0.348 HD
BRANCH  12  15
ATOM     15  C   UNL A   1      34.821  23.853  24.752  1.00  0.00     0.194 C 
ATOM     16  C   UNL A   1      35.098  22.938  23.547  1.00  0.00     0.067 C 
ATOM     17  C   UNL A   1      35.585  23.398  26.022  1.00  0.00     0.134 C 
ATOM     18  C   UNL A   1      36.579  22.753  23.222  1.00  0.00     0.017 C 
ATOM     19  S   UNL A   1      37.377  23.187  25.795  1.00  0.00    -0.156 SA
ATOM     20  C   UNL A   1      37.328  22.084  24.362  1.00  0.00     0.070 C 
ENDBRANCH  12  15
ENDBRANCH   5   6
ENDBRANCH   3   5
ENDBRANCH   2   3
ENDBRANCH   1   2
BRANCH   1  21
ATOM     21  C   UNL A   1      31.786  30.795  26.723  1.00  0.00     0.275 C 
BRANCH  21  22
ATOM     22  O   UNL A   1      32.905  30.691  27.621  1.00  0.00    -0.458 OA
BRANCH  22  23
ATOM     23  C   UNL A   1      33.592  31.850  27.759  1.00  0.00     0.338 C 
ATOM     24  O   UNL A   1      33.108  32.960  27.924  1.00  0.00    -0.246 OA
BRANCH  23  25
ATOM     25  C   UNL A   1      35.047  31.599  27.864  1.00  0.00     0.060 A 
ATOM     26  C   UNL A   1      35.452  30.264  27.758  1.00  0.00     0.016 A 
ATOM     27  C   UNL A   1      35.994  32.601  28.106  1.00  0.00     0.016 A 
ATOM     28  C   UNL A   1      36.771  29.908  28.020  1.00  0.00     0.010 A 
ATOM     29  C   UNL A   1      37.328  32.244  28.362  1.00  0.00     0.010 A 
ATOM     30  C   UNL A   1      37.700  30.887  28.400  1.00  0.00    -0.014 A 
BRANCH  30  31
ATOM     31  C   UNL A   1      38.920  30.417  29.109  1.00  0.00     0.031 A 
ATOM     32  C   UNL A   1      39.108  30.838  30.545  1.00  0.00     0.074 A 
ATOM     33  C   UNL A   1      39.752  29.508  28.568  1.00  0.00     0.049 A 
ATOM     34  N   UNL A   1      39.925  30.369  31.453  1.00  0.00    -0.248 NA
ATOM     35  C   UNL A   1      38.243  31.928  31.027  1.00  0.00     0.031 C 
ATOM     36  C   UNL A   1      39.679  28.996  27.204  1.00  0.00     0.029 A 
ATOM     37  N   UNL A   1      40.809  28.830  29.129  1.00  0.00    -0.354 N 
ATOM     38  C   UNL A   1      39.651  31.083  32.613  1.00  0.00     0.074 A 
ATOM     39  C   UNL A   1      38.639  32.060  32.283  1.00  0.00     0.031 C 
ATOM     40  C   UNL A   1      40.637  28.065  27.036  1.00  0.00     0.029 A 
ATOM     41  C   UNL A   1      41.384  27.913  28.284  1.00  0.00     0.049 A 
ATOM     42  H   UNL A   1      41.122  28.988  30.048  1.00  0.00     0.167 HD
ATOM     43  C   UNL A   1      40.169  30.924  33.853  1.00  0.00     0.037 A 
ATOM     44  C   UNL A   1      42.382  27.033  28.505  1.00  0.00     0.037 A 
ATOM     45  C   UNL A   1      41.180  29.963  34.196  1.00  0.00     0.049 A 
ATOM     46  C   UNL A   1      42.987  26.916  29.883  1.00  0.00     0.074 A 
ATOM     47  C   UNL A   1      41.759  29.721  35.428  1.00  0.00     0.029 A 
ATOM     48  N   UNL A   1      41.770  29.091  33.295  1.00  0.00    -0.354 N 
ATOM     49  N   UNL A   1      42.663  27.539  30.990  1.00  0.00    -0.248 NA
ATOM     50  C   UNL A   1      44.084  25.949  30.043  1.00  0.00     0.031 C 
ATOM     51  C   UNL A   1      42.736  28.733  35.263  1.00  0.00     0.029 A 
ATOM     52  C   UNL A   1      42.727  28.326  33.939  1.00  0.00     0.049 A 
ATOM     53  H   UNL A   1      41.543  29.026  32.339  1.00  0.00     0.167 HD
ATOM     54  C   UNL A   1      43.480  27.007  31.983  1.00  0.00     0.074 A 
ATOM     55  C   UNL A   1      44.313  26.009  31.348  1.00  0.00     0.031 C 
ATOM     56  C   UNL A   1      43.531  27.315  33.302  1.00  0.00     0.037 A 
BRANCH  43  57
ATOM     57  C   UNL A   1      39.649  31.829  34.930  1.00  0.00     0.064 A 
ATOM     58  C   UNL A   1      40.129  33.139  35.084  1.00  0.00     0.173 A 
ATOM     59  C   UNL A   1      38.656  31.382  35.815  1.00  0.00     0.173 A 
ATOM     60  F   UNL A   1      41.093  33.604  34.276  1.00  0.00    -0.203 F 
ATOM     61  C   UNL A   1      39.652  33.959  36.102  1.00  0.00     0.198 A 
ATOM     62  C   UNL A   1      38.164  32.215  36.814  1.00  0.00     0.198 A 
ATOM     63  F   UNL A   1      38.168  30.138  35.709  1.00  0.00    -0.203 F 
ATOM     64  F   UNL A   1      40.162  35.188  36.263  1.00  0.00    -0.200 F 
ATOM     65  C   UNL A   1      38.667  33.499  36.962  1.00  0.00     0.200 A 
ATOM     66  F   UNL A   1      37.207  31.772  37.641  1.00  0.00    -0.200 F 
ATOM     67  F   UNL A   1      38.209  34.290  37.942  1.00  0.00    -0.200 F 
ENDBRANCH  43  57
BRANCH  44  68
ATOM     68  C   UNL A   1      42.857  26.151  27.406  1.00  0.00     0.064 A 
ATOM     69  C   UNL A   1      42.290  24.886  27.195  1.00  0.00     0.173 A 
ATOM     70  C   UNL A   1      43.922  26.535  26.581  1.00  0.00     0.173 A 
ATOM     71  F   UNL A   1      41.288  24.461  27.978  1.00  0.00    -0.203 F 
ATOM     72  C   UNL A   1      42.790  24.028  26.217  1.00  0.00     0.198 A 
ATOM     73  C   UNL A   1      44.404  25.688  25.587  1.00  0.00     0.198 A 
ATOM     74  F   UNL A   1      44.502  27.734  26.747  1.00  0.00    -0.203 F 
ATOM     75  F   UNL A   1      42.269  22.802  26.072  1.00  0.00    -0.200 F 
ATOM     76  C   UNL A   1      43.845  24.431  25.411  1.00  0.00     0.200 A 
ATOM     77  F   UNL A   1      45.420  26.083  24.808  1.00  0.00    -0.200 F 
ATOM     78  F   UNL A   1      44.332  23.603  24.477  1.00  0.00    -0.200 F 
ENDBRANCH  44  68
BRANCH  56  79
ATOM     79  C   UNL A   1      44.475  26.529  34.167  1.00  0.00     0.064 A 
ATOM     80  C   UNL A   1      45.791  26.954  34.402  1.00  0.00     0.173 A 
ATOM     81  C   UNL A   1      44.039  25.358  34.807  1.00  0.00     0.173 A 
ATOM     82  F   UNL A   1      46.259  28.061  33.808  1.00  0.00    -0.203 F 
ATOM     83  C   UNL A   1      46.644  26.219  35.223  1.00  0.00     0.198 A 
ATOM     84  C   UNL A   1      44.885  24.643  35.650  1.00  0.00     0.198 A 
ATOM     85  F   UNL A   1      42.786  24.915  34.624  1.00  0.00    -0.203 F 
ATOM     86  F   UNL A   1      47.911  26.618  35.396  1.00  0.00    -0.200 F 
ATOM     87  C   UNL A   1      46.188  25.069  35.852  1.00  0.00     0.200 A 
ATOM     88  F   UNL A   1      44.437  23.541  36.268  1.00  0.00    -0.200 F 
ATOM     89  F   UNL A   1      47.009  24.368  36.646  1.00  0.00    -0.200 F 
ENDBRANCH  56  79
ENDBRANCH  30  31
ENDBRANCH  23  25
ENDBRANCH  22  23
ENDBRANCH  21  22
ENDBRANCH   1  21
TORSDOF 13
ENDMDL
MODEL 3
REMARK VINA RESULT:     -12.2      0.950      1.828
REMARK SMILES O=C(C[C@H]1C[C@H]2CC[C@@H](C1)[N@H+]2[C@@H]1CCCSC1)OCCOC(=O)c1ccc(-c2c3nc(c(-c4c(F)c(F)c(F)c(F)c4F)c4ccc([nH]4)c(-c4c(F)c(F)c(F)c(F)c4F)c4nc(c(-c5c(F)c(F)c(F)c(F)c5F)c5ccc2[nH]5)C=C4)C=C3)cc1
REMARK SMILES IDX 19 1 18 2 2 3 1 4 3 5 4 6 5 7 10 8 6 9 9 10 7 11 11 12 8 13
REMARK SMILES IDX 12 15 13 16 17 17 14 18 16 19 15 20 20 21 21 22 22 23 23 24
REMARK SMILES IDX 24 25 25 26 86 27 26 28 85 29 27 30 28 31 29 32 79 33 30 34
REMARK SMILES IDX 84 35 78 36 80 37 31 38 83 39 77 40 76 41 32 43 64 44 44 45
REMARK SMILES IDX 63 46 45 47 48 48 62 49 81 50 46 51 47 52 61 54 82 55 49 56
REMARK SMILES IDX 33 57 34 58 42 59 35 60 36 61 40 62 43 63 37 64 38 65 41 66
REMARK SMILES IDX 39 67 65 68 66 69 74 70 67 71 68 72 72 73 75 74 69 75 70 76
REMARK SMILES IDX 73 77 71 78 50 79 51 80 59 81 52 82 53 83 57 84 60 85 54 86
REMARK SMILES IDX 55 87 58 88 56 89
REMARK H PARENT 11 14 80 42 48 53
REMARK Flexibility Score: inf
ROOT
ATOM      1  C   UNL A   1      32.223  29.724  25.465  1.00  0.00     0.274 C 
ENDROOT
BRANCH   1   2
ATOM      2  O   UNL A   1      31.411  28.549  25.640  1.00  0.00    -0.462 OA
BRANCH   2   3
ATOM      3  C   UNL A   1      31.789  27.661  26.603  1.00  0.00     0.306 C 
ATOM      4  O   UNL A   1      31.130  27.485  27.619  1.00  0.00    -0.252 OA
BRANCH   3   5
ATOM      5  C   UNL A   1      33.167  27.069  26.405  1.00  0.00     0.126 C 
BRANCH   5   6
ATOM      6  C   UNL A   1      33.247  25.581  26.055  1.00  0.00     0.012 C 
ATOM      7  C   UNL A   1      31.905  24.999  25.552  1.00  0.00     0.069 C 
ATOM      8  C   UNL A   1      34.443  25.376  25.082  1.00  0.00     0.069 C 
ATOM      9  C   UNL A   1      31.822  24.743  24.044  1.00  0.00     0.185 C 
ATOM     10  C   UNL A   1      34.083  24.995  23.636  1.00  0.00     0.185 C 
ATOM     11  C   UNL A   1      31.939  26.041  23.231  1.00  0.00     0.071 C 
ATOM     12  N   UNL A   1      32.990  24.041  23.541  1.00  0.00    -0.327 N 
ATOM     13  C   UNL A   1      33.427  26.169  22.900  1.00  0.00     0.071 C 
ATOM     14  H   UNL A   1      32.871  23.770  22.566  1.00  0.00     0.348 HD
BRANCH  12  15
ATOM     15  C   UNL A   1      33.170  22.610  23.786  1.00  0.00     0.194 C 
ATOM     16  C   UNL A   1      31.980  21.871  24.423  1.00  0.00     0.067 C 
ATOM     17  C   UNL A   1      34.470  22.449  24.614  1.00  0.00     0.134 C 
ATOM     18  C   UNL A   1      32.233  20.392  24.707  1.00  0.00     0.017 C 
ATOM     19  S   UNL A   1      34.927  20.727  24.984  1.00  0.00    -0.156 SA
ATOM     20  C   UNL A   1      33.358  20.195  25.709  1.00  0.00     0.070 C 
ENDBRANCH  12  15
ENDBRANCH   5   6
ENDBRANCH   3   5
ENDBRANCH   2   3
ENDBRANCH   1   2
BRANCH   1  21
ATOM     21  C   UNL A   1      31.982  30.825  26.512  1.00  0.00     0.275 C 
BRANCH  21  22
ATOM     22  O   UNL A   1      32.913  30.749  27.606  1.00  0.00    -0.458 OA
BRANCH  22  23
ATOM     23  C   UNL A   1      33.614  31.892  27.795  1.00  0.00     0.338 C 
ATOM     24  O   UNL A   1      33.143  33.001  27.998  1.00  0.00    -0.246 OA
BRANCH  23  25
ATOM     25  C   UNL A   1      35.064  31.617  27.903  1.00  0.00     0.060 A 
ATOM     26  C   UNL A   1      35.444  30.271  27.842  1.00  0.00     0.016 A 
ATOM     27  C   UNL A   1      36.031  32.608  28.107  1.00  0.00     0.016 A 
ATOM     28  C   UNL A   1      36.757  29.900  28.111  1.00  0.00     0.010 A 
ATOM     29  C   UNL A   1      37.359  32.235  28.370  1.00  0.00     0.010 A 
ATOM     30  C   UNL A   1      37.706  30.874  28.454  1.00  0.00    -0.014 A 
BRANCH  30  31
ATOM     31  C   UNL A   1      38.920  30.405  29.174  1.00  0.00     0.031 A 
ATOM     32  C   UNL A   1      39.093  30.827  30.612  1.00  0.00     0.074 A 
ATOM     33  C   UNL A   1      39.757  29.497  28.642  1.00  0.00     0.049 A 
ATOM     34  N   UNL A   1      39.903  30.359  31.527  1.00  0.00    -0.248 NA
ATOM     35  C   UNL A   1      38.223  31.916  31.086  1.00  0.00     0.031 C 
ATOM     36  C   UNL A   1      39.698  28.984  27.276  1.00  0.00     0.029 A 
ATOM     37  N   UNL A   1      40.810  28.821  29.212  1.00  0.00    -0.354 N 
ATOM     38  C   UNL A   1      39.617  31.072  32.685  1.00  0.00     0.074 A 
ATOM     39  C   UNL A   1      38.607  32.049  32.345  1.00  0.00     0.031 C 
ATOM     40  C   UNL A   1      40.658  28.055  27.118  1.00  0.00     0.029 A 
ATOM     41  C   UNL A   1      41.394  27.904  28.373  1.00  0.00     0.049 A 
ATOM     42  H   UNL A   1      41.115  28.979  30.134  1.00  0.00     0.167 HD
ATOM     43  C   UNL A   1      40.124  30.915  33.930  1.00  0.00     0.037 A 
ATOM     44  C   UNL A   1      42.391  27.025  28.603  1.00  0.00     0.037 A 
ATOM     45  C   UNL A   1      41.132  29.955  34.282  1.00  0.00     0.049 A 
ATOM     46  C   UNL A   1      42.983  26.909  29.987  1.00  0.00     0.074 A 
ATOM     47  C   UNL A   1      41.700  29.713  35.520  1.00  0.00     0.029 A 
ATOM     48  N   UNL A   1      41.731  29.083  33.387  1.00  0.00    -0.354 N 
ATOM     49  N   UNL A   1      42.648  27.532  31.091  1.00  0.00    -0.248 NA
ATOM     50  C   UNL A   1      44.080  25.944  30.158  1.00  0.00     0.031 C 
ATOM     51  C   UNL A   1      42.680  28.727  35.364  1.00  0.00     0.029 A 
ATOM     52  C   UNL A   1      42.683  28.319  34.040  1.00  0.00     0.049 A 
ATOM     53  H   UNL A   1      41.514  29.018  32.429  1.00  0.00     0.167 HD
ATOM     54  C   UNL A   1      43.456  27.001  32.091  1.00  0.00     0.074 A 
ATOM     55  C   UNL A   1      44.296  26.004  31.465  1.00  0.00     0.031 C 
ATOM     56  C   UNL A   1      43.495  27.309  33.411  1.00  0.00     0.037 A 
BRANCH  43  57
ATOM     57  C   UNL A   1      39.593  31.819  35.002  1.00  0.00     0.064 A 
ATOM     58  C   UNL A   1      38.619  31.384  35.914  1.00  0.00     0.173 A 
ATOM     59  C   UNL A   1      40.067  33.134  35.121  1.00  0.00     0.173 A 
ATOM     60  F   UNL A   1      38.120  30.142  35.827  1.00  0.00    -0.203 F 
ATOM     61  C   UNL A   1      38.121  32.242  36.891  1.00  0.00     0.198 A 
ATOM     62  C   UNL A   1      39.585  33.979  36.116  1.00  0.00     0.198 A 
ATOM     63  F   UNL A   1      40.996  33.596  34.272  1.00  0.00    -0.203 F 
ATOM     64  F   UNL A   1      37.154  31.822  37.718  1.00  0.00    -0.200 F 
ATOM     65  C   UNL A   1      38.608  33.536  36.994  1.00  0.00     0.200 A 
ATOM     66  F   UNL A   1      40.061  35.227  36.219  1.00  0.00    -0.200 F 
ATOM     67  F   UNL A   1      38.127  34.361  37.934  1.00  0.00    -0.200 F 
ENDBRANCH  43  57
BRANCH  44  68
ATOM     68  C   UNL A   1      42.878  26.144  27.509  1.00  0.00     0.064 A 
ATOM     69  C   UNL A   1      43.925  26.544  26.667  1.00  0.00     0.173 A 
ATOM     70  C   UNL A   1      42.270  24.908  27.253  1.00  0.00     0.173 A 
ATOM     71  F   UNL A   1      44.519  27.732  26.854  1.00  0.00    -0.203 F 
ATOM     72  C   UNL A   1      44.327  25.751  25.593  1.00  0.00     0.198 A 
ATOM     73  C   UNL A   1      42.689  24.105  26.195  1.00  0.00     0.198 A 
ATOM     74  F   UNL A   1      41.260  24.482  28.028  1.00  0.00    -0.203 F 
ATOM     75  F   UNL A   1      45.291  26.182  24.769  1.00  0.00    -0.200 F 
ATOM     76  C   UNL A   1      43.711  24.531  25.360  1.00  0.00     0.200 A 
ATOM     77  F   UNL A   1      42.094  22.924  25.977  1.00  0.00    -0.200 F 
ATOM     78  F   UNL A   1      44.090  23.773  24.322  1.00  0.00    -0.200 F 
ENDBRANCH  44  68
BRANCH  56  79
ATOM     79  C   UNL A   1      44.431  26.525  34.285  1.00  0.00     0.064 A 
ATOM     80  C   UNL A   1      44.039  25.331  34.906  1.00  0.00     0.173 A 
ATOM     81  C   UNL A   1      45.756  26.953  34.463  1.00  0.00     0.173 A 
ATOM     82  F   UNL A   1      42.781  24.883  34.775  1.00  0.00    -0.203 F 
ATOM     83  C   UNL A   1      44.930  24.609  35.698  1.00  0.00     0.198 A 
ATOM     84  C   UNL A   1      46.652  26.213  35.230  1.00  0.00     0.198 A 
ATOM     85  F   UNL A   1      46.186  28.083  33.882  1.00  0.00    -0.203 F 
ATOM     86  F   UNL A   1      44.519  23.495  36.320  1.00  0.00    -0.200 F 
ATOM     87  C   UNL A   1      46.237  25.047  35.853  1.00  0.00     0.200 A 
ATOM     88  F   UNL A   1      47.919  26.631  35.367  1.00  0.00    -0.200 F 
ATOM     89  F   UNL A   1      47.094  24.347  36.609  1.00  0.00    -0.200 F 
ENDBRANCH  56  79
ENDBRANCH  30  31
ENDBRANCH  23  25
ENDBRANCH  22  23
ENDBRANCH  21  22
ENDBRANCH   1  21
TORSDOF 13
ENDMDL
