MODEL 1
REMARK VINA RESULT:     -12.1      0.000      0.000
REMARK SMILES Cc1cc(C)c(C(=O)N[C@H](C(=O)OCCOC(=O)c2ccc(-c3c4nc(c(-c5c(F)c(F)c(F)c(F)c5F)c5ccc([nH]5)c(-c5c(F)c(F)c(F)c(F)c5F)c5nc(c(-c6c(F)c(F)c(F)c(F)c6F)c6ccc3[nH]6)C=C5)C=C4)cc2)C(C)C)c(=O)[nH]1
REMARK SMILES IDX 14 1 13 2 11 3 12 4 10 5 9 6 7 7 8 8 6 10 1 11 2 12 3 13
REMARK SMILES IDX 87 14 4 15 85 16 5 18 86 19 82 20 83 21 84 22 15 23 16 24
REMARK SMILES IDX 17 25 18 26 19 27 20 28 81 29 21 30 80 31 22 32 23 33 24 34
REMARK SMILES IDX 74 35 25 36 79 37 73 38 75 39 26 40 78 41 72 42 71 43 27 45
REMARK SMILES IDX 59 46 39 47 58 48 40 49 43 50 57 51 76 52 41 53 42 54 56 56
REMARK SMILES IDX 77 57 44 58 28 59 29 60 37 61 30 62 31 63 35 64 38 65 32 66
REMARK SMILES IDX 33 67 36 68 34 69 60 70 61 71 69 72 62 73 63 74 67 75 70 76
REMARK SMILES IDX 64 77 65 78 68 79 66 80 45 81 46 82 54 83 47 84 48 85 52 86
REMARK SMILES IDX 55 87 49 88 50 89 53 90 51 91
REMARK H PARENT 9 9 87 17 75 44 43 55
REMARK Flexibility Score: inf
ROOT
ATOM      1  C   UNL A   1      31.779  28.295  27.627  1.00  0.00     0.274 C 
ENDROOT
BRANCH   1   2
ATOM      2  O   UNL A   1      31.219  27.090  27.071  1.00  0.00    -0.461 OA
BRANCH   2   3
ATOM      3  C   UNL A   1      32.085  26.384  26.293  1.00  0.00     0.329 C 
ATOM      4  O   UNL A   1      33.302  26.534  26.337  1.00  0.00    -0.250 OA
BRANCH   3   5
ATOM      5  C   UNL A   1      31.405  25.283  25.450  1.00  0.00     0.195 C 
BRANCH   5   6
ATOM      6  N   UNL A   1      31.748  25.293  24.013  1.00  0.00    -0.338 N 
ATOM      7  C   UNL A   1      31.424  26.061  22.934  1.00  0.00     0.257 C 
ATOM      8  O   UNL A   1      31.725  25.566  21.842  1.00  0.00    -0.269 OA
ATOM      9  H   UNL A   1      32.364  24.563  23.775  1.00  0.00     0.164 HD
BRANCH   7  10
ATOM     10  C   UNL A   1      30.806  27.424  23.001  1.00  0.00     0.107 A 
ATOM     11  C   UNL A   1      28.911  31.316  22.585  1.00  0.00     0.064 C 
ATOM     12  C   UNL A   1      29.527  29.968  22.800  1.00  0.00     0.015 A 
ATOM     13  C   UNL A   1      28.870  28.917  23.296  1.00  0.00     0.025 A 
ATOM     14  N   UNL A   1      30.853  29.813  22.520  1.00  0.00    -0.326 N 
ATOM     15  C   UNL A   1      29.503  27.596  23.360  1.00  0.00    -0.031 A 
ATOM     16  C   UNL A   1      31.578  28.677  22.767  1.00  0.00     0.261 A 
ATOM     17  H   UNL A   1      31.324  30.575  22.111  1.00  0.00     0.169 HD
ATOM     18  C   UNL A   1      28.510  26.545  23.784  1.00  0.00     0.045 C 
ATOM     19  O   UNL A   1      32.804  28.747  22.816  1.00  0.00    -0.269 OA
ENDBRANCH   7  10
ENDBRANCH   5   6
BRANCH   5  20
ATOM     20  C   UNL A   1      31.688  23.865  26.043  1.00  0.00     0.017 C 
ATOM     21  C   UNL A   1      30.430  23.144  26.557  1.00  0.00     0.010 C 
ATOM     22  C   UNL A   1      32.356  22.940  25.014  1.00  0.00     0.010 C 
ENDBRANCH   5  20
ENDBRANCH   3   5
ENDBRANCH   2   3
ENDBRANCH   1   2
BRANCH   1  23
ATOM     23  C   UNL A   1      31.534  29.505  26.720  1.00  0.00     0.275 C 
BRANCH  23  24
ATOM     24  O   UNL A   1      32.766  30.070  26.223  1.00  0.00    -0.458 OA
BRANCH  24  25
ATOM     25  C   UNL A   1      33.278  31.060  26.994  1.00  0.00     0.338 C 
ATOM     26  O   UNL A   1      32.695  32.065  27.369  1.00  0.00    -0.246 OA
BRANCH  25  27
ATOM     27  C   UNL A   1      34.682  30.813  27.380  1.00  0.00     0.060 A 
ATOM     28  C   UNL A   1      35.134  29.520  27.638  1.00  0.00     0.016 A 
ATOM     29  C   UNL A   1      35.459  31.910  27.761  1.00  0.00     0.016 A 
ATOM     30  C   UNL A   1      36.305  29.325  28.385  1.00  0.00     0.010 A 
ATOM     31  C   UNL A   1      36.659  31.714  28.458  1.00  0.00     0.010 A 
ATOM     32  C   UNL A   1      37.067  30.421  28.822  1.00  0.00    -0.014 A 
BRANCH  32  33
ATOM     33  C   UNL A   1      38.316  30.234  29.601  1.00  0.00     0.031 A 
ATOM     34  C   UNL A   1      39.465  29.421  29.083  1.00  0.00     0.074 A 
ATOM     35  C   UNL A   1      38.408  30.776  30.825  1.00  0.00     0.049 A 
ATOM     36  N   UNL A   1      40.356  28.723  29.738  1.00  0.00    -0.248 NA
ATOM     37  C   UNL A   1      39.628  29.366  27.629  1.00  0.00     0.031 C 
ATOM     38  C   UNL A   1      37.420  31.666  31.429  1.00  0.00     0.029 A 
ATOM     39  N   UNL A   1      39.384  30.651  31.775  1.00  0.00    -0.354 N 
ATOM     40  C   UNL A   1      41.088  28.038  28.772  1.00  0.00     0.074 A 
ATOM     41  C   UNL A   1      40.553  28.424  27.485  1.00  0.00     0.031 C 
ATOM     42  C   UNL A   1      37.851  32.029  32.644  1.00  0.00     0.029 A 
ATOM     43  C   UNL A   1      39.098  31.326  32.932  1.00  0.00     0.049 A 
ATOM     44  H   UNL A   1      40.208  30.129  31.641  1.00  0.00     0.167 HD
ATOM     45  C   UNL A   1      42.133  27.196  28.959  1.00  0.00     0.037 A 
ATOM     46  C   UNL A   1      39.751  31.339  34.107  1.00  0.00     0.037 A 
ATOM     47  C   UNL A   1      42.811  27.045  30.222  1.00  0.00     0.049 A 
ATOM     48  C   UNL A   1      40.980  30.497  34.269  1.00  0.00     0.074 A 
ATOM     49  C   UNL A   1      43.896  26.246  30.538  1.00  0.00     0.029 A 
ATOM     50  N   UNL A   1      42.522  27.794  31.354  1.00  0.00    -0.354 N 
ATOM     51  N   UNL A   1      41.518  29.653  33.422  1.00  0.00    -0.248 NA
ATOM     52  C   UNL A   1      41.687  30.598  35.552  1.00  0.00     0.031 C 
ATOM     53  C   UNL A   1      44.279  26.531  31.854  1.00  0.00     0.029 A 
ATOM     54  C   UNL A   1      43.441  27.518  32.351  1.00  0.00     0.049 A 
ATOM     55  H   UNL A   1      41.774  28.428  31.437  1.00  0.00     0.167 HD
ATOM     56  C   UNL A   1      42.621  29.116  34.068  1.00  0.00     0.074 A 
ATOM     57  C   UNL A   1      42.692  29.751  35.369  1.00  0.00     0.031 C 
ATOM     58  C   UNL A   1      43.488  28.171  33.631  1.00  0.00     0.037 A 
BRANCH  45  59
ATOM     59  C   UNL A   1      42.631  26.378  27.799  1.00  0.00     0.064 A 
ATOM     60  C   UNL A   1      42.077  25.140  27.450  1.00  0.00     0.173 A 
ATOM     61  C   UNL A   1      43.624  26.908  26.955  1.00  0.00     0.173 A 
ATOM     62  F   UNL A   1      41.129  24.583  28.219  1.00  0.00    -0.203 F 
ATOM     63  C   UNL A   1      42.504  24.458  26.311  1.00  0.00     0.198 A 
ATOM     64  C   UNL A   1      44.026  26.239  25.802  1.00  0.00     0.198 A 
ATOM     65  F   UNL A   1      44.181  28.096  27.232  1.00  0.00    -0.203 F 
ATOM     66  F   UNL A   1      41.978  23.261  26.012  1.00  0.00    -0.200 F 
ATOM     67  C   UNL A   1      43.468  25.012  25.481  1.00  0.00     0.200 A 
ATOM     68  F   UNL A   1      44.941  26.790  24.992  1.00  0.00    -0.200 F 
ATOM     69  F   UNL A   1      43.855  24.367  24.373  1.00  0.00    -0.200 F 
ENDBRANCH  45  59
BRANCH  46  70
ATOM     70  C   UNL A   1      39.222  32.191  35.197  1.00  0.00     0.064 A 
ATOM     71  C   UNL A   1      38.466  31.628  36.232  1.00  0.00     0.173 A 
ATOM     72  C   UNL A   1      39.563  33.547  35.289  1.00  0.00     0.173 A 
ATOM     73  F   UNL A   1      38.110  30.337  36.175  1.00  0.00    -0.203 F 
ATOM     74  C   UNL A   1      38.079  32.391  37.330  1.00  0.00     0.198 A 
ATOM     75  C   UNL A   1      39.196  34.302  36.400  1.00  0.00     0.198 A 
ATOM     76  F   UNL A   1      40.302  34.121  34.329  1.00  0.00    -0.203 F 
ATOM     77  F   UNL A   1      37.352  31.833  38.307  1.00  0.00    -0.200 F 
ATOM     78  C   UNL A   1      38.456  33.723  37.420  1.00  0.00     0.200 A 
ATOM     79  F   UNL A   1      39.585  35.581  36.495  1.00  0.00    -0.200 F 
ATOM     80  F   UNL A   1      38.114  34.447  38.494  1.00  0.00    -0.200 F 
ENDBRANCH  46  70
BRANCH  58  81
ATOM     81  C   UNL A   1      44.593  27.780  34.562  1.00  0.00     0.064 A 
ATOM     82  C   UNL A   1      44.444  26.704  35.446  1.00  0.00     0.173 A 
ATOM     83  C   UNL A   1      45.822  28.453  34.531  1.00  0.00     0.173 A 
ATOM     84  F   UNL A   1      43.280  26.040  35.512  1.00  0.00    -0.203 F 
ATOM     85  C   UNL A   1      45.487  26.323  36.283  1.00  0.00     0.198 A 
ATOM     86  C   UNL A   1      46.869  28.058  35.359  1.00  0.00     0.198 A 
ATOM     87  F   UNL A   1      46.008  29.483  33.694  1.00  0.00    -0.203 F 
ATOM     88  F   UNL A   1      45.319  25.309  37.143  1.00  0.00    -0.200 F 
ATOM     89  C   UNL A   1      46.700  26.997  36.236  1.00  0.00     0.200 A 
ATOM     90  F   UNL A   1      48.042  28.705  35.308  1.00  0.00    -0.200 F 
ATOM     91  F   UNL A   1      47.705  26.626  37.042  1.00  0.00    -0.200 F 
ENDBRANCH  58  81
ENDBRANCH  32  33
ENDBRANCH  25  27
ENDBRANCH  24  25
ENDBRANCH  23  24
ENDBRANCH   1  23
TORSDOF 14
ENDMDL
MODEL 2
REMARK VINA RESULT:     -12.1      1.502      3.473
REMARK SMILES Cc1cc(C)c(C(=O)N[C@H](C(=O)OCCOC(=O)c2ccc(-c3c4nc(c(-c5c(F)c(F)c(F)c(F)c5F)c5ccc([nH]5)c(-c5c(F)c(F)c(F)c(F)c5F)c5nc(c(-c6c(F)c(F)c(F)c(F)c6F)c6ccc3[nH]6)C=C5)C=C4)cc2)C(C)C)c(=O)[nH]1
REMARK SMILES IDX 14 1 13 2 11 3 12 4 10 5 9 6 7 7 8 8 6 10 1 11 2 12 3 13
REMARK SMILES IDX 87 14 4 15 85 16 5 18 86 19 82 20 83 21 84 22 15 23 16 24
REMARK SMILES IDX 17 25 18 26 19 27 20 28 81 29 21 30 80 31 22 32 23 33 24 34
REMARK SMILES IDX 74 35 25 36 79 37 73 38 75 39 26 40 78 41 72 42 71 43 27 45
REMARK SMILES IDX 59 46 39 47 58 48 40 49 43 50 57 51 76 52 41 53 42 54 56 56
REMARK SMILES IDX 77 57 44 58 28 59 29 60 37 61 30 62 31 63 35 64 38 65 32 66
REMARK SMILES IDX 33 67 36 68 34 69 60 70 61 71 69 72 62 73 63 74 67 75 70 76
REMARK SMILES IDX 64 77 65 78 68 79 66 80 45 81 46 82 54 83 47 84 48 85 52 86
REMARK SMILES IDX 55 87 49 88 50 89 53 90 51 91
REMARK H PARENT 9 9 87 17 75 44 43 55
REMARK Flexibility Score: inf
ROOT
ATOM      1  C   UNL A   1      31.363  28.591  24.958  1.00  0.00     0.274 C 
ENDROOT
BRANCH   1   2
ATOM      2  O   UNL A   1      32.198  27.605  25.594  1.00  0.00    -0.461 OA
BRANCH   2   3
ATOM      3  C   UNL A   1      33.145  27.070  24.776  1.00  0.00     0.329 C 
ATOM      4  O   UNL A   1      34.046  27.732  24.269  1.00  0.00    -0.250 OA
BRANCH   3   5
ATOM      5  C   UNL A   1      33.065  25.532  24.657  1.00  0.00     0.195 C 
BRANCH   5   6
ATOM      6  N   UNL A   1      32.788  24.820  25.921  1.00  0.00    -0.338 N 
ATOM      7  C   UNL A   1      33.076  23.591  26.436  1.00  0.00     0.257 C 
ATOM      8  O   UNL A   1      32.425  23.290  27.443  1.00  0.00    -0.269 OA
ATOM      9  H   UNL A   1      32.265  25.370  26.548  1.00  0.00     0.164 HD
BRANCH   7  10
ATOM     10  C   UNL A   1      34.122  22.658  25.907  1.00  0.00     0.107 A 
ATOM     11  C   UNL A   1      37.186  19.725  24.949  1.00  0.00     0.064 C 
ATOM     12  C   UNL A   1      36.098  20.721  25.206  1.00  0.00     0.015 A 
ATOM     13  C   UNL A   1      34.814  20.521  24.897  1.00  0.00     0.025 A 
ATOM     14  N   UNL A   1      36.442  21.927  25.743  1.00  0.00    -0.326 N 
ATOM     15  C   UNL A   1      33.786  21.488  25.294  1.00  0.00    -0.031 A 
ATOM     16  C   UNL A   1      35.579  22.973  25.934  1.00  0.00     0.261 A 
ATOM     17  H   UNL A   1      37.380  22.054  26.013  1.00  0.00     0.169 HD
ATOM     18  C   UNL A   1      32.407  20.958  24.995  1.00  0.00     0.045 C 
ATOM     19  O   UNL A   1      36.033  24.105  26.082  1.00  0.00    -0.269 OA
ENDBRANCH   7  10
ENDBRANCH   5   6
BRANCH   5  20
ATOM     20  C   UNL A   1      32.018  25.105  23.579  1.00  0.00     0.017 C 
ATOM     21  C   UNL A   1      32.455  23.900  22.729  1.00  0.00     0.010 C 
ATOM     22  C   UNL A   1      30.662  24.751  24.210  1.00  0.00     0.010 C 
ENDBRANCH   5  20
ENDBRANCH   3   5
ENDBRANCH   2   3
ENDBRANCH   1   2
BRANCH   1  23
ATOM     23  C   UNL A   1      31.616  29.995  25.516  1.00  0.00     0.275 C 
BRANCH  23  24
ATOM     24  O   UNL A   1      32.264  29.960  26.804  1.00  0.00    -0.458 OA
BRANCH  24  25
ATOM     25  C   UNL A   1      32.935  31.093  27.125  1.00  0.00     0.338 C 
ATOM     26  O   UNL A   1      32.471  32.222  27.171  1.00  0.00    -0.246 OA
BRANCH  25  27
ATOM     27  C   UNL A   1      34.354  30.844  27.446  1.00  0.00     0.060 A 
ATOM     28  C   UNL A   1      34.813  29.553  27.702  1.00  0.00     0.016 A 
ATOM     29  C   UNL A   1      35.154  31.943  27.770  1.00  0.00     0.016 A 
ATOM     30  C   UNL A   1      36.018  29.364  28.393  1.00  0.00     0.010 A 
ATOM     31  C   UNL A   1      36.386  31.752  28.410  1.00  0.00     0.010 A 
ATOM     32  C   UNL A   1      36.806  30.463  28.774  1.00  0.00    -0.014 A 
BRANCH  32  33
ATOM     33  C   UNL A   1      38.091  30.282  29.494  1.00  0.00     0.031 A 
ATOM     34  C   UNL A   1      39.216  29.471  28.923  1.00  0.00     0.074 A 
ATOM     35  C   UNL A   1      38.238  30.827  30.711  1.00  0.00     0.049 A 
ATOM     36  N   UNL A   1      40.140  28.778  29.537  1.00  0.00    -0.248 NA
ATOM     37  C   UNL A   1      39.311  29.414  27.464  1.00  0.00     0.031 C 
ATOM     38  C   UNL A   1      37.277  31.715  31.359  1.00  0.00     0.029 A 
ATOM     39  N   UNL A   1      39.259  30.707  31.614  1.00  0.00    -0.354 N 
ATOM     40  C   UNL A   1      40.829  28.094  28.539  1.00  0.00     0.074 A 
ATOM     41  C   UNL A   1      40.231  28.475  27.278  1.00  0.00     0.031 C 
ATOM     42  C   UNL A   1      37.763  32.081  32.553  1.00  0.00     0.029 A 
ATOM     43  C   UNL A   1      39.026  31.384  32.782  1.00  0.00     0.049 A 
ATOM     44  H   UNL A   1      40.077  30.188  31.443  1.00  0.00     0.167 HD
ATOM     45  C   UNL A   1      41.883  27.256  28.678  1.00  0.00     0.037 A 
ATOM     46  C   UNL A   1      39.733  31.401  33.925  1.00  0.00     0.037 A 
ATOM     47  C   UNL A   1      42.621  27.109  29.908  1.00  0.00     0.049 A 
ATOM     48  C   UNL A   1      40.972  30.564  34.031  1.00  0.00     0.074 A 
ATOM     49  C   UNL A   1      43.722  26.315  30.174  1.00  0.00     0.029 A 
ATOM     50  N   UNL A   1      42.383  27.860  31.051  1.00  0.00    -0.354 N 
ATOM     51  N   UNL A   1      41.472  29.719  33.161  1.00  0.00    -0.248 NA
ATOM     52  C   UNL A   1      41.738  30.670  35.278  1.00  0.00     0.031 C 
ATOM     53  C   UNL A   1      44.167  26.604  31.470  1.00  0.00     0.029 A 
ATOM     54  C   UNL A   1      43.350  27.589  32.004  1.00  0.00     0.049 A 
ATOM     55  H   UNL A   1      41.638  28.492  31.168  1.00  0.00     0.167 HD
ATOM     56  C   UNL A   1      42.606  29.187  33.755  1.00  0.00     0.074 A 
ATOM     57  C   UNL A   1      42.736  29.826  35.050  1.00  0.00     0.031 C 
ATOM     58  C   UNL A   1      43.455  28.245  33.279  1.00  0.00     0.037 A 
BRANCH  45  59
ATOM     59  C   UNL A   1      42.329  26.437  27.498  1.00  0.00     0.064 A 
ATOM     60  C   UNL A   1      43.371  26.833  26.649  1.00  0.00     0.173 A 
ATOM     61  C   UNL A   1      41.758  25.170  27.280  1.00  0.00     0.173 A 
ATOM     62  F   UNL A   1      43.950  28.032  26.806  1.00  0.00    -0.203 F 
ATOM     63  C   UNL A   1      43.817  26.000  25.622  1.00  0.00     0.198 A 
ATOM     64  C   UNL A   1      42.227  24.328  26.274  1.00  0.00     0.198 A 
ATOM     65  F   UNL A   1      40.766  24.732  28.069  1.00  0.00    -0.203 F 
ATOM     66  F   UNL A   1      44.797  26.413  24.807  1.00  0.00    -0.200 F 
ATOM     67  C   UNL A   1      43.254  24.745  25.443  1.00  0.00     0.200 A 
ATOM     68  F   UNL A   1      41.694  23.108  26.120  1.00  0.00    -0.200 F 
ATOM     69  F   UNL A   1      43.704  23.937  24.474  1.00  0.00    -0.200 F 
ENDBRANCH  45  59
BRANCH  46  70
ATOM     70  C   UNL A   1      39.254  32.253  35.037  1.00  0.00     0.064 A 
ATOM     71  C   UNL A   1      38.546  31.690  36.106  1.00  0.00     0.173 A 
ATOM     72  C   UNL A   1      39.596  33.610  35.113  1.00  0.00     0.173 A 
ATOM     73  F   UNL A   1      38.190  30.398  36.067  1.00  0.00    -0.203 F 
ATOM     74  C   UNL A   1      38.208  32.454  37.220  1.00  0.00     0.198 A 
ATOM     75  C   UNL A   1      39.279  34.365  36.238  1.00  0.00     0.198 A 
ATOM     76  F   UNL A   1      40.290  34.184  34.119  1.00  0.00    -0.203 F 
ATOM     77  F   UNL A   1      37.528  31.896  38.230  1.00  0.00    -0.200 F 
ATOM     78  C   UNL A   1      38.587  33.787  37.291  1.00  0.00     0.200 A 
ATOM     79  F   UNL A   1      39.670  35.645  36.314  1.00  0.00    -0.200 F 
ATOM     80  F   UNL A   1      38.294  34.511  38.379  1.00  0.00    -0.200 F 
ENDBRANCH  46  70
BRANCH  58  81
ATOM     81  C   UNL A   1      44.604  27.859  34.157  1.00  0.00     0.064 A 
ATOM     82  C   UNL A   1      44.498  26.789  35.056  1.00  0.00     0.173 A 
ATOM     83  C   UNL A   1      45.830  28.531  34.062  1.00  0.00     0.173 A 
ATOM     84  F   UNL A   1      43.338  26.127  35.183  1.00  0.00    -0.203 F 
ATOM     85  C   UNL A   1      45.581  26.413  35.843  1.00  0.00     0.198 A 
ATOM     86  C   UNL A   1      46.916  28.141  34.840  1.00  0.00     0.198 A 
ATOM     87  F   UNL A   1      45.975  29.556  33.209  1.00  0.00    -0.203 F 
ATOM     88  F   UNL A   1      45.454  25.405  36.717  1.00  0.00    -0.200 F 
ATOM     89  C   UNL A   1      46.789  27.086  35.732  1.00  0.00     0.200 A 
ATOM     90  F   UNL A   1      48.085  28.787  34.728  1.00  0.00    -0.200 F 
ATOM     91  F   UNL A   1      47.833  26.720  36.490  1.00  0.00    -0.200 F 
ENDBRANCH  58  81
ENDBRANCH  32  33
ENDBRANCH  25  27
ENDBRANCH  24  25
ENDBRANCH  23  24
ENDBRANCH   1  23
TORSDOF 14
ENDMDL
MODEL 3
REMARK VINA RESULT:     -12.1      0.641      1.726
REMARK SMILES Cc1cc(C)c(C(=O)N[C@H](C(=O)OCCOC(=O)c2ccc(-c3c4nc(c(-c5c(F)c(F)c(F)c(F)c5F)c5ccc([nH]5)c(-c5c(F)c(F)c(F)c(F)c5F)c5nc(c(-c6c(F)c(F)c(F)c(F)c6F)c6ccc3[nH]6)C=C5)C=C4)cc2)C(C)C)c(=O)[nH]1
REMARK SMILES IDX 14 1 13 2 11 3 12 4 10 5 9 6 7 7 8 8 6 10 1 11 2 12 3 13
REMARK SMILES IDX 87 14 4 15 85 16 5 18 86 19 82 20 83 21 84 22 15 23 16 24
REMARK SMILES IDX 17 25 18 26 19 27 20 28 81 29 21 30 80 31 22 32 23 33 24 34
REMARK SMILES IDX 74 35 25 36 79 37 73 38 75 39 26 40 78 41 72 42 71 43 27 45
REMARK SMILES IDX 59 46 39 47 58 48 40 49 43 50 57 51 76 52 41 53 42 54 56 56
REMARK SMILES IDX 77 57 44 58 28 59 29 60 37 61 30 62 31 63 35 64 38 65 32 66
REMARK SMILES IDX 33 67 36 68 34 69 60 70 61 71 69 72 62 73 63 74 67 75 70 76
REMARK SMILES IDX 64 77 65 78 68 79 66 80 45 81 46 82 54 83 47 84 48 85 52 86
REMARK SMILES IDX 55 87 49 88 50 89 53 90 51 91
REMARK H PARENT 9 9 87 17 75 44 43 55
REMARK Flexibility Score: inf
ROOT
ATOM      1  C   UNL A   1      31.819  28.362  26.499  1.00  0.00     0.274 C 
ENDROOT
BRANCH   1   2
ATOM      2  O   UNL A   1      32.986  27.600  26.860  1.00  0.00    -0.461 OA
BRANCH   2   3
ATOM      3  C   UNL A   1      33.264  26.575  26.009  1.00  0.00     0.329 C 
ATOM      4  O   UNL A   1      34.396  26.137  25.833  1.00  0.00    -0.250 OA
BRANCH   3   5
ATOM      5  C   UNL A   1      32.007  25.925  25.390  1.00  0.00     0.195 C 
BRANCH   5   6
ATOM      6  N   UNL A   1      32.080  25.682  23.935  1.00  0.00    -0.338 N 
ATOM      7  C   UNL A   1      31.534  26.245  22.819  1.00  0.00     0.257 C 
ATOM      8  O   UNL A   1      31.648  25.567  21.793  1.00  0.00    -0.269 OA
ATOM      9  H   UNL A   1      32.668  24.924  23.715  1.00  0.00     0.164 HD
BRANCH   7  10
ATOM     10  C   UNL A   1      30.888  27.595  22.765  1.00  0.00     0.107 A 
ATOM     11  C   UNL A   1      28.890  31.384  22.008  1.00  0.00     0.064 C 
ATOM     12  C   UNL A   1      29.544  30.079  22.342  1.00  0.00     0.015 A 
ATOM     13  C   UNL A   1      28.929  29.074  22.972  1.00  0.00     0.025 A 
ATOM     14  N   UNL A   1      30.863  29.920  22.031  1.00  0.00    -0.326 N 
ATOM     15  C   UNL A   1      29.594  27.780  23.151  1.00  0.00    -0.031 A 
ATOM     16  C   UNL A   1      31.621  28.831  22.369  1.00  0.00     0.261 A 
ATOM     17  H   UNL A   1      31.301  30.643  21.525  1.00  0.00     0.169 HD
ATOM     18  C   UNL A   1      28.641  26.761  23.722  1.00  0.00     0.045 C 
ATOM     19  O   UNL A   1      32.846  28.929  22.365  1.00  0.00    -0.269 OA
ENDBRANCH   7  10
ENDBRANCH   5   6
BRANCH   5  20
ATOM     20  C   UNL A   1      31.644  24.593  26.123  1.00  0.00     0.017 C 
ATOM     21  C   UNL A   1      30.132  24.336  26.233  1.00  0.00     0.010 C 
ATOM     22  C   UNL A   1      32.265  23.372  25.427  1.00  0.00     0.010 C 
ENDBRANCH   5  20
ENDBRANCH   3   5
ENDBRANCH   2   3
ENDBRANCH   1   2
BRANCH   1  23
ATOM     23  C   UNL A   1      31.889  29.796  27.033  1.00  0.00     0.275 C 
BRANCH  23  24
ATOM     24  O   UNL A   1      32.963  30.549  26.431  1.00  0.00    -0.458 OA
BRANCH  24  25
ATOM     25  C   UNL A   1      33.552  31.445  27.260  1.00  0.00     0.338 C 
ATOM     26  O   UNL A   1      33.034  32.444  27.734  1.00  0.00    -0.246 OA
BRANCH  25  27
ATOM     27  C   UNL A   1      34.952  31.096  27.575  1.00  0.00     0.060 A 
ATOM     28  C   UNL A   1      35.324  29.772  27.801  1.00  0.00     0.016 A 
ATOM     29  C   UNL A   1      35.822  32.132  27.925  1.00  0.00     0.016 A 
ATOM     30  C   UNL A   1      36.513  29.488  28.488  1.00  0.00     0.010 A 
ATOM     31  C   UNL A   1      37.037  31.846  28.560  1.00  0.00     0.010 A 
ATOM     32  C   UNL A   1      37.370  30.524  28.894  1.00  0.00    -0.014 A 
BRANCH  32  33
ATOM     33  C   UNL A   1      38.639  30.242  29.610  1.00  0.00     0.031 A 
ATOM     34  C   UNL A   1      39.721  29.393  29.011  1.00  0.00     0.074 A 
ATOM     35  C   UNL A   1      38.811  30.729  30.849  1.00  0.00     0.049 A 
ATOM     36  N   UNL A   1      40.601  28.625  29.599  1.00  0.00    -0.248 NA
ATOM     37  C   UNL A   1      39.820  29.389  27.551  1.00  0.00     0.031 C 
ATOM     38  C   UNL A   1      37.898  31.643  31.529  1.00  0.00     0.029 A 
ATOM     39  N   UNL A   1      39.819  30.516  31.749  1.00  0.00    -0.354 N 
ATOM     40  C   UNL A   1      41.255  27.943  28.576  1.00  0.00     0.074 A 
ATOM     41  C   UNL A   1      40.686  28.407  27.330  1.00  0.00     0.031 C 
ATOM     42  C   UNL A   1      38.398  31.934  32.737  1.00  0.00     0.029 A 
ATOM     43  C   UNL A   1      39.618  31.158  32.942  1.00  0.00     0.049 A 
ATOM     44  H   UNL A   1      40.608  29.958  31.559  1.00  0.00     0.167 HD
ATOM     45  C   UNL A   1      42.260  27.042  28.684  1.00  0.00     0.037 A 
ATOM     46  C   UNL A   1      40.319  31.090  34.087  1.00  0.00     0.037 A 
ATOM     47  C   UNL A   1      42.982  26.805  29.910  1.00  0.00     0.049 A 
ATOM     48  C   UNL A   1      41.508  30.180  34.163  1.00  0.00     0.074 A 
ATOM     49  C   UNL A   1      44.036  25.940  30.147  1.00  0.00     0.029 A 
ATOM     50  N   UNL A   1      42.781  27.522  31.082  1.00  0.00    -0.354 N 
ATOM     51  N   UNL A   1      41.965  29.344  33.261  1.00  0.00    -0.248 NA
ATOM     52  C   UNL A   1      42.273  30.193  35.416  1.00  0.00     0.031 C 
ATOM     53  C   UNL A   1      44.489  26.152  31.454  1.00  0.00     0.029 A 
ATOM     54  C   UNL A   1      43.726  27.159  32.025  1.00  0.00     0.049 A 
ATOM     55  H   UNL A   1      42.072  28.190  31.221  1.00  0.00     0.167 HD
ATOM     56  C   UNL A   1      43.064  28.726  33.836  1.00  0.00     0.074 A 
ATOM     57  C   UNL A   1      43.223  29.304  35.157  1.00  0.00     0.031 C 
ATOM     58  C   UNL A   1      43.861  27.757  33.326  1.00  0.00     0.037 A 
BRANCH  45  59
ATOM     59  C   UNL A   1      42.665  26.247  27.473  1.00  0.00     0.064 A 
ATOM     60  C   UNL A   1      43.736  26.614  26.648  1.00  0.00     0.173 A 
ATOM     61  C   UNL A   1      42.021  25.027  27.200  1.00  0.00     0.173 A 
ATOM     62  F   UNL A   1      44.385  27.769  26.858  1.00  0.00    -0.203 F 
ATOM     63  C   UNL A   1      44.139  25.799  25.590  1.00  0.00     0.198 A 
ATOM     64  C   UNL A   1      42.446  24.200  26.163  1.00  0.00     0.198 A 
ATOM     65  F   UNL A   1      40.998  24.617  27.965  1.00  0.00    -0.203 F 
ATOM     66  F   UNL A   1      45.149  26.184  24.797  1.00  0.00    -0.200 F 
ATOM     67  C   UNL A   1      43.503  24.588  25.356  1.00  0.00     0.200 A 
ATOM     68  F   UNL A   1      41.843  23.021  25.955  1.00  0.00    -0.200 F 
ATOM     69  F   UNL A   1      43.911  23.795  24.356  1.00  0.00    -0.200 F 
ENDBRANCH  45  59
BRANCH  46  70
ATOM     70  C   UNL A   1      39.883  31.922  35.231  1.00  0.00     0.064 A 
ATOM     71  C   UNL A   1      40.367  33.227  35.383  1.00  0.00     0.173 A 
ATOM     72  C   UNL A   1      38.891  31.478  36.116  1.00  0.00     0.173 A 
ATOM     73  F   UNL A   1      41.324  33.685  34.564  1.00  0.00    -0.203 F 
ATOM     74  C   UNL A   1      39.863  34.065  36.375  1.00  0.00     0.198 A 
ATOM     75  C   UNL A   1      38.371  32.325  37.090  1.00  0.00     0.198 A 
ATOM     76  F   UNL A   1      38.386  30.242  35.994  1.00  0.00    -0.203 F 
ATOM     77  F   UNL A   1      40.344  35.308  36.504  1.00  0.00    -0.200 F 
ATOM     78  C   UNL A   1      38.857  33.618  37.219  1.00  0.00     0.200 A 
ATOM     79  F   UNL A   1      37.381  31.898  37.886  1.00  0.00    -0.200 F 
ATOM     80  F   UNL A   1      38.348  34.436  38.148  1.00  0.00    -0.200 F 
ENDBRANCH  46  70
BRANCH  58  81
ATOM     81  C   UNL A   1      44.982  27.272  34.191  1.00  0.00     0.064 A 
ATOM     82  C   UNL A   1      44.812  26.174  35.044  1.00  0.00     0.173 A 
ATOM     83  C   UNL A   1      46.244  27.879  34.129  1.00  0.00     0.173 A 
ATOM     84  F   UNL A   1      43.617  25.571  35.139  1.00  0.00    -0.203 F 
ATOM     85  C   UNL A   1      45.868  25.706  35.819  1.00  0.00     0.198 A 
ATOM     86  C   UNL A   1      47.302  27.398  34.893  1.00  0.00     0.198 A 
ATOM     87  F   UNL A   1      46.450  28.929  33.320  1.00  0.00    -0.203 F 
ATOM     88  F   UNL A   1      45.681  24.671  36.650  1.00  0.00    -0.200 F 
ATOM     89  C   UNL A   1      47.113  26.315  35.739  1.00  0.00     0.200 A 
ATOM     90  F   UNL A   1      48.506  27.982  34.812  1.00  0.00    -0.200 F 
ATOM     91  F   UNL A   1      48.130  25.861  36.486  1.00  0.00    -0.200 F 
ENDBRANCH  58  81
ENDBRANCH  32  33
ENDBRANCH  25  27
ENDBRANCH  24  25
ENDBRANCH  23  24
ENDBRANCH   1  23
TORSDOF 14
ENDMDL
