MODEL 1
REMARK VINA RESULT:     -10.8      0.000      0.000
REMARK SMILES O=C(C[C@@H]1C(=O)NC(=S)N1c1ccccc1)OCCOC(=O)c1ccc(-c2c3nc(c(-c4c(F)c(F)c(F)c(F)c4F)c4ccc([nH]4)c(-c4c(F)c(F)c(F)c(F)c4F)c4nc(c(-c5c(F)c(F)c(F)c(F)c5F)c5ccc2[nH]5)C=C4)C=C3)cc1
REMARK SMILES IDX 18 1 17 2 2 3 1 4 3 5 4 6 5 7 10 8 6 9 7 10 8 11 9 13 11 14
REMARK SMILES IDX 12 15 16 16 13 17 15 18 14 19 19 20 20 21 21 22 22 23 23 24
REMARK SMILES IDX 24 25 85 26 25 27 84 28 26 29 27 30 28 31 78 32 29 33 83 34
REMARK SMILES IDX 77 35 79 36 30 37 82 38 76 39 75 40 31 42 63 43 43 44 62 45
REMARK SMILES IDX 44 46 47 47 61 48 80 49 45 50 46 51 60 53 81 54 48 55 32 56
REMARK SMILES IDX 33 57 41 58 34 59 35 60 39 61 42 62 36 63 37 64 40 65 38 66
REMARK SMILES IDX 64 67 65 68 73 69 66 70 67 71 71 72 74 73 68 74 69 75 72 76
REMARK SMILES IDX 70 77 49 78 50 79 58 80 51 81 52 82 56 83 59 84 53 85 54 86
REMARK SMILES IDX 57 87 55 88
REMARK H PARENT 7 12 79 41 47 52
REMARK Flexibility Score: inf
ROOT
ATOM      1  C   UNL A   1      41.485  19.885  26.456  1.00  0.00     0.274 C 
ENDROOT
BRANCH   1   2
ATOM      2  O   UNL A   1      42.360  19.769  25.312  1.00  0.00    -0.462 OA
BRANCH   2   3
ATOM      3  C   UNL A   1      43.666  19.420  25.378  1.00  0.00     0.308 C 
ATOM      4  O   UNL A   1      43.987  18.240  25.481  1.00  0.00    -0.252 OA
BRANCH   3   5
ATOM      5  C   UNL A   1      44.708  20.501  25.415  1.00  0.00     0.158 C 
BRANCH   5   6
ATOM      6  C   UNL A   1      44.163  21.883  25.066  1.00  0.00     0.190 C 
ATOM      7  C   UNL A   1      44.789  22.302  23.735  1.00  0.00     0.249 C 
ATOM      8  N   UNL A   1      44.767  22.910  25.928  1.00  0.00    -0.306 N 
ATOM      9  O   UNL A   1      44.527  21.840  22.636  1.00  0.00    -0.272 OA
ATOM     10  N   UNL A   1      45.781  23.206  23.971  1.00  0.00    -0.301 N 
ATOM     11  C   UNL A   1      45.802  23.587  25.279  1.00  0.00     0.180 C 
ATOM     12  H   UNL A   1      46.402  23.540  23.286  1.00  0.00     0.172 HD
ATOM     13  S   UNL A   1      46.859  24.729  25.846  1.00  0.00    -0.040 S 
BRANCH   8  14
ATOM     14  C   UNL A   1      44.313  23.134  27.244  1.00  0.00     0.044 A 
ATOM     15  C   UNL A   1      42.953  23.002  27.535  1.00  0.00     0.026 A 
ATOM     16  C   UNL A   1      45.214  23.432  28.272  1.00  0.00     0.026 A 
ATOM     17  C   UNL A   1      42.493  23.186  28.841  1.00  0.00     0.002 A 
ATOM     18  C   UNL A   1      44.756  23.581  29.582  1.00  0.00     0.002 A 
ATOM     19  C   UNL A   1      43.396  23.467  29.865  1.00  0.00     0.000 A 
ENDBRANCH   8  14
ENDBRANCH   5   6
ENDBRANCH   3   5
ENDBRANCH   2   3
ENDBRANCH   1   2
BRANCH   1  20
ATOM     20  C   UNL A   1      40.135  20.505  26.090  1.00  0.00     0.275 C 
BRANCH  20  21
ATOM     21  O   UNL A   1      39.908  21.689  26.879  1.00  0.00    -0.458 OA
BRANCH  21  22
ATOM     22  C   UNL A   1      39.083  22.616  26.337  1.00  0.00     0.338 C 
ATOM     23  O   UNL A   1      38.124  22.408  25.613  1.00  0.00    -0.246 OA
BRANCH  22  24
ATOM     24  C   UNL A   1      39.386  23.941  26.927  1.00  0.00     0.060 A 
ATOM     25  C   UNL A   1      40.076  24.859  26.124  1.00  0.00     0.016 A 
ATOM     26  C   UNL A   1      38.982  24.308  28.215  1.00  0.00     0.016 A 
ATOM     27  C   UNL A   1      40.377  26.132  26.610  1.00  0.00     0.010 A 
ATOM     28  C   UNL A   1      39.288  25.587  28.702  1.00  0.00     0.010 A 
ATOM     29  C   UNL A   1      40.003  26.501  27.909  1.00  0.00    -0.014 A 
BRANCH  29  30
ATOM     30  C   UNL A   1      40.436  27.813  28.456  1.00  0.00     0.031 A 
ATOM     31  C   UNL A   1      41.886  28.040  28.782  1.00  0.00     0.074 A 
ATOM     32  C   UNL A   1      39.549  28.809  28.643  1.00  0.00     0.049 A 
ATOM     33  N   UNL A   1      42.473  29.117  29.243  1.00  0.00    -0.248 NA
ATOM     34  C   UNL A   1      42.798  26.909  28.555  1.00  0.00     0.031 C 
ATOM     35  C   UNL A   1      38.120  28.739  28.346  1.00  0.00     0.029 A 
ATOM     36  N   UNL A   1      39.728  30.079  29.137  1.00  0.00    -0.354 N 
ATOM     37  C   UNL A   1      43.819  28.797  29.351  1.00  0.00     0.074 A 
ATOM     38  C   UNL A   1      43.961  27.416  28.937  1.00  0.00     0.031 C 
ATOM     39  C   UNL A   1      37.547  29.908  28.684  1.00  0.00     0.029 A 
ATOM     40  C   UNL A   1      38.566  30.803  29.236  1.00  0.00     0.049 A 
ATOM     41  H   UNL A   1      40.609  30.437  29.396  1.00  0.00     0.167 HD
ATOM     42  C   UNL A   1      44.847  29.585  29.746  1.00  0.00     0.037 A 
ATOM     43  C   UNL A   1      38.344  32.036  29.732  1.00  0.00     0.037 A 
ATOM     44  C   UNL A   1      44.722  30.960  30.149  1.00  0.00     0.049 A 
ATOM     45  C   UNL A   1      39.498  32.857  30.252  1.00  0.00     0.074 A 
ATOM     46  C   UNL A   1      45.726  31.854  30.484  1.00  0.00     0.029 A 
ATOM     47  N   UNL A   1      43.522  31.636  30.292  1.00  0.00    -0.354 N 
ATOM     48  N   UNL A   1      40.778  32.576  30.264  1.00  0.00    -0.248 NA
ATOM     49  C   UNL A   1      39.173  34.173  30.828  1.00  0.00     0.031 C 
ATOM     50  C   UNL A   1      45.130  33.053  30.885  1.00  0.00     0.029 A 
ATOM     51  C   UNL A   1      43.757  32.920  30.760  1.00  0.00     0.049 A 
ATOM     52  H   UNL A   1      42.634  31.261  30.092  1.00  0.00     0.167 HD
ATOM     53  C   UNL A   1      41.408  33.683  30.822  1.00  0.00     0.074 A 
ATOM     54  C   UNL A   1      40.375  34.648  31.125  1.00  0.00     0.031 C 
ATOM     55  C   UNL A   1      42.727  33.878  31.061  1.00  0.00     0.037 A 
BRANCH  42  56
ATOM     56  C   UNL A   1      46.218  28.984  29.771  1.00  0.00     0.064 A 
ATOM     57  C   UNL A   1      46.688  28.285  30.891  1.00  0.00     0.173 A 
ATOM     58  C   UNL A   1      47.032  29.030  28.630  1.00  0.00     0.173 A 
ATOM     59  F   UNL A   1      45.946  28.220  32.007  1.00  0.00    -0.203 F 
ATOM     60  C   UNL A   1      47.929  27.656  30.869  1.00  0.00     0.198 A 
ATOM     61  C   UNL A   1      48.264  28.386  28.605  1.00  0.00     0.198 A 
ATOM     62  F   UNL A   1      46.619  29.684  27.533  1.00  0.00    -0.203 F 
ATOM     63  F   UNL A   1      48.369  27.005  31.955  1.00  0.00    -0.200 F 
ATOM     64  C   UNL A   1      48.712  27.699  29.724  1.00  0.00     0.200 A 
ATOM     65  F   UNL A   1      49.014  28.419  27.495  1.00  0.00    -0.200 F 
ATOM     66  F   UNL A   1      49.900  27.079  29.699  1.00  0.00    -0.200 F 
ENDBRANCH  42  56
BRANCH  43  67
ATOM     67  C   UNL A   1      36.961  32.575  29.805  1.00  0.00     0.064 A 
ATOM     68  C   UNL A   1      36.412  33.313  28.748  1.00  0.00     0.173 A 
ATOM     69  C   UNL A   1      36.188  32.418  30.964  1.00  0.00     0.173 A 
ATOM     70  F   UNL A   1      37.128  33.518  27.633  1.00  0.00    -0.203 F 
ATOM     71  C   UNL A   1      35.153  33.899  28.860  1.00  0.00     0.198 A 
ATOM     72  C   UNL A   1      34.919  32.982  31.065  1.00  0.00     0.198 A 
ATOM     73  F   UNL A   1      36.671  31.723  32.006  1.00  0.00    -0.203 F 
ATOM     74  F   UNL A   1      34.676  34.653  27.860  1.00  0.00    -0.200 F 
ATOM     75  C   UNL A   1      34.407  33.732  30.017  1.00  0.00     0.200 A 
ATOM     76  F   UNL A   1      34.201  32.814  32.184  1.00  0.00    -0.200 F 
ATOM     77  F   UNL A   1      33.203  34.308  30.130  1.00  0.00    -0.200 F 
ENDBRANCH  43  67
BRANCH  55  78
ATOM     78  C   UNL A   1      43.141  35.185  31.671  1.00  0.00     0.064 A 
ATOM     79  C   UNL A   1      43.517  36.276  30.873  1.00  0.00     0.173 A 
ATOM     80  C   UNL A   1      43.109  35.369  33.062  1.00  0.00     0.173 A 
ATOM     81  F   UNL A   1      43.578  36.146  29.539  1.00  0.00    -0.203 F 
ATOM     82  C   UNL A   1      43.858  37.499  31.446  1.00  0.00     0.198 A 
ATOM     83  C   UNL A   1      43.425  36.601  33.629  1.00  0.00     0.198 A 
ATOM     84  F   UNL A   1      42.750  34.359  33.868  1.00  0.00    -0.203 F 
ATOM     85  F   UNL A   1      44.247  38.517  30.666  1.00  0.00    -0.200 F 
ATOM     86  C   UNL A   1      43.804  37.663  32.822  1.00  0.00     0.200 A 
ATOM     87  F   UNL A   1      43.361  36.760  34.959  1.00  0.00    -0.200 F 
ATOM     88  F   UNL A   1      44.121  38.844  33.371  1.00  0.00    -0.200 F 
ENDBRANCH  55  78
ENDBRANCH  29  30
ENDBRANCH  22  24
ENDBRANCH  21  22
ENDBRANCH  20  21
ENDBRANCH   1  20
TORSDOF 13
ENDMDL
MODEL 2
REMARK VINA RESULT:     -10.5      0.752      7.371
REMARK SMILES O=C(C[C@@H]1C(=O)NC(=S)N1c1ccccc1)OCCOC(=O)c1ccc(-c2c3nc(c(-c4c(F)c(F)c(F)c(F)c4F)c4ccc([nH]4)c(-c4c(F)c(F)c(F)c(F)c4F)c4nc(c(-c5c(F)c(F)c(F)c(F)c5F)c5ccc2[nH]5)C=C4)C=C3)cc1
REMARK SMILES IDX 18 1 17 2 2 3 1 4 3 5 4 6 5 7 10 8 6 9 7 10 8 11 9 13 11 14
REMARK SMILES IDX 12 15 16 16 13 17 15 18 14 19 19 20 20 21 21 22 22 23 23 24
REMARK SMILES IDX 24 25 85 26 25 27 84 28 26 29 27 30 28 31 78 32 29 33 83 34
REMARK SMILES IDX 77 35 79 36 30 37 82 38 76 39 75 40 31 42 63 43 43 44 62 45
REMARK SMILES IDX 44 46 47 47 61 48 80 49 45 50 46 51 60 53 81 54 48 55 32 56
REMARK SMILES IDX 33 57 41 58 34 59 35 60 39 61 42 62 36 63 37 64 40 65 38 66
REMARK SMILES IDX 64 67 65 68 73 69 66 70 67 71 71 72 74 73 68 74 69 75 72 76
REMARK SMILES IDX 70 77 49 78 50 79 58 80 51 81 52 82 56 83 59 84 53 85 54 86
REMARK SMILES IDX 57 87 55 88
REMARK H PARENT 7 12 79 41 47 52
REMARK Flexibility Score: inf
ROOT
ATOM      1  C   UNL A   1      41.264  20.012  26.504  1.00  0.00     0.274 C 
ENDROOT
BRANCH   1   2
ATOM      2  O   UNL A   1      42.176  19.927  25.387  1.00  0.00    -0.462 OA
BRANCH   2   3
ATOM      3  C   UNL A   1      43.476  19.559  25.484  1.00  0.00     0.308 C 
ATOM      4  O   UNL A   1      43.772  18.394  25.730  1.00  0.00    -0.252 OA
BRANCH   3   5
ATOM      5  C   UNL A   1      44.541  20.612  25.376  1.00  0.00     0.158 C 
BRANCH   5   6
ATOM      6  C   UNL A   1      43.992  22.006  25.085  1.00  0.00     0.190 C 
ATOM      7  C   UNL A   1      44.574  22.460  23.746  1.00  0.00     0.249 C 
ATOM      8  N   UNL A   1      44.632  23.004  25.956  1.00  0.00    -0.306 N 
ATOM      9  O   UNL A   1      44.270  22.031  22.644  1.00  0.00    -0.272 OA
ATOM     10  N   UNL A   1      45.578  23.352  23.973  1.00  0.00    -0.301 N 
ATOM     11  C   UNL A   1      45.646  23.695  25.290  1.00  0.00     0.180 C 
ATOM     12  H   UNL A   1      46.177  23.703  23.276  1.00  0.00     0.172 HD
ATOM     13  S   UNL A   1      46.729  24.816  25.852  1.00  0.00    -0.040 S 
BRANCH   8  14
ATOM     14  C   UNL A   1      44.225  23.192  27.292  1.00  0.00     0.044 A 
ATOM     15  C   UNL A   1      42.881  23.022  27.634  1.00  0.00     0.026 A 
ATOM     16  C   UNL A   1      45.159  23.493  28.289  1.00  0.00     0.026 A 
ATOM     17  C   UNL A   1      42.469  23.171  28.960  1.00  0.00     0.002 A 
ATOM     18  C   UNL A   1      44.749  23.607  29.620  1.00  0.00     0.002 A 
ATOM     19  C   UNL A   1      43.405  23.453  29.953  1.00  0.00     0.000 A 
ENDBRANCH   8  14
ENDBRANCH   5   6
ENDBRANCH   3   5
ENDBRANCH   2   3
ENDBRANCH   1   2
BRANCH   1  20
ATOM     20  C   UNL A   1      39.915  20.612  26.105  1.00  0.00     0.275 C 
BRANCH  20  21
ATOM     21  O   UNL A   1      39.609  21.738  26.949  1.00  0.00    -0.458 OA
BRANCH  21  22
ATOM     22  C   UNL A   1      38.923  22.749  26.366  1.00  0.00     0.338 C 
ATOM     23  O   UNL A   1      37.960  22.649  25.625  1.00  0.00    -0.246 OA
BRANCH  22  24
ATOM     24  C   UNL A   1      39.385  24.039  26.931  1.00  0.00     0.060 A 
ATOM     25  C   UNL A   1      40.047  24.919  26.066  1.00  0.00     0.016 A 
ATOM     26  C   UNL A   1      39.151  24.412  28.260  1.00  0.00     0.016 A 
ATOM     27  C   UNL A   1      40.491  26.160  26.528  1.00  0.00     0.010 A 
ATOM     28  C   UNL A   1      39.602  25.657  28.722  1.00  0.00     0.010 A 
ATOM     29  C   UNL A   1      40.289  26.531  27.864  1.00  0.00    -0.014 A 
BRANCH  29  30
ATOM     30  C   UNL A   1      40.874  27.800  28.371  1.00  0.00     0.031 A 
ATOM     31  C   UNL A   1      39.966  28.929  28.771  1.00  0.00     0.074 A 
ATOM     32  C   UNL A   1      42.207  27.943  28.497  1.00  0.00     0.049 A 
ATOM     33  N   UNL A   1      40.272  30.106  29.260  1.00  0.00    -0.248 NA
ATOM     34  C   UNL A   1      38.522  28.704  28.605  1.00  0.00     0.031 C 
ATOM     35  C   UNL A   1      43.204  26.924  28.173  1.00  0.00     0.029 A 
ATOM     36  N   UNL A   1      42.950  29.015  28.929  1.00  0.00    -0.354 N 
ATOM     37  C   UNL A   1      39.063  30.755  29.468  1.00  0.00     0.074 A 
ATOM     38  C   UNL A   1      38.017  29.856  29.026  1.00  0.00     0.031 C 
ATOM     39  C   UNL A   1      44.430  27.428  28.399  1.00  0.00     0.029 A 
ATOM     40  C   UNL A   1      44.306  28.810  28.866  1.00  0.00     0.049 A 
ATOM     41  H   UNL A   1      42.547  29.853  29.255  1.00  0.00     0.167 HD
ATOM     42  C   UNL A   1      38.842  31.983  29.994  1.00  0.00     0.037 A 
ATOM     43  C   UNL A   1      45.329  29.645  29.135  1.00  0.00     0.037 A 
ATOM     44  C   UNL A   1      39.870  32.881  30.447  1.00  0.00     0.049 A 
ATOM     45  C   UNL A   1      45.051  31.042  29.632  1.00  0.00     0.074 A 
ATOM     46  C   UNL A   1      39.726  34.111  31.069  1.00  0.00     0.029 A 
ATOM     47  N   UNL A   1      41.230  32.660  30.310  1.00  0.00    -0.354 N 
ATOM     48  N   UNL A   1      43.904  31.611  29.910  1.00  0.00    -0.248 NA
ATOM     49  C   UNL A   1      46.217  31.915  29.853  1.00  0.00     0.031 C 
ATOM     50  C   UNL A   1      40.997  34.659  31.257  1.00  0.00     0.029 A 
ATOM     51  C   UNL A   1      41.935  33.753  30.789  1.00  0.00     0.049 A 
ATOM     52  H   UNL A   1      41.635  31.848  29.929  1.00  0.00     0.167 HD
ATOM     53  C   UNL A   1      44.210  32.890  30.360  1.00  0.00     0.074 A 
ATOM     54  C   UNL A   1      45.650  33.014  30.331  1.00  0.00     0.031 C 
ATOM     55  C   UNL A   1      43.368  33.873  30.760  1.00  0.00     0.037 A 
BRANCH  42  56
ATOM     56  C   UNL A   1      37.424  32.448  30.110  1.00  0.00     0.064 A 
ATOM     57  C   UNL A   1      36.649  32.155  31.240  1.00  0.00     0.173 A 
ATOM     58  C   UNL A   1      36.867  33.273  29.121  1.00  0.00     0.173 A 
ATOM     59  F   UNL A   1      37.139  31.365  32.208  1.00  0.00    -0.203 F 
ATOM     60  C   UNL A   1      35.363  32.668  31.375  1.00  0.00     0.198 A 
ATOM     61  C   UNL A   1      35.588  33.799  29.268  1.00  0.00     0.198 A 
ATOM     62  F   UNL A   1      37.575  33.585  28.025  1.00  0.00    -0.203 F 
ATOM     63  F   UNL A   1      34.631  32.364  32.456  1.00  0.00    -0.200 F 
ATOM     64  C   UNL A   1      34.836  33.497  30.394  1.00  0.00     0.200 A 
ATOM     65  F   UNL A   1      35.085  34.607  28.325  1.00  0.00    -0.200 F 
ATOM     66  F   UNL A   1      33.604  34.003  30.533  1.00  0.00    -0.200 F 
ENDBRANCH  42  56
BRANCH  43  67
ATOM     67  C   UNL A   1      46.731  29.206  28.907  1.00  0.00     0.064 A 
ATOM     68  C   UNL A   1      47.329  29.312  27.643  1.00  0.00     0.173 A 
ATOM     69  C   UNL A   1      47.475  28.610  29.934  1.00  0.00     0.173 A 
ATOM     70  F   UNL A   1      46.643  29.844  26.621  1.00  0.00    -0.203 F 
ATOM     71  C   UNL A   1      48.608  28.810  27.411  1.00  0.00     0.198 A 
ATOM     72  C   UNL A   1      48.763  28.132  29.707  1.00  0.00     0.198 A 
ATOM     73  F   UNL A   1      46.945  28.481  31.161  1.00  0.00    -0.203 F 
ATOM     74  F   UNL A   1      49.132  28.867  26.178  1.00  0.00    -0.200 F 
ATOM     75  C   UNL A   1      49.324  28.222  28.442  1.00  0.00     0.200 A 
ATOM     76  F   UNL A   1      49.453  27.569  30.709  1.00  0.00    -0.200 F 
ATOM     77  F   UNL A   1      50.547  27.726  28.214  1.00  0.00    -0.200 F 
ENDBRANCH  43  67
BRANCH  55  78
ATOM     78  C   UNL A   1      43.973  35.171  31.211  1.00  0.00     0.064 A 
ATOM     79  C   UNL A   1      44.144  36.244  30.323  1.00  0.00     0.173 A 
ATOM     80  C   UNL A   1      44.334  35.365  32.554  1.00  0.00     0.173 A 
ATOM     81  F   UNL A   1      43.829  36.103  29.028  1.00  0.00    -0.203 F 
ATOM     82  C   UNL A   1      44.666  37.458  30.761  1.00  0.00     0.198 A 
ATOM     83  C   UNL A   1      44.831  36.589  32.992  1.00  0.00     0.198 A 
ATOM     84  F   UNL A   1      44.184  34.372  33.443  1.00  0.00    -0.203 F 
ATOM     85  F   UNL A   1      44.852  38.459  29.888  1.00  0.00    -0.200 F 
ATOM     86  C   UNL A   1      45.001  37.633  32.096  1.00  0.00     0.200 A 
ATOM     87  F   UNL A   1      45.144  36.760  34.285  1.00  0.00    -0.200 F 
ATOM     88  F   UNL A   1      45.492  38.807  32.517  1.00  0.00    -0.200 F 
ENDBRANCH  55  78
ENDBRANCH  29  30
ENDBRANCH  22  24
ENDBRANCH  21  22
ENDBRANCH  20  21
ENDBRANCH   1  20
TORSDOF 13
ENDMDL
MODEL 3
REMARK VINA RESULT:     -10.5      6.088     10.237
REMARK SMILES O=C(C[C@@H]1C(=O)NC(=S)N1c1ccccc1)OCCOC(=O)c1ccc(-c2c3nc(c(-c4c(F)c(F)c(F)c(F)c4F)c4ccc([nH]4)c(-c4c(F)c(F)c(F)c(F)c4F)c4nc(c(-c5c(F)c(F)c(F)c(F)c5F)c5ccc2[nH]5)C=C4)C=C3)cc1
REMARK SMILES IDX 18 1 17 2 2 3 1 4 3 5 4 6 5 7 10 8 6 9 7 10 8 11 9 13 11 14
REMARK SMILES IDX 12 15 16 16 13 17 15 18 14 19 19 20 20 21 21 22 22 23 23 24
REMARK SMILES IDX 24 25 85 26 25 27 84 28 26 29 27 30 28 31 78 32 29 33 83 34
REMARK SMILES IDX 77 35 79 36 30 37 82 38 76 39 75 40 31 42 63 43 43 44 62 45
REMARK SMILES IDX 44 46 47 47 61 48 80 49 45 50 46 51 60 53 81 54 48 55 32 56
REMARK SMILES IDX 33 57 41 58 34 59 35 60 39 61 42 62 36 63 37 64 40 65 38 66
REMARK SMILES IDX 64 67 65 68 73 69 66 70 67 71 71 72 74 73 68 74 69 75 72 76
REMARK SMILES IDX 70 77 49 78 50 79 58 80 51 81 52 82 56 83 59 84 53 85 54 86
REMARK SMILES IDX 57 87 55 88
REMARK H PARENT 7 12 79 41 47 52
REMARK Flexibility Score: inf
ROOT
ATOM      1  C   UNL A   1      31.417  30.941  26.268  1.00  0.00     0.274 C 
ENDROOT
BRANCH   1   2
ATOM      2  O   UNL A   1      31.804  29.943  27.238  1.00  0.00    -0.462 OA
BRANCH   2   3
ATOM      3  C   UNL A   1      31.711  28.606  27.042  1.00  0.00     0.308 C 
ATOM      4  O   UNL A   1      31.411  27.864  27.973  1.00  0.00    -0.252 OA
BRANCH   3   5
ATOM      5  C   UNL A   1      32.068  28.040  25.698  1.00  0.00     0.158 C 
BRANCH   5   6
ATOM      6  C   UNL A   1      31.109  26.952  25.222  1.00  0.00     0.190 C 
ATOM      7  C   UNL A   1      31.873  25.628  25.233  1.00  0.00     0.249 C 
ATOM      8  N   UNL A   1      30.878  27.064  23.774  1.00  0.00    -0.306 N 
ATOM      9  O   UNL A   1      32.213  24.998  26.222  1.00  0.00    -0.272 OA
ATOM     10  N   UNL A   1      32.223  25.302  23.958  1.00  0.00    -0.301 N 
ATOM     11  C   UNL A   1      31.650  26.147  23.057  1.00  0.00     0.180 C 
ATOM     12  H   UNL A   1      32.813  24.552  23.718  1.00  0.00     0.172 HD
ATOM     13  S   UNL A   1      31.842  25.953  21.422  1.00  0.00    -0.040 S 
BRANCH   8  14
ATOM     14  C   UNL A   1      29.976  28.004  23.237  1.00  0.00     0.044 A 
ATOM     15  C   UNL A   1      28.604  27.843  23.452  1.00  0.00     0.026 A 
ATOM     16  C   UNL A   1      30.439  29.124  22.540  1.00  0.00     0.026 A 
ATOM     17  C   UNL A   1      27.700  28.786  22.956  1.00  0.00     0.002 A 
ATOM     18  C   UNL A   1      29.536  30.083  22.076  1.00  0.00     0.002 A 
ATOM     19  C   UNL A   1      28.168  29.910  22.277  1.00  0.00     0.000 A 
ENDBRANCH   8  14
ENDBRANCH   5   6
ENDBRANCH   3   5
ENDBRANCH   2   3
ENDBRANCH   1   2
BRANCH   1  20
ATOM     20  C   UNL A   1      31.458  32.356  26.846  1.00  0.00     0.275 C 
BRANCH  20  21
ATOM     21  O   UNL A   1      32.806  32.864  26.805  1.00  0.00    -0.458 OA
BRANCH  21  22
ATOM     22  C   UNL A   1      33.169  33.670  27.831  1.00  0.00     0.338 C 
ATOM     23  O   UNL A   1      32.538  34.610  28.283  1.00  0.00    -0.246 OA
BRANCH  22  24
ATOM     24  C   UNL A   1      34.374  33.109  28.486  1.00  0.00     0.060 A 
ATOM     25  C   UNL A   1      34.315  31.773  28.904  1.00  0.00     0.016 A 
ATOM     26  C   UNL A   1      35.553  33.842  28.661  1.00  0.00     0.016 A 
ATOM     27  C   UNL A   1      35.422  31.175  29.511  1.00  0.00     0.010 A 
ATOM     28  C   UNL A   1      36.662  33.240  29.274  1.00  0.00     0.010 A 
ATOM     29  C   UNL A   1      36.598  31.909  29.718  1.00  0.00    -0.014 A 
BRANCH  29  30
ATOM     30  C   UNL A   1      37.723  31.298  30.472  1.00  0.00     0.031 A 
ATOM     31  C   UNL A   1      38.605  30.283  29.800  1.00  0.00     0.074 A 
ATOM     32  C   UNL A   1      37.975  31.658  31.745  1.00  0.00     0.049 A 
ATOM     33  N   UNL A   1      39.651  29.652  30.272  1.00  0.00    -0.248 NA
ATOM     34  C   UNL A   1      38.271  29.937  28.410  1.00  0.00     0.031 C 
ATOM     35  C   UNL A   1      37.219  32.646  32.513  1.00  0.00     0.029 A 
ATOM     36  N   UNL A   1      38.941  31.220  32.619  1.00  0.00    -0.354 N 
ATOM     37  C   UNL A   1      40.104  28.844  29.239  1.00  0.00     0.074 A 
ATOM     38  C   UNL A   1      39.203  29.040  28.122  1.00  0.00     0.031 C 
ATOM     39  C   UNL A   1      37.739  32.725  33.751  1.00  0.00     0.029 A 
ATOM     40  C   UNL A   1      38.851  31.781  33.869  1.00  0.00     0.049 A 
ATOM     41  H   UNL A   1      39.635  30.566  32.371  1.00  0.00     0.167 HD
ATOM     42  C   UNL A   1      41.181  28.024  29.216  1.00  0.00     0.037 A 
ATOM     43  C   UNL A   1      39.570  31.547  34.985  1.00  0.00     0.037 A 
ATOM     44  C   UNL A   1      42.090  27.828  30.314  1.00  0.00     0.049 A 
ATOM     45  C   UNL A   1      40.708  30.557  34.954  1.00  0.00     0.074 A 
ATOM     46  C   UNL A   1      43.254  27.077  30.344  1.00  0.00     0.029 A 
ATOM     47  N   UNL A   1      41.930  28.367  31.579  1.00  0.00    -0.354 N 
ATOM     48  N   UNL A   1      41.182  29.868  33.946  1.00  0.00    -0.248 NA
ATOM     49  C   UNL A   1      41.414  30.313  36.224  1.00  0.00     0.031 C 
ATOM     50  C   UNL A   1      43.767  27.116  31.644  1.00  0.00     0.029 A 
ATOM     51  C   UNL A   1      42.945  27.924  32.412  1.00  0.00     0.049 A 
ATOM     52  H   UNL A   1      41.203  28.975  31.847  1.00  0.00     0.167 HD
ATOM     53  C   UNL A   1      42.248  29.133  34.451  1.00  0.00     0.074 A 
ATOM     54  C   UNL A   1      42.364  29.467  35.853  1.00  0.00     0.031 C 
ATOM     55  C   UNL A   1      43.058  28.259  33.806  1.00  0.00     0.037 A 
BRANCH  42  56
ATOM     56  C   UNL A   1      41.448  27.256  27.958  1.00  0.00     0.064 A 
ATOM     57  C   UNL A   1      42.271  27.773  26.949  1.00  0.00     0.173 A 
ATOM     58  C   UNL A   1      40.950  25.954  27.806  1.00  0.00     0.173 A 
ATOM     59  F   UNL A   1      42.765  29.016  27.050  1.00  0.00    -0.203 F 
ATOM     60  C   UNL A   1      42.583  27.012  25.825  1.00  0.00     0.198 A 
ATOM     61  C   UNL A   1      41.278  25.191  26.690  1.00  0.00     0.198 A 
ATOM     62  F   UNL A   1      40.164  25.416  28.750  1.00  0.00    -0.203 F 
ATOM     63  F   UNL A   1      43.359  27.530  24.863  1.00  0.00    -0.200 F 
ATOM     64  C   UNL A   1      42.094  25.720  25.701  1.00  0.00     0.200 A 
ATOM     65  F   UNL A   1      40.815  23.939  26.576  1.00  0.00    -0.200 F 
ATOM     66  F   UNL A   1      42.409  24.984  24.626  1.00  0.00    -0.200 F 
ENDBRANCH  42  56
BRANCH  43  67
ATOM     67  C   UNL A   1      39.220  32.233  36.256  1.00  0.00     0.064 A 
ATOM     68  C   UNL A   1      38.309  31.669  37.159  1.00  0.00     0.173 A 
ATOM     69  C   UNL A   1      39.741  33.500  36.557  1.00  0.00     0.173 A 
ATOM     70  F   UNL A   1      37.759  30.475  36.896  1.00  0.00    -0.203 F 
ATOM     71  C   UNL A   1      37.910  32.360  38.302  1.00  0.00     0.198 A 
ATOM     72  C   UNL A   1      39.361  34.178  37.713  1.00  0.00     0.198 A 
ATOM     73  F   UNL A   1      40.614  34.084  35.722  1.00  0.00    -0.203 F 
ATOM     74  F   UNL A   1      36.990  31.827  39.117  1.00  0.00    -0.200 F 
ATOM     75  C   UNL A   1      38.437  33.613  38.578  1.00  0.00     0.200 A 
ATOM     76  F   UNL A   1      39.877  35.386  37.977  1.00  0.00    -0.200 F 
ATOM     77  F   UNL A   1      38.042  34.283  39.668  1.00  0.00    -0.200 F 
ENDBRANCH  43  67
BRANCH  55  78
ATOM     78  C   UNL A   1      44.151  27.603  34.599  1.00  0.00     0.064 A 
ATOM     79  C   UNL A   1      45.395  28.227  34.781  1.00  0.00     0.173 A 
ATOM     80  C   UNL A   1      43.937  26.368  35.230  1.00  0.00     0.173 A 
ATOM     81  F   UNL A   1      45.654  29.401  34.186  1.00  0.00    -0.203 F 
ATOM     82  C   UNL A   1      46.388  27.631  35.554  1.00  0.00     0.198 A 
ATOM     83  C   UNL A   1      44.923  25.789  36.024  1.00  0.00     0.198 A 
ATOM     84  F   UNL A   1      42.763  25.735  35.093  1.00  0.00    -0.203 F 
ATOM     85  F   UNL A   1      47.580  28.229  35.686  1.00  0.00    -0.200 F 
ATOM     86  C   UNL A   1      46.149  26.418  36.182  1.00  0.00     0.200 A 
ATOM     87  F   UNL A   1      44.686  24.621  36.639  1.00  0.00    -0.200 F 
ATOM     88  F   UNL A   1      47.102  25.852  36.935  1.00  0.00    -0.200 F 
ENDBRANCH  55  78
ENDBRANCH  29  30
ENDBRANCH  22  24
ENDBRANCH  21  22
ENDBRANCH  20  21
ENDBRANCH   1  20
TORSDOF 13
ENDMDL
