MODEL 1
REMARK VINA RESULT:     -11.3      0.000      0.000
REMARK SMILES COC(=O)[C@@H]1CN(C(=O)N(CC(=O)OCCOC(=O)c2ccc(-c3c4nc(c(-c5c(F)c(F)c(F)c(F)c5F)c5ccc([nH]5)c(-c5c(F)c(F)c(F)c(F)c5F)c5nc(c(-c6c(F)c(F)c(F)c(F)c6F)c6ccc3[nH]6)C=C5)C=C4)cc2)C(C)(C)C)C[C@H]1C
REMARK SMILES IDX 14 1 12 2 13 3 11 4 10 5 8 6 9 7 7 8 5 9 6 10 88 11 87 12
REMARK SMILES IDX 89 13 3 14 4 15 2 16 1 17 83 18 84 19 85 20 86 21 15 22
REMARK SMILES IDX 16 23 17 24 18 25 19 26 20 27 21 28 82 29 22 30 81 31 23 32
REMARK SMILES IDX 24 33 25 34 75 35 26 36 80 37 74 38 76 39 27 40 79 41 73 42
REMARK SMILES IDX 72 43 28 45 60 46 40 47 59 48 41 49 44 50 58 51 77 52 42 53
REMARK SMILES IDX 43 54 57 56 78 57 45 58 29 59 30 60 38 61 31 62 32 63 36 64
REMARK SMILES IDX 39 65 33 66 34 67 37 68 35 69 61 70 62 71 70 72 63 73 64 74
REMARK SMILES IDX 68 75 71 76 65 77 66 78 69 79 67 80 46 81 47 82 55 83 48 84
REMARK SMILES IDX 49 85 53 86 56 87 50 88 51 89 54 90 52 91
REMARK H PARENT 76 44 44 55
REMARK Flexibility Score: inf
ROOT
ATOM      1  O   UNL A   1      30.939  27.062  26.697  1.00  0.00    -0.461 OA
ENDROOT
BRANCH   1   2
ATOM      2  C   UNL A   1      31.052  25.775  26.274  1.00  0.00     0.325 C 
ATOM      3  O   UNL A   1      31.135  24.799  27.017  1.00  0.00    -0.250 OA
BRANCH   2   4
ATOM      4  C   UNL A   1      31.028  25.614  24.754  1.00  0.00     0.244 C 
BRANCH   4   5
ATOM      5  N   UNL A   1      32.313  25.532  24.059  1.00  0.00    -0.309 N 
BRANCH   5   6
ATOM      6  C   UNL A   1      33.382  24.758  24.512  1.00  0.00     0.321 C 
ATOM      7  O   UNL A   1      34.407  25.302  24.935  1.00  0.00    -0.248 OA
BRANCH   6   8
ATOM      8  N   UNL A   1      33.355  23.378  24.489  1.00  0.00    -0.323 N 
ATOM      9  C   UNL A   1      33.191  21.057  25.093  1.00  0.00     0.123 C 
ATOM     10  C   UNL A   1      32.440  22.383  25.022  1.00  0.00     0.137 C 
ATOM     11  C   UNL A   1      34.614  21.378  24.631  1.00  0.00     0.021 C 
ATOM     12  C   UNL A   1      34.454  22.673  23.838  1.00  0.00     0.125 C 
ATOM     13  C   UNL A   1      35.530  21.601  25.839  1.00  0.00     0.010 C 
BRANCH   9  14
ATOM     14  C   UNL A   1      32.466  20.033  24.252  1.00  0.00     0.310 C 
ATOM     15  O   UNL A   1      32.156  20.158  23.078  1.00  0.00    -0.252 OA
BRANCH  14  16
ATOM     16  O   UNL A   1      32.156  18.943  25.009  1.00  0.00    -0.469 OA
ATOM     17  C   UNL A   1      32.989  17.812  24.750  1.00  0.00     0.282 C 
ENDBRANCH  14  16
ENDBRANCH   9  14
ENDBRANCH   6   8
ENDBRANCH   5   6
BRANCH   5  18
ATOM     18  C   UNL A   1      32.463  26.263  22.730  1.00  0.00     0.037 C 
ATOM     19  C   UNL A   1      32.805  25.272  21.596  1.00  0.00     0.034 C 
ATOM     20  C   UNL A   1      31.171  27.048  22.389  1.00  0.00     0.034 C 
ATOM     21  C   UNL A   1      33.593  27.328  22.701  1.00  0.00     0.034 C 
ENDBRANCH   5  18
ENDBRANCH   4   5
ENDBRANCH   2   4
ENDBRANCH   1   2
BRANCH   1  22
ATOM     22  C   UNL A   1      32.131  27.864  26.562  1.00  0.00     0.274 C 
BRANCH  22  23
ATOM     23  C   UNL A   1      31.818  29.200  25.889  1.00  0.00     0.275 C 
BRANCH  23  24
ATOM     24  O   UNL A   1      33.015  29.996  25.813  1.00  0.00    -0.458 OA
BRANCH  24  25
ATOM     25  C   UNL A   1      33.121  30.984  26.731  1.00  0.00     0.338 C 
ATOM     26  O   UNL A   1      32.335  31.895  26.925  1.00  0.00    -0.246 OA
BRANCH  25  27
ATOM     27  C   UNL A   1      34.349  30.809  27.539  1.00  0.00     0.060 A 
ATOM     28  C   UNL A   1      35.224  31.871  27.781  1.00  0.00     0.016 A 
ATOM     29  C   UNL A   1      34.683  29.528  27.978  1.00  0.00     0.016 A 
ATOM     30  C   UNL A   1      36.453  31.648  28.398  1.00  0.00     0.010 A 
ATOM     31  C   UNL A   1      35.870  29.322  28.685  1.00  0.00     0.010 A 
ATOM     32  C   UNL A   1      36.775  30.377  28.890  1.00  0.00    -0.014 A 
BRANCH  32  33
ATOM     33  C   UNL A   1      38.032  30.146  29.648  1.00  0.00     0.031 A 
ATOM     34  C   UNL A   1      39.110  29.263  29.082  1.00  0.00     0.074 A 
ATOM     35  C   UNL A   1      38.185  30.686  30.873  1.00  0.00     0.049 A 
ATOM     36  N   UNL A   1      40.158  28.753  29.679  1.00  0.00    -0.248 NA
ATOM     37  C   UNL A   1      38.987  28.894  27.664  1.00  0.00     0.031 C 
ATOM     38  C   UNL A   1      37.232  31.582  31.529  1.00  0.00     0.029 A 
ATOM     39  N   UNL A   1      39.194  30.547  31.793  1.00  0.00    -0.354 N 
ATOM     40  C   UNL A   1      40.786  27.961  28.728  1.00  0.00     0.074 A 
ATOM     41  C   UNL A   1      40.008  28.063  27.511  1.00  0.00     0.031 C 
ATOM     42  C   UNL A   1      37.707  31.926  32.735  1.00  0.00     0.029 A 
ATOM     43  C   UNL A   1      38.954  31.207  32.972  1.00  0.00     0.049 A 
ATOM     44  H   UNL A   1      40.011  30.024  31.623  1.00  0.00     0.167 HD
ATOM     45  C   UNL A   1      41.907  27.212  28.865  1.00  0.00     0.037 A 
ATOM     46  C   UNL A   1      39.628  31.198  34.136  1.00  0.00     0.037 A 
ATOM     47  C   UNL A   1      42.705  27.152  30.063  1.00  0.00     0.049 A 
ATOM     48  C   UNL A   1      40.854  30.343  34.269  1.00  0.00     0.074 A 
ATOM     49  C   UNL A   1      43.876  26.448  30.285  1.00  0.00     0.029 A 
ATOM     50  N   UNL A   1      42.418  27.831  31.237  1.00  0.00    -0.354 N 
ATOM     51  N   UNL A   1      41.415  29.563  33.380  1.00  0.00    -0.248 NA
ATOM     52  C   UNL A   1      41.526  30.352  35.576  1.00  0.00     0.031 C 
ATOM     53  C   UNL A   1      44.283  26.680  31.604  1.00  0.00     0.029 A 
ATOM     54  C   UNL A   1      43.383  27.554  32.191  1.00  0.00     0.049 A 
ATOM     55  H   UNL A   1      41.643  28.423  31.373  1.00  0.00     0.167 HD
ATOM     56  C   UNL A   1      42.507  28.990  34.013  1.00  0.00     0.074 A 
ATOM     57  C   UNL A   1      42.543  29.528  35.358  1.00  0.00     0.031 C 
ATOM     58  C   UNL A   1      43.399  28.094  33.526  1.00  0.00     0.037 A 
BRANCH  45  59
ATOM     59  C   UNL A   1      42.330  26.370  27.700  1.00  0.00     0.064 A 
ATOM     60  C   UNL A   1      43.304  26.803  26.789  1.00  0.00     0.173 A 
ATOM     61  C   UNL A   1      41.793  25.084  27.528  1.00  0.00     0.173 A 
ATOM     62  F   UNL A   1      43.837  28.029  26.904  1.00  0.00    -0.203 F 
ATOM     63  C   UNL A   1      43.716  25.984  25.741  1.00  0.00     0.198 A 
ATOM     64  C   UNL A   1      42.223  24.260  26.491  1.00  0.00     0.198 A 
ATOM     65  F   UNL A   1      40.861  24.624  28.376  1.00  0.00    -0.203 F 
ATOM     66  F   UNL A   1      44.627  26.428  24.864  1.00  0.00    -0.200 F 
ATOM     67  C   UNL A   1      43.181  24.711  25.598  1.00  0.00     0.200 A 
ATOM     68  F   UNL A   1      41.713  23.028  26.361  1.00  0.00    -0.200 F 
ATOM     69  F   UNL A   1      43.588  23.921  24.595  1.00  0.00    -0.200 F 
ENDBRANCH  45  59
BRANCH  46  70
ATOM     70  C   UNL A   1      39.124  31.999  35.279  1.00  0.00     0.064 A 
ATOM     71  C   UNL A   1      38.372  31.402  36.298  1.00  0.00     0.173 A 
ATOM     72  C   UNL A   1      39.414  33.367  35.391  1.00  0.00     0.173 A 
ATOM     73  F   UNL A   1      38.054  30.102  36.220  1.00  0.00    -0.203 F 
ATOM     74  C   UNL A   1      37.927  32.145  37.388  1.00  0.00     0.198 A 
ATOM     75  C   UNL A   1      38.991  34.103  36.494  1.00  0.00     0.198 A 
ATOM     76  F   UNL A   1      40.135  33.982  34.441  1.00  0.00    -0.203 F 
ATOM     77  F   UNL A   1      37.187  31.558  38.338  1.00  0.00    -0.200 F 
ATOM     78  C   UNL A   1      38.243  33.492  37.490  1.00  0.00     0.200 A 
ATOM     79  F   UNL A   1      39.312  35.400  36.597  1.00  0.00    -0.200 F 
ATOM     80  F   UNL A   1      37.828  34.201  38.549  1.00  0.00    -0.200 F 
ENDBRANCH  46  70
BRANCH  58  81
ATOM     81  C   UNL A   1      44.494  27.656  34.448  1.00  0.00     0.064 A 
ATOM     82  C   UNL A   1      45.697  28.370  34.542  1.00  0.00     0.173 A 
ATOM     83  C   UNL A   1      44.330  26.526  35.262  1.00  0.00     0.173 A 
ATOM     84  F   UNL A   1      45.905  29.446  33.768  1.00  0.00    -0.203 F 
ATOM     85  C   UNL A   1      46.708  27.953  35.404  1.00  0.00     0.198 A 
ATOM     86  C   UNL A   1      45.334  26.126  36.139  1.00  0.00     0.198 A 
ATOM     87  F   UNL A   1      43.194  25.814  35.209  1.00  0.00    -0.203 F 
ATOM     88  F   UNL A   1      47.866  28.626  35.450  1.00  0.00    -0.200 F 
ATOM     89  C   UNL A   1      46.523  26.836  36.205  1.00  0.00     0.200 A 
ATOM     90  F   UNL A   1      45.152  25.049  36.916  1.00  0.00    -0.200 F 
ATOM     91  F   UNL A   1      47.497  26.437  37.035  1.00  0.00    -0.200 F 
ENDBRANCH  58  81
ENDBRANCH  32  33
ENDBRANCH  25  27
ENDBRANCH  24  25
ENDBRANCH  23  24
ENDBRANCH  22  23
ENDBRANCH   1  22
TORSDOF 17
ENDMDL
MODEL 2
REMARK VINA RESULT:     -11.2      2.726      4.837
REMARK SMILES COC(=O)[C@@H]1CN(C(=O)N(CC(=O)OCCOC(=O)c2ccc(-c3c4nc(c(-c5c(F)c(F)c(F)c(F)c5F)c5ccc([nH]5)c(-c5c(F)c(F)c(F)c(F)c5F)c5nc(c(-c6c(F)c(F)c(F)c(F)c6F)c6ccc3[nH]6)C=C5)C=C4)cc2)C(C)(C)C)C[C@H]1C
REMARK SMILES IDX 14 1 12 2 13 3 11 4 10 5 8 6 9 7 7 8 5 9 6 10 88 11 87 12
REMARK SMILES IDX 89 13 3 14 4 15 2 16 1 17 83 18 84 19 85 20 86 21 15 22
REMARK SMILES IDX 16 23 17 24 18 25 19 26 20 27 21 28 82 29 22 30 81 31 23 32
REMARK SMILES IDX 24 33 25 34 75 35 26 36 80 37 74 38 76 39 27 40 79 41 73 42
REMARK SMILES IDX 72 43 28 45 60 46 40 47 59 48 41 49 44 50 58 51 77 52 42 53
REMARK SMILES IDX 43 54 57 56 78 57 45 58 29 59 30 60 38 61 31 62 32 63 36 64
REMARK SMILES IDX 39 65 33 66 34 67 37 68 35 69 61 70 62 71 70 72 63 73 64 74
REMARK SMILES IDX 68 75 71 76 65 77 66 78 69 79 67 80 46 81 47 82 55 83 48 84
REMARK SMILES IDX 49 85 53 86 56 87 50 88 51 89 54 90 52 91
REMARK H PARENT 76 44 44 55
REMARK Flexibility Score: inf
ROOT
ATOM      1  O   UNL A   1      32.972  30.800  27.062  1.00  0.00    -0.461 OA
ENDROOT
BRANCH   1   2
ATOM      2  C   UNL A   1      33.177  29.526  26.634  1.00  0.00     0.325 C 
ATOM      3  O   UNL A   1      34.282  29.022  26.440  1.00  0.00    -0.250 OA
BRANCH   2   4
ATOM      4  C   UNL A   1      31.893  28.719  26.439  1.00  0.00     0.244 C 
BRANCH   4   5
ATOM      5  N   UNL A   1      31.665  28.114  25.126  1.00  0.00    -0.309 N 
BRANCH   5   6
ATOM      6  C   UNL A   1      31.620  28.847  23.940  1.00  0.00     0.321 C 
ATOM      7  O   UNL A   1      32.647  29.015  23.275  1.00  0.00    -0.248 OA
BRANCH   6   8
ATOM      8  N   UNL A   1      30.457  29.426  23.474  1.00  0.00    -0.323 N 
ATOM      9  C   UNL A   1      28.272  30.414  23.304  1.00  0.00     0.123 C 
ATOM     10  C   UNL A   1      29.671  30.574  23.891  1.00  0.00     0.137 C 
ATOM     11  C   UNL A   1      28.293  29.064  22.584  1.00  0.00     0.021 C 
ATOM     12  C   UNL A   1      29.778  28.806  22.341  1.00  0.00     0.125 C 
ATOM     13  C   UNL A   1      27.701  27.972  23.480  1.00  0.00     0.010 C 
BRANCH   9  14
ATOM     14  C   UNL A   1      27.968  31.600  22.420  1.00  0.00     0.310 C 
ATOM     15  O   UNL A   1      27.764  32.743  22.798  1.00  0.00    -0.252 OA
BRANCH  14  16
ATOM     16  O   UNL A   1      27.903  31.206  21.117  1.00  0.00    -0.469 OA
ATOM     17  C   UNL A   1      27.997  32.288  20.188  1.00  0.00     0.282 C 
ENDBRANCH  14  16
ENDBRANCH   9  14
ENDBRANCH   6   8
ENDBRANCH   5   6
BRANCH   5  18
ATOM     18  C   UNL A   1      31.556  26.595  25.042  1.00  0.00     0.037 C 
ATOM     19  C   UNL A   1      32.513  25.921  26.048  1.00  0.00     0.034 C 
ATOM     20  C   UNL A   1      30.098  26.136  25.293  1.00  0.00     0.034 C 
ATOM     21  C   UNL A   1      31.927  25.997  23.657  1.00  0.00     0.034 C 
ENDBRANCH   5  18
ENDBRANCH   4   5
ENDBRANCH   2   4
ENDBRANCH   1   2
BRANCH   1  22
ATOM     22  C   UNL A   1      31.716  31.390  26.669  1.00  0.00     0.274 C 
BRANCH  22  23
ATOM     23  C   UNL A   1      31.723  32.900  26.901  1.00  0.00     0.275 C 
BRANCH  23  24
ATOM     24  O   UNL A   1      33.068  33.344  27.158  1.00  0.00    -0.458 OA
BRANCH  24  25
ATOM     25  C   UNL A   1      33.243  34.063  28.291  1.00  0.00     0.338 C 
ATOM     26  O   UNL A   1      32.518  34.942  28.722  1.00  0.00    -0.246 OA
BRANCH  25  27
ATOM     27  C   UNL A   1      34.461  33.616  29.003  1.00  0.00     0.060 A 
ATOM     28  C   UNL A   1      35.686  34.267  28.839  1.00  0.00     0.016 A 
ATOM     29  C   UNL A   1      34.396  32.455  29.774  1.00  0.00     0.016 A 
ATOM     30  C   UNL A   1      36.850  33.732  29.384  1.00  0.00     0.010 A 
ATOM     31  C   UNL A   1      35.546  31.973  30.403  1.00  0.00     0.010 A 
ATOM     32  C   UNL A   1      36.789  32.597  30.203  1.00  0.00    -0.014 A 
BRANCH  32  33
ATOM     33  C   UNL A   1      38.004  32.077  30.883  1.00  0.00     0.031 A 
ATOM     34  C   UNL A   1      38.847  31.018  30.228  1.00  0.00     0.074 A 
ATOM     35  C   UNL A   1      38.322  32.518  32.115  1.00  0.00     0.049 A 
ATOM     36  N   UNL A   1      39.791  30.276  30.748  1.00  0.00    -0.248 NA
ATOM     37  C   UNL A   1      38.583  30.747  28.807  1.00  0.00     0.031 C 
ATOM     38  C   UNL A   1      37.608  33.561  32.854  1.00  0.00     0.029 A 
ATOM     39  N   UNL A   1      39.322  32.131  32.973  1.00  0.00    -0.354 N 
ATOM     40  C   UNL A   1      40.196  29.415  29.738  1.00  0.00     0.074 A 
ATOM     41  C   UNL A   1      39.401  29.731  28.569  1.00  0.00     0.031 C 
ATOM     42  C   UNL A   1      38.200  33.743  34.043  1.00  0.00     0.029 A 
ATOM     43  C   UNL A   1      39.279  32.773  34.186  1.00  0.00     0.049 A 
ATOM     44  H   UNL A   1      40.003  31.460  32.741  1.00  0.00     0.167 HD
ATOM     45  C   UNL A   1      41.141  28.446  29.786  1.00  0.00     0.037 A 
ATOM     46  C   UNL A   1      39.990  32.572  35.311  1.00  0.00     0.037 A 
ATOM     47  C   UNL A   1      41.964  28.168  30.936  1.00  0.00     0.049 A 
ATOM     48  C   UNL A   1      41.015  31.477  35.346  1.00  0.00     0.074 A 
ATOM     49  C   UNL A   1      42.972  27.229  31.068  1.00  0.00     0.029 A 
ATOM     50  N   UNL A   1      41.879  28.838  32.147  1.00  0.00    -0.354 N 
ATOM     51  N   UNL A   1      41.359  30.639  34.401  1.00  0.00    -0.248 NA
ATOM     52  C   UNL A   1      41.735  31.288  36.613  1.00  0.00     0.031 C 
ATOM     53  C   UNL A   1      43.478  27.310  32.371  1.00  0.00     0.029 A 
ATOM     54  C   UNL A   1      42.809  28.323  33.037  1.00  0.00     0.049 A 
ATOM     55  H   UNL A   1      41.252  29.570  32.346  1.00  0.00     0.167 HD
ATOM     56  C   UNL A   1      42.337  29.825  34.953  1.00  0.00     0.074 A 
ATOM     57  C   UNL A   1      42.546  30.283  36.312  1.00  0.00     0.031 C 
ATOM     58  C   UNL A   1      42.999  28.787  34.386  1.00  0.00     0.037 A 
BRANCH  45  59
ATOM     59  C   UNL A   1      41.325  27.589  28.571  1.00  0.00     0.064 A 
ATOM     60  C   UNL A   1      40.519  26.468  28.326  1.00  0.00     0.173 A 
ATOM     61  C   UNL A   1      42.286  27.933  27.606  1.00  0.00     0.173 A 
ATOM     62  F   UNL A   1      39.596  26.092  29.224  1.00  0.00    -0.203 F 
ATOM     63  C   UNL A   1      40.677  25.714  27.166  1.00  0.00     0.198 A 
ATOM     64  C   UNL A   1      42.426  27.189  26.437  1.00  0.00     0.198 A 
ATOM     65  F   UNL A   1      43.079  28.999  27.793  1.00  0.00    -0.203 F 
ATOM     66  F   UNL A   1      39.916  24.630  26.965  1.00  0.00    -0.200 F 
ATOM     67  C   UNL A   1      41.624  26.080  26.219  1.00  0.00     0.200 A 
ATOM     68  F   UNL A   1      43.334  27.549  25.521  1.00  0.00    -0.200 F 
ATOM     69  F   UNL A   1      41.766  25.360  25.098  1.00  0.00    -0.200 F 
ENDBRANCH  45  59
BRANCH  46  70
ATOM     70  C   UNL A   1      39.718  33.407  36.507  1.00  0.00     0.064 A 
ATOM     71  C   UNL A   1      40.384  34.623  36.699  1.00  0.00     0.173 A 
ATOM     72  C   UNL A   1      38.765  33.021  37.461  1.00  0.00     0.173 A 
ATOM     73  F   UNL A   1      41.319  35.020  35.824  1.00  0.00    -0.203 F 
ATOM     74  C   UNL A   1      40.107  35.424  37.804  1.00  0.00     0.198 A 
ATOM     75  C   UNL A   1      38.469  33.836  38.550  1.00  0.00     0.198 A 
ATOM     76  F   UNL A   1      38.098  31.865  37.316  1.00  0.00    -0.203 F 
ATOM     77  F   UNL A   1      40.775  36.572  37.980  1.00  0.00    -0.200 F 
ATOM     78  C   UNL A   1      39.144  35.035  38.724  1.00  0.00     0.200 A 
ATOM     79  F   UNL A   1      37.527  33.463  39.428  1.00  0.00    -0.200 F 
ATOM     80  F   UNL A   1      38.866  35.815  39.777  1.00  0.00    -0.200 F 
ENDBRANCH  46  70
BRANCH  58  81
ATOM     81  C   UNL A   1      44.020  28.092  35.231  1.00  0.00     0.064 A 
ATOM     82  C   UNL A   1      43.688  26.964  35.997  1.00  0.00     0.173 A 
ATOM     83  C   UNL A   1      45.348  28.542  35.259  1.00  0.00     0.173 A 
ATOM     84  F   UNL A   1      42.426  26.510  36.016  1.00  0.00    -0.203 F 
ATOM     85  C   UNL A   1      44.648  26.325  36.778  1.00  0.00     0.198 A 
ATOM     86  C   UNL A   1      46.308  27.888  36.024  1.00  0.00     0.198 A 
ATOM     87  F   UNL A   1      45.712  29.615  34.540  1.00  0.00    -0.203 F 
ATOM     88  F   UNL A   1      44.301  25.274  37.533  1.00  0.00    -0.200 F 
ATOM     89  C   UNL A   1      45.956  26.784  36.786  1.00  0.00     0.200 A 
ATOM     90  F   UNL A   1      47.574  28.328  36.026  1.00  0.00    -0.200 F 
ATOM     91  F   UNL A   1      46.879  26.168  37.538  1.00  0.00    -0.200 F 
ENDBRANCH  58  81
ENDBRANCH  32  33
ENDBRANCH  25  27
ENDBRANCH  24  25
ENDBRANCH  23  24
ENDBRANCH  22  23
ENDBRANCH   1  22
TORSDOF 17
ENDMDL
MODEL 3
REMARK VINA RESULT:     -11.2      1.932      4.310
REMARK SMILES COC(=O)[C@@H]1CN(C(=O)N(CC(=O)OCCOC(=O)c2ccc(-c3c4nc(c(-c5c(F)c(F)c(F)c(F)c5F)c5ccc([nH]5)c(-c5c(F)c(F)c(F)c(F)c5F)c5nc(c(-c6c(F)c(F)c(F)c(F)c6F)c6ccc3[nH]6)C=C5)C=C4)cc2)C(C)(C)C)C[C@H]1C
REMARK SMILES IDX 14 1 12 2 13 3 11 4 10 5 8 6 9 7 7 8 5 9 6 10 88 11 87 12
REMARK SMILES IDX 89 13 3 14 4 15 2 16 1 17 83 18 84 19 85 20 86 21 15 22
REMARK SMILES IDX 16 23 17 24 18 25 19 26 20 27 21 28 82 29 22 30 81 31 23 32
REMARK SMILES IDX 24 33 25 34 75 35 26 36 80 37 74 38 76 39 27 40 79 41 73 42
REMARK SMILES IDX 72 43 28 45 60 46 40 47 59 48 41 49 44 50 58 51 77 52 42 53
REMARK SMILES IDX 43 54 57 56 78 57 45 58 29 59 30 60 38 61 31 62 32 63 36 64
REMARK SMILES IDX 39 65 33 66 34 67 37 68 35 69 61 70 62 71 70 72 63 73 64 74
REMARK SMILES IDX 68 75 71 76 65 77 66 78 69 79 67 80 46 81 47 82 55 83 48 84
REMARK SMILES IDX 49 85 53 86 56 87 50 88 51 89 54 90 52 91
REMARK H PARENT 76 44 44 55
REMARK Flexibility Score: inf
ROOT
ATOM      1  O   UNL A   1      32.316  27.370  26.677  1.00  0.00    -0.461 OA
ENDROOT
BRANCH   1   2
ATOM      2  C   UNL A   1      31.462  26.368  26.342  1.00  0.00     0.325 C 
ATOM      3  O   UNL A   1      31.359  25.303  26.949  1.00  0.00    -0.250 OA
BRANCH   2   4
ATOM      4  C   UNL A   1      30.576  26.680  25.135  1.00  0.00     0.244 C 
BRANCH   4   5
ATOM      5  N   UNL A   1      31.239  27.054  23.885  1.00  0.00    -0.309 N 
BRANCH   5   6
ATOM      6  C   UNL A   1      31.481  28.377  23.512  1.00  0.00     0.321 C 
ATOM      7  O   UNL A   1      32.638  28.807  23.469  1.00  0.00    -0.248 OA
BRANCH   6   8
ATOM      8  N   UNL A   1      30.462  29.254  23.200  1.00  0.00    -0.323 N 
ATOM      9  C   UNL A   1      28.558  30.719  23.303  1.00  0.00     0.123 C 
ATOM     10  C   UNL A   1      29.982  30.488  23.800  1.00  0.00     0.137 C 
ATOM     11  C   UNL A   1      28.234  29.499  22.438  1.00  0.00     0.021 C 
ATOM     12  C   UNL A   1      29.607  28.949  22.058  1.00  0.00     0.125 C 
ATOM     13  C   UNL A   1      27.449  28.463  23.248  1.00  0.00     0.010 C 
BRANCH   9  14
ATOM     14  C   UNL A   1      28.495  32.044  22.582  1.00  0.00     0.310 C 
ATOM     15  O   UNL A   1      28.422  33.144  23.107  1.00  0.00    -0.252 OA
BRANCH  14  16
ATOM     16  O   UNL A   1      28.481  31.841  21.234  1.00  0.00    -0.469 OA
ATOM     17  C   UNL A   1      27.657  32.769  20.526  1.00  0.00     0.282 C 
ENDBRANCH  14  16
ENDBRANCH   9  14
ENDBRANCH   6   8
ENDBRANCH   5   6
BRANCH   5  18
ATOM     18  C   UNL A   1      31.766  25.941  22.987  1.00  0.00     0.037 C 
ATOM     19  C   UNL A   1      33.264  25.684  23.257  1.00  0.00     0.034 C 
ATOM     20  C   UNL A   1      30.950  24.641  23.190  1.00  0.00     0.034 C 
ATOM     21  C   UNL A   1      31.668  26.238  21.465  1.00  0.00     0.034 C 
ENDBRANCH   5  18
ENDBRANCH   4   5
ENDBRANCH   2   4
ENDBRANCH   1   2
BRANCH   1  22
ATOM     22  C   UNL A   1      31.771  28.380  27.552  1.00  0.00     0.274 C 
BRANCH  22  23
ATOM     23  C   UNL A   1      31.771  29.749  26.875  1.00  0.00     0.275 C 
BRANCH  23  24
ATOM     24  O   UNL A   1      33.124  30.154  26.599  1.00  0.00    -0.458 OA
BRANCH  24  25
ATOM     25  C   UNL A   1      33.520  31.312  27.176  1.00  0.00     0.338 C 
ATOM     26  O   UNL A   1      32.960  32.392  27.116  1.00  0.00    -0.246 OA
BRANCH  25  27
ATOM     27  C   UNL A   1      34.760  31.103  27.957  1.00  0.00     0.060 A 
ATOM     28  C   UNL A   1      35.700  32.123  28.126  1.00  0.00     0.016 A 
ATOM     29  C   UNL A   1      35.036  29.825  28.443  1.00  0.00     0.016 A 
ATOM     30  C   UNL A   1      36.933  31.858  28.718  1.00  0.00     0.010 A 
ATOM     31  C   UNL A   1      36.231  29.583  29.125  1.00  0.00     0.010 A 
ATOM     32  C   UNL A   1      37.199  30.593  29.257  1.00  0.00    -0.014 A 
BRANCH  32  33
ATOM     33  C   UNL A   1      38.463  30.323  29.990  1.00  0.00     0.031 A 
ATOM     34  C   UNL A   1      39.509  29.421  29.397  1.00  0.00     0.074 A 
ATOM     35  C   UNL A   1      38.651  30.847  31.217  1.00  0.00     0.049 A 
ATOM     36  N   UNL A   1      40.554  28.879  29.969  1.00  0.00    -0.248 NA
ATOM     37  C   UNL A   1      39.351  29.069  27.978  1.00  0.00     0.031 C 
ATOM     38  C   UNL A   1      37.732  31.760  31.900  1.00  0.00     0.029 A 
ATOM     39  N   UNL A   1      39.673  30.674  32.117  1.00  0.00    -0.354 N 
ATOM     40  C   UNL A   1      41.146  28.082  29.000  1.00  0.00     0.074 A 
ATOM     41  C   UNL A   1      40.349  28.215  27.798  1.00  0.00     0.031 C 
ATOM     42  C   UNL A   1      38.237  32.079  33.100  1.00  0.00     0.029 A 
ATOM     43  C   UNL A   1      39.470  31.329  33.307  1.00  0.00     0.049 A 
ATOM     44  H   UNL A   1      40.474  30.134  31.928  1.00  0.00     0.167 HD
ATOM     45  C   UNL A   1      42.250  27.305  29.108  1.00  0.00     0.037 A 
ATOM     46  C   UNL A   1      40.164  31.291  34.459  1.00  0.00     0.037 A 
ATOM     47  C   UNL A   1      43.068  27.213  30.291  1.00  0.00     0.049 A 
ATOM     48  C   UNL A   1      41.371  30.405  34.561  1.00  0.00     0.074 A 
ATOM     49  C   UNL A   1      44.226  26.480  30.484  1.00  0.00     0.029 A 
ATOM     50  N   UNL A   1      42.819  27.888  31.477  1.00  0.00    -0.354 N 
ATOM     51  N   UNL A   1      41.897  29.621  33.654  1.00  0.00    -0.248 NA
ATOM     52  C   UNL A   1      42.068  30.385  35.855  1.00  0.00     0.031 C 
ATOM     53  C   UNL A   1      44.662  26.688  31.798  1.00  0.00     0.029 A 
ATOM     54  C   UNL A   1      43.795  27.577  32.410  1.00  0.00     0.049 A 
ATOM     55  H   UNL A   1      42.062  28.497  31.632  1.00  0.00     0.167 HD
ATOM     56  C   UNL A   1      42.987  29.016  34.262  1.00  0.00     0.074 A 
ATOM     57  C   UNL A   1      43.060  29.540  35.611  1.00  0.00     0.031 C 
ATOM     58  C   UNL A   1      43.847  28.104  33.749  1.00  0.00     0.037 A 
BRANCH  45  59
ATOM     59  C   UNL A   1      42.632  26.465  27.927  1.00  0.00     0.064 A 
ATOM     60  C   UNL A   1      42.065  25.202  27.703  1.00  0.00     0.173 A 
ATOM     61  C   UNL A   1      43.536  26.961  26.974  1.00  0.00     0.173 A 
ATOM     62  F   UNL A   1      41.207  24.681  28.592  1.00  0.00    -0.203 F 
ATOM     63  C   UNL A   1      42.400  24.460  26.573  1.00  0.00     0.198 A 
ATOM     64  C   UNL A   1      43.851  26.225  25.835  1.00  0.00     0.198 A 
ATOM     65  F   UNL A   1      44.102  28.165  27.142  1.00  0.00    -0.203 F 
ATOM     66  F   UNL A   1      41.869  23.244  26.392  1.00  0.00    -0.200 F 
ATOM     67  C   UNL A   1      43.285  24.975  25.636  1.00  0.00     0.200 A 
ATOM     68  F   UNL A   1      44.699  26.728  24.927  1.00  0.00    -0.200 F 
ATOM     69  F   UNL A   1      43.596  24.264  24.544  1.00  0.00    -0.200 F 
ENDBRANCH  45  59
BRANCH  46  70
ATOM     70  C   UNL A   1      39.701  32.093  35.618  1.00  0.00     0.064 A 
ATOM     71  C   UNL A   1      38.721  31.598  36.487  1.00  0.00     0.173 A 
ATOM     72  C   UNL A   1      40.254  33.351  35.899  1.00  0.00     0.173 A 
ATOM     73  F   UNL A   1      38.150  30.409  36.244  1.00  0.00    -0.203 F 
ATOM     74  C   UNL A   1      38.308  32.334  37.594  1.00  0.00     0.198 A 
ATOM     75  C   UNL A   1      39.860  34.074  37.021  1.00  0.00     0.198 A 
ATOM     76  F   UNL A   1      41.200  33.864  35.097  1.00  0.00    -0.203 F 
ATOM     77  F   UNL A   1      37.350  31.852  38.397  1.00  0.00    -0.200 F 
ATOM     78  C   UNL A   1      38.884  33.567  37.866  1.00  0.00     0.200 A 
ATOM     79  F   UNL A   1      40.430  35.257  37.289  1.00  0.00    -0.200 F 
ATOM     80  F   UNL A   1      38.497  34.266  38.942  1.00  0.00    -0.200 F 
ENDBRANCH  46  70
BRANCH  58  81
ATOM     81  C   UNL A   1      44.948  27.630  34.647  1.00  0.00     0.064 A 
ATOM     82  C   UNL A   1      44.798  26.487  35.445  1.00  0.00     0.173 A 
ATOM     83  C   UNL A   1      46.172  28.313  34.693  1.00  0.00     0.173 A 
ATOM     84  F   UNL A   1      43.637  25.814  35.447  1.00  0.00    -0.203 F 
ATOM     85  C   UNL A   1      45.829  26.056  36.275  1.00  0.00     0.198 A 
ATOM     86  C   UNL A   1      47.209  27.867  35.508  1.00  0.00     0.198 A 
ATOM     87  F   UNL A   1      46.362  29.410  33.945  1.00  0.00    -0.203 F 
ATOM     88  F   UNL A   1      45.652  24.985  37.060  1.00  0.00    -0.200 F 
ATOM     89  C   UNL A   1      47.034  26.743  36.302  1.00  0.00     0.200 A 
ATOM     90  F   UNL A   1      48.374  28.527  35.528  1.00  0.00    -0.200 F 
ATOM     91  F   UNL A   1      48.026  26.327  37.101  1.00  0.00    -0.200 F 
ENDBRANCH  58  81
ENDBRANCH  32  33
ENDBRANCH  25  27
ENDBRANCH  24  25
ENDBRANCH  23  24
ENDBRANCH  22  23
ENDBRANCH   1  22
TORSDOF 17
ENDMDL
