MODEL 1
REMARK VINA RESULT:     -12.5      0.000      0.000
REMARK SMILES CC(C)[C@H](C)CNC(=O)N1CC(n2cc(C(=O)OCCOC(=O)c3ccc(-c4c5nc(c(-c6c(F)c(F)c(F)c(F)c6F)c6ccc([nH]6)c(-c6c(F)c(F)c(F)c(F)c6F)c6nc(c(-c7c(F)c(F)c(F)c(F)c7F)c7ccc4[nH]7)C=C6)C=C5)cc3)nn2)C1
REMARK SMILES IDX 19 1 18 2 16 3 17 4 15 5 13 6 14 7 88 8 87 9 12 10 7 11 8 12
REMARK SMILES IDX 9 14 10 15 11 16 89 17 6 18 4 19 5 20 2 21 1 22 3 23 20 24
REMARK SMILES IDX 21 25 22 26 23 27 24 28 25 29 86 30 26 31 85 32 27 33 28 34
REMARK SMILES IDX 29 35 79 36 30 37 84 38 78 39 80 40 31 41 83 42 77 43 76 44
REMARK SMILES IDX 32 46 64 47 44 48 63 49 45 50 48 51 62 52 81 53 46 54 47 55
REMARK SMILES IDX 61 57 82 58 49 59 33 60 34 61 42 62 35 63 36 64 40 65 43 66
REMARK SMILES IDX 37 67 38 68 41 69 39 70 65 71 66 72 74 73 67 74 68 75 72 76
REMARK SMILES IDX 75 77 69 78 70 79 73 80 71 81 50 82 51 83 59 84 52 85 53 86
REMARK SMILES IDX 57 87 60 88 54 89 55 90 58 91 56 92
REMARK H PARENT 7 13 80 45 48 56
REMARK Flexibility Score: inf
ROOT
ATOM      1  C   UNL A   1      42.338  19.917  26.601  1.00  0.00     0.275 C 
ENDROOT
BRANCH   1   2
ATOM      2  O   UNL A   1      41.153  20.484  26.024  1.00  0.00    -0.457 OA
BRANCH   2   3
ATOM      3  C   UNL A   1      40.370  21.209  26.890  1.00  0.00     0.360 C 
ATOM      4  O   UNL A   1      40.625  21.369  28.069  1.00  0.00    -0.244 OA
BRANCH   3   5
ATOM      5  C   UNL A   1      39.213  21.792  26.226  1.00  0.00     0.190 A 
ATOM      6  N   UNL A   1      37.429  22.185  25.065  1.00  0.00    -0.245 N 
ATOM      7  C   UNL A   1      38.353  21.212  25.314  1.00  0.00     0.147 A 
ATOM      8  N   UNL A   1      37.712  23.311  25.738  1.00  0.00    -0.066 NA
ATOM      9  N   UNL A   1      38.812  23.089  26.445  1.00  0.00    -0.123 NA
BRANCH   6  10
ATOM     10  C   UNL A   1      36.239  21.971  24.305  1.00  0.00     0.148 C 
ATOM     11  N   UNL A   1      32.552  19.934  24.476  1.00  0.00    -0.338 N 
ATOM     12  C   UNL A   1      33.050  21.187  24.320  1.00  0.00     0.317 C 
ATOM     13  H   UNL A   1      31.809  19.709  23.872  1.00  0.00     0.165 HD
ATOM     14  O   UNL A   1      32.340  22.032  23.776  1.00  0.00    -0.249 OA
ATOM     15  N   UNL A   1      34.299  21.470  24.756  1.00  0.00    -0.320 N 
ATOM     16  C   UNL A   1      34.996  22.755  24.742  1.00  0.00     0.150 C 
ATOM     17  C   UNL A   1      35.522  20.695  24.792  1.00  0.00     0.150 C 
BRANCH  11  18
ATOM     18  C   UNL A   1      32.939  18.864  25.392  1.00  0.00     0.121 C 
BRANCH  18  19
ATOM     19  C   UNL A   1      32.846  17.475  24.719  1.00  0.00     0.008 C 
ATOM     20  C   UNL A   1      33.457  17.507  23.307  1.00  0.00     0.010 C 
BRANCH  19  21
ATOM     21  C   UNL A   1      33.437  16.310  25.573  1.00  0.00    -0.013 C 
ATOM     22  C   UNL A   1      32.614  15.017  25.545  1.00  0.00     0.008 C 
ATOM     23  C   UNL A   1      34.889  15.986  25.196  1.00  0.00     0.008 C 
ENDBRANCH  19  21
ENDBRANCH  18  19
ENDBRANCH  11  18
ENDBRANCH   6  10
ENDBRANCH   3   5
ENDBRANCH   2   3
ENDBRANCH   1   2
BRANCH   1  24
ATOM     24  C   UNL A   1      43.148  19.163  25.556  1.00  0.00     0.275 C 
BRANCH  24  25
ATOM     25  O   UNL A   1      44.450  19.722  25.374  1.00  0.00    -0.458 OA
BRANCH  25  26
ATOM     26  C   UNL A   1      44.558  20.598  24.349  1.00  0.00     0.338 C 
ATOM     27  O   UNL A   1      44.858  20.343  23.194  1.00  0.00    -0.246 OA
BRANCH  26  28
ATOM     28  C   UNL A   1      44.535  21.965  24.885  1.00  0.00     0.060 A 
ATOM     29  C   UNL A   1      45.364  22.258  25.971  1.00  0.00     0.016 A 
ATOM     30  C   UNL A   1      43.521  22.846  24.479  1.00  0.00     0.016 A 
ATOM     31  C   UNL A   1      45.092  23.384  26.728  1.00  0.00     0.010 A 
ATOM     32  C   UNL A   1      43.236  23.954  25.247  1.00  0.00     0.010 A 
ATOM     33  C   UNL A   1      43.992  24.186  26.393  1.00  0.00    -0.014 A 
BRANCH  33  34
ATOM     34  C   UNL A   1      43.788  25.424  27.126  1.00  0.00     0.031 A 
ATOM     35  C   UNL A   1      44.820  26.430  26.771  1.00  0.00     0.074 A 
ATOM     36  C   UNL A   1      42.718  25.664  27.910  1.00  0.00     0.049 A 
ATOM     37  N   UNL A   1      45.754  26.884  27.536  1.00  0.00    -0.248 NA
ATOM     38  C   UNL A   1      44.964  26.822  25.357  1.00  0.00     0.031 C 
ATOM     39  C   UNL A   1      41.538  24.812  28.087  1.00  0.00     0.029 A 
ATOM     40  N   UNL A   1      42.406  26.768  28.651  1.00  0.00    -0.354 N 
ATOM     41  C   UNL A   1      46.457  27.800  26.760  1.00  0.00     0.074 A 
ATOM     42  C   UNL A   1      46.075  27.559  25.397  1.00  0.00     0.031 C 
ATOM     43  C   UNL A   1      40.555  25.523  28.686  1.00  0.00     0.029 A 
ATOM     44  C   UNL A   1      41.071  26.833  29.049  1.00  0.00     0.049 A 
ATOM     45  H   UNL A   1      43.067  27.461  28.884  1.00  0.00     0.167 HD
ATOM     46  C   UNL A   1      47.001  28.896  27.353  1.00  0.00     0.037 A 
ATOM     47  C   UNL A   1      40.436  27.907  29.586  1.00  0.00     0.037 A 
ATOM     48  C   UNL A   1      47.123  28.677  28.775  1.00  0.00     0.049 A 
ATOM     49  C   UNL A   1      41.482  28.799  30.134  1.00  0.00     0.074 A 
ATOM     50  C   UNL A   1      47.845  27.846  29.604  1.00  0.00     0.029 A 
ATOM     51  N   UNL A   1      46.052  29.132  29.495  1.00  0.00    -0.354 N 
ATOM     52  N   UNL A   1      42.208  28.507  31.176  1.00  0.00    -0.248 NA
ATOM     53  C   UNL A   1      41.995  29.873  29.295  1.00  0.00     0.031 C 
ATOM     54  C   UNL A   1      47.022  27.630  30.752  1.00  0.00     0.029 A 
ATOM     55  C   UNL A   1      45.856  28.384  30.617  1.00  0.00     0.049 A 
ATOM     56  H   UNL A   1      45.494  29.901  29.236  1.00  0.00     0.167 HD
ATOM     57  C   UNL A   1      43.457  29.014  30.873  1.00  0.00     0.074 A 
ATOM     58  C   UNL A   1      43.223  29.984  29.807  1.00  0.00     0.031 C 
ATOM     59  C   UNL A   1      44.578  28.357  31.292  1.00  0.00     0.037 A 
BRANCH  46  60
ATOM     60  C   UNL A   1      46.849  30.308  26.797  1.00  0.00     0.064 A 
ATOM     61  C   UNL A   1      47.970  31.165  26.845  1.00  0.00     0.173 A 
ATOM     62  C   UNL A   1      45.613  30.954  26.569  1.00  0.00     0.173 A 
ATOM     63  F   UNL A   1      49.196  30.672  27.075  1.00  0.00    -0.203 F 
ATOM     64  C   UNL A   1      47.845  32.557  26.774  1.00  0.00     0.198 A 
ATOM     65  C   UNL A   1      45.498  32.338  26.451  1.00  0.00     0.198 A 
ATOM     66  F   UNL A   1      44.444  30.305  26.563  1.00  0.00    -0.203 F 
ATOM     67  F   UNL A   1      48.920  33.332  26.968  1.00  0.00    -0.200 F 
ATOM     68  C   UNL A   1      46.607  33.142  26.588  1.00  0.00     0.200 A 
ATOM     69  F   UNL A   1      44.284  32.886  26.298  1.00  0.00    -0.200 F 
ATOM     70  F   UNL A   1      46.473  34.474  26.590  1.00  0.00    -0.200 F 
ENDBRANCH  46  60
BRANCH  47  71
ATOM     71  C   UNL A   1      39.030  28.366  29.433  1.00  0.00     0.064 A 
ATOM     72  C   UNL A   1      38.195  28.542  30.554  1.00  0.00     0.173 A 
ATOM     73  C   UNL A   1      38.573  28.933  28.229  1.00  0.00     0.173 A 
ATOM     74  F   UNL A   1      38.567  28.070  31.754  1.00  0.00    -0.203 F 
ATOM     75  C   UNL A   1      37.007  29.277  30.483  1.00  0.00     0.198 A 
ATOM     76  C   UNL A   1      37.383  29.661  28.158  1.00  0.00     0.198 A 
ATOM     77  F   UNL A   1      39.320  28.879  27.117  1.00  0.00    -0.203 F 
ATOM     78  F   UNL A   1      36.280  29.487  31.591  1.00  0.00    -0.200 F 
ATOM     79  C   UNL A   1      36.608  29.849  29.287  1.00  0.00     0.200 A 
ATOM     80  F   UNL A   1      37.028  30.239  27.002  1.00  0.00    -0.200 F 
ATOM     81  F   UNL A   1      35.509  30.614  29.232  1.00  0.00    -0.200 F 
ENDBRANCH  47  71
BRANCH  59  82
ATOM     82  C   UNL A   1      44.432  27.421  32.453  1.00  0.00     0.064 A 
ATOM     83  C   UNL A   1      44.352  27.813  33.800  1.00  0.00     0.173 A 
ATOM     84  C   UNL A   1      44.279  26.057  32.164  1.00  0.00     0.173 A 
ATOM     85  F   UNL A   1      44.406  29.105  34.150  1.00  0.00    -0.203 F 
ATOM     86  C   UNL A   1      44.170  26.869  34.811  1.00  0.00     0.198 A 
ATOM     87  C   UNL A   1      44.055  25.126  33.170  1.00  0.00     0.198 A 
ATOM     88  F   UNL A   1      44.307  25.635  30.890  1.00  0.00    -0.203 F 
ATOM     89  F   UNL A   1      44.120  27.260  36.094  1.00  0.00    -0.200 F 
ATOM     90  C   UNL A   1      44.013  25.529  34.493  1.00  0.00     0.200 A 
ATOM     91  F   UNL A   1      43.859  23.839  32.852  1.00  0.00    -0.200 F 
ATOM     92  F   UNL A   1      43.801  24.628  35.462  1.00  0.00    -0.200 F 
ENDBRANCH  59  82
ENDBRANCH  33  34
ENDBRANCH  26  28
ENDBRANCH  25  26
ENDBRANCH  24  25
ENDBRANCH   1  24
TORSDOF 15
ENDMDL
MODEL 2
REMARK VINA RESULT:     -12.2      1.979      2.956
REMARK SMILES CC(C)[C@H](C)CNC(=O)N1CC(n2cc(C(=O)OCCOC(=O)c3ccc(-c4c5nc(c(-c6c(F)c(F)c(F)c(F)c6F)c6ccc([nH]6)c(-c6c(F)c(F)c(F)c(F)c6F)c6nc(c(-c7c(F)c(F)c(F)c(F)c7F)c7ccc4[nH]7)C=C6)C=C5)cc3)nn2)C1
REMARK SMILES IDX 19 1 18 2 16 3 17 4 15 5 13 6 14 7 88 8 87 9 12 10 7 11 8 12
REMARK SMILES IDX 9 14 10 15 11 16 89 17 6 18 4 19 5 20 2 21 1 22 3 23 20 24
REMARK SMILES IDX 21 25 22 26 23 27 24 28 25 29 86 30 26 31 85 32 27 33 28 34
REMARK SMILES IDX 29 35 79 36 30 37 84 38 78 39 80 40 31 41 83 42 77 43 76 44
REMARK SMILES IDX 32 46 64 47 44 48 63 49 45 50 48 51 62 52 81 53 46 54 47 55
REMARK SMILES IDX 61 57 82 58 49 59 33 60 34 61 42 62 35 63 36 64 40 65 43 66
REMARK SMILES IDX 37 67 38 68 41 69 39 70 65 71 66 72 74 73 67 74 68 75 72 76
REMARK SMILES IDX 75 77 69 78 70 79 73 80 71 81 50 82 51 83 59 84 52 85 53 86
REMARK SMILES IDX 57 87 60 88 54 89 55 90 58 91 56 92
REMARK H PARENT 7 13 80 45 48 56
REMARK Flexibility Score: inf
ROOT
ATOM      1  C   UNL A   1      42.254  19.162  26.235  1.00  0.00     0.275 C 
ENDROOT
BRANCH   1   2
ATOM      2  O   UNL A   1      41.386  20.218  25.798  1.00  0.00    -0.457 OA
BRANCH   2   3
ATOM      3  C   UNL A   1      40.942  21.058  26.792  1.00  0.00     0.360 C 
ATOM      4  O   UNL A   1      41.479  21.174  27.877  1.00  0.00    -0.244 OA
BRANCH   3   5
ATOM      5  C   UNL A   1      39.771  21.820  26.382  1.00  0.00     0.190 A 
ATOM      6  N   UNL A   1      37.897  22.514  25.552  1.00  0.00    -0.245 N 
ATOM      7  C   UNL A   1      38.743  21.443  25.539  1.00  0.00     0.147 A 
ATOM      8  N   UNL A   1      38.378  23.509  26.312  1.00  0.00    -0.066 NA
ATOM      9  N   UNL A   1      39.535  23.103  26.817  1.00  0.00    -0.123 NA
BRANCH   6  10
ATOM     10  C   UNL A   1      36.599  22.504  24.954  1.00  0.00     0.148 C 
ATOM     11  N   UNL A   1      33.460  25.099  23.870  1.00  0.00    -0.338 N 
ATOM     12  C   UNL A   1      34.291  24.177  23.323  1.00  0.00     0.317 C 
ATOM     13  H   UNL A   1      32.524  25.036  23.574  1.00  0.00     0.165 HD
ATOM     14  O   UNL A   1      33.949  23.633  22.273  1.00  0.00    -0.249 OA
ATOM     15  N   UNL A   1      35.458  23.877  23.940  1.00  0.00    -0.320 N 
ATOM     16  C   UNL A   1      36.513  22.969  23.495  1.00  0.00     0.150 C 
ATOM     17  C   UNL A   1      35.830  23.784  25.337  1.00  0.00     0.150 C 
BRANCH  11  18
ATOM     18  C   UNL A   1      33.725  26.170  24.827  1.00  0.00     0.121 C 
BRANCH  18  19
ATOM     19  C   UNL A   1      32.424  26.683  25.485  1.00  0.00     0.008 C 
ATOM     20  C   UNL A   1      31.787  25.591  26.364  1.00  0.00     0.010 C 
BRANCH  19  21
ATOM     21  C   UNL A   1      32.587  28.024  26.266  1.00  0.00    -0.013 C 
ATOM     22  C   UNL A   1      31.753  28.122  27.549  1.00  0.00     0.008 C 
ATOM     23  C   UNL A   1      34.052  28.334  26.599  1.00  0.00     0.008 C 
ENDBRANCH  19  21
ENDBRANCH  18  19
ENDBRANCH  11  18
ENDBRANCH   6  10
ENDBRANCH   3   5
ENDBRANCH   2   3
ENDBRANCH   1   2
BRANCH   1  24
ATOM     24  C   UNL A   1      43.494  19.075  25.356  1.00  0.00     0.275 C 
BRANCH  24  25
ATOM     25  O   UNL A   1      43.699  20.265  24.593  1.00  0.00    -0.458 OA
BRANCH  25  26
ATOM     26  C   UNL A   1      44.931  20.813  24.708  1.00  0.00     0.338 C 
ATOM     27  O   UNL A   1      46.001  20.228  24.677  1.00  0.00    -0.246 OA
BRANCH  26  28
ATOM     28  C   UNL A   1      44.793  22.203  25.162  1.00  0.00     0.060 A 
ATOM     29  C   UNL A   1      45.708  22.679  26.106  1.00  0.00     0.016 A 
ATOM     30  C   UNL A   1      43.627  22.917  24.849  1.00  0.00     0.016 A 
ATOM     31  C   UNL A   1      45.387  23.816  26.826  1.00  0.00     0.010 A 
ATOM     32  C   UNL A   1      43.297  24.035  25.582  1.00  0.00     0.010 A 
ATOM     33  C   UNL A   1      44.155  24.446  26.598  1.00  0.00    -0.014 A 
BRANCH  33  34
ATOM     34  C   UNL A   1      43.883  25.701  27.279  1.00  0.00     0.031 A 
ATOM     35  C   UNL A   1      44.870  26.740  26.896  1.00  0.00     0.074 A 
ATOM     36  C   UNL A   1      42.792  25.919  28.041  1.00  0.00     0.049 A 
ATOM     37  N   UNL A   1      45.771  27.269  27.652  1.00  0.00    -0.248 NA
ATOM     38  C   UNL A   1      45.014  27.083  25.469  1.00  0.00     0.031 C 
ATOM     39  C   UNL A   1      41.653  25.019  28.238  1.00  0.00     0.029 A 
ATOM     40  N   UNL A   1      42.418  27.036  28.734  1.00  0.00    -0.354 N 
ATOM     41  C   UNL A   1      46.440  28.186  26.848  1.00  0.00     0.074 A 
ATOM     42  C   UNL A   1      46.088  27.874  25.492  1.00  0.00     0.031 C 
ATOM     43  C   UNL A   1      40.629  25.705  28.798  1.00  0.00     0.029 A 
ATOM     44  C   UNL A   1      41.077  27.051  29.114  1.00  0.00     0.049 A 
ATOM     45  H   UNL A   1      43.042  27.768  28.946  1.00  0.00     0.167 HD
ATOM     46  C   UNL A   1      46.923  29.330  27.404  1.00  0.00     0.037 A 
ATOM     47  C   UNL A   1      40.384  28.114  29.600  1.00  0.00     0.037 A 
ATOM     48  C   UNL A   1      47.037  29.173  28.834  1.00  0.00     0.049 A 
ATOM     49  C   UNL A   1      41.379  29.076  30.124  1.00  0.00     0.074 A 
ATOM     50  C   UNL A   1      47.787  28.411  29.704  1.00  0.00     0.029 A 
ATOM     51  N   UNL A   1      45.936  29.604  29.523  1.00  0.00    -0.354 N 
ATOM     52  N   UNL A   1      42.104  28.861  31.185  1.00  0.00    -0.248 NA
ATOM     53  C   UNL A   1      41.851  30.140  29.248  1.00  0.00     0.031 C 
ATOM     54  C   UNL A   1      46.960  28.202  30.850  1.00  0.00     0.029 A 
ATOM     55  C   UNL A   1      45.761  28.892  30.672  1.00  0.00     0.049 A 
ATOM     56  H   UNL A   1      45.345  30.335  29.227  1.00  0.00     0.167 HD
ATOM     57  C   UNL A   1      43.331  29.415  30.876  1.00  0.00     0.074 A 
ATOM     58  C   UNL A   1      43.065  30.330  29.770  1.00  0.00     0.031 C 
ATOM     59  C   UNL A   1      44.477  28.830  31.334  1.00  0.00     0.037 A 
BRANCH  46  60
ATOM     60  C   UNL A   1      46.711  30.710  26.790  1.00  0.00     0.064 A 
ATOM     61  C   UNL A   1      47.802  31.605  26.775  1.00  0.00     0.173 A 
ATOM     62  C   UNL A   1      45.448  31.303  26.562  1.00  0.00     0.173 A 
ATOM     63  F   UNL A   1      49.050  31.164  26.998  1.00  0.00    -0.203 F 
ATOM     64  C   UNL A   1      47.628  32.988  26.646  1.00  0.00     0.198 A 
ATOM     65  C   UNL A   1      45.284  32.676  26.386  1.00  0.00     0.198 A 
ATOM     66  F   UNL A   1      44.303  30.617  26.611  1.00  0.00    -0.203 F 
ATOM     67  F   UNL A   1      48.680  33.806  26.781  1.00  0.00    -0.200 F 
ATOM     68  C   UNL A   1      46.368  33.522  26.462  1.00  0.00     0.200 A 
ATOM     69  F   UNL A   1      44.049  33.176  26.236  1.00  0.00    -0.200 F 
ATOM     70  F   UNL A   1      46.188  34.848  26.409  1.00  0.00    -0.200 F 
ENDBRANCH  46  60
BRANCH  47  71
ATOM     71  C   UNL A   1      38.960  28.497  29.414  1.00  0.00     0.064 A 
ATOM     72  C   UNL A   1      38.104  28.681  30.517  1.00  0.00     0.173 A 
ATOM     73  C   UNL A   1      38.491  28.990  28.181  1.00  0.00     0.173 A 
ATOM     74  F   UNL A   1      38.483  28.279  31.740  1.00  0.00    -0.203 F 
ATOM     75  C   UNL A   1      36.883  29.355  30.402  1.00  0.00     0.198 A 
ATOM     76  C   UNL A   1      37.268  29.657  28.067  1.00  0.00     0.198 A 
ATOM     77  F   UNL A   1      39.253  28.925  27.081  1.00  0.00    -0.203 F 
ATOM     78  F   UNL A   1      36.134  29.577  31.493  1.00  0.00    -0.200 F 
ATOM     79  C   UNL A   1      36.472  29.856  29.179  1.00  0.00     0.200 A 
ATOM     80  F   UNL A   1      36.901  30.168  26.883  1.00  0.00    -0.200 F 
ATOM     81  F   UNL A   1      35.339  30.564  29.080  1.00  0.00    -0.200 F 
ENDBRANCH  47  71
BRANCH  59  82
ATOM     82  C   UNL A   1      44.361  27.934  32.529  1.00  0.00     0.064 A 
ATOM     83  C   UNL A   1      44.284  28.374  33.861  1.00  0.00     0.173 A 
ATOM     84  C   UNL A   1      44.235  26.558  32.292  1.00  0.00     0.173 A 
ATOM     85  F   UNL A   1      44.313  29.679  34.164  1.00  0.00    -0.203 F 
ATOM     86  C   UNL A   1      44.130  27.465  34.908  1.00  0.00     0.198 A 
ATOM     87  C   UNL A   1      44.038  25.660  33.333  1.00  0.00     0.198 A 
ATOM     88  F   UNL A   1      44.261  26.090  31.034  1.00  0.00    -0.203 F 
ATOM     89  F   UNL A   1      44.083  27.901  36.176  1.00  0.00    -0.200 F 
ATOM     90  C   UNL A   1      43.999  26.111  34.641  1.00  0.00     0.200 A 
ATOM     91  F   UNL A   1      43.868  24.358  33.064  1.00  0.00    -0.200 F 
ATOM     92  F   UNL A   1      43.814  25.241  35.644  1.00  0.00    -0.200 F 
ENDBRANCH  59  82
ENDBRANCH  33  34
ENDBRANCH  26  28
ENDBRANCH  25  26
ENDBRANCH  24  25
ENDBRANCH   1  24
TORSDOF 15
ENDMDL
MODEL 3
REMARK VINA RESULT:     -12.0      6.095     11.052
REMARK SMILES CC(C)[C@H](C)CNC(=O)N1CC(n2cc(C(=O)OCCOC(=O)c3ccc(-c4c5nc(c(-c6c(F)c(F)c(F)c(F)c6F)c6ccc([nH]6)c(-c6c(F)c(F)c(F)c(F)c6F)c6nc(c(-c7c(F)c(F)c(F)c(F)c7F)c7ccc4[nH]7)C=C6)C=C5)cc3)nn2)C1
REMARK SMILES IDX 19 1 18 2 16 3 17 4 15 5 13 6 14 7 88 8 87 9 12 10 7 11 8 12
REMARK SMILES IDX 9 14 10 15 11 16 89 17 6 18 4 19 5 20 2 21 1 22 3 23 20 24
REMARK SMILES IDX 21 25 22 26 23 27 24 28 25 29 86 30 26 31 85 32 27 33 28 34
REMARK SMILES IDX 29 35 79 36 30 37 84 38 78 39 80 40 31 41 83 42 77 43 76 44
REMARK SMILES IDX 32 46 64 47 44 48 63 49 45 50 48 51 62 52 81 53 46 54 47 55
REMARK SMILES IDX 61 57 82 58 49 59 33 60 34 61 42 62 35 63 36 64 40 65 43 66
REMARK SMILES IDX 37 67 38 68 41 69 39 70 65 71 66 72 74 73 67 74 68 75 72 76
REMARK SMILES IDX 75 77 69 78 70 79 73 80 71 81 50 82 51 83 59 84 52 85 53 86
REMARK SMILES IDX 57 87 60 88 54 89 55 90 58 91 56 92
REMARK H PARENT 7 13 80 45 48 56
REMARK Flexibility Score: inf
ROOT
ATOM      1  C   UNL A   1      33.607  35.227  28.680  1.00  0.00     0.275 C 
ENDROOT
BRANCH   1   2
ATOM      2  O   UNL A   1      33.639  33.802  28.847  1.00  0.00    -0.457 OA
BRANCH   2   3
ATOM      3  C   UNL A   1      34.529  33.139  28.036  1.00  0.00     0.360 C 
ATOM      4  O   UNL A   1      35.573  33.616  27.635  1.00  0.00    -0.244 OA
BRANCH   3   5
ATOM      5  C   UNL A   1      34.090  31.783  27.736  1.00  0.00     0.190 A 
ATOM      6  N   UNL A   1      32.988  29.992  27.226  1.00  0.00    -0.245 N 
ATOM      7  C   UNL A   1      32.811  31.317  27.503  1.00  0.00     0.147 A 
ATOM      8  N   UNL A   1      34.279  29.640  27.321  1.00  0.00    -0.066 NA
ATOM      9  N   UNL A   1      34.967  30.727  27.647  1.00  0.00    -0.123 NA
BRANCH   6  10
ATOM     10  C   UNL A   1      31.947  29.137  26.749  1.00  0.00     0.148 C 
ATOM     11  N   UNL A   1      29.986  28.015  23.192  1.00  0.00    -0.338 N 
ATOM     12  C   UNL A   1      30.676  27.467  24.223  1.00  0.00     0.317 C 
ATOM     13  H   UNL A   1      29.183  27.514  22.922  1.00  0.00     0.165 HD
ATOM     14  O   UNL A   1      30.511  26.272  24.466  1.00  0.00    -0.249 OA
ATOM     15  N   UNL A   1      31.512  28.240  24.954  1.00  0.00    -0.320 N 
ATOM     16  C   UNL A   1      32.386  27.842  26.057  1.00  0.00     0.150 C 
ATOM     17  C   UNL A   1      31.449  29.625  25.374  1.00  0.00     0.150 C 
BRANCH  11  18
ATOM     18  C   UNL A   1      30.237  29.226  22.415  1.00  0.00     0.121 C 
BRANCH  18  19
ATOM     19  C   UNL A   1      28.920  29.915  21.989  1.00  0.00     0.008 C 
ATOM     20  C   UNL A   1      27.720  29.323  22.749  1.00  0.00     0.010 C 
BRANCH  19  21
ATOM     21  C   UNL A   1      28.951  31.472  22.090  1.00  0.00    -0.013 C 
ATOM     22  C   UNL A   1      28.067  32.196  21.067  1.00  0.00     0.008 C 
ATOM     23  C   UNL A   1      28.600  31.975  23.497  1.00  0.00     0.008 C 
ENDBRANCH  19  21
ENDBRANCH  18  19
ENDBRANCH  11  18
ENDBRANCH   6  10
ENDBRANCH   3   5
ENDBRANCH   2   3
ENDBRANCH   1   2
BRANCH   1  24
ATOM     24  C   UNL A   1      32.974  35.905  29.887  1.00  0.00     0.275 C 
BRANCH  24  25
ATOM     25  O   UNL A   1      32.539  34.962  30.868  1.00  0.00    -0.458 OA
BRANCH  25  26
ATOM     26  C   UNL A   1      32.945  35.223  32.132  1.00  0.00     0.338 C 
ATOM     27  O   UNL A   1      32.473  36.045  32.900  1.00  0.00    -0.246 OA
BRANCH  26  28
ATOM     28  C   UNL A   1      34.236  34.561  32.364  1.00  0.00     0.060 A 
ATOM     29  C   UNL A   1      35.350  35.367  32.612  1.00  0.00     0.016 A 
ATOM     30  C   UNL A   1      34.369  33.195  32.077  1.00  0.00     0.016 A 
ATOM     31  C   UNL A   1      36.612  34.822  32.451  1.00  0.00     0.010 A 
ATOM     32  C   UNL A   1      35.625  32.659  31.894  1.00  0.00     0.010 A 
ATOM     33  C   UNL A   1      36.733  33.489  32.033  1.00  0.00    -0.014 A 
BRANCH  33  34
ATOM     34  C   UNL A   1      38.060  32.898  31.979  1.00  0.00     0.031 A 
ATOM     35  C   UNL A   1      38.734  32.980  33.298  1.00  0.00     0.074 A 
ATOM     36  C   UNL A   1      38.545  32.239  30.907  1.00  0.00     0.049 A 
ATOM     37  N   UNL A   1      39.767  33.693  33.598  1.00  0.00    -0.248 NA
ATOM     38  C   UNL A   1      38.073  32.369  34.466  1.00  0.00     0.031 C 
ATOM     39  C   UNL A   1      37.827  31.898  29.676  1.00  0.00     0.029 A 
ATOM     40  N   UNL A   1      39.761  31.645  30.721  1.00  0.00    -0.354 N 
ATOM     41  C   UNL A   1      40.023  33.431  34.940  1.00  0.00     0.074 A 
ATOM     42  C   UNL A   1      38.845  32.800  35.465  1.00  0.00     0.031 C 
ATOM     43  C   UNL A   1      38.533  30.973  28.984  1.00  0.00     0.029 A 
ATOM     44  C   UNL A   1      39.804  30.751  29.653  1.00  0.00     0.049 A 
ATOM     45  H   UNL A   1      40.541  31.833  31.293  1.00  0.00     0.167 HD
ATOM     46  C   UNL A   1      41.308  33.431  35.384  1.00  0.00     0.037 A 
ATOM     47  C   UNL A   1      40.794  29.861  29.380  1.00  0.00     0.037 A 
ATOM     48  C   UNL A   1      42.151  34.146  34.456  1.00  0.00     0.049 A 
ATOM     49  C   UNL A   1      42.008  30.335  30.081  1.00  0.00     0.074 A 
ATOM     50  C   UNL A   1      42.283  35.445  34.016  1.00  0.00     0.029 A 
ATOM     51  N   UNL A   1      42.742  33.342  33.519  1.00  0.00    -0.354 N 
ATOM     52  N   UNL A   1      42.664  31.409  29.744  1.00  0.00    -0.248 NA
ATOM     53  C   UNL A   1      42.293  29.819  31.413  1.00  0.00     0.031 C 
ATOM     54  C   UNL A   1      42.747  35.354  32.668  1.00  0.00     0.029 A 
ATOM     55  C   UNL A   1      42.944  34.011  32.349  1.00  0.00     0.049 A 
ATOM     56  H   UNL A   1      42.990  32.401  33.671  1.00  0.00     0.167 HD
ATOM     57  C   UNL A   1      43.069  31.952  30.948  1.00  0.00     0.074 A 
ATOM     58  C   UNL A   1      42.972  30.856  31.908  1.00  0.00     0.031 C 
ATOM     59  C   UNL A   1      43.124  33.308  31.099  1.00  0.00     0.037 A 
BRANCH  46  60
ATOM     60  C   UNL A   1      41.886  32.327  36.264  1.00  0.00     0.064 A 
ATOM     61  C   UNL A   1      42.733  32.702  37.329  1.00  0.00     0.173 A 
ATOM     62  C   UNL A   1      41.948  30.961  35.905  1.00  0.00     0.173 A 
ATOM     63  F   UNL A   1      42.779  33.975  37.749  1.00  0.00    -0.203 F 
ATOM     64  C   UNL A   1      43.637  31.806  37.912  1.00  0.00     0.198 A 
ATOM     65  C   UNL A   1      42.815  30.060  36.520  1.00  0.00     0.198 A 
ATOM     66  F   UNL A   1      41.267  30.449  34.875  1.00  0.00    -0.203 F 
ATOM     67  F   UNL A   1      44.517  32.245  38.820  1.00  0.00    -0.200 F 
ATOM     68  C   UNL A   1      43.683  30.488  37.499  1.00  0.00     0.200 A 
ATOM     69  F   UNL A   1      42.863  28.793  36.085  1.00  0.00    -0.200 F 
ATOM     70  F   UNL A   1      44.593  29.645  38.004  1.00  0.00    -0.200 F 
ENDBRANCH  46  60
BRANCH  47  71
ATOM     71  C   UNL A   1      40.722  28.497  28.791  1.00  0.00     0.064 A 
ATOM     72  C   UNL A   1      39.974  27.476  29.409  1.00  0.00     0.173 A 
ATOM     73  C   UNL A   1      41.125  28.251  27.465  1.00  0.00     0.173 A 
ATOM     74  F   UNL A   1      39.512  27.637  30.658  1.00  0.00    -0.203 F 
ATOM     75  C   UNL A   1      39.614  26.307  28.726  1.00  0.00     0.198 A 
ATOM     76  C   UNL A   1      40.770  27.082  26.788  1.00  0.00     0.198 A 
ATOM     77  F   UNL A   1      41.786  29.183  26.765  1.00  0.00    -0.203 F 
ATOM     78  F   UNL A   1      38.834  25.394  29.325  1.00  0.00    -0.200 F 
ATOM     79  C   UNL A   1      40.000  26.118  27.411  1.00  0.00     0.200 A 
ATOM     80  F   UNL A   1      41.121  26.928  25.504  1.00  0.00    -0.200 F 
ATOM     81  F   UNL A   1      39.596  25.035  26.733  1.00  0.00    -0.200 F 
ENDBRANCH  47  71
BRANCH  59  82
ATOM     82  C   UNL A   1      43.231  34.134  29.854  1.00  0.00     0.064 A 
ATOM     83  C   UNL A   1      42.144  34.679  29.151  1.00  0.00     0.173 A 
ATOM     84  C   UNL A   1      44.520  34.457  29.405  1.00  0.00     0.173 A 
ATOM     85  F   UNL A   1      40.884  34.486  29.566  1.00  0.00    -0.203 F 
ATOM     86  C   UNL A   1      42.345  35.476  28.025  1.00  0.00     0.198 A 
ATOM     87  C   UNL A   1      44.717  35.286  28.309  1.00  0.00     0.198 A 
ATOM     88  F   UNL A   1      45.595  33.996  30.065  1.00  0.00    -0.203 F 
ATOM     89  F   UNL A   1      41.293  35.968  27.353  1.00  0.00    -0.200 F 
ATOM     90  C   UNL A   1      43.631  35.785  27.611  1.00  0.00     0.200 A 
ATOM     91  F   UNL A   1      45.963  35.617  27.942  1.00  0.00    -0.200 F 
ATOM     92  F   UNL A   1      43.825  36.581  26.550  1.00  0.00    -0.200 F 
ENDBRANCH  59  82
ENDBRANCH  33  34
ENDBRANCH  26  28
ENDBRANCH  25  26
ENDBRANCH  24  25
ENDBRANCH   1  24
TORSDOF 15
ENDMDL
