MODEL 1
REMARK VINA RESULT:     -13.4      0.000      0.000
REMARK SMILES C[C@H]1[C@@H](C(=O)OCCOC(=O)c2ccc(-c3c4nc(c(-c5c(F)c(F)c(F)c(F)c5F)c5ccc([nH]5)c(-c5c(F)c(F)c(F)c(F)c5F)c5nc(c(-c6c(F)c(F)c(F)c(F)c6F)c6ccc3[nH]6)C=C5)C=C4)cc2)CCN1C(=O)c1cc2cc(F)ccc2s1
REMARK SMILES IDX 7 1 6 2 4 3 5 4 3 5 1 6 2 7 77 8 75 9 76 10 78 11 79 12
REMARK SMILES IDX 80 13 81 14 89 15 82 16 88 17 83 18 87 19 84 20 86 21 85 22
REMARK SMILES IDX 8 23 9 24 10 25 11 26 12 27 13 28 74 29 14 30 73 31 15 32
REMARK SMILES IDX 16 33 17 34 67 35 18 36 72 37 66 38 68 39 19 40 71 41 65 42
REMARK SMILES IDX 64 43 20 45 52 46 32 47 51 48 33 49 36 50 50 51 69 52 34 53
REMARK SMILES IDX 35 54 49 56 70 57 37 58 21 59 22 60 30 61 23 62 24 63 28 64
REMARK SMILES IDX 31 65 25 66 26 67 29 68 27 69 53 70 54 71 62 72 55 73 56 74
REMARK SMILES IDX 60 75 63 76 57 77 58 78 61 79 59 80 38 81 39 82 47 83 40 84
REMARK SMILES IDX 41 85 45 86 48 87 42 88 43 89 46 90 44 91
REMARK H PARENT 68 44 36 55
REMARK Flexibility Score: inf
ROOT
ATOM      1  C   UNL A   1      31.391  28.646  24.817  1.00  0.00     0.274 C 
ENDROOT
BRANCH   1   2
ATOM      2  O   UNL A   1      31.938  28.470  23.495  1.00  0.00    -0.462 OA
BRANCH   2   3
ATOM      3  C   UNL A   1      31.159  27.854  22.583  1.00  0.00     0.311 C 
ATOM      4  O   UNL A   1      30.058  28.266  22.229  1.00  0.00    -0.252 OA
BRANCH   3   5
ATOM      5  C   UNL A   1      31.732  26.565  22.024  1.00  0.00     0.123 C 
ATOM      6  C   UNL A   1      30.217  24.997  23.540  1.00  0.00     0.032 C 
ATOM      7  C   UNL A   1      31.418  25.181  22.629  1.00  0.00     0.096 C 
ATOM      8  N   UNL A   1      32.655  24.733  23.272  1.00  0.00    -0.334 N 
ATOM      9  C   UNL A   1      33.267  26.617  22.054  1.00  0.00     0.039 C 
ATOM     10  C   UNL A   1      33.601  25.830  23.306  1.00  0.00     0.121 C 
BRANCH   8  11
ATOM     11  C   UNL A   1      33.146  23.512  22.822  1.00  0.00     0.264 C 
ATOM     12  O   UNL A   1      34.099  23.468  22.043  1.00  0.00    -0.268 OA
BRANCH  11  13
ATOM     13  C   UNL A   1      32.513  22.317  23.325  1.00  0.00     0.093 A 
ATOM     14  C   UNL A   1      32.128  21.230  22.569  1.00  0.00     0.034 A 
ATOM     15  S   UNL A   1      32.395  21.974  24.990  1.00  0.00    -0.130 S 
ATOM     16  C   UNL A   1      32.308  20.020  23.310  1.00  0.00    -0.004 A 
ATOM     17  C   UNL A   1      32.522  20.283  24.668  1.00  0.00     0.035 A 
ATOM     18  C   UNL A   1      32.423  18.691  22.851  1.00  0.00     0.048 A 
ATOM     19  C   UNL A   1      32.854  19.264  25.578  1.00  0.00     0.022 A 
ATOM     20  C   UNL A   1      32.849  17.705  23.735  1.00  0.00     0.123 A 
ATOM     21  C   UNL A   1      33.066  17.978  25.076  1.00  0.00     0.041 A 
ATOM     22  F   UNL A   1      33.100  16.476  23.264  1.00  0.00    -0.207 F 
ENDBRANCH  11  13
ENDBRANCH   8  11
ENDBRANCH   3   5
ENDBRANCH   2   3
ENDBRANCH   1   2
BRANCH   1  23
ATOM     23  C   UNL A   1      31.721  30.028  25.367  1.00  0.00     0.275 C 
BRANCH  23  24
ATOM     24  O   UNL A   1      33.014  30.006  25.995  1.00  0.00    -0.458 OA
BRANCH  24  25
ATOM     25  C   UNL A   1      33.246  30.997  26.878  1.00  0.00     0.338 C 
ATOM     26  O   UNL A   1      32.508  31.921  27.189  1.00  0.00    -0.246 OA
BRANCH  25  27
ATOM     27  C   UNL A   1      34.571  30.809  27.476  1.00  0.00     0.060 A 
ATOM     28  C   UNL A   1      34.983  29.525  27.834  1.00  0.00     0.016 A 
ATOM     29  C   UNL A   1      35.355  31.917  27.784  1.00  0.00     0.016 A 
ATOM     30  C   UNL A   1      36.149  29.351  28.574  1.00  0.00     0.010 A 
ATOM     31  C   UNL A   1      36.571  31.730  28.443  1.00  0.00     0.010 A 
ATOM     32  C   UNL A   1      36.969  30.448  28.867  1.00  0.00    -0.014 A 
BRANCH  32  33
ATOM     33  C   UNL A   1      38.241  30.285  29.620  1.00  0.00     0.031 A 
ATOM     34  C   UNL A   1      39.345  29.443  29.045  1.00  0.00     0.074 A 
ATOM     35  C   UNL A   1      38.391  30.845  30.836  1.00  0.00     0.049 A 
ATOM     36  N   UNL A   1      40.386  28.922  29.640  1.00  0.00    -0.248 NA
ATOM     37  C   UNL A   1      39.251  29.131  27.611  1.00  0.00     0.031 C 
ATOM     38  C   UNL A   1      37.429  31.736  31.487  1.00  0.00     0.029 A 
ATOM     39  N   UNL A   1      39.407  30.729  31.752  1.00  0.00    -0.354 N 
ATOM     40  C   UNL A   1      41.036  28.169  28.671  1.00  0.00     0.074 A 
ATOM     41  C   UNL A   1      40.280  28.312  27.445  1.00  0.00     0.031 C 
ATOM     42  C   UNL A   1      37.902  32.091  32.690  1.00  0.00     0.029 A 
ATOM     43  C   UNL A   1      39.151  31.380  32.935  1.00  0.00     0.049 A 
ATOM     44  H   UNL A   1      40.237  30.228  31.579  1.00  0.00     0.167 HD
ATOM     45  C   UNL A   1      42.154  27.417  28.805  1.00  0.00     0.037 A 
ATOM     46  C   UNL A   1      39.811  31.357  34.108  1.00  0.00     0.037 A 
ATOM     47  C   UNL A   1      42.927  27.328  30.017  1.00  0.00     0.049 A 
ATOM     48  C   UNL A   1      41.033  30.492  34.245  1.00  0.00     0.074 A 
ATOM     49  C   UNL A   1      44.080  26.602  30.256  1.00  0.00     0.029 A 
ATOM     50  N   UNL A   1      42.630  28.007  31.189  1.00  0.00    -0.354 N 
ATOM     51  N   UNL A   1      41.599  29.718  33.351  1.00  0.00    -0.248 NA
ATOM     52  C   UNL A   1      41.692  30.479  35.558  1.00  0.00     0.031 C 
ATOM     53  C   UNL A   1      44.468  26.822  31.582  1.00  0.00     0.029 A 
ATOM     54  C   UNL A   1      43.576  27.712  32.158  1.00  0.00     0.049 A 
ATOM     55  H   UNL A   1      41.861  28.609  31.315  1.00  0.00     0.167 HD
ATOM     56  C   UNL A   1      42.686  29.137  33.986  1.00  0.00     0.074 A 
ATOM     57  C   UNL A   1      42.707  29.653  35.339  1.00  0.00     0.031 C 
ATOM     58  C   UNL A   1      43.584  28.251  33.492  1.00  0.00     0.037 A 
BRANCH  45  59
ATOM     59  C   UNL A   1      42.591  26.597  27.627  1.00  0.00     0.064 A 
ATOM     60  C   UNL A   1      43.574  27.044  26.735  1.00  0.00     0.173 A 
ATOM     61  C   UNL A   1      42.046  25.320  27.421  1.00  0.00     0.173 A 
ATOM     62  F   UNL A   1      44.115  28.262  26.881  1.00  0.00    -0.203 F 
ATOM     63  C   UNL A   1      43.984  26.250  25.666  1.00  0.00     0.198 A 
ATOM     64  C   UNL A   1      42.474  24.519  26.367  1.00  0.00     0.198 A 
ATOM     65  F   UNL A   1      41.105  24.844  28.250  1.00  0.00    -0.203 F 
ATOM     66  F   UNL A   1      44.900  26.710  24.803  1.00  0.00    -0.200 F 
ATOM     67  C   UNL A   1      43.440  24.986  25.487  1.00  0.00     0.200 A 
ATOM     68  F   UNL A   1      41.955  23.294  26.202  1.00  0.00    -0.200 F 
ATOM     69  F   UNL A   1      43.842  24.220  24.464  1.00  0.00    -0.200 F 
ENDBRANCH  45  59
BRANCH  46  70
ATOM     70  C   UNL A   1      39.289  32.138  35.257  1.00  0.00     0.064 A 
ATOM     71  C   UNL A   1      38.473  31.538  36.223  1.00  0.00     0.173 A 
ATOM     72  C   UNL A   1      39.625  33.490  35.431  1.00  0.00     0.173 A 
ATOM     73  F   UNL A   1      38.104  30.255  36.086  1.00  0.00    -0.203 F 
ATOM     74  C   UNL A   1      38.011  32.260  37.323  1.00  0.00     0.198 A 
ATOM     75  C   UNL A   1      39.187  34.203  36.545  1.00  0.00     0.198 A 
ATOM     76  F   UNL A   1      40.405  34.109  34.534  1.00  0.00    -0.203 F 
ATOM     77  F   UNL A   1      37.209  31.670  38.220  1.00  0.00    -0.200 F 
ATOM     78  C   UNL A   1      38.378  33.588  37.488  1.00  0.00     0.200 A 
ATOM     79  F   UNL A   1      39.556  35.480  36.708  1.00  0.00    -0.200 F 
ATOM     80  F   UNL A   1      37.948  34.275  38.554  1.00  0.00    -0.200 F 
ENDBRANCH  46  70
BRANCH  58  81
ATOM     81  C   UNL A   1      44.689  27.817  34.404  1.00  0.00     0.064 A 
ATOM     82  C   UNL A   1      44.571  26.671  35.203  1.00  0.00     0.173 A 
ATOM     83  C   UNL A   1      45.899  28.525  34.436  1.00  0.00     0.173 A 
ATOM     84  F   UNL A   1      43.426  25.972  35.216  1.00  0.00    -0.203 F 
ATOM     85  C   UNL A   1      45.626  26.254  36.009  1.00  0.00     0.198 A 
ATOM     86  C   UNL A   1      46.958  28.095  35.228  1.00  0.00     0.198 A 
ATOM     87  F   UNL A   1      46.056  29.626  33.685  1.00  0.00    -0.203 F 
ATOM     88  F   UNL A   1      45.486  25.172  36.786  1.00  0.00    -0.200 F 
ATOM     89  C   UNL A   1      46.819  26.962  36.017  1.00  0.00     0.200 A 
ATOM     90  F   UNL A   1      48.113  28.775  35.229  1.00  0.00    -0.200 F 
ATOM     91  F   UNL A   1      47.837  26.554  36.788  1.00  0.00    -0.200 F 
ENDBRANCH  58  81
ENDBRANCH  32  33
ENDBRANCH  25  27
ENDBRANCH  24  25
ENDBRANCH  23  24
ENDBRANCH   1  23
TORSDOF 13
ENDMDL
MODEL 2
REMARK VINA RESULT:     -13.3      0.343      1.629
REMARK SMILES C[C@H]1[C@@H](C(=O)OCCOC(=O)c2ccc(-c3c4nc(c(-c5c(F)c(F)c(F)c(F)c5F)c5ccc([nH]5)c(-c5c(F)c(F)c(F)c(F)c5F)c5nc(c(-c6c(F)c(F)c(F)c(F)c6F)c6ccc3[nH]6)C=C5)C=C4)cc2)CCN1C(=O)c1cc2cc(F)ccc2s1
REMARK SMILES IDX 7 1 6 2 4 3 5 4 3 5 1 6 2 7 77 8 75 9 76 10 78 11 79 12
REMARK SMILES IDX 80 13 81 14 89 15 82 16 88 17 83 18 87 19 84 20 86 21 85 22
REMARK SMILES IDX 8 23 9 24 10 25 11 26 12 27 13 28 74 29 14 30 73 31 15 32
REMARK SMILES IDX 16 33 17 34 67 35 18 36 72 37 66 38 68 39 19 40 71 41 65 42
REMARK SMILES IDX 64 43 20 45 52 46 32 47 51 48 33 49 36 50 50 51 69 52 34 53
REMARK SMILES IDX 35 54 49 56 70 57 37 58 21 59 22 60 30 61 23 62 24 63 28 64
REMARK SMILES IDX 31 65 25 66 26 67 29 68 27 69 53 70 54 71 62 72 55 73 56 74
REMARK SMILES IDX 60 75 63 76 57 77 58 78 61 79 59 80 38 81 39 82 47 83 40 84
REMARK SMILES IDX 41 85 45 86 48 87 42 88 43 89 46 90 44 91
REMARK H PARENT 68 44 36 55
REMARK Flexibility Score: inf
ROOT
ATOM      1  C   UNL A   1      31.429  29.332  24.321  1.00  0.00     0.274 C 
ENDROOT
BRANCH   1   2
ATOM      2  O   UNL A   1      31.417  27.945  23.928  1.00  0.00    -0.462 OA
BRANCH   2   3
ATOM      3  C   UNL A   1      31.043  27.666  22.663  1.00  0.00     0.311 C 
ATOM      4  O   UNL A   1      30.278  28.364  22.003  1.00  0.00    -0.252 OA
BRANCH   3   5
ATOM      5  C   UNL A   1      31.623  26.383  22.098  1.00  0.00     0.123 C 
ATOM      6  C   UNL A   1      30.249  24.805  23.733  1.00  0.00     0.032 C 
ATOM      7  C   UNL A   1      31.388  25.004  22.749  1.00  0.00     0.096 C 
ATOM      8  N   UNL A   1      32.675  24.609  23.326  1.00  0.00    -0.334 N 
ATOM      9  C   UNL A   1      33.155  26.482  22.035  1.00  0.00     0.039 C 
ATOM     10  C   UNL A   1      33.586  25.734  23.281  1.00  0.00     0.121 C 
BRANCH   8  11
ATOM     11  C   UNL A   1      33.176  23.392  22.872  1.00  0.00     0.264 C 
ATOM     12  O   UNL A   1      34.130  23.359  22.094  1.00  0.00    -0.268 OA
BRANCH  11  13
ATOM     13  C   UNL A   1      32.553  22.191  23.372  1.00  0.00     0.093 A 
ATOM     14  C   UNL A   1      32.198  21.094  22.616  1.00  0.00     0.034 A 
ATOM     15  S   UNL A   1      32.412  21.855  25.037  1.00  0.00    -0.130 S 
ATOM     16  C   UNL A   1      32.383  19.891  23.367  1.00  0.00    -0.004 A 
ATOM     17  C   UNL A   1      32.570  20.165  24.726  1.00  0.00     0.035 A 
ATOM     18  C   UNL A   1      32.527  18.562  22.917  1.00  0.00     0.048 A 
ATOM     19  C   UNL A   1      32.903  19.156  25.647  1.00  0.00     0.022 A 
ATOM     20  C   UNL A   1      32.952  17.587  23.814  1.00  0.00     0.123 A 
ATOM     21  C   UNL A   1      33.142  17.871  25.157  1.00  0.00     0.041 A 
ATOM     22  F   UNL A   1      33.230  16.359  23.354  1.00  0.00    -0.207 F 
ENDBRANCH  11  13
ENDBRANCH   8  11
ENDBRANCH   3   5
ENDBRANCH   2   3
ENDBRANCH   1   2
BRANCH   1  23
ATOM     23  C   UNL A   1      31.821  29.484  25.786  1.00  0.00     0.275 C 
BRANCH  23  24
ATOM     24  O   UNL A   1      33.126  30.078  25.882  1.00  0.00    -0.458 OA
BRANCH  24  25
ATOM     25  C   UNL A   1      33.282  30.976  26.875  1.00  0.00     0.338 C 
ATOM     26  O   UNL A   1      32.493  31.831  27.251  1.00  0.00    -0.246 OA
BRANCH  25  27
ATOM     27  C   UNL A   1      34.591  30.776  27.504  1.00  0.00     0.060 A 
ATOM     28  C   UNL A   1      35.051  29.478  27.725  1.00  0.00     0.016 A 
ATOM     29  C   UNL A   1      35.306  31.874  27.974  1.00  0.00     0.016 A 
ATOM     30  C   UNL A   1      36.195  29.269  28.491  1.00  0.00     0.010 A 
ATOM     31  C   UNL A   1      36.505  31.663  28.659  1.00  0.00     0.010 A 
ATOM     32  C   UNL A   1      36.948  30.358  28.947  1.00  0.00    -0.014 A 
BRANCH  32  33
ATOM     33  C   UNL A   1      38.197  30.162  29.730  1.00  0.00     0.031 A 
ATOM     34  C   UNL A   1      39.294  29.295  29.181  1.00  0.00     0.074 A 
ATOM     35  C   UNL A   1      38.330  30.716  30.951  1.00  0.00     0.049 A 
ATOM     36  N   UNL A   1      40.307  28.747  29.800  1.00  0.00    -0.248 NA
ATOM     37  C   UNL A   1      39.228  28.988  27.744  1.00  0.00     0.031 C 
ATOM     38  C   UNL A   1      37.374  31.628  31.581  1.00  0.00     0.029 A 
ATOM     39  N   UNL A   1      39.320  30.572  31.892  1.00  0.00    -0.354 N 
ATOM     40  C   UNL A   1      40.962  27.981  28.845  1.00  0.00     0.074 A 
ATOM     41  C   UNL A   1      40.240  28.145  27.600  1.00  0.00     0.031 C 
ATOM     42  C   UNL A   1      37.826  31.968  32.796  1.00  0.00     0.029 A 
ATOM     43  C   UNL A   1      39.051  31.227  33.070  1.00  0.00     0.049 A 
ATOM     44  H   UNL A   1      40.142  30.052  31.738  1.00  0.00     0.167 HD
ATOM     45  C   UNL A   1      42.058  27.202  29.004  1.00  0.00     0.037 A 
ATOM     46  C   UNL A   1      39.681  31.185  34.258  1.00  0.00     0.037 A 
ATOM     47  C   UNL A   1      42.799  27.091  30.234  1.00  0.00     0.049 A 
ATOM     48  C   UNL A   1      40.877  30.291  34.423  1.00  0.00     0.074 A 
ATOM     49  C   UNL A   1      43.928  26.337  30.499  1.00  0.00     0.029 A 
ATOM     50  N   UNL A   1      42.489  27.774  31.401  1.00  0.00    -0.354 N 
ATOM     51  N   UNL A   1      41.446  29.505  33.541  1.00  0.00    -0.248 NA
ATOM     52  C   UNL A   1      41.503  30.258  35.752  1.00  0.00     0.031 C 
ATOM     53  C   UNL A   1      44.287  26.544  31.836  1.00  0.00     0.029 A 
ATOM     54  C   UNL A   1      43.403  27.454  32.391  1.00  0.00     0.049 A 
ATOM     55  H   UNL A   1      41.732  28.395  31.510  1.00  0.00     0.167 HD
ATOM     56  C   UNL A   1      42.503  28.896  34.201  1.00  0.00     0.074 A 
ATOM     57  C   UNL A   1      42.503  29.409  35.556  1.00  0.00     0.031 C 
ATOM     58  C   UNL A   1      43.392  27.990  33.727  1.00  0.00     0.037 A 
BRANCH  45  59
ATOM     59  C   UNL A   1      42.504  26.374  27.835  1.00  0.00     0.064 A 
ATOM     60  C   UNL A   1      41.938  25.124  27.552  1.00  0.00     0.173 A 
ATOM     61  C   UNL A   1      43.482  26.868  26.957  1.00  0.00     0.173 A 
ATOM     62  F   UNL A   1      41.011  24.602  28.368  1.00  0.00    -0.203 F 
ATOM     63  C   UNL A   1      42.349  24.388  26.442  1.00  0.00     0.198 A 
ATOM     64  C   UNL A   1      43.872  26.142  25.836  1.00  0.00     0.198 A 
ATOM     65  F   UNL A   1      44.051  28.063  27.181  1.00  0.00    -0.203 F 
ATOM     66  F   UNL A   1      41.821  23.179  26.208  1.00  0.00    -0.200 F 
ATOM     67  C   UNL A   1      43.309  24.901  25.581  1.00  0.00     0.200 A 
ATOM     68  F   UNL A   1      44.792  26.644  25.000  1.00  0.00    -0.200 F 
ATOM     69  F   UNL A   1      43.695  24.196  24.509  1.00  0.00    -0.200 F 
ENDBRANCH  45  59
BRANCH  46  70
ATOM     70  C   UNL A   1      39.150  31.977  35.397  1.00  0.00     0.064 A 
ATOM     71  C   UNL A   1      38.352  31.377  36.379  1.00  0.00     0.173 A 
ATOM     72  C   UNL A   1      39.459  33.338  35.545  1.00  0.00     0.173 A 
ATOM     73  F   UNL A   1      38.010  30.085  36.267  1.00  0.00    -0.203 F 
ATOM     74  C   UNL A   1      37.883  32.109  37.469  1.00  0.00     0.198 A 
ATOM     75  C   UNL A   1      39.013  34.061  36.648  1.00  0.00     0.198 A 
ATOM     76  F   UNL A   1      40.220  33.956  34.631  1.00  0.00    -0.203 F 
ATOM     77  F   UNL A   1      37.099  31.519  38.382  1.00  0.00    -0.200 F 
ATOM     78  C   UNL A   1      38.222  33.447  37.607  1.00  0.00     0.200 A 
ATOM     79  F   UNL A   1      39.356  35.349  36.786  1.00  0.00    -0.200 F 
ATOM     80  F   UNL A   1      37.784  34.145  38.664  1.00  0.00    -0.200 F 
ENDBRANCH  46  70
BRANCH  58  81
ATOM     81  C   UNL A   1      44.463  27.527  34.665  1.00  0.00     0.064 A 
ATOM     82  C   UNL A   1      45.667  28.233  34.805  1.00  0.00     0.173 A 
ATOM     83  C   UNL A   1      44.259  26.399  35.471  1.00  0.00     0.173 A 
ATOM     84  F   UNL A   1      45.911  29.309  34.042  1.00  0.00    -0.203 F 
ATOM     85  C   UNL A   1      46.633  27.816  35.715  1.00  0.00     0.198 A 
ATOM     86  C   UNL A   1      45.219  25.996  36.393  1.00  0.00     0.198 A 
ATOM     87  F   UNL A   1      43.120  25.696  35.371  1.00  0.00    -0.203 F 
ATOM     88  F   UNL A   1      47.789  28.486  35.817  1.00  0.00    -0.200 F 
ATOM     89  C   UNL A   1      46.406  26.703  36.512  1.00  0.00     0.200 A 
ATOM     90  F   UNL A   1      44.995  24.926  37.168  1.00  0.00    -0.200 F 
ATOM     91  F   UNL A   1      47.335  26.309  37.395  1.00  0.00    -0.200 F 
ENDBRANCH  58  81
ENDBRANCH  32  33
ENDBRANCH  25  27
ENDBRANCH  24  25
ENDBRANCH  23  24
ENDBRANCH   1  23
TORSDOF 13
ENDMDL
MODEL 3
REMARK VINA RESULT:     -13.3      4.471      9.885
REMARK SMILES C[C@H]1[C@@H](C(=O)OCCOC(=O)c2ccc(-c3c4nc(c(-c5c(F)c(F)c(F)c(F)c5F)c5ccc([nH]5)c(-c5c(F)c(F)c(F)c(F)c5F)c5nc(c(-c6c(F)c(F)c(F)c(F)c6F)c6ccc3[nH]6)C=C5)C=C4)cc2)CCN1C(=O)c1cc2cc(F)ccc2s1
REMARK SMILES IDX 7 1 6 2 4 3 5 4 3 5 1 6 2 7 77 8 75 9 76 10 78 11 79 12
REMARK SMILES IDX 80 13 81 14 89 15 82 16 88 17 83 18 87 19 84 20 86 21 85 22
REMARK SMILES IDX 8 23 9 24 10 25 11 26 12 27 13 28 74 29 14 30 73 31 15 32
REMARK SMILES IDX 16 33 17 34 67 35 18 36 72 37 66 38 68 39 19 40 71 41 65 42
REMARK SMILES IDX 64 43 20 45 52 46 32 47 51 48 33 49 36 50 50 51 69 52 34 53
REMARK SMILES IDX 35 54 49 56 70 57 37 58 21 59 22 60 30 61 23 62 24 63 28 64
REMARK SMILES IDX 31 65 25 66 26 67 29 68 27 69 53 70 54 71 62 72 55 73 56 74
REMARK SMILES IDX 60 75 63 76 57 77 58 78 61 79 59 80 38 81 39 82 47 83 40 84
REMARK SMILES IDX 41 85 45 86 48 87 42 88 43 89 46 90 44 91
REMARK H PARENT 68 44 36 55
REMARK Flexibility Score: inf
ROOT
ATOM      1  C   UNL A   1      34.657  21.486  24.626  1.00  0.00     0.274 C 
ENDROOT
BRANCH   1   2
ATOM      2  O   UNL A   1      33.730  21.436  25.728  1.00  0.00    -0.462 OA
BRANCH   2   3
ATOM      3  C   UNL A   1      32.464  21.065  25.453  1.00  0.00     0.311 C 
ATOM      4  O   UNL A   1      32.153  19.966  25.002  1.00  0.00    -0.252 OA
BRANCH   3   5
ATOM      5  C   UNL A   1      31.417  22.130  25.716  1.00  0.00     0.123 C 
ATOM      6  C   UNL A   1      31.404  23.021  23.214  1.00  0.00     0.032 C 
ATOM      7  C   UNL A   1      31.047  23.210  24.678  1.00  0.00     0.096 C 
ATOM      8  N   UNL A   1      31.577  24.471  25.203  1.00  0.00    -0.334 N 
ATOM      9  C   UNL A   1      31.807  22.955  26.952  1.00  0.00     0.039 C 
ATOM     10  C   UNL A   1      32.431  24.194  26.340  1.00  0.00     0.121 C 
BRANCH   8  11
ATOM     11  C   UNL A   1      30.636  25.482  25.373  1.00  0.00     0.264 C 
ATOM     12  O   UNL A   1      30.223  25.771  26.496  1.00  0.00    -0.268 OA
BRANCH  11  13
ATOM     13  C   UNL A   1      30.196  26.182  24.191  1.00  0.00     0.093 A 
ATOM     14  C   UNL A   1      28.906  26.593  23.932  1.00  0.00     0.034 A 
ATOM     15  S   UNL A   1      31.285  26.841  23.057  1.00  0.00    -0.130 S 
ATOM     16  C   UNL A   1      28.913  27.836  23.224  1.00  0.00    -0.004 A 
ATOM     17  C   UNL A   1      30.187  28.131  22.727  1.00  0.00     0.035 A 
ATOM     18  C   UNL A   1      27.892  28.801  23.090  1.00  0.00     0.048 A 
ATOM     19  C   UNL A   1      30.476  29.360  22.108  1.00  0.00     0.022 A 
ATOM     20  C   UNL A   1      28.209  30.051  22.568  1.00  0.00     0.123 A 
ATOM     21  C   UNL A   1      29.477  30.335  22.085  1.00  0.00     0.041 A 
ATOM     22  F   UNL A   1      27.278  31.014  22.578  1.00  0.00    -0.207 F 
ENDBRANCH  11  13
ENDBRANCH   8  11
ENDBRANCH   3   5
ENDBRANCH   2   3
ENDBRANCH   1   2
BRANCH   1  23
ATOM     23  C   UNL A   1      35.992  20.856  25.003  1.00  0.00     0.275 C 
BRANCH  23  24
ATOM     24  O   UNL A   1      36.818  21.826  25.668  1.00  0.00    -0.458 OA
BRANCH  24  25
ATOM     25  C   UNL A   1      38.127  21.513  25.754  1.00  0.00     0.338 C 
ATOM     26  O   UNL A   1      38.682  20.485  25.394  1.00  0.00    -0.246 OA
BRANCH  25  27
ATOM     27  C   UNL A   1      38.853  22.637  26.351  1.00  0.00     0.060 A 
ATOM     28  C   UNL A   1      38.417  23.939  26.106  1.00  0.00     0.016 A 
ATOM     29  C   UNL A   1      40.029  22.403  27.057  1.00  0.00     0.016 A 
ATOM     30  C   UNL A   1      39.201  25.020  26.501  1.00  0.00     0.010 A 
ATOM     31  C   UNL A   1      40.764  23.490  27.536  1.00  0.00     0.010 A 
ATOM     32  C   UNL A   1      40.371  24.809  27.241  1.00  0.00    -0.014 A 
BRANCH  32  33
ATOM     33  C   UNL A   1      41.205  25.946  27.712  1.00  0.00     0.031 A 
ATOM     34  C   UNL A   1      40.591  27.016  28.570  1.00  0.00     0.074 A 
ATOM     35  C   UNL A   1      42.494  26.052  27.332  1.00  0.00     0.049 A 
ATOM     36  N   UNL A   1      41.027  28.221  28.833  1.00  0.00    -0.248 NA
ATOM     37  C   UNL A   1      39.303  26.690  29.200  1.00  0.00     0.031 C 
ATOM     38  C   UNL A   1      43.234  25.058  26.554  1.00  0.00     0.029 A 
ATOM     39  N   UNL A   1      43.404  27.059  27.536  1.00  0.00    -0.354 N 
ATOM     40  C   UNL A   1      40.039  28.818  29.604  1.00  0.00     0.074 A 
ATOM     41  C   UNL A   1      38.987  27.840  29.780  1.00  0.00     0.031 C 
ATOM     42  C   UNL A   1      44.484  25.499  26.353  1.00  0.00     0.029 A 
ATOM     43  C   UNL A   1      44.605  26.844  26.904  1.00  0.00     0.049 A 
ATOM     44  H   UNL A   1      43.215  27.857  28.081  1.00  0.00     0.167 HD
ATOM     45  C   UNL A   1      40.014  30.077  30.105  1.00  0.00     0.037 A 
ATOM     46  C   UNL A   1      45.660  27.661  26.728  1.00  0.00     0.037 A 
ATOM     47  C   UNL A   1      41.091  31.022  29.969  1.00  0.00     0.049 A 
ATOM     48  C   UNL A   1      45.600  29.063  27.264  1.00  0.00     0.074 A 
ATOM     49  C   UNL A   1      41.171  32.318  30.446  1.00  0.00     0.029 A 
ATOM     50  N   UNL A   1      42.290  30.758  29.321  1.00  0.00    -0.354 N 
ATOM     51  N   UNL A   1      44.632  29.652  27.924  1.00  0.00    -0.248 NA
ATOM     52  C   UNL A   1      46.766  29.920  27.012  1.00  0.00     0.031 C 
ATOM     53  C   UNL A   1      42.408  32.849  30.063  1.00  0.00     0.029 A 
ATOM     54  C   UNL A   1      43.112  31.871  29.380  1.00  0.00     0.049 A 
ATOM     55  H   UNL A   1      42.521  29.907  28.883  1.00  0.00     0.167 HD
ATOM     56  C   UNL A   1      45.075  30.941  28.178  1.00  0.00     0.074 A 
ATOM     57  C   UNL A   1      46.403  31.048  27.609  1.00  0.00     0.031 C 
ATOM     58  C   UNL A   1      44.436  31.948  28.821  1.00  0.00     0.037 A 
BRANCH  45  59
ATOM     59  C   UNL A   1      38.768  30.523  30.812  1.00  0.00     0.064 A 
ATOM     60  C   UNL A   1      38.653  30.486  32.208  1.00  0.00     0.173 A 
ATOM     61  C   UNL A   1      37.691  31.043  30.076  1.00  0.00     0.173 A 
ATOM     62  F   UNL A   1      39.647  29.986  32.954  1.00  0.00    -0.203 F 
ATOM     63  C   UNL A   1      37.496  30.936  32.841  1.00  0.00     0.198 A 
ATOM     64  C   UNL A   1      36.548  31.513  30.713  1.00  0.00     0.198 A 
ATOM     65  F   UNL A   1      37.755  31.105  28.737  1.00  0.00    -0.203 F 
ATOM     66  F   UNL A   1      37.390  30.859  34.175  1.00  0.00    -0.200 F 
ATOM     67  C   UNL A   1      36.448  31.456  32.094  1.00  0.00     0.200 A 
ATOM     68  F   UNL A   1      35.541  32.025  29.990  1.00  0.00    -0.200 F 
ATOM     69  F   UNL A   1      35.341  31.896  32.706  1.00  0.00    -0.200 F 
ENDBRANCH  45  59
BRANCH  46  70
ATOM     70  C   UNL A   1      46.837  27.181  25.959  1.00  0.00     0.064 A 
ATOM     71  C   UNL A   1      46.988  27.496  24.604  1.00  0.00     0.173 A 
ATOM     72  C   UNL A   1      47.851  26.429  26.574  1.00  0.00     0.173 A 
ATOM     73  F   UNL A   1      46.033  28.191  23.967  1.00  0.00    -0.203 F 
ATOM     74  C   UNL A   1      48.110  27.078  23.890  1.00  0.00     0.198 A 
ATOM     75  C   UNL A   1      48.985  26.036  25.868  1.00  0.00     0.198 A 
ATOM     76  F   UNL A   1      47.752  26.103  27.871  1.00  0.00    -0.203 F 
ATOM     77  F   UNL A   1      48.219  27.370  22.586  1.00  0.00    -0.200 F 
ATOM     78  C   UNL A   1      49.111  26.358  24.525  1.00  0.00     0.200 A 
ATOM     79  F   UNL A   1      49.956  25.355  26.488  1.00  0.00    -0.200 F 
ATOM     80  F   UNL A   1      50.197  25.972  23.842  1.00  0.00    -0.200 F 
ENDBRANCH  46  70
BRANCH  58  81
ATOM     81  C   UNL A   1      45.180  33.237  28.983  1.00  0.00     0.064 A 
ATOM     82  C   UNL A   1      46.030  33.458  30.076  1.00  0.00     0.173 A 
ATOM     83  C   UNL A   1      45.083  34.237  28.006  1.00  0.00     0.173 A 
ATOM     84  F   UNL A   1      46.141  32.535  31.043  1.00  0.00    -0.203 F 
ATOM     85  C   UNL A   1      46.750  34.643  30.188  1.00  0.00     0.198 A 
ATOM     86  C   UNL A   1      45.820  35.412  28.111  1.00  0.00     0.198 A 
ATOM     87  F   UNL A   1      44.283  34.065  26.942  1.00  0.00    -0.203 F 
ATOM     88  F   UNL A   1      47.537  34.849  31.253  1.00  0.00    -0.200 F 
ATOM     89  C   UNL A   1      46.650  35.616  29.203  1.00  0.00     0.200 A 
ATOM     90  F   UNL A   1      45.728  36.347  27.155  1.00  0.00    -0.200 F 
ATOM     91  F   UNL A   1      47.352  36.753  29.308  1.00  0.00    -0.200 F 
ENDBRANCH  58  81
ENDBRANCH  32  33
ENDBRANCH  25  27
ENDBRANCH  24  25
ENDBRANCH  23  24
ENDBRANCH   1  23
TORSDOF 13
ENDMDL
