MODEL 1
REMARK VINA RESULT:     -12.4      0.000      0.000
REMARK SMILES COc1cccc(-c2c(C(=O)OCCOC(=O)c3ccc(-c4c5nc(c(-c6c(F)c(F)c(F)c(F)c6F)c6ccc([nH]6)c(-c6c(F)c(F)c(F)c(F)c6F)c6nc(c(-c7c(F)c(F)c(F)c(F)c7F)c7ccc4[nH]7)C=C6)C=C5)cc3)nnn2Cc2ccc(OC(F)(F)F)cc2)c1
REMARK SMILES IDX 13 1 12 2 10 3 11 4 9 5 8 6 83 7 81 8 82 9 7 10 3 11 4 12
REMARK SMILES IDX 96 13 5 14 6 15 2 16 1 17 84 18 85 19 86 20 95 21 87 22
REMARK SMILES IDX 94 23 88 24 89 25 90 26 91 27 92 28 93 29 14 30 15 31 16 32
REMARK SMILES IDX 17 33 18 34 19 35 80 36 20 37 79 38 21 39 22 40 23 41 73 42
REMARK SMILES IDX 24 43 78 44 72 45 74 46 25 47 77 48 71 49 70 50 26 52 58 53
REMARK SMILES IDX 38 54 57 55 39 56 42 57 56 58 75 59 40 60 41 61 55 63 76 64
REMARK SMILES IDX 43 65 27 66 28 67 36 68 29 69 30 70 34 71 37 72 31 73 32 74
REMARK SMILES IDX 35 75 33 76 59 77 60 78 68 79 61 80 62 81 66 82 69 83 63 84
REMARK SMILES IDX 64 85 67 86 65 87 44 88 45 89 53 90 46 91 47 92 51 93 54 94
REMARK SMILES IDX 48 95 49 96 52 97 50 98
REMARK H PARENT 74 51 42 62
REMARK Flexibility Score: inf
ROOT
ATOM      1  C   UNL A   1      33.718  29.343  25.751  1.00  0.00     0.275 C 
ENDROOT
BRANCH   1   2
ATOM      2  O   UNL A   1      32.659  28.466  25.340  1.00  0.00    -0.457 OA
BRANCH   2   3
ATOM      3  C   UNL A   1      33.052  27.279  24.787  1.00  0.00     0.361 C 
ATOM      4  O   UNL A   1      33.734  27.200  23.768  1.00  0.00    -0.244 OA
BRANCH   3   5
ATOM      5  C   UNL A   1      32.637  26.115  25.556  1.00  0.00     0.198 A 
ATOM      6  C   UNL A   1      33.202  24.843  25.657  1.00  0.00     0.104 A 
ATOM      7  N   UNL A   1      32.384  24.226  26.584  1.00  0.00    -0.239 N 
ATOM      8  N   UNL A   1      31.485  26.162  26.307  1.00  0.00    -0.122 NA
ATOM      9  N   UNL A   1      31.302  24.981  26.863  1.00  0.00    -0.066 NA
BRANCH   6  10
ATOM     10  C   UNL A   1      34.399  24.248  25.065  1.00  0.00     0.006 A 
ATOM     11  C   UNL A   1      36.770  23.710  25.168  1.00  0.00     0.119 A 
ATOM     12  C   UNL A   1      36.709  23.218  23.864  1.00  0.00     0.046 A 
ATOM     13  C   UNL A   1      35.614  24.211  25.773  1.00  0.00     0.056 A 
ATOM     14  C   UNL A   1      35.500  23.202  23.172  1.00  0.00     0.005 A 
ATOM     15  C   UNL A   1      34.351  23.723  23.767  1.00  0.00     0.011 A 
BRANCH  11  16
ATOM     16  O   UNL A   1      38.020  23.723  25.723  1.00  0.00    -0.497 OA
ATOM     17  C   UNL A   1      38.548  22.454  26.093  1.00  0.00     0.278 C 
ENDBRANCH  11  16
ENDBRANCH   6  10
BRANCH   7  18
ATOM     18  C   UNL A   1      32.536  22.945  27.258  1.00  0.00     0.182 C 
BRANCH  18  19
ATOM     19  C   UNL A   1      32.813  21.813  26.291  1.00  0.00    -0.026 A 
ATOM     20  C   UNL A   1      31.874  21.446  25.321  1.00  0.00     0.009 A 
ATOM     21  C   UNL A   1      34.021  21.100  26.352  1.00  0.00     0.009 A 
ATOM     22  C   UNL A   1      32.147  20.399  24.434  1.00  0.00     0.047 A 
ATOM     23  C   UNL A   1      34.299  20.066  25.453  1.00  0.00     0.047 A 
ATOM     24  C   UNL A   1      33.362  19.709  24.486  1.00  0.00     0.129 A 
BRANCH  24  25
ATOM     25  O   UNL A   1      33.500  18.721  23.554  1.00  0.00    -0.406 OA
BRANCH  25  26
ATOM     26  C   UNL A   1      34.103  17.507  23.969  1.00  0.00     0.573 C 
ATOM     27  F   UNL A   1      33.962  16.544  23.033  1.00  0.00    -0.132 F 
ATOM     28  F   UNL A   1      35.414  17.681  24.245  1.00  0.00    -0.132 F 
ATOM     29  F   UNL A   1      33.492  17.084  25.099  1.00  0.00    -0.132 F 
ENDBRANCH  25  26
ENDBRANCH  24  25
ENDBRANCH  18  19
ENDBRANCH   7  18
ENDBRANCH   3   5
ENDBRANCH   2   3
ENDBRANCH   1   2
BRANCH   1  30
ATOM     30  C   UNL A   1      33.196  30.429  26.680  1.00  0.00     0.275 C 
BRANCH  30  31
ATOM     31  O   UNL A   1      33.892  30.457  27.927  1.00  0.00    -0.458 OA
BRANCH  31  32
ATOM     32  C   UNL A   1      34.825  31.432  28.035  1.00  0.00     0.338 C 
ATOM     33  O   UNL A   1      34.754  32.566  27.593  1.00  0.00    -0.246 OA
BRANCH  32  34
ATOM     34  C   UNL A   1      36.075  30.848  28.537  1.00  0.00     0.060 A 
ATOM     35  C   UNL A   1      37.079  31.721  28.960  1.00  0.00     0.016 A 
ATOM     36  C   UNL A   1      36.327  29.480  28.347  1.00  0.00     0.016 A 
ATOM     37  C   UNL A   1      38.369  31.241  29.086  1.00  0.00     0.010 A 
ATOM     38  C   UNL A   1      37.616  29.005  28.459  1.00  0.00     0.010 A 
ATOM     39  C   UNL A   1      38.635  29.901  28.779  1.00  0.00    -0.014 A 
BRANCH  39  40
ATOM     40  C   UNL A   1      39.990  29.413  28.963  1.00  0.00     0.031 A 
ATOM     41  C   UNL A   1      40.398  29.315  30.387  1.00  0.00     0.074 A 
ATOM     42  C   UNL A   1      40.750  28.943  27.956  1.00  0.00     0.049 A 
ATOM     43  N   UNL A   1      41.410  29.876  30.961  1.00  0.00    -0.248 NA
ATOM     44  C   UNL A   1      39.509  28.587  31.310  1.00  0.00     0.031 C 
ATOM     45  C   UNL A   1      40.360  28.705  26.566  1.00  0.00     0.029 A 
ATOM     46  N   UNL A   1      42.022  28.459  28.003  1.00  0.00    -0.354 N 
ATOM     47  C   UNL A   1      41.386  29.440  32.281  1.00  0.00     0.074 A 
ATOM     48  C   UNL A   1      40.127  28.772  32.476  1.00  0.00     0.031 C 
ATOM     49  C   UNL A   1      41.284  27.910  25.979  1.00  0.00     0.029 A 
ATOM     50  C   UNL A   1      42.371  27.671  26.915  1.00  0.00     0.049 A 
ATOM     51  H   UNL A   1      42.639  28.650  28.745  1.00  0.00     0.167 HD
ATOM     52  C   UNL A   1      42.513  29.449  33.041  1.00  0.00     0.037 A 
ATOM     53  C   UNL A   1      43.424  26.816  26.845  1.00  0.00     0.037 A 
ATOM     54  C   UNL A   1      43.477  30.398  32.546  1.00  0.00     0.049 A 
ATOM     55  C   UNL A   1      44.388  27.208  27.911  1.00  0.00     0.074 A 
ATOM     56  C   UNL A   1      43.426  31.751  32.260  1.00  0.00     0.029 A 
ATOM     57  N   UNL A   1      44.599  29.936  31.902  1.00  0.00    -0.354 N 
ATOM     58  N   UNL A   1      45.098  28.302  27.888  1.00  0.00    -0.248 NA
ATOM     59  C   UNL A   1      44.223  26.597  29.223  1.00  0.00     0.031 C 
ATOM     60  C   UNL A   1      44.177  31.900  31.057  1.00  0.00     0.029 A 
ATOM     61  C   UNL A   1      44.697  30.647  30.733  1.00  0.00     0.049 A 
ATOM     62  H   UNL A   1      45.211  29.232  32.217  1.00  0.00     0.167 HD
ATOM     63  C   UNL A   1      45.084  28.751  29.199  1.00  0.00     0.074 A 
ATOM     64  C   UNL A   1      44.606  27.621  29.990  1.00  0.00     0.031 C 
ATOM     65  C   UNL A   1      45.177  30.081  29.498  1.00  0.00     0.037 A 
BRANCH  52  66
ATOM     66  C   UNL A   1      42.870  28.327  33.981  1.00  0.00     0.064 A 
ATOM     67  C   UNL A   1      43.172  28.623  35.323  1.00  0.00     0.173 A 
ATOM     68  C   UNL A   1      43.228  27.029  33.546  1.00  0.00     0.173 A 
ATOM     69  F   UNL A   1      42.905  29.836  35.830  1.00  0.00    -0.203 F 
ATOM     70  C   UNL A   1      43.851  27.717  36.142  1.00  0.00     0.198 A 
ATOM     71  C   UNL A   1      43.852  26.108  34.383  1.00  0.00     0.198 A 
ATOM     72  F   UNL A   1      43.101  26.641  32.273  1.00  0.00    -0.203 F 
ATOM     73  F   UNL A   1      44.237  28.092  37.368  1.00  0.00    -0.200 F 
ATOM     74  C   UNL A   1      44.194  26.462  35.670  1.00  0.00     0.200 A 
ATOM     75  F   UNL A   1      44.197  24.908  33.898  1.00  0.00    -0.200 F 
ATOM     76  F   UNL A   1      44.900  25.617  36.431  1.00  0.00    -0.200 F 
ENDBRANCH  52  66
BRANCH  53  77
ATOM     77  C   UNL A   1      43.508  25.504  26.148  1.00  0.00     0.064 A 
ATOM     78  C   UNL A   1      44.577  25.217  25.279  1.00  0.00     0.173 A 
ATOM     79  C   UNL A   1      42.703  24.408  26.515  1.00  0.00     0.173 A 
ATOM     80  F   UNL A   1      45.426  26.187  24.907  1.00  0.00    -0.203 F 
ATOM     81  C   UNL A   1      44.840  23.916  24.835  1.00  0.00     0.198 A 
ATOM     82  C   UNL A   1      42.957  23.113  26.058  1.00  0.00     0.198 A 
ATOM     83  F   UNL A   1      41.705  24.542  27.399  1.00  0.00    -0.203 F 
ATOM     84  F   UNL A   1      45.911  23.675  24.067  1.00  0.00    -0.200 F 
ATOM     85  C   UNL A   1      44.034  22.863  25.233  1.00  0.00     0.200 A 
ATOM     86  F   UNL A   1      42.185  22.099  26.478  1.00  0.00    -0.200 F 
ATOM     87  F   UNL A   1      44.319  21.608  24.859  1.00  0.00    -0.200 F 
ENDBRANCH  53  77
BRANCH  65  88
ATOM     88  C   UNL A   1      45.555  31.044  28.410  1.00  0.00     0.064 A 
ATOM     89  C   UNL A   1      44.662  31.533  27.440  1.00  0.00     0.173 A 
ATOM     90  C   UNL A   1      46.835  31.616  28.452  1.00  0.00     0.173 A 
ATOM     91  F   UNL A   1      43.388  31.124  27.399  1.00  0.00    -0.203 F 
ATOM     92  C   UNL A   1      45.053  32.512  26.528  1.00  0.00     0.198 A 
ATOM     93  C   UNL A   1      47.208  32.623  27.567  1.00  0.00     0.198 A 
ATOM     94  F   UNL A   1      47.715  31.230  29.390  1.00  0.00    -0.203 F 
ATOM     95  F   UNL A   1      44.187  32.952  25.603  1.00  0.00    -0.200 F 
ATOM     96  C   UNL A   1      46.323  33.063  26.598  1.00  0.00     0.200 A 
ATOM     97  F   UNL A   1      48.419  33.188  27.674  1.00  0.00    -0.200 F 
ATOM     98  F   UNL A   1      46.682  34.037  25.751  1.00  0.00    -0.200 F 
ENDBRANCH  65  88
ENDBRANCH  39  40
ENDBRANCH  32  34
ENDBRANCH  31  32
ENDBRANCH  30  31
ENDBRANCH   1  30
TORSDOF 17
ENDMDL
MODEL 2
REMARK VINA RESULT:     -12.4      3.874      8.727
REMARK SMILES COc1cccc(-c2c(C(=O)OCCOC(=O)c3ccc(-c4c5nc(c(-c6c(F)c(F)c(F)c(F)c6F)c6ccc([nH]6)c(-c6c(F)c(F)c(F)c(F)c6F)c6nc(c(-c7c(F)c(F)c(F)c(F)c7F)c7ccc4[nH]7)C=C6)C=C5)cc3)nnn2Cc2ccc(OC(F)(F)F)cc2)c1
REMARK SMILES IDX 13 1 12 2 10 3 11 4 9 5 8 6 83 7 81 8 82 9 7 10 3 11 4 12
REMARK SMILES IDX 96 13 5 14 6 15 2 16 1 17 84 18 85 19 86 20 95 21 87 22
REMARK SMILES IDX 94 23 88 24 89 25 90 26 91 27 92 28 93 29 14 30 15 31 16 32
REMARK SMILES IDX 17 33 18 34 19 35 80 36 20 37 79 38 21 39 22 40 23 41 73 42
REMARK SMILES IDX 24 43 78 44 72 45 74 46 25 47 77 48 71 49 70 50 26 52 58 53
REMARK SMILES IDX 38 54 57 55 39 56 42 57 56 58 75 59 40 60 41 61 55 63 76 64
REMARK SMILES IDX 43 65 27 66 28 67 36 68 29 69 30 70 34 71 37 72 31 73 32 74
REMARK SMILES IDX 35 75 33 76 59 77 60 78 68 79 61 80 62 81 66 82 69 83 63 84
REMARK SMILES IDX 64 85 67 86 65 87 44 88 45 89 53 90 46 91 47 92 51 93 54 94
REMARK SMILES IDX 48 95 49 96 52 97 50 98
REMARK H PARENT 74 51 42 62
REMARK Flexibility Score: inf
ROOT
ATOM      1  C   UNL A   1      36.071  22.798  26.026  1.00  0.00     0.275 C 
ENDROOT
BRANCH   1   2
ATOM      2  O   UNL A   1      34.772  22.251  25.754  1.00  0.00    -0.457 OA
BRANCH   2   3
ATOM      3  C   UNL A   1      33.734  23.139  25.799  1.00  0.00     0.361 C 
ATOM      4  O   UNL A   1      33.010  23.284  26.782  1.00  0.00    -0.244 OA
BRANCH   3   5
ATOM      5  C   UNL A   1      33.602  23.940  24.591  1.00  0.00     0.198 A 
ATOM      6  C   UNL A   1      33.270  25.285  24.424  1.00  0.00     0.104 A 
ATOM      7  N   UNL A   1      33.378  25.450  23.056  1.00  0.00    -0.239 N 
ATOM      8  N   UNL A   1      33.771  23.356  23.357  1.00  0.00    -0.122 NA
ATOM      9  N   UNL A   1      33.554  24.269  22.431  1.00  0.00    -0.066 NA
BRANCH   6  10
ATOM     10  C   UNL A   1      32.972  26.352  25.378  1.00  0.00     0.006 A 
ATOM     11  C   UNL A   1      33.692  28.225  26.754  1.00  0.00     0.119 A 
ATOM     12  C   UNL A   1      32.411  28.307  27.301  1.00  0.00     0.046 A 
ATOM     13  C   UNL A   1      33.968  27.258  25.783  1.00  0.00     0.056 A 
ATOM     14  C   UNL A   1      31.403  27.448  26.869  1.00  0.00     0.005 A 
ATOM     15  C   UNL A   1      31.685  26.468  25.918  1.00  0.00     0.011 A 
BRANCH  11  16
ATOM     16  O   UNL A   1      34.608  29.084  27.296  1.00  0.00    -0.497 OA
ATOM     17  C   UNL A   1      34.133  30.393  27.590  1.00  0.00     0.278 C 
ENDBRANCH  11  16
ENDBRANCH   6  10
BRANCH   7  18
ATOM     18  C   UNL A   1      33.332  26.666  22.256  1.00  0.00     0.182 C 
BRANCH  18  19
ATOM     19  C   UNL A   1      32.142  27.538  22.598  1.00  0.00    -0.026 A 
ATOM     20  C   UNL A   1      30.834  27.090  22.387  1.00  0.00     0.009 A 
ATOM     21  C   UNL A   1      32.328  28.823  23.132  1.00  0.00     0.009 A 
ATOM     22  C   UNL A   1      29.746  27.908  22.711  1.00  0.00     0.047 A 
ATOM     23  C   UNL A   1      31.240  29.632  23.472  1.00  0.00     0.047 A 
ATOM     24  C   UNL A   1      29.940  29.178  23.263  1.00  0.00     0.129 A 
BRANCH  24  25
ATOM     25  O   UNL A   1      28.791  29.862  23.543  1.00  0.00    -0.406 OA
BRANCH  25  26
ATOM     26  C   UNL A   1      28.577  31.090  22.867  1.00  0.00     0.573 C 
ATOM     27  F   UNL A   1      29.151  32.119  23.527  1.00  0.00    -0.132 F 
ATOM     28  F   UNL A   1      29.052  31.042  21.603  1.00  0.00    -0.132 F 
ATOM     29  F   UNL A   1      27.247  31.323  22.804  1.00  0.00    -0.132 F 
ENDBRANCH  25  26
ENDBRANCH  24  25
ENDBRANCH  18  19
ENDBRANCH   7  18
ENDBRANCH   3   5
ENDBRANCH   2   3
ENDBRANCH   1   2
BRANCH   1  30
ATOM     30  C   UNL A   1      37.145  21.725  25.929  1.00  0.00     0.275 C 
BRANCH  30  31
ATOM     31  O   UNL A   1      38.404  22.256  25.509  1.00  0.00    -0.458 OA
BRANCH  31  32
ATOM     32  C   UNL A   1      39.417  22.079  26.391  1.00  0.00     0.338 C 
ATOM     33  O   UNL A   1      39.712  21.049  26.973  1.00  0.00    -0.246 OA
BRANCH  32  34
ATOM     34  C   UNL A   1      39.961  23.391  26.765  1.00  0.00     0.060 A 
ATOM     35  C   UNL A   1      41.007  23.424  27.689  1.00  0.00     0.016 A 
ATOM     36  C   UNL A   1      39.274  24.559  26.396  1.00  0.00     0.016 A 
ATOM     37  C   UNL A   1      41.292  24.614  28.331  1.00  0.00     0.010 A 
ATOM     38  C   UNL A   1      39.548  25.742  27.047  1.00  0.00     0.010 A 
ATOM     39  C   UNL A   1      40.522  25.748  28.045  1.00  0.00    -0.014 A 
BRANCH  39  40
ATOM     40  C   UNL A   1      40.872  26.995  28.701  1.00  0.00     0.031 A 
ATOM     41  C   UNL A   1      42.109  27.619  28.169  1.00  0.00     0.074 A 
ATOM     42  C   UNL A   1      40.072  27.612  29.592  1.00  0.00     0.049 A 
ATOM     43  N   UNL A   1      43.177  27.942  28.822  1.00  0.00    -0.248 NA
ATOM     44  C   UNL A   1      42.213  27.811  26.712  1.00  0.00     0.031 C 
ATOM     45  C   UNL A   1      38.704  27.260  29.972  1.00  0.00     0.029 A 
ATOM     46  N   UNL A   1      40.287  28.776  30.265  1.00  0.00    -0.354 N 
ATOM     47  C   UNL A   1      44.025  28.532  27.892  1.00  0.00     0.074 A 
ATOM     48  C   UNL A   1      43.448  28.298  26.594  1.00  0.00     0.031 C 
ATOM     49  C   UNL A   1      38.139  28.312  30.609  1.00  0.00     0.029 A 
ATOM     50  C   UNL A   1      39.133  29.362  30.769  1.00  0.00     0.049 A 
ATOM     51  H   UNL A   1      41.181  29.169  30.383  1.00  0.00     0.167 HD
ATOM     52  C   UNL A   1      45.010  29.382  28.284  1.00  0.00     0.037 A 
ATOM     53  C   UNL A   1      39.000  30.647  31.188  1.00  0.00     0.037 A 
ATOM     54  C   UNL A   1      45.385  29.158  29.657  1.00  0.00     0.049 A 
ATOM     55  C   UNL A   1      40.367  31.170  31.463  1.00  0.00     0.074 A 
ATOM     56  C   UNL A   1      45.799  28.043  30.365  1.00  0.00     0.029 A 
ATOM     57  N   UNL A   1      45.002  30.069  30.611  1.00  0.00    -0.354 N 
ATOM     58  N   UNL A   1      41.114  30.777  32.459  1.00  0.00    -0.248 NA
ATOM     59  C   UNL A   1      41.078  31.803  30.361  1.00  0.00     0.031 C 
ATOM     60  C   UNL A   1      45.141  28.145  31.626  1.00  0.00     0.029 A 
ATOM     61  C   UNL A   1      44.434  29.348  31.630  1.00  0.00     0.049 A 
ATOM     62  H   UNL A   1      45.112  31.046  30.571  1.00  0.00     0.167 HD
ATOM     63  C   UNL A   1      42.391  30.702  31.926  1.00  0.00     0.074 A 
ATOM     64  C   UNL A   1      42.324  31.426  30.659  1.00  0.00     0.031 C 
ATOM     65  C   UNL A   1      43.313  29.816  32.405  1.00  0.00     0.037 A 
BRANCH  52  66
ATOM     66  C   UNL A   1      45.338  30.649  27.537  1.00  0.00     0.064 A 
ATOM     67  C   UNL A   1      46.681  30.937  27.230  1.00  0.00     0.173 A 
ATOM     68  C   UNL A   1      44.433  31.725  27.390  1.00  0.00     0.173 A 
ATOM     69  F   UNL A   1      47.629  29.999  27.367  1.00  0.00    -0.203 F 
ATOM     70  C   UNL A   1      47.095  32.225  26.879  1.00  0.00     0.198 A 
ATOM     71  C   UNL A   1      44.841  32.992  26.983  1.00  0.00     0.198 A 
ATOM     72  F   UNL A   1      43.147  31.631  27.745  1.00  0.00    -0.203 F 
ATOM     73  F   UNL A   1      48.400  32.485  26.729  1.00  0.00    -0.200 F 
ATOM     74  C   UNL A   1      46.175  33.252  26.760  1.00  0.00     0.200 A 
ATOM     75  F   UNL A   1      43.936  33.978  26.899  1.00  0.00    -0.200 F 
ATOM     76  F   UNL A   1      46.577  34.500  26.488  1.00  0.00    -0.200 F 
ENDBRANCH  52  66
BRANCH  53  77
ATOM     77  C   UNL A   1      37.821  31.545  31.061  1.00  0.00     0.064 A 
ATOM     78  C   UNL A   1      37.444  32.067  29.809  1.00  0.00     0.173 A 
ATOM     79  C   UNL A   1      36.881  31.700  32.099  1.00  0.00     0.173 A 
ATOM     80  F   UNL A   1      38.254  31.930  28.748  1.00  0.00    -0.203 F 
ATOM     81  C   UNL A   1      36.199  32.672  29.605  1.00  0.00     0.198 A 
ATOM     82  C   UNL A   1      35.645  32.318  31.898  1.00  0.00     0.198 A 
ATOM     83  F   UNL A   1      37.093  31.173  33.313  1.00  0.00    -0.203 F 
ATOM     84  F   UNL A   1      35.851  33.091  28.380  1.00  0.00    -0.200 F 
ATOM     85  C   UNL A   1      35.296  32.789  30.649  1.00  0.00     0.200 A 
ATOM     86  F   UNL A   1      34.771  32.394  32.911  1.00  0.00    -0.200 F 
ATOM     87  F   UNL A   1      34.081  33.313  30.442  1.00  0.00    -0.200 F 
ENDBRANCH  53  77
BRANCH  65  88
ATOM     88  C   UNL A   1      43.025  29.095  33.690  1.00  0.00     0.064 A 
ATOM     89  C   UNL A   1      42.233  27.936  33.788  1.00  0.00     0.173 A 
ATOM     90  C   UNL A   1      43.711  29.503  34.843  1.00  0.00     0.173 A 
ATOM     91  F   UNL A   1      41.632  27.413  32.712  1.00  0.00    -0.203 F 
ATOM     92  C   UNL A   1      42.100  27.253  34.996  1.00  0.00     0.198 A 
ATOM     93  C   UNL A   1      43.610  28.794  36.036  1.00  0.00     0.198 A 
ATOM     94  F   UNL A   1      44.526  30.569  34.799  1.00  0.00    -0.203 F 
ATOM     95  F   UNL A   1      41.327  26.160  35.067  1.00  0.00    -0.200 F 
ATOM     96  C   UNL A   1      42.796  27.677  36.116  1.00  0.00     0.200 A 
ATOM     97  F   UNL A   1      44.326  29.178  37.102  1.00  0.00    -0.200 F 
ATOM     98  F   UNL A   1      42.704  26.993  37.265  1.00  0.00    -0.200 F 
ENDBRANCH  65  88
ENDBRANCH  39  40
ENDBRANCH  32  34
ENDBRANCH  31  32
ENDBRANCH  30  31
ENDBRANCH   1  30
TORSDOF 17
ENDMDL
MODEL 3
REMARK VINA RESULT:     -12.2      3.748      8.663
REMARK SMILES COc1cccc(-c2c(C(=O)OCCOC(=O)c3ccc(-c4c5nc(c(-c6c(F)c(F)c(F)c(F)c6F)c6ccc([nH]6)c(-c6c(F)c(F)c(F)c(F)c6F)c6nc(c(-c7c(F)c(F)c(F)c(F)c7F)c7ccc4[nH]7)C=C6)C=C5)cc3)nnn2Cc2ccc(OC(F)(F)F)cc2)c1
REMARK SMILES IDX 13 1 12 2 10 3 11 4 9 5 8 6 83 7 81 8 82 9 7 10 3 11 4 12
REMARK SMILES IDX 96 13 5 14 6 15 2 16 1 17 84 18 85 19 86 20 95 21 87 22
REMARK SMILES IDX 94 23 88 24 89 25 90 26 91 27 92 28 93 29 14 30 15 31 16 32
REMARK SMILES IDX 17 33 18 34 19 35 80 36 20 37 79 38 21 39 22 40 23 41 73 42
REMARK SMILES IDX 24 43 78 44 72 45 74 46 25 47 77 48 71 49 70 50 26 52 58 53
REMARK SMILES IDX 38 54 57 55 39 56 42 57 56 58 75 59 40 60 41 61 55 63 76 64
REMARK SMILES IDX 43 65 27 66 28 67 36 68 29 69 30 70 34 71 37 72 31 73 32 74
REMARK SMILES IDX 35 75 33 76 59 77 60 78 68 79 61 80 62 81 66 82 69 83 63 84
REMARK SMILES IDX 64 85 67 86 65 87 44 88 45 89 53 90 46 91 47 92 51 93 54 94
REMARK SMILES IDX 48 95 49 96 52 97 50 98
REMARK H PARENT 74 51 42 62
REMARK Flexibility Score: inf
ROOT
ATOM      1  C   UNL A   1      36.249  20.976  25.227  1.00  0.00     0.275 C 
ENDROOT
BRANCH   1   2
ATOM      2  O   UNL A   1      35.887  22.164  25.946  1.00  0.00    -0.457 OA
BRANCH   2   3
ATOM      3  C   UNL A   1      34.693  22.115  26.610  1.00  0.00     0.361 C 
ATOM      4  O   UNL A   1      34.543  21.549  27.690  1.00  0.00    -0.244 OA
BRANCH   3   5
ATOM      5  C   UNL A   1      33.627  22.850  25.944  1.00  0.00     0.198 A 
ATOM      6  C   UNL A   1      32.740  22.456  24.942  1.00  0.00     0.104 A 
ATOM      7  N   UNL A   1      31.943  23.575  24.793  1.00  0.00    -0.239 N 
ATOM      8  N   UNL A   1      33.406  24.172  26.253  1.00  0.00    -0.122 NA
ATOM      9  N   UNL A   1      32.431  24.621  25.489  1.00  0.00    -0.066 NA
BRANCH   6  10
ATOM     10  C   UNL A   1      32.546  21.188  24.240  1.00  0.00     0.006 A 
ATOM     11  C   UNL A   1      32.533  18.755  24.227  1.00  0.00     0.119 A 
ATOM     12  C   UNL A   1      32.299  18.770  22.851  1.00  0.00     0.046 A 
ATOM     13  C   UNL A   1      32.642  19.962  24.922  1.00  0.00     0.056 A 
ATOM     14  C   UNL A   1      32.151  19.978  22.174  1.00  0.00     0.005 A 
ATOM     15  C   UNL A   1      32.283  21.183  22.865  1.00  0.00     0.011 A 
BRANCH  11  16
ATOM     16  O   UNL A   1      32.714  17.512  24.769  1.00  0.00    -0.497 OA
ATOM     17  C   UNL A   1      33.378  16.564  23.940  1.00  0.00     0.278 C 
ENDBRANCH  11  16
ENDBRANCH   6  10
BRANCH   7  18
ATOM     18  C   UNL A   1      30.716  23.753  24.029  1.00  0.00     0.182 C 
BRANCH  18  19
ATOM     19  C   UNL A   1      30.557  25.168  23.513  1.00  0.00    -0.026 A 
ATOM     20  C   UNL A   1      31.440  25.692  22.562  1.00  0.00     0.009 A 
ATOM     21  C   UNL A   1      29.520  25.988  23.983  1.00  0.00     0.009 A 
ATOM     22  C   UNL A   1      31.278  27.001  22.094  1.00  0.00     0.047 A 
ATOM     23  C   UNL A   1      29.348  27.289  23.501  1.00  0.00     0.047 A 
ATOM     24  C   UNL A   1      30.228  27.804  22.552  1.00  0.00     0.129 A 
BRANCH  24  25
ATOM     25  O   UNL A   1      30.181  29.053  22.001  1.00  0.00    -0.406 OA
BRANCH  25  26
ATOM     26  C   UNL A   1      29.440  30.046  22.690  1.00  0.00     0.573 C 
ATOM     27  F   UNL A   1      28.135  29.711  22.777  1.00  0.00    -0.132 F 
ATOM     28  F   UNL A   1      29.937  30.258  23.927  1.00  0.00    -0.132 F 
ATOM     29  F   UNL A   1      29.528  31.206  22.001  1.00  0.00    -0.132 F 
ENDBRANCH  25  26
ENDBRANCH  24  25
ENDBRANCH  18  19
ENDBRANCH   7  18
ENDBRANCH   3   5
ENDBRANCH   2   3
ENDBRANCH   1   2
BRANCH   1  30
ATOM     30  C   UNL A   1      37.753  20.908  25.009  1.00  0.00     0.275 C 
BRANCH  30  31
ATOM     31  O   UNL A   1      38.413  22.109  25.414  1.00  0.00    -0.458 OA
BRANCH  31  32
ATOM     32  C   UNL A   1      39.540  21.920  26.140  1.00  0.00     0.338 C 
ATOM     33  O   UNL A   1      40.177  20.886  26.251  1.00  0.00    -0.246 OA
BRANCH  32  34
ATOM     34  C   UNL A   1      39.751  23.083  27.010  1.00  0.00     0.060 A 
ATOM     35  C   UNL A   1      38.901  24.180  26.850  1.00  0.00     0.016 A 
ATOM     36  C   UNL A   1      40.920  23.171  27.782  1.00  0.00     0.016 A 
ATOM     37  C   UNL A   1      39.283  25.401  27.373  1.00  0.00     0.010 A 
ATOM     38  C   UNL A   1      41.308  24.392  28.291  1.00  0.00     0.010 A 
ATOM     39  C   UNL A   1      40.511  25.507  28.039  1.00  0.00    -0.014 A 
BRANCH  39  40
ATOM     40  C   UNL A   1      40.866  26.791  28.617  1.00  0.00     0.031 A 
ATOM     41  C   UNL A   1      42.092  27.388  28.030  1.00  0.00     0.074 A 
ATOM     42  C   UNL A   1      40.079  27.454  29.485  1.00  0.00     0.049 A 
ATOM     43  N   UNL A   1      43.168  27.751  28.645  1.00  0.00    -0.248 NA
ATOM     44  C   UNL A   1      42.171  27.496  26.562  1.00  0.00     0.031 C 
ATOM     45  C   UNL A   1      38.718  27.121  29.907  1.00  0.00     0.029 A 
ATOM     46  N   UNL A   1      40.298  28.656  30.086  1.00  0.00    -0.354 N 
ATOM     47  C   UNL A   1      43.998  28.290  27.668  1.00  0.00     0.074 A 
ATOM     48  C   UNL A   1      43.402  27.980  26.396  1.00  0.00     0.031 C 
ATOM     49  C   UNL A   1      38.159  28.205  30.492  1.00  0.00     0.029 A 
ATOM     50  C   UNL A   1      39.151  29.266  30.575  1.00  0.00     0.049 A 
ATOM     51  H   UNL A   1      41.193  29.058  30.166  1.00  0.00     0.167 HD
ATOM     52  C   UNL A   1      44.985  29.165  27.995  1.00  0.00     0.037 A 
ATOM     53  C   UNL A   1      39.018  30.572  30.921  1.00  0.00     0.037 A 
ATOM     54  C   UNL A   1      45.384  29.022  29.372  1.00  0.00     0.049 A 
ATOM     55  C   UNL A   1      40.387  31.115  31.143  1.00  0.00     0.074 A 
ATOM     56  C   UNL A   1      45.815  27.951  30.136  1.00  0.00     0.029 A 
ATOM     57  N   UNL A   1      45.012  29.984  30.278  1.00  0.00    -0.354 N 
ATOM     58  N   UNL A   1      41.152  30.783  32.147  1.00  0.00    -0.248 NA
ATOM     59  C   UNL A   1      41.077  31.687  29.994  1.00  0.00     0.031 C 
ATOM     60  C   UNL A   1      45.177  28.122  31.399  1.00  0.00     0.029 A 
ATOM     61  C   UNL A   1      44.465  29.321  31.347  1.00  0.00     0.049 A 
ATOM     62  H   UNL A   1      45.117  30.958  30.180  1.00  0.00     0.167 HD
ATOM     63  C   UNL A   1      42.420  30.683  31.598  1.00  0.00     0.074 A 
ATOM     64  C   UNL A   1      42.329  31.332  30.293  1.00  0.00     0.031 C 
ATOM     65  C   UNL A   1      43.355  29.829  32.112  1.00  0.00     0.037 A 
BRANCH  52  66
ATOM     66  C   UNL A   1      45.296  30.387  27.171  1.00  0.00     0.064 A 
ATOM     67  C   UNL A   1      46.638  30.760  26.971  1.00  0.00     0.173 A 
ATOM     68  C   UNL A   1      44.334  31.370  26.839  1.00  0.00     0.173 A 
ATOM     69  F   UNL A   1      47.634  29.917  27.284  1.00  0.00    -0.203 F 
ATOM     70  C   UNL A   1      46.990  32.044  26.546  1.00  0.00     0.198 A 
ATOM     71  C   UNL A   1      44.687  32.628  26.360  1.00  0.00     0.198 A 
ATOM     72  F   UNL A   1      43.028  31.200  27.075  1.00  0.00    -0.203 F 
ATOM     73  F   UNL A   1      48.281  32.397  26.500  1.00  0.00    -0.200 F 
ATOM     74  C   UNL A   1      46.015  32.977  26.245  1.00  0.00     0.200 A 
ATOM     75  F   UNL A   1      43.726  33.525  26.098  1.00  0.00    -0.200 F 
ATOM     76  F   UNL A   1      46.350  34.227  25.900  1.00  0.00    -0.200 F 
ENDBRANCH  52  66
BRANCH  53  77
ATOM     77  C   UNL A   1      37.834  31.458  30.762  1.00  0.00     0.064 A 
ATOM     78  C   UNL A   1      37.334  32.196  31.852  1.00  0.00     0.173 A 
ATOM     79  C   UNL A   1      37.329  31.814  29.496  1.00  0.00     0.173 A 
ATOM     80  F   UNL A   1      37.787  31.961  33.093  1.00  0.00    -0.203 F 
ATOM     81  C   UNL A   1      36.417  33.239  31.680  1.00  0.00     0.198 A 
ATOM     82  C   UNL A   1      36.401  32.844  29.327  1.00  0.00     0.198 A 
ATOM     83  F   UNL A   1      37.789  31.238  28.377  1.00  0.00    -0.203 F 
ATOM     84  F   UNL A   1      36.022  33.963  32.735  1.00  0.00    -0.200 F 
ATOM     85  C   UNL A   1      35.958  33.568  30.415  1.00  0.00     0.200 A 
ATOM     86  F   UNL A   1      35.991  33.170  28.093  1.00  0.00    -0.200 F 
ATOM     87  F   UNL A   1      35.127  34.604  30.241  1.00  0.00    -0.200 F 
ENDBRANCH  53  77
BRANCH  65  88
ATOM     88  C   UNL A   1      43.091  29.182  33.441  1.00  0.00     0.064 A 
ATOM     89  C   UNL A   1      43.414  29.760  34.681  1.00  0.00     0.173 A 
ATOM     90  C   UNL A   1      42.335  28.001  33.460  1.00  0.00     0.173 A 
ATOM     91  F   UNL A   1      44.037  30.942  34.755  1.00  0.00    -0.203 F 
ATOM     92  C   UNL A   1      43.038  29.154  35.880  1.00  0.00     0.198 A 
ATOM     93  C   UNL A   1      41.925  27.422  34.657  1.00  0.00     0.198 A 
ATOM     94  F   UNL A   1      41.948  27.430  32.307  1.00  0.00    -0.203 F 
ATOM     95  F   UNL A   1      43.372  29.717  37.050  1.00  0.00    -0.200 F 
ATOM     96  C   UNL A   1      42.286  27.991  35.866  1.00  0.00     0.200 A 
ATOM     97  F   UNL A   1      41.153  26.326  34.637  1.00  0.00    -0.200 F 
ATOM     98  F   UNL A   1      41.885  27.434  37.018  1.00  0.00    -0.200 F 
ENDBRANCH  65  88
ENDBRANCH  39  40
ENDBRANCH  32  34
ENDBRANCH  31  32
ENDBRANCH  30  31
ENDBRANCH   1  30
TORSDOF 17
ENDMDL
