MODEL 1
REMARK VINA RESULT:     -13.7      0.000      0.000
REMARK SMILES CN(C)S(=O)(=O)c1ccc(-n2c(CCC(=O)OCCOC(=O)c3ccc(-c4c5nc(c(-c6c(F)c(F)c(F)c(F)c6F)c6ccc([nH]6)c(-c6c(F)c(F)c(F)c(F)c6F)c6nc(c(-c7c(F)c(F)c(F)c(F)c7F)c7ccc4[nH]7)C=C6)C=C5)cc3)ccc2-c2ccc(F)cc2)cc1
REMARK SMILES IDX 17 1 15 2 16 3 14 4 13 5 12 6 11 7 88 8 86 9 87 10 10 11
REMARK SMILES IDX 7 12 8 13 97 14 9 15 96 16 4 17 5 18 6 19 2 20 1 21 3 22
REMARK SMILES IDX 89 23 90 24 95 25 91 26 94 27 92 28 93 29 18 30 19 31 20 32
REMARK SMILES IDX 21 33 22 34 23 35 24 36 85 37 25 38 84 39 26 40 27 41 28 42
REMARK SMILES IDX 78 43 29 44 83 45 77 46 79 47 30 48 82 49 76 50 75 51 31 53
REMARK SMILES IDX 63 54 43 55 62 56 44 57 47 58 61 59 80 60 45 61 46 62 60 64
REMARK SMILES IDX 81 65 48 66 32 67 33 68 41 69 34 70 35 71 39 72 42 73 36 74
REMARK SMILES IDX 37 75 40 76 38 77 64 78 65 79 73 80 66 81 67 82 71 83 74 84
REMARK SMILES IDX 68 85 69 86 72 87 70 88 49 89 50 90 58 91 51 92 52 93 56 94
REMARK SMILES IDX 59 95 53 96 54 97 57 98 55 99
REMARK H PARENT 79 52 47 63
REMARK Flexibility Score: inf
ROOT
ATOM      1  O   UNL A   1      32.689  28.255  27.032  1.00  0.00    -0.462 OA
ENDROOT
BRANCH   1   2
ATOM      2  C   UNL A   1      32.506  27.018  26.487  1.00  0.00     0.306 C 
ATOM      3  O   UNL A   1      31.653  26.225  26.871  1.00  0.00    -0.252 OA
BRANCH   2   4
ATOM      4  C   UNL A   1      33.404  26.734  25.292  1.00  0.00     0.129 C 
BRANCH   4   5
ATOM      5  C   UNL A   1      34.328  25.505  25.335  1.00  0.00     0.066 C 
BRANCH   5   6
ATOM      6  C   UNL A   1      33.749  24.310  24.654  1.00  0.00     0.024 A 
ATOM      7  N   UNL A   1      34.277  23.018  24.627  1.00  0.00    -0.314 N 
ATOM      8  C   UNL A   1      33.222  22.174  24.235  1.00  0.00     0.053 A 
ATOM      9  C   UNL A   1      32.560  24.298  23.945  1.00  0.00     0.024 A 
ATOM     10  C   UNL A   1      32.232  22.962  23.681  1.00  0.00     0.029 A 
BRANCH   7  11
ATOM     11  C   UNL A   1      35.574  22.576  25.051  1.00  0.00     0.046 A 
ATOM     12  C   UNL A   1      38.969  21.672  25.932  1.00  0.00     0.082 A 
ATOM     13  C   UNL A   1      38.354  23.311  26.329  1.00  0.00     0.024 A 
ATOM     14  C   UNL A   1      37.926  20.472  25.112  1.00  0.00     0.024 A 
ATOM     15  C   UNL A   1      36.660  23.775  25.905  1.00  0.00     0.028 A 
ATOM     16  C   UNL A   1      36.211  20.890  24.722  1.00  0.00     0.028 A 
BRANCH  12  17
ATOM     17  S   UNL A   1      40.569  21.186  26.472  1.00  0.00     0.242 S 
ATOM     18  O   UNL A   1      41.078  20.225  25.518  1.00  0.00    -0.207 OA
ATOM     19  O   UNL A   1      40.459  20.862  27.877  1.00  0.00    -0.207 OA
BRANCH  17  20
ATOM     20  N   UNL A   1      41.480  22.626  26.309  1.00  0.00    -0.204 NA
ATOM     21  C   UNL A   1      41.805  23.241  27.619  1.00  0.00     0.124 C 
ATOM     22  C   UNL A   1      42.692  22.522  25.463  1.00  0.00     0.124 C 
ENDBRANCH  17  20
ENDBRANCH  12  17
ENDBRANCH   7  11
BRANCH   8  23
ATOM     23  C   UNL A   1      33.091  20.746  24.541  1.00  0.00    -0.001 A 
ATOM     24  C   UNL A   1      33.166  20.278  25.861  1.00  0.00     0.013 A 
ATOM     25  C   UNL A   1      32.891  19.830  23.496  1.00  0.00     0.013 A 
ATOM     26  C   UNL A   1      32.974  18.920  26.132  1.00  0.00     0.040 A 
ATOM     27  C   UNL A   1      32.696  18.476  23.769  1.00  0.00     0.040 A 
ATOM     28  C   UNL A   1      32.731  18.036  25.086  1.00  0.00     0.123 A 
ATOM     29  F   UNL A   1      32.529  16.739  25.350  1.00  0.00    -0.207 F 
ENDBRANCH   8  23
ENDBRANCH   5   6
ENDBRANCH   4   5
ENDBRANCH   2   4
ENDBRANCH   1   2
BRANCH   1  30
ATOM     30  C   UNL A   1      33.854  28.990  26.571  1.00  0.00     0.274 C 
BRANCH  30  31
ATOM     31  C   UNL A   1      34.356  30.272  27.507  1.00  0.00     0.275 C 
BRANCH  31  32
ATOM     32  O   UNL A   1      33.581  32.132  27.607  1.00  0.00    -0.458 OA
BRANCH  32  33
ATOM     33  C   UNL A   1      33.350  33.439  28.055  1.00  0.00     0.338 C 
ATOM     34  O   UNL A   1      32.451  34.226  27.758  1.00  0.00    -0.246 OA
BRANCH  33  35
ATOM     35  C   UNL A   1      34.222  33.826  29.149  1.00  0.00     0.060 A 
ATOM     36  C   UNL A   1      35.511  34.220  28.756  1.00  0.00     0.016 A 
ATOM     37  C   UNL A   1      33.937  33.230  30.375  1.00  0.00     0.016 A 
ATOM     38  C   UNL A   1      36.574  33.824  29.532  1.00  0.00     0.010 A 
ATOM     39  C   UNL A   1      35.004  32.824  31.142  1.00  0.00     0.010 A 
ATOM     40  C   UNL A   1      36.307  33.054  30.667  1.00  0.00    -0.014 A 
BRANCH  40  41
ATOM     41  C   UNL A   1      37.433  32.458  31.387  1.00  0.00     0.031 A 
ATOM     42  C   UNL A   1      38.020  31.279  30.634  1.00  0.00     0.074 A 
ATOM     43  C   UNL A   1      37.766  33.081  32.556  1.00  0.00     0.049 A 
ATOM     44  N   UNL A   1      38.883  30.396  31.024  1.00  0.00    -0.248 NA
ATOM     45  C   UNL A   1      37.564  31.024  29.239  1.00  0.00     0.031 C 
ATOM     46  C   UNL A   1      37.029  34.229  33.129  1.00  0.00     0.029 A 
ATOM     47  N   UNL A   1      38.766  32.904  33.490  1.00  0.00    -0.354 N 
ATOM     48  C   UNL A   1      39.235  29.650  29.887  1.00  0.00     0.074 A 
ATOM     49  C   UNL A   1      38.310  29.992  28.852  1.00  0.00     0.031 C 
ATOM     50  C   UNL A   1      37.560  34.602  34.309  1.00  0.00     0.029 A 
ATOM     51  C   UNL A   1      38.708  33.772  34.611  1.00  0.00     0.049 A 
ATOM     52  H   UNL A   1      39.469  32.223  33.386  1.00  0.00     0.167 HD
ATOM     53  C   UNL A   1      40.373  28.911  29.816  1.00  0.00     0.037 A 
ATOM     54  C   UNL A   1      39.518  33.809  35.714  1.00  0.00     0.037 A 
ATOM     55  C   UNL A   1      41.042  28.885  31.072  1.00  0.00     0.049 A 
ATOM     56  C   UNL A   1      40.622  32.881  35.411  1.00  0.00     0.074 A 
ATOM     57  C   UNL A   1      40.777  28.238  32.251  1.00  0.00     0.029 A 
ATOM     58  N   UNL A   1      41.982  29.857  31.304  1.00  0.00    -0.354 N 
ATOM     59  N   UNL A   1      41.583  33.129  34.571  1.00  0.00    -0.248 NA
ATOM     60  C   UNL A   1      40.621  31.550  36.026  1.00  0.00     0.031 C 
ATOM     61  C   UNL A   1      41.316  29.077  33.250  1.00  0.00     0.029 A 
ATOM     62  C   UNL A   1      41.949  30.166  32.644  1.00  0.00     0.049 A 
ATOM     63  H   UNL A   1      42.574  30.262  30.631  1.00  0.00     0.167 HD
ATOM     64  C   UNL A   1      42.090  31.875  34.318  1.00  0.00     0.074 A 
ATOM     65  C   UNL A   1      41.689  31.037  35.423  1.00  0.00     0.031 C 
ATOM     66  C   UNL A   1      42.340  31.501  33.038  1.00  0.00     0.037 A 
BRANCH  53  67
ATOM     67  C   UNL A   1      41.087  28.367  28.617  1.00  0.00     0.064 A 
ATOM     68  C   UNL A   1      41.969  29.224  27.923  1.00  0.00     0.173 A 
ATOM     69  C   UNL A   1      40.693  27.199  27.948  1.00  0.00     0.173 A 
ATOM     70  F   UNL A   1      42.426  30.348  28.497  1.00  0.00    -0.203 F 
ATOM     71  C   UNL A   1      42.334  28.988  26.600  1.00  0.00     0.198 A 
ATOM     72  C   UNL A   1      41.102  26.940  26.639  1.00  0.00     0.198 A 
ATOM     73  F   UNL A   1      39.827  26.339  28.499  1.00  0.00    -0.203 F 
ATOM     74  F   UNL A   1      43.064  29.896  25.938  1.00  0.00    -0.200 F 
ATOM     75  C   UNL A   1      41.887  27.852  25.953  1.00  0.00     0.200 A 
ATOM     76  F   UNL A   1      40.670  25.835  26.015  1.00  0.00    -0.200 F 
ATOM     77  F   UNL A   1      42.181  27.653  24.662  1.00  0.00    -0.200 F 
ENDBRANCH  53  67
BRANCH  54  78
ATOM     78  C   UNL A   1      39.545  34.482  37.072  1.00  0.00     0.064 A 
ATOM     79  C   UNL A   1      40.073  35.747  37.363  1.00  0.00     0.173 A 
ATOM     80  C   UNL A   1      38.912  33.854  38.185  1.00  0.00     0.173 A 
ATOM     81  F   UNL A   1      40.789  36.429  36.466  1.00  0.00    -0.203 F 
ATOM     82  C   UNL A   1      39.892  36.370  38.611  1.00  0.00     0.198 A 
ATOM     83  C   UNL A   1      38.699  34.486  39.413  1.00  0.00     0.198 A 
ATOM     84  F   UNL A   1      38.459  32.595  38.121  1.00  0.00    -0.203 F 
ATOM     85  F   UNL A   1      40.405  37.591  38.824  1.00  0.00    -0.200 F 
ATOM     86  C   UNL A   1      39.176  35.755  39.622  1.00  0.00     0.200 A 
ATOM     87  F   UNL A   1      38.009  33.855  40.373  1.00  0.00    -0.200 F 
ATOM     88  F   UNL A   1      38.957  36.377  40.788  1.00  0.00    -0.200 F 
ENDBRANCH  54  78
BRANCH  66  89
ATOM     89  C   UNL A   1      42.569  32.673  32.108  1.00  0.00     0.064 A 
ATOM     90  C   UNL A   1      43.742  33.435  32.214  1.00  0.00     0.173 A 
ATOM     91  C   UNL A   1      41.599  33.148  31.210  1.00  0.00     0.173 A 
ATOM     92  F   UNL A   1      44.721  33.042  33.043  1.00  0.00    -0.203 F 
ATOM     93  C   UNL A   1      43.921  34.608  31.475  1.00  0.00     0.198 A 
ATOM     94  C   UNL A   1      41.776  34.314  30.466  1.00  0.00     0.198 A 
ATOM     95  F   UNL A   1      40.460  32.483  31.033  1.00  0.00    -0.203 F 
ATOM     96  F   UNL A   1      45.054  35.311  31.605  1.00  0.00    -0.200 F 
ATOM     97  C   UNL A   1      42.937  35.048  30.605  1.00  0.00     0.200 A 
ATOM     98  F   UNL A   1      40.822  34.717  29.614  1.00  0.00    -0.200 F 
ATOM     99  F   UNL A   1      43.115  36.170  29.891  1.00  0.00    -0.200 F 
ENDBRANCH  66  89
ENDBRANCH  40  41
ENDBRANCH  33  35
ENDBRANCH  32  33
ENDBRANCH  31  32
ENDBRANCH  30  31
ENDBRANCH   1  30
TORSDOF 17
ENDMDL
MODEL 2
REMARK VINA RESULT:     -13.3      5.388     12.441
REMARK SMILES CN(C)S(=O)(=O)c1ccc(-n2c(CCC(=O)OCCOC(=O)c3ccc(-c4c5nc(c(-c6c(F)c(F)c(F)c(F)c6F)c6ccc([nH]6)c(-c6c(F)c(F)c(F)c(F)c6F)c6nc(c(-c7c(F)c(F)c(F)c(F)c7F)c7ccc4[nH]7)C=C6)C=C5)cc3)ccc2-c2ccc(F)cc2)cc1
REMARK SMILES IDX 17 1 15 2 16 3 14 4 13 5 12 6 11 7 88 8 86 9 87 10 10 11
REMARK SMILES IDX 7 12 8 13 97 14 9 15 96 16 4 17 5 18 6 19 2 20 1 21 3 22
REMARK SMILES IDX 89 23 90 24 95 25 91 26 94 27 92 28 93 29 18 30 19 31 20 32
REMARK SMILES IDX 21 33 22 34 23 35 24 36 85 37 25 38 84 39 26 40 27 41 28 42
REMARK SMILES IDX 78 43 29 44 83 45 77 46 79 47 30 48 82 49 76 50 75 51 31 53
REMARK SMILES IDX 63 54 43 55 62 56 44 57 47 58 61 59 80 60 45 61 46 62 60 64
REMARK SMILES IDX 81 65 48 66 32 67 33 68 41 69 34 70 35 71 39 72 42 73 36 74
REMARK SMILES IDX 37 75 40 76 38 77 64 78 65 79 73 80 66 81 67 82 71 83 74 84
REMARK SMILES IDX 68 85 69 86 72 87 70 88 49 89 50 90 58 91 51 92 52 93 56 94
REMARK SMILES IDX 59 95 53 96 54 97 57 98 55 99
REMARK H PARENT 79 52 47 63
REMARK Flexibility Score: inf
ROOT
ATOM      1  O   UNL A   1      34.285  35.018  29.546  1.00  0.00    -0.462 OA
ENDROOT
BRANCH   1   2
ATOM      2  C   UNL A   1      33.807  34.874  30.815  1.00  0.00     0.306 C 
ATOM      3  O   UNL A   1      32.765  35.385  31.211  1.00  0.00    -0.252 OA
BRANCH   2   4
ATOM      4  C   UNL A   1      34.640  33.942  31.684  1.00  0.00     0.129 C 
BRANCH   4   5
ATOM      5  C   UNL A   1      35.707  34.551  32.608  1.00  0.00     0.066 C 
BRANCH   5   6
ATOM      6  C   UNL A   1      37.102  34.222  32.193  1.00  0.00     0.024 A 
ATOM      7  N   UNL A   1      38.182  33.922  33.027  1.00  0.00    -0.314 N 
ATOM      8  C   UNL A   1      39.144  33.299  32.211  1.00  0.00     0.053 A 
ATOM      9  C   UNL A   1      37.542  34.141  30.883  1.00  0.00     0.024 A 
ATOM     10  C   UNL A   1      38.820  33.566  30.894  1.00  0.00     0.029 A 
BRANCH   7  11
ATOM     11  C   UNL A   1      38.272  34.062  34.451  1.00  0.00     0.046 A 
ATOM     12  C   UNL A   1      38.801  34.353  38.023  1.00  0.00     0.082 A 
ATOM     13  C   UNL A   1      39.596  35.515  36.908  1.00  0.00     0.024 A 
ATOM     14  C   UNL A   1      37.744  33.054  37.395  1.00  0.00     0.024 A 
ATOM     15  C   UNL A   1      39.334  35.390  35.125  1.00  0.00     0.028 A 
ATOM     16  C   UNL A   1      37.422  32.935  35.620  1.00  0.00     0.028 A 
BRANCH  12  17
ATOM     17  S   UNL A   1      38.951  34.569  39.760  1.00  0.00     0.242 S 
ATOM     18  O   UNL A   1      37.795  33.956  40.377  1.00  0.00    -0.207 OA
ATOM     19  O   UNL A   1      39.273  35.961  39.986  1.00  0.00    -0.207 OA
BRANCH  17  20
ATOM     20  N   UNL A   1      40.321  33.618  40.145  1.00  0.00    -0.204 NA
ATOM     21  C   UNL A   1      41.018  33.114  38.937  1.00  0.00     0.124 C 
ATOM     22  C   UNL A   1      41.284  34.240  41.085  1.00  0.00     0.124 C 
ENDBRANCH  17  20
ENDBRANCH  12  17
ENDBRANCH   7  11
BRANCH   8  23
ATOM     23  C   UNL A   1      40.181  32.362  32.651  1.00  0.00    -0.001 A 
ATOM     24  C   UNL A   1      39.879  31.021  32.925  1.00  0.00     0.013 A 
ATOM     25  C   UNL A   1      41.502  32.816  32.807  1.00  0.00     0.013 A 
ATOM     26  C   UNL A   1      40.898  30.133  33.281  1.00  0.00     0.040 A 
ATOM     27  C   UNL A   1      42.518  31.927  33.159  1.00  0.00     0.040 A 
ATOM     28  C   UNL A   1      42.206  30.593  33.385  1.00  0.00     0.123 A 
ATOM     29  F   UNL A   1      43.184  29.736  33.707  1.00  0.00    -0.207 F 
ENDBRANCH   8  23
ENDBRANCH   5   6
ENDBRANCH   4   5
ENDBRANCH   2   4
ENDBRANCH   1   2
BRANCH   1  30
ATOM     30  C   UNL A   1      33.918  33.976  28.602  1.00  0.00     0.274 C 
BRANCH  30  31
ATOM     31  C   UNL A   1      35.069  32.823  28.265  1.00  0.00     0.275 C 
BRANCH  31  32
ATOM     32  O   UNL A   1      35.665  31.271  29.409  1.00  0.00    -0.458 OA
BRANCH  32  33
ATOM     33  C   UNL A   1      36.296  30.561  30.438  1.00  0.00     0.338 C 
ATOM     34  O   UNL A   1      36.206  30.697  31.659  1.00  0.00    -0.246 OA
BRANCH  33  35
ATOM     35  C   UNL A   1      37.027  29.402  29.962  1.00  0.00     0.060 A 
ATOM     36  C   UNL A   1      37.848  28.793  30.925  1.00  0.00     0.016 A 
ATOM     37  C   UNL A   1      37.301  29.392  28.597  1.00  0.00     0.016 A 
ATOM     38  C   UNL A   1      39.082  28.334  30.528  1.00  0.00     0.010 A 
ATOM     39  C   UNL A   1      38.541  28.944  28.206  1.00  0.00     0.010 A 
ATOM     40  C   UNL A   1      39.443  28.500  29.189  1.00  0.00    -0.014 A 
BRANCH  40  41
ATOM     41  C   UNL A   1      40.821  28.203  28.795  1.00  0.00     0.031 A 
ATOM     42  C   UNL A   1      41.707  29.432  28.883  1.00  0.00     0.074 A 
ATOM     43  C   UNL A   1      41.061  26.899  28.469  1.00  0.00     0.049 A 
ATOM     44  N   UNL A   1      42.913  29.615  28.449  1.00  0.00    -0.248 NA
ATOM     45  C   UNL A   1      41.164  30.659  29.531  1.00  0.00     0.031 C 
ATOM     46  C   UNL A   1      40.023  25.845  28.430  1.00  0.00     0.029 A 
ATOM     47  N   UNL A   1      42.188  26.187  28.117  1.00  0.00    -0.354 N 
ATOM     48  C   UNL A   1      43.341  30.850  28.961  1.00  0.00     0.074 A 
ATOM     49  C   UNL A   1      42.193  31.502  29.511  1.00  0.00     0.031 C 
ATOM     50  C   UNL A   1      40.545  24.670  28.032  1.00  0.00     0.029 A 
ATOM     51  C   UNL A   1      41.969  24.820  27.807  1.00  0.00     0.049 A 
ATOM     52  H   UNL A   1      43.082  26.598  28.083  1.00  0.00     0.167 HD
ATOM     53  C   UNL A   1      44.653  31.196  29.048  1.00  0.00     0.037 A 
ATOM     54  C   UNL A   1      42.867  23.879  27.382  1.00  0.00     0.037 A 
ATOM     55  C   UNL A   1      45.478  30.220  28.420  1.00  0.00     0.049 A 
ATOM     56  C   UNL A   1      44.186  24.521  27.508  1.00  0.00     0.074 A 
ATOM     57  C   UNL A   1      45.716  29.913  27.106  1.00  0.00     0.029 A 
ATOM     58  N   UNL A   1      45.950  29.198  29.205  1.00  0.00    -0.354 N 
ATOM     59  N   UNL A   1      44.794  24.740  28.637  1.00  0.00    -0.248 NA
ATOM     60  C   UNL A   1      44.849  25.030  26.303  1.00  0.00     0.031 C 
ATOM     61  C   UNL A   1      46.020  28.534  27.109  1.00  0.00     0.029 A 
ATOM     62  C   UNL A   1      46.024  28.067  28.426  1.00  0.00     0.049 A 
ATOM     63  H   UNL A   1      46.192  29.263  30.157  1.00  0.00     0.167 HD
ATOM     64  C   UNL A   1      45.726  25.693  28.295  1.00  0.00     0.074 A 
ATOM     65  C   UNL A   1      45.911  25.596  26.867  1.00  0.00     0.031 C 
ATOM     66  C   UNL A   1      45.884  26.786  29.083  1.00  0.00     0.037 A 
BRANCH  53  67
ATOM     67  C   UNL A   1      45.308  32.262  29.869  1.00  0.00     0.064 A 
ATOM     68  C   UNL A   1      45.842  33.385  29.199  1.00  0.00     0.173 A 
ATOM     69  C   UNL A   1      45.724  32.068  31.195  1.00  0.00     0.173 A 
ATOM     70  F   UNL A   1      45.476  33.669  27.940  1.00  0.00    -0.203 F 
ATOM     71  C   UNL A   1      46.820  34.189  29.778  1.00  0.00     0.198 A 
ATOM     72  C   UNL A   1      46.668  32.908  31.790  1.00  0.00     0.198 A 
ATOM     73  F   UNL A   1      45.311  31.012  31.908  1.00  0.00    -0.203 F 
ATOM     74  F   UNL A   1      47.394  35.162  29.057  1.00  0.00    -0.200 F 
ATOM     75  C   UNL A   1      47.244  33.940  31.069  1.00  0.00     0.200 A 
ATOM     76  F   UNL A   1      47.074  32.665  33.044  1.00  0.00    -0.200 F 
ATOM     77  F   UNL A   1      48.231  34.669  31.606  1.00  0.00    -0.200 F 
ENDBRANCH  53  67
BRANCH  54  78
ATOM     78  C   UNL A   1      42.845  22.468  26.826  1.00  0.00     0.064 A 
ATOM     79  C   UNL A   1      43.581  21.995  25.730  1.00  0.00     0.173 A 
ATOM     80  C   UNL A   1      42.089  21.457  27.489  1.00  0.00     0.173 A 
ATOM     81  F   UNL A   1      44.261  22.823  24.935  1.00  0.00    -0.203 F 
ATOM     82  C   UNL A   1      43.640  20.629  25.396  1.00  0.00     0.198 A 
ATOM     83  C   UNL A   1      42.176  20.098  27.181  1.00  0.00     0.198 A 
ATOM     84  F   UNL A   1      41.236  21.751  28.479  1.00  0.00    -0.203 F 
ATOM     85  F   UNL A   1      44.377  20.234  24.347  1.00  0.00    -0.200 F 
ATOM     86  C   UNL A   1      42.967  19.680  26.141  1.00  0.00     0.200 A 
ATOM     87  F   UNL A   1      41.501  19.206  27.920  1.00  0.00    -0.200 F 
ATOM     88  F   UNL A   1      43.074  18.375  25.855  1.00  0.00    -0.200 F 
ENDBRANCH  54  78
BRANCH  66  89
ATOM     89  C   UNL A   1      45.437  26.562  30.512  1.00  0.00     0.064 A 
ATOM     90  C   UNL A   1      46.200  25.752  31.367  1.00  0.00     0.173 A 
ATOM     91  C   UNL A   1      44.205  27.010  31.015  1.00  0.00     0.173 A 
ATOM     92  F   UNL A   1      47.394  25.292  30.962  1.00  0.00    -0.203 F 
ATOM     93  C   UNL A   1      45.745  25.404  32.641  1.00  0.00     0.198 A 
ATOM     94  C   UNL A   1      43.750  26.671  32.289  1.00  0.00     0.198 A 
ATOM     95  F   UNL A   1      43.420  27.795  30.280  1.00  0.00    -0.203 F 
ATOM     96  F   UNL A   1      46.499  24.626  33.429  1.00  0.00    -0.200 F 
ATOM     97  C   UNL A   1      44.519  25.860  33.100  1.00  0.00     0.200 A 
ATOM     98  F   UNL A   1      42.570  27.136  32.726  1.00  0.00    -0.200 F 
ATOM     99  F   UNL A   1      44.088  25.532  34.327  1.00  0.00    -0.200 F 
ENDBRANCH  66  89
ENDBRANCH  40  41
ENDBRANCH  33  35
ENDBRANCH  32  33
ENDBRANCH  31  32
ENDBRANCH  30  31
ENDBRANCH   1  30
TORSDOF 17
ENDMDL
MODEL 3
REMARK VINA RESULT:     -13.2      2.244      7.170
REMARK SMILES CN(C)S(=O)(=O)c1ccc(-n2c(CCC(=O)OCCOC(=O)c3ccc(-c4c5nc(c(-c6c(F)c(F)c(F)c(F)c6F)c6ccc([nH]6)c(-c6c(F)c(F)c(F)c(F)c6F)c6nc(c(-c7c(F)c(F)c(F)c(F)c7F)c7ccc4[nH]7)C=C6)C=C5)cc3)ccc2-c2ccc(F)cc2)cc1
REMARK SMILES IDX 17 1 15 2 16 3 14 4 13 5 12 6 11 7 88 8 86 9 87 10 10 11
REMARK SMILES IDX 7 12 8 13 97 14 9 15 96 16 4 17 5 18 6 19 2 20 1 21 3 22
REMARK SMILES IDX 89 23 90 24 95 25 91 26 94 27 92 28 93 29 18 30 19 31 20 32
REMARK SMILES IDX 21 33 22 34 23 35 24 36 85 37 25 38 84 39 26 40 27 41 28 42
REMARK SMILES IDX 78 43 29 44 83 45 77 46 79 47 30 48 82 49 76 50 75 51 31 53
REMARK SMILES IDX 63 54 43 55 62 56 44 57 47 58 61 59 80 60 45 61 46 62 60 64
REMARK SMILES IDX 81 65 48 66 32 67 33 68 41 69 34 70 35 71 39 72 42 73 36 74
REMARK SMILES IDX 37 75 40 76 38 77 64 78 65 79 73 80 66 81 67 82 71 83 74 84
REMARK SMILES IDX 68 85 69 86 72 87 70 88 49 89 50 90 58 91 51 92 52 93 56 94
REMARK SMILES IDX 59 95 53 96 54 97 57 98 55 99
REMARK H PARENT 79 52 47 63
REMARK Flexibility Score: inf
ROOT
ATOM      1  O   UNL A   1      33.849  28.142  26.176  1.00  0.00    -0.462 OA
ENDROOT
BRANCH   1   2
ATOM      2  C   UNL A   1      32.825  27.242  26.194  1.00  0.00     0.306 C 
ATOM      3  O   UNL A   1      31.955  27.218  27.059  1.00  0.00    -0.252 OA
BRANCH   2   4
ATOM      4  C   UNL A   1      32.802  26.312  24.989  1.00  0.00     0.129 C 
BRANCH   4   5
ATOM      5  C   UNL A   1      33.910  25.256  24.848  1.00  0.00     0.066 C 
BRANCH   5   6
ATOM      6  C   UNL A   1      33.438  23.988  24.221  1.00  0.00     0.024 A 
ATOM      7  N   UNL A   1      34.039  22.730  24.305  1.00  0.00    -0.314 N 
ATOM      8  C   UNL A   1      33.056  21.801  23.920  1.00  0.00     0.053 A 
ATOM      9  C   UNL A   1      32.289  23.859  23.458  1.00  0.00     0.024 A 
ATOM     10  C   UNL A   1      32.052  22.491  23.268  1.00  0.00     0.029 A 
BRANCH   7  11
ATOM     11  C   UNL A   1      35.336  22.396  24.819  1.00  0.00     0.046 A 
ATOM     12  C   UNL A   1      38.725  21.770  25.932  1.00  0.00     0.082 A 
ATOM     13  C   UNL A   1      37.958  23.358  26.269  1.00  0.00     0.024 A 
ATOM     14  C   UNL A   1      37.837  20.485  25.059  1.00  0.00     0.024 A 
ATOM     15  C   UNL A   1      36.265  23.682  25.729  1.00  0.00     0.028 A 
ATOM     16  C   UNL A   1      36.124  20.763  24.552  1.00  0.00     0.028 A 
BRANCH  12  17
ATOM     17  S   UNL A   1      40.319  21.416  26.582  1.00  0.00     0.242 S 
ATOM     18  O   UNL A   1      40.712  20.114  26.090  1.00  0.00    -0.207 OA
ATOM     19  O   UNL A   1      40.268  21.699  28.000  1.00  0.00    -0.207 OA
BRANCH  17  20
ATOM     20  N   UNL A   1      41.309  22.589  25.823  1.00  0.00    -0.204 NA
ATOM     21  C   UNL A   1      41.400  23.845  26.606  1.00  0.00     0.124 C 
ATOM     22  C   UNL A   1      42.657  22.122  25.422  1.00  0.00     0.124 C 
ENDBRANCH  17  20
ENDBRANCH  12  17
ENDBRANCH   7  11
BRANCH   8  23
ATOM     23  C   UNL A   1      32.991  20.390  24.314  1.00  0.00    -0.001 A 
ATOM     24  C   UNL A   1      32.968  20.014  25.664  1.00  0.00     0.013 A 
ATOM     25  C   UNL A   1      32.957  19.396  23.322  1.00  0.00     0.013 A 
ATOM     26  C   UNL A   1      32.842  18.667  26.012  1.00  0.00     0.040 A 
ATOM     27  C   UNL A   1      32.827  18.052  23.672  1.00  0.00     0.040 A 
ATOM     28  C   UNL A   1      32.763  17.701  25.014  1.00  0.00     0.123 A 
ATOM     29  F   UNL A   1      32.622  16.413  25.349  1.00  0.00    -0.207 F 
ENDBRANCH   8  23
ENDBRANCH   5   6
ENDBRANCH   4   5
ENDBRANCH   2   4
ENDBRANCH   1   2
BRANCH   1  30
ATOM     30  C   UNL A   1      33.853  29.128  27.244  1.00  0.00     0.274 C 
BRANCH  30  31
ATOM     31  C   UNL A   1      33.417  30.682  26.836  1.00  0.00     0.275 C 
BRANCH  31  32
ATOM     32  O   UNL A   1      33.707  32.383  27.882  1.00  0.00    -0.458 OA
BRANCH  32  33
ATOM     33  C   UNL A   1      33.421  33.555  28.593  1.00  0.00     0.338 C 
ATOM     34  O   UNL A   1      32.683  34.495  28.298  1.00  0.00    -0.246 OA
BRANCH  33  35
ATOM     35  C   UNL A   1      33.963  33.548  29.940  1.00  0.00     0.060 A 
ATOM     36  C   UNL A   1      34.191  34.822  30.484  1.00  0.00     0.016 A 
ATOM     37  C   UNL A   1      34.712  32.422  30.272  1.00  0.00     0.016 A 
ATOM     38  C   UNL A   1      35.328  35.014  31.232  1.00  0.00     0.010 A 
ATOM     39  C   UNL A   1      35.855  32.621  31.010  1.00  0.00     0.010 A 
ATOM     40  C   UNL A   1      36.188  33.927  31.407  1.00  0.00    -0.014 A 
BRANCH  40  41
ATOM     41  C   UNL A   1      37.494  34.163  32.025  1.00  0.00     0.031 A 
ATOM     42  C   UNL A   1      37.405  34.164  33.540  1.00  0.00     0.074 A 
ATOM     43  C   UNL A   1      38.533  34.293  31.149  1.00  0.00     0.049 A 
ATOM     44  N   UNL A   1      38.288  34.517  34.419  1.00  0.00    -0.248 NA
ATOM     45  C   UNL A   1      36.133  33.731  34.181  1.00  0.00     0.031 C 
ATOM     46  C   UNL A   1      38.389  34.279  29.676  1.00  0.00     0.029 A 
ATOM     47  N   UNL A   1      39.896  34.453  31.290  1.00  0.00    -0.354 N 
ATOM     48  C   UNL A   1      37.779  34.138  35.672  1.00  0.00     0.074 A 
ATOM     49  C   UNL A   1      36.409  33.777  35.482  1.00  0.00     0.031 C 
ATOM     50  C   UNL A   1      39.578  34.474  29.075  1.00  0.00     0.029 A 
ATOM     51  C   UNL A   1      40.618  34.597  30.076  1.00  0.00     0.049 A 
ATOM     52  H   UNL A   1      40.337  34.466  32.170  1.00  0.00     0.167 HD
ATOM     53  C   UNL A   1      38.566  33.989  36.771  1.00  0.00     0.037 A 
ATOM     54  C   UNL A   1      41.955  34.818  29.891  1.00  0.00     0.037 A 
ATOM     55  C   UNL A   1      39.898  34.412  36.503  1.00  0.00     0.049 A 
ATOM     56  C   UNL A   1      42.558  34.668  31.227  1.00  0.00     0.074 A 
ATOM     57  C   UNL A   1      40.466  35.649  36.349  1.00  0.00     0.029 A 
ATOM     58  N   UNL A   1      40.779  33.463  36.048  1.00  0.00    -0.354 N 
ATOM     59  N   UNL A   1      42.726  33.532  31.836  1.00  0.00    -0.248 NA
ATOM     60  C   UNL A   1      42.933  35.871  31.978  1.00  0.00     0.031 C 
ATOM     61  C   UNL A   1      41.553  35.440  35.472  1.00  0.00     0.029 A 
ATOM     62  C   UNL A   1      41.650  34.076  35.179  1.00  0.00     0.049 A 
ATOM     63  H   UNL A   1      40.785  32.511  36.299  1.00  0.00     0.167 HD
ATOM     64  C   UNL A   1      42.907  33.917  33.145  1.00  0.00     0.074 A 
ATOM     65  C   UNL A   1      43.320  35.300  33.114  1.00  0.00     0.031 C 
ATOM     66  C   UNL A   1      42.237  33.271  34.131  1.00  0.00     0.037 A 
BRANCH  53  67
ATOM     67  C   UNL A   1      38.292  33.264  38.052  1.00  0.00     0.064 A 
ATOM     68  C   UNL A   1      37.794  31.945  37.976  1.00  0.00     0.173 A 
ATOM     69  C   UNL A   1      38.175  33.907  39.292  1.00  0.00     0.173 A 
ATOM     70  F   UNL A   1      37.893  31.239  36.839  1.00  0.00    -0.203 F 
ATOM     71  C   UNL A   1      37.114  31.355  39.037  1.00  0.00     0.198 A 
ATOM     72  C   UNL A   1      37.537  33.292  40.371  1.00  0.00     0.198 A 
ATOM     73  F   UNL A   1      38.577  35.173  39.462  1.00  0.00    -0.203 F 
ATOM     74  F   UNL A   1      36.542  30.153  38.876  1.00  0.00    -0.200 F 
ATOM     75  C   UNL A   1      36.972  32.035  40.231  1.00  0.00     0.200 A 
ATOM     76  F   UNL A   1      37.404  33.955  41.529  1.00  0.00    -0.200 F 
ATOM     77  F   UNL A   1      36.262  31.499  41.232  1.00  0.00    -0.200 F 
ENDBRANCH  53  67
BRANCH  54  78
ATOM     78  C   UNL A   1      42.893  35.183  28.756  1.00  0.00     0.064 A 
ATOM     79  C   UNL A   1      43.021  36.444  28.156  1.00  0.00     0.173 A 
ATOM     80  C   UNL A   1      43.819  34.217  28.265  1.00  0.00     0.173 A 
ATOM     81  F   UNL A   1      42.167  37.434  28.422  1.00  0.00    -0.203 F 
ATOM     82  C   UNL A   1      44.043  36.739  27.236  1.00  0.00     0.198 A 
ATOM     83  C   UNL A   1      44.857  34.518  27.380  1.00  0.00     0.198 A 
ATOM     84  F   UNL A   1      43.762  32.932  28.639  1.00  0.00    -0.203 F 
ATOM     85  F   UNL A   1      44.126  37.969  26.709  1.00  0.00    -0.200 F 
ATOM     86  C   UNL A   1      44.980  35.788  26.876  1.00  0.00     0.200 A 
ATOM     87  F   UNL A   1      45.741  33.568  27.045  1.00  0.00    -0.200 F 
ATOM     88  F   UNL A   1      45.985  36.091  26.044  1.00  0.00    -0.200 F 
ENDBRANCH  54  78
BRANCH  66  89
ATOM     89  C   UNL A   1      41.820  31.867  33.748  1.00  0.00     0.064 A 
ATOM     90  C   UNL A   1      42.784  30.854  33.635  1.00  0.00     0.173 A 
ATOM     91  C   UNL A   1      40.515  31.530  33.353  1.00  0.00     0.173 A 
ATOM     92  F   UNL A   1      44.052  31.096  34.001  1.00  0.00    -0.203 F 
ATOM     93  C   UNL A   1      42.458  29.587  33.142  1.00  0.00     0.198 A 
ATOM     94  C   UNL A   1      40.184  30.264  32.868  1.00  0.00     0.198 A 
ATOM     95  F   UNL A   1      39.531  32.422  33.439  1.00  0.00    -0.203 F 
ATOM     96  F   UNL A   1      43.407  28.646  33.046  1.00  0.00    -0.200 F 
ATOM     97  C   UNL A   1      41.160  29.294  32.756  1.00  0.00     0.200 A 
ATOM     98  F   UNL A   1      38.919  29.991  32.515  1.00  0.00    -0.200 F 
ATOM     99  F   UNL A   1      40.849  28.075  32.291  1.00  0.00    -0.200 F 
ENDBRANCH  66  89
ENDBRANCH  40  41
ENDBRANCH  33  35
ENDBRANCH  32  33
ENDBRANCH  31  32
ENDBRANCH  30  31
ENDBRANCH   1  30
TORSDOF 17
ENDMDL
