MODEL 1
REMARK VINA RESULT:     -11.0      0.000      0.000
REMARK SMILES C[C@@H](NC(=O)N1CC[N@@H+]2CCCC[C@H]2C1)C(=O)OCCOC(=O)c1ccc(-c2c3nc(c(-c4c(F)c(F)c(F)c(F)c4F)c4ccc([nH]4)c(-c4c(F)c(F)c(F)c(F)c4F)c4nc(c(-c5c(F)c(F)c(F)c(F)c5F)c5ccc2[nH]5)C=C4)C=C3)cc1
REMARK SMILES IDX 19 1 18 2 16 3 17 4 2 5 1 6 3 7 4 8 5 10 6 11 7 12 15 13
REMARK SMILES IDX 8 14 14 15 9 16 13 17 10 18 12 20 11 21 20 22 21 23 22 24
REMARK SMILES IDX 23 25 24 26 25 27 86 28 26 29 85 30 27 31 28 32 29 33 79 34
REMARK SMILES IDX 30 35 84 36 78 37 80 38 31 39 83 40 77 41 76 42 32 44 64 45
REMARK SMILES IDX 44 46 63 47 45 48 48 49 62 50 81 51 46 52 47 53 61 55 82 56
REMARK SMILES IDX 49 57 33 58 34 59 42 60 35 61 36 62 40 63 43 64 37 65 38 66
REMARK SMILES IDX 41 67 39 68 65 69 66 70 74 71 67 72 68 73 72 74 75 75 69 76
REMARK SMILES IDX 70 77 73 78 71 79 50 80 51 81 59 82 52 83 53 84 57 85 60 86
REMARK SMILES IDX 54 87 55 88 58 89 56 90
REMARK H PARENT 3 9 9 19 80 43 48 54
REMARK Flexibility Score: inf
ROOT
ATOM      1  C   UNL A   1      33.784  34.479  28.334  1.00  0.00     0.274 C 
ENDROOT
BRANCH   1   2
ATOM      2  O   UNL A   1      32.745  35.225  28.995  1.00  0.00    -0.461 OA
BRANCH   2   3
ATOM      3  C   UNL A   1      33.153  36.344  29.658  1.00  0.00     0.328 C 
ATOM      4  O   UNL A   1      33.262  37.450  29.139  1.00  0.00    -0.250 OA
BRANCH   3   5
ATOM      5  C   UNL A   1      33.505  36.106  31.133  1.00  0.00     0.190 C 
ATOM      6  C   UNL A   1      32.918  37.190  32.037  1.00  0.00     0.043 C 
BRANCH   5   7
ATOM      7  N   UNL A   1      33.257  34.782  31.726  1.00  0.00    -0.325 N 
ATOM      8  C   UNL A   1      34.007  34.033  32.578  1.00  0.00     0.318 C 
ATOM      9  H   UNL A   1      32.405  34.369  31.461  1.00  0.00     0.166 HD
ATOM     10  O   UNL A   1      33.453  33.207  33.298  1.00  0.00    -0.249 OA
BRANCH   8  11
ATOM     11  N   UNL A   1      35.362  34.089  32.418  1.00  0.00    -0.313 N 
ATOM     12  C   UNL A   1      36.233  33.821  33.560  1.00  0.00     0.183 C 
ATOM     13  C   UNL A   1      35.886  33.483  31.200  1.00  0.00     0.186 C 
ATOM     14  C   UNL A   1      37.693  34.272  33.292  1.00  0.00     0.284 C 
ATOM     15  C   UNL A   1      37.252  34.100  30.873  1.00  0.00     0.203 C 
ATOM     16  N   UNL A   1      38.246  33.916  31.960  1.00  0.00    -0.330 N 
ATOM     17  C   UNL A   1      37.831  33.535  29.575  1.00  0.00     0.067 C 
ATOM     18  C   UNL A   1      39.467  34.691  31.680  1.00  0.00     0.262 C 
ATOM     19  H   UNL A   1      38.482  32.924  31.988  1.00  0.00     0.348 HD
ATOM     20  C   UNL A   1      39.064  34.344  29.184  1.00  0.00     0.012 C 
ATOM     21  C   UNL A   1      40.085  34.358  30.318  1.00  0.00     0.062 C 
ENDBRANCH   8  11
ENDBRANCH   5   7
ENDBRANCH   3   5
ENDBRANCH   2   3
ENDBRANCH   1   2
BRANCH   1  22
ATOM     22  C   UNL A   1      33.598  32.961  28.260  1.00  0.00     0.275 C 
BRANCH  22  23
ATOM     23  O   UNL A   1      34.845  32.257  28.155  1.00  0.00    -0.458 OA
BRANCH  23  24
ATOM     24  C   UNL A   1      34.709  30.938  27.898  1.00  0.00     0.338 C 
ATOM     25  O   UNL A   1      33.745  30.389  27.377  1.00  0.00    -0.246 OA
BRANCH  24  26
ATOM     26  C   UNL A   1      35.962  30.221  28.180  1.00  0.00     0.060 A 
ATOM     27  C   UNL A   1      36.096  29.652  29.454  1.00  0.00     0.016 A 
ATOM     28  C   UNL A   1      37.009  30.158  27.259  1.00  0.00     0.016 A 
ATOM     29  C   UNL A   1      37.289  29.051  29.831  1.00  0.00     0.010 A 
ATOM     30  C   UNL A   1      38.217  29.572  27.644  1.00  0.00     0.010 A 
ATOM     31  C   UNL A   1      38.367  29.046  28.941  1.00  0.00    -0.014 A 
BRANCH  31  32
ATOM     32  C   UNL A   1      39.701  28.632  29.421  1.00  0.00     0.031 A 
ATOM     33  C   UNL A   1      40.433  29.540  30.366  1.00  0.00     0.074 A 
ATOM     34  C   UNL A   1      40.233  27.464  29.024  1.00  0.00     0.049 A 
ATOM     35  N   UNL A   1      41.652  29.447  30.828  1.00  0.00    -0.248 NA
ATOM     36  C   UNL A   1      39.690  30.713  30.856  1.00  0.00     0.031 C 
ATOM     37  C   UNL A   1      39.575  26.490  28.155  1.00  0.00     0.029 A 
ATOM     38  N   UNL A   1      41.460  26.911  29.285  1.00  0.00    -0.354 N 
ATOM     39  C   UNL A   1      41.828  30.559  31.643  1.00  0.00     0.074 A 
ATOM     40  C   UNL A   1      40.597  31.315  31.611  1.00  0.00     0.031 C 
ATOM     41  C   UNL A   1      40.421  25.471  27.926  1.00  0.00     0.029 A 
ATOM     42  C   UNL A   1      41.688  25.744  28.598  1.00  0.00     0.049 A 
ATOM     43  H   UNL A   1      42.112  27.310  29.905  1.00  0.00     0.167 HD
ATOM     44  C   UNL A   1      42.928  30.910  32.348  1.00  0.00     0.037 A 
ATOM     45  C   UNL A   1      42.813  25.012  28.494  1.00  0.00     0.037 A 
ATOM     46  C   UNL A   1      44.140  30.137  32.377  1.00  0.00     0.049 A 
ATOM     47  C   UNL A   1      44.044  25.464  29.236  1.00  0.00     0.074 A 
ATOM     48  C   UNL A   1      45.300  30.377  33.089  1.00  0.00     0.029 A 
ATOM     49  N   UNL A   1      44.344  28.973  31.652  1.00  0.00    -0.354 N 
ATOM     50  N   UNL A   1      44.202  26.503  30.022  1.00  0.00    -0.248 NA
ATOM     51  C   UNL A   1      45.257  24.650  29.070  1.00  0.00     0.031 C 
ATOM     52  C   UNL A   1      46.226  29.383  32.756  1.00  0.00     0.029 A 
ATOM     53  C   UNL A   1      45.627  28.501  31.870  1.00  0.00     0.049 A 
ATOM     54  H   UNL A   1      43.676  28.545  31.067  1.00  0.00     0.167 HD
ATOM     55  C   UNL A   1      45.521  26.462  30.451  1.00  0.00     0.074 A 
ATOM     56  C   UNL A   1      46.116  25.282  29.858  1.00  0.00     0.031 C 
ATOM     57  C   UNL A   1      46.187  27.324  31.260  1.00  0.00     0.037 A 
BRANCH  44  58
ATOM     58  C   UNL A   1      42.887  32.196  33.116  1.00  0.00     0.064 A 
ATOM     59  C   UNL A   1      43.129  33.432  32.500  1.00  0.00     0.173 A 
ATOM     60  C   UNL A   1      42.548  32.195  34.477  1.00  0.00     0.173 A 
ATOM     61  F   UNL A   1      43.473  33.486  31.204  1.00  0.00    -0.203 F 
ATOM     62  C   UNL A   1      43.041  34.620  33.222  1.00  0.00     0.198 A 
ATOM     63  C   UNL A   1      42.440  33.384  35.190  1.00  0.00     0.198 A 
ATOM     64  F   UNL A   1      42.310  31.037  35.112  1.00  0.00    -0.203 F 
ATOM     65  F   UNL A   1      43.303  35.789  32.621  1.00  0.00    -0.200 F 
ATOM     66  C   UNL A   1      42.689  34.596  34.564  1.00  0.00     0.200 A 
ATOM     67  F   UNL A   1      42.092  33.359  36.485  1.00  0.00    -0.200 F 
ATOM     68  F   UNL A   1      42.593  35.741  35.254  1.00  0.00    -0.200 F 
ENDBRANCH  44  58
BRANCH  45  69
ATOM     69  C   UNL A   1      42.849  23.816  27.611  1.00  0.00     0.064 A 
ATOM     70  C   UNL A   1      43.182  23.922  26.255  1.00  0.00     0.173 A 
ATOM     71  C   UNL A   1      42.520  22.544  28.103  1.00  0.00     0.173 A 
ATOM     72  F   UNL A   1      43.476  25.121  25.730  1.00  0.00    -0.203 F 
ATOM     73  C   UNL A   1      43.167  22.805  25.420  1.00  0.00     0.198 A 
ATOM     74  C   UNL A   1      42.534  21.423  27.274  1.00  0.00     0.198 A 
ATOM     75  F   UNL A   1      42.187  22.386  29.393  1.00  0.00    -0.203 F 
ATOM     76  F   UNL A   1      43.439  22.945  24.115  1.00  0.00    -0.200 F 
ATOM     77  C   UNL A   1      42.848  21.557  25.931  1.00  0.00     0.200 A 
ATOM     78  F   UNL A   1      42.234  20.218  27.776  1.00  0.00    -0.200 F 
ATOM     79  F   UNL A   1      42.831  20.485  25.128  1.00  0.00    -0.200 F 
ENDBRANCH  45  69
BRANCH  57  80
ATOM     80  C   UNL A   1      47.625  27.015  31.548  1.00  0.00     0.064 A 
ATOM     81  C   UNL A   1      47.988  26.114  32.558  1.00  0.00     0.173 A 
ATOM     82  C   UNL A   1      48.645  27.584  30.771  1.00  0.00     0.173 A 
ATOM     83  F   UNL A   1      47.047  25.558  33.336  1.00  0.00    -0.203 F 
ATOM     84  C   UNL A   1      49.324  25.806  32.793  1.00  0.00     0.198 A 
ATOM     85  C   UNL A   1      49.978  27.253  30.990  1.00  0.00     0.198 A 
ATOM     86  F   UNL A   1      48.346  28.446  29.787  1.00  0.00    -0.203 F 
ATOM     87  F   UNL A   1      49.653  24.971  33.788  1.00  0.00    -0.200 F 
ATOM     88  C   UNL A   1      50.318  26.369  32.004  1.00  0.00     0.200 A 
ATOM     89  F   UNL A   1      50.936  27.786  30.219  1.00  0.00    -0.200 F 
ATOM     90  F   UNL A   1      51.603  26.063  32.224  1.00  0.00    -0.200 F 
ENDBRANCH  57  80
ENDBRANCH  31  32
ENDBRANCH  24  26
ENDBRANCH  23  24
ENDBRANCH  22  23
ENDBRANCH   1  22
TORSDOF 13
ENDMDL
MODEL 2
REMARK VINA RESULT:     -11.0      4.441      9.852
REMARK SMILES C[C@@H](NC(=O)N1CC[N@@H+]2CCCC[C@H]2C1)C(=O)OCCOC(=O)c1ccc(-c2c3nc(c(-c4c(F)c(F)c(F)c(F)c4F)c4ccc([nH]4)c(-c4c(F)c(F)c(F)c(F)c4F)c4nc(c(-c5c(F)c(F)c(F)c(F)c5F)c5ccc2[nH]5)C=C4)C=C3)cc1
REMARK SMILES IDX 19 1 18 2 16 3 17 4 2 5 1 6 3 7 4 8 5 10 6 11 7 12 15 13
REMARK SMILES IDX 8 14 14 15 9 16 13 17 10 18 12 20 11 21 20 22 21 23 22 24
REMARK SMILES IDX 23 25 24 26 25 27 86 28 26 29 85 30 27 31 28 32 29 33 79 34
REMARK SMILES IDX 30 35 84 36 78 37 80 38 31 39 83 40 77 41 76 42 32 44 64 45
REMARK SMILES IDX 44 46 63 47 45 48 48 49 62 50 81 51 46 52 47 53 61 55 82 56
REMARK SMILES IDX 49 57 33 58 34 59 42 60 35 61 36 62 40 63 43 64 37 65 38 66
REMARK SMILES IDX 41 67 39 68 65 69 66 70 74 71 67 72 68 73 72 74 75 75 69 76
REMARK SMILES IDX 70 77 73 78 71 79 50 80 51 81 59 82 52 83 53 84 57 85 60 86
REMARK SMILES IDX 54 87 55 88 58 89 56 90
REMARK H PARENT 3 9 9 19 80 43 48 54
REMARK Flexibility Score: inf
ROOT
ATOM      1  C   UNL A   1      32.420  29.412  24.711  1.00  0.00     0.274 C 
ENDROOT
BRANCH   1   2
ATOM      2  O   UNL A   1      32.588  28.042  25.121  1.00  0.00    -0.461 OA
BRANCH   2   3
ATOM      3  C   UNL A   1      31.467  27.270  25.072  1.00  0.00     0.328 C 
ATOM      4  O   UNL A   1      30.790  26.976  26.052  1.00  0.00    -0.250 OA
BRANCH   3   5
ATOM      5  C   UNL A   1      31.121  26.755  23.668  1.00  0.00     0.190 C 
ATOM      6  C   UNL A   1      29.896  27.467  23.091  1.00  0.00     0.043 C 
BRANCH   5   7
ATOM      7  N   UNL A   1      32.178  26.685  22.647  1.00  0.00    -0.325 N 
ATOM      8  C   UNL A   1      32.776  25.618  22.055  1.00  0.00     0.318 C 
ATOM      9  H   UNL A   1      32.508  27.561  22.341  1.00  0.00     0.166 HD
ATOM     10  O   UNL A   1      33.278  25.750  20.943  1.00  0.00    -0.249 OA
BRANCH   8  11
ATOM     11  N   UNL A   1      32.980  24.515  22.835  1.00  0.00    -0.313 N 
ATOM     12  C   UNL A   1      32.967  23.188  22.223  1.00  0.00     0.183 C 
ATOM     13  C   UNL A   1      34.035  24.626  23.834  1.00  0.00     0.186 C 
ATOM     14  C   UNL A   1      32.856  22.063  23.284  1.00  0.00     0.284 C 
ATOM     15  C   UNL A   1      33.777  23.617  24.960  1.00  0.00     0.203 C 
ATOM     16  N   UNL A   1      33.723  22.214  24.480  1.00  0.00    -0.330 N 
ATOM     17  C   UNL A   1      34.830  23.721  26.065  1.00  0.00     0.067 C 
ATOM     18  C   UNL A   1      33.280  21.316  25.560  1.00  0.00     0.262 C 
ATOM     19  H   UNL A   1      34.669  21.954  24.201  1.00  0.00     0.348 HD
ATOM     20  C   UNL A   1      34.395  22.868  27.252  1.00  0.00     0.012 C 
ATOM     21  C   UNL A   1      34.146  21.425  26.820  1.00  0.00     0.062 C 
ENDBRANCH   8  11
ENDBRANCH   5   7
ENDBRANCH   3   5
ENDBRANCH   2   3
ENDBRANCH   1   2
BRANCH   1  22
ATOM     22  C   UNL A   1      31.777  30.358  25.728  1.00  0.00     0.275 C 
BRANCH  22  23
ATOM     23  O   UNL A   1      32.456  30.352  26.993  1.00  0.00    -0.458 OA
BRANCH  23  24
ATOM     24  C   UNL A   1      33.116  31.498  27.266  1.00  0.00     0.338 C 
ATOM     25  O   UNL A   1      32.652  32.632  27.251  1.00  0.00    -0.246 OA
BRANCH  24  26
ATOM     26  C   UNL A   1      34.473  31.214  27.757  1.00  0.00     0.060 A 
ATOM     27  C   UNL A   1      34.773  29.879  28.062  1.00  0.00     0.016 A 
ATOM     28  C   UNL A   1      35.411  32.223  27.983  1.00  0.00     0.016 A 
ATOM     29  C   UNL A   1      35.996  29.548  28.629  1.00  0.00     0.010 A 
ATOM     30  C   UNL A   1      36.634  31.893  28.572  1.00  0.00     0.010 A 
ATOM     31  C   UNL A   1      36.914  30.560  28.923  1.00  0.00    -0.014 A 
BRANCH  31  32
ATOM     32  C   UNL A   1      38.101  30.244  29.743  1.00  0.00     0.031 A 
ATOM     33  C   UNL A   1      39.125  29.300  29.181  1.00  0.00     0.074 A 
ATOM     34  C   UNL A   1      38.258  30.802  30.954  1.00  0.00     0.049 A 
ATOM     35  N   UNL A   1      40.181  28.786  29.754  1.00  0.00    -0.248 NA
ATOM     36  C   UNL A   1      38.928  28.875  27.785  1.00  0.00     0.031 C 
ATOM     37  C   UNL A   1      37.349  31.774  31.559  1.00  0.00     0.029 A 
ATOM     38  N   UNL A   1      39.231  30.612  31.902  1.00  0.00    -0.354 N 
ATOM     39  C   UNL A   1      40.761  27.963  28.797  1.00  0.00     0.074 A 
ATOM     40  C   UNL A   1      39.942  28.039  27.610  1.00  0.00     0.031 C 
ATOM     41  C   UNL A   1      37.789  32.070  32.794  1.00  0.00     0.029 A 
ATOM     42  C   UNL A   1      38.984  31.279  33.076  1.00  0.00     0.049 A 
ATOM     43  H   UNL A   1      40.028  30.053  31.754  1.00  0.00     0.167 HD
ATOM     44  C   UNL A   1      41.880  27.210  28.912  1.00  0.00     0.037 A 
ATOM     45  C   UNL A   1      39.630  31.215  34.256  1.00  0.00     0.037 A 
ATOM     46  C   UNL A   1      42.690  27.158  30.099  1.00  0.00     0.049 A 
ATOM     47  C   UNL A   1      40.833  30.315  34.375  1.00  0.00     0.074 A 
ATOM     48  C   UNL A   1      43.865  26.460  30.312  1.00  0.00     0.029 A 
ATOM     49  N   UNL A   1      42.398  27.828  31.277  1.00  0.00    -0.354 N 
ATOM     50  N   UNL A   1      41.392  29.554  33.464  1.00  0.00    -0.248 NA
ATOM     51  C   UNL A   1      41.490  30.255  35.689  1.00  0.00     0.031 C 
ATOM     52  C   UNL A   1      44.258  26.671  31.638  1.00  0.00     0.029 A 
ATOM     53  C   UNL A   1      43.351  27.533  32.236  1.00  0.00     0.049 A 
ATOM     54  H   UNL A   1      41.626  28.425  31.413  1.00  0.00     0.167 HD
ATOM     55  C   UNL A   1      42.467  28.937  34.087  1.00  0.00     0.074 A 
ATOM     56  C   UNL A   1      42.498  29.429  35.449  1.00  0.00     0.031 C 
ATOM     57  C   UNL A   1      43.350  28.038  33.583  1.00  0.00     0.037 A 
BRANCH  44  58
ATOM     58  C   UNL A   1      42.274  26.358  27.744  1.00  0.00     0.064 A 
ATOM     59  C   UNL A   1      43.277  26.752  26.847  1.00  0.00     0.173 A 
ATOM     60  C   UNL A   1      41.675  25.104  27.552  1.00  0.00     0.173 A 
ATOM     61  F   UNL A   1      43.869  27.949  26.978  1.00  0.00    -0.203 F 
ATOM     62  C   UNL A   1      43.660  25.924  25.795  1.00  0.00     0.198 A 
ATOM     63  C   UNL A   1      42.074  24.270  26.513  1.00  0.00     0.198 A 
ATOM     64  F   UNL A   1      40.709  24.683  28.383  1.00  0.00    -0.203 F 
ATOM     65  F   UNL A   1      44.601  26.330  24.931  1.00  0.00    -0.200 F 
ATOM     66  C   UNL A   1      43.064  24.681  25.633  1.00  0.00     0.200 A 
ATOM     67  F   UNL A   1      41.503  23.066  26.364  1.00  0.00    -0.200 F 
ATOM     68  F   UNL A   1      43.443  23.880  24.627  1.00  0.00    -0.200 F 
ENDBRANCH  44  58
BRANCH  45  69
ATOM     69  C   UNL A   1      39.122  31.973  35.430  1.00  0.00     0.064 A 
ATOM     70  C   UNL A   1      39.475  33.312  35.641  1.00  0.00     0.173 A 
ATOM     71  C   UNL A   1      38.294  31.360  36.383  1.00  0.00     0.173 A 
ATOM     72  F   UNL A   1      40.288  33.933  34.773  1.00  0.00    -0.203 F 
ATOM     73  C   UNL A   1      39.036  34.004  36.769  1.00  0.00     0.198 A 
ATOM     74  C   UNL A   1      37.832  32.061  37.495  1.00  0.00     0.198 A 
ATOM     75  F   UNL A   1      37.930  30.078  36.233  1.00  0.00    -0.203 F 
ATOM     76  F   UNL A   1      39.433  35.267  36.972  1.00  0.00    -0.200 F 
ATOM     77  C   UNL A   1      38.211  33.379  37.692  1.00  0.00     0.200 A 
ATOM     78  F   UNL A   1      37.027  31.456  38.379  1.00  0.00    -0.200 F 
ATOM     79  F   UNL A   1      37.792  34.044  38.777  1.00  0.00    -0.200 F 
ENDBRANCH  45  69
BRANCH  57  80
ATOM     80  C   UNL A   1      44.418  27.539  34.509  1.00  0.00     0.064 A 
ATOM     81  C   UNL A   1      44.255  26.352  35.236  1.00  0.00     0.173 A 
ATOM     82  C   UNL A   1      45.635  28.225  34.626  1.00  0.00     0.173 A 
ATOM     83  F   UNL A   1      43.100  25.671  35.166  1.00  0.00    -0.203 F 
ATOM     84  C   UNL A   1      45.267  25.878  36.063  1.00  0.00     0.198 A 
ATOM     85  C   UNL A   1      46.656  27.734  35.434  1.00  0.00     0.198 A 
ATOM     86  F   UNL A   1      45.841  29.362  33.944  1.00  0.00    -0.203 F 
ATOM     87  F   UNL A   1      45.077  24.761  36.780  1.00  0.00    -0.200 F 
ATOM     88  C   UNL A   1      46.470  26.564  36.155  1.00  0.00     0.200 A 
ATOM     89  F   UNL A   1      47.822  28.390  35.512  1.00  0.00    -0.200 F 
ATOM     90  F   UNL A   1      47.448  26.100  36.945  1.00  0.00    -0.200 F 
ENDBRANCH  57  80
ENDBRANCH  31  32
ENDBRANCH  24  26
ENDBRANCH  23  24
ENDBRANCH  22  23
ENDBRANCH   1  22
TORSDOF 13
ENDMDL
MODEL 3
REMARK VINA RESULT:     -10.9      5.428      9.038
REMARK SMILES C[C@@H](NC(=O)N1CC[N@@H+]2CCCC[C@H]2C1)C(=O)OCCOC(=O)c1ccc(-c2c3nc(c(-c4c(F)c(F)c(F)c(F)c4F)c4ccc([nH]4)c(-c4c(F)c(F)c(F)c(F)c4F)c4nc(c(-c5c(F)c(F)c(F)c(F)c5F)c5ccc2[nH]5)C=C4)C=C3)cc1
REMARK SMILES IDX 19 1 18 2 16 3 17 4 2 5 1 6 3 7 4 8 5 10 6 11 7 12 15 13
REMARK SMILES IDX 8 14 14 15 9 16 13 17 10 18 12 20 11 21 20 22 21 23 22 24
REMARK SMILES IDX 23 25 24 26 25 27 86 28 26 29 85 30 27 31 28 32 29 33 79 34
REMARK SMILES IDX 30 35 84 36 78 37 80 38 31 39 83 40 77 41 76 42 32 44 64 45
REMARK SMILES IDX 44 46 63 47 45 48 48 49 62 50 81 51 46 52 47 53 61 55 82 56
REMARK SMILES IDX 49 57 33 58 34 59 42 60 35 61 36 62 40 63 43 64 37 65 38 66
REMARK SMILES IDX 41 67 39 68 65 69 66 70 74 71 67 72 68 73 72 74 75 75 69 76
REMARK SMILES IDX 70 77 73 78 71 79 50 80 51 81 59 82 52 83 53 84 57 85 60 86
REMARK SMILES IDX 54 87 55 88 58 89 56 90
REMARK H PARENT 3 9 9 19 80 43 48 54
REMARK Flexibility Score: inf
ROOT
ATOM      1  C   UNL A   1      35.702  20.147  24.999  1.00  0.00     0.274 C 
ENDROOT
BRANCH   1   2
ATOM      2  O   UNL A   1      34.777  21.247  25.080  1.00  0.00    -0.461 OA
BRANCH   2   3
ATOM      3  C   UNL A   1      33.709  21.060  25.906  1.00  0.00     0.328 C 
ATOM      4  O   UNL A   1      32.811  20.251  25.697  1.00  0.00    -0.250 OA
BRANCH   3   5
ATOM      5  C   UNL A   1      33.697  21.980  27.134  1.00  0.00     0.190 C 
ATOM      6  C   UNL A   1      34.729  23.102  27.012  1.00  0.00     0.043 C 
BRANCH   5   7
ATOM      7  N   UNL A   1      32.418  22.536  27.604  1.00  0.00    -0.325 N 
ATOM      8  C   UNL A   1      31.390  23.107  26.922  1.00  0.00     0.318 C 
ATOM      9  H   UNL A   1      32.285  22.487  28.578  1.00  0.00     0.166 HD
ATOM     10  O   UNL A   1      30.262  23.084  27.405  1.00  0.00    -0.249 OA
BRANCH   8  11
ATOM     11  N   UNL A   1      31.719  23.871  25.838  1.00  0.00    -0.313 N 
ATOM     12  C   UNL A   1      31.159  23.542  24.529  1.00  0.00     0.183 C 
ATOM     13  C   UNL A   1      31.740  25.312  26.057  1.00  0.00     0.186 C 
ATOM     14  C   UNL A   1      31.904  24.273  23.382  1.00  0.00     0.284 C 
ATOM     15  C   UNL A   1      32.644  25.972  25.007  1.00  0.00     0.203 C 
ATOM     16  N   UNL A   1      32.201  25.709  23.615  1.00  0.00    -0.330 N 
ATOM     17  C   UNL A   1      32.743  27.484  25.217  1.00  0.00     0.067 C 
ATOM     18  C   UNL A   1      33.206  26.195  22.654  1.00  0.00     0.262 C 
ATOM     19  H   UNL A   1      31.331  26.224  23.473  1.00  0.00     0.348 HD
ATOM     20  C   UNL A   1      33.824  28.046  24.299  1.00  0.00     0.012 C 
ATOM     21  C   UNL A   1      33.545  27.678  22.844  1.00  0.00     0.062 C 
ENDBRANCH   8  11
ENDBRANCH   5   7
ENDBRANCH   3   5
ENDBRANCH   2   3
ENDBRANCH   1   2
BRANCH   1  22
ATOM     22  C   UNL A   1      37.169  20.502  24.741  1.00  0.00     0.275 C 
BRANCH  22  23
ATOM     23  O   UNL A   1      37.675  21.468  25.675  1.00  0.00    -0.458 OA
BRANCH  23  24
ATOM     24  C   UNL A   1      38.943  21.233  26.073  1.00  0.00     0.338 C 
ATOM     25  O   UNL A   1      39.606  20.226  25.851  1.00  0.00    -0.246 OA
BRANCH  24  26
ATOM     26  C   UNL A   1      39.524  22.432  26.698  1.00  0.00     0.060 A 
ATOM     27  C   UNL A   1      39.027  23.672  26.278  1.00  0.00     0.016 A 
ATOM     28  C   UNL A   1      40.573  22.359  27.616  1.00  0.00     0.016 A 
ATOM     29  C   UNL A   1      39.597  24.849  26.742  1.00  0.00     0.010 A 
ATOM     30  C   UNL A   1      41.161  23.543  28.068  1.00  0.00     0.010 A 
ATOM     31  C   UNL A   1      40.693  24.787  27.607  1.00  0.00    -0.014 A 
BRANCH  31  32
ATOM     32  C   UNL A   1      41.451  26.020  27.907  1.00  0.00     0.031 A 
ATOM     33  C   UNL A   1      40.757  27.117  28.661  1.00  0.00     0.074 A 
ATOM     34  C   UNL A   1      42.730  26.142  27.518  1.00  0.00     0.049 A 
ATOM     35  N   UNL A   1      41.174  28.325  28.937  1.00  0.00    -0.248 NA
ATOM     36  C   UNL A   1      39.411  26.812  29.172  1.00  0.00     0.031 C 
ATOM     37  C   UNL A   1      43.505  25.109  26.833  1.00  0.00     0.029 A 
ATOM     38  N   UNL A   1      43.596  27.199  27.628  1.00  0.00    -0.354 N 
ATOM     39  C   UNL A   1      40.134  28.929  29.633  1.00  0.00     0.074 A 
ATOM     40  C   UNL A   1      39.066  27.961  29.735  1.00  0.00     0.031 C 
ATOM     41  C   UNL A   1      44.726  25.597  26.551  1.00  0.00     0.029 A 
ATOM     42  C   UNL A   1      44.799  26.985  27.000  1.00  0.00     0.049 A 
ATOM     43  H   UNL A   1      43.378  28.029  28.111  1.00  0.00     0.167 HD
ATOM     44  C   UNL A   1      40.085  30.184  30.135  1.00  0.00     0.037 A 
ATOM     45  C   UNL A   1      45.818  27.836  26.778  1.00  0.00     0.037 A 
ATOM     46  C   UNL A   1      41.164  31.129  30.033  1.00  0.00     0.049 A 
ATOM     47  C   UNL A   1      45.707  29.249  27.289  1.00  0.00     0.074 A 
ATOM     48  C   UNL A   1      41.237  32.413  30.540  1.00  0.00     0.029 A 
ATOM     49  N   UNL A   1      42.358  30.886  29.371  1.00  0.00    -0.354 N 
ATOM     50  N   UNL A   1      44.732  29.811  27.964  1.00  0.00    -0.248 NA
ATOM     51  C   UNL A   1      46.831  30.151  26.999  1.00  0.00     0.031 C 
ATOM     52  C   UNL A   1      42.459  32.966  30.142  1.00  0.00     0.029 A 
ATOM     53  C   UNL A   1      43.163  32.011  29.424  1.00  0.00     0.049 A 
ATOM     54  H   UNL A   1      42.598  30.040  28.928  1.00  0.00     0.167 HD
ATOM     55  C   UNL A   1      45.129  31.122  28.189  1.00  0.00     0.074 A 
ATOM     56  C   UNL A   1      46.443  31.268  27.598  1.00  0.00     0.031 C 
ATOM     57  C   UNL A   1      44.465  32.122  28.821  1.00  0.00     0.037 A 
BRANCH  44  58
ATOM     58  C   UNL A   1      38.817  30.622  30.804  1.00  0.00     0.064 A 
ATOM     59  C   UNL A   1      38.665  30.581  32.197  1.00  0.00     0.173 A 
ATOM     60  C   UNL A   1      37.760  31.140  30.042  1.00  0.00     0.173 A 
ATOM     61  F   UNL A   1      39.641  30.080  32.969  1.00  0.00    -0.203 F 
ATOM     62  C   UNL A   1      37.496  31.036  32.802  1.00  0.00     0.198 A 
ATOM     63  C   UNL A   1      36.602  31.613  30.650  1.00  0.00     0.198 A 
ATOM     64  F   UNL A   1      37.857  31.198  28.705  1.00  0.00    -0.203 F 
ATOM     65  F   UNL A   1      37.359  30.962  34.133  1.00  0.00    -0.200 F 
ATOM     66  C   UNL A   1      36.469  31.559  32.029  1.00  0.00     0.200 A 
ATOM     67  F   UNL A   1      35.614  32.125  29.902  1.00  0.00    -0.200 F 
ATOM     68  F   UNL A   1      35.349  32.007  32.614  1.00  0.00    -0.200 F 
ENDBRANCH  44  58
BRANCH  45  69
ATOM     69  C   UNL A   1      47.000  27.399  25.988  1.00  0.00     0.064 A 
ATOM     70  C   UNL A   1      48.110  26.809  26.605  1.00  0.00     0.173 A 
ATOM     71  C   UNL A   1      47.052  27.590  24.599  1.00  0.00     0.173 A 
ATOM     72  F   UNL A   1      48.121  26.631  27.934  1.00  0.00    -0.203 F 
ATOM     73  C   UNL A   1      49.236  26.446  25.866  1.00  0.00     0.198 A 
ATOM     74  C   UNL A   1      48.165  27.200  23.857  1.00  0.00     0.198 A 
ATOM     75  F   UNL A   1      46.018  28.156  23.958  1.00  0.00    -0.203 F 
ATOM     76  F   UNL A   1      50.305  25.933  26.490  1.00  0.00    -0.200 F 
ATOM     77  C   UNL A   1      49.260  26.637  24.494  1.00  0.00     0.200 A 
ATOM     78  F   UNL A   1      48.180  27.378  22.530  1.00  0.00    -0.200 F 
ATOM     79  F   UNL A   1      50.343  26.290  23.785  1.00  0.00    -0.200 F 
ENDBRANCH  45  69
BRANCH  57  80
ATOM     80  C   UNL A   1      45.154  33.450  28.908  1.00  0.00     0.064 A 
ATOM     81  C   UNL A   1      46.037  33.745  29.955  1.00  0.00     0.173 A 
ATOM     82  C   UNL A   1      44.972  34.413  27.905  1.00  0.00     0.173 A 
ATOM     83  F   UNL A   1      46.231  32.859  30.945  1.00  0.00    -0.203 F 
ATOM     84  C   UNL A   1      46.701  34.967  30.006  1.00  0.00     0.198 A 
ATOM     85  C   UNL A   1      45.657  35.624  27.945  1.00  0.00     0.198 A 
ATOM     86  F   UNL A   1      44.142  34.174  26.878  1.00  0.00    -0.203 F 
ATOM     87  F   UNL A   1      47.512  35.244  31.036  1.00  0.00    -0.200 F 
ATOM     88  C   UNL A   1      46.517  35.901  28.997  1.00  0.00     0.200 A 
ATOM     89  F   UNL A   1      45.490  36.520  26.963  1.00  0.00    -0.200 F 
ATOM     90  F   UNL A   1      47.165  37.073  29.042  1.00  0.00    -0.200 F 
ENDBRANCH  57  80
ENDBRANCH  31  32
ENDBRANCH  24  26
ENDBRANCH  23  24
ENDBRANCH  22  23
ENDBRANCH   1  22
TORSDOF 13
ENDMDL
