MODEL 1
REMARK VINA RESULT:      -9.3      0.000      0.000
REMARK SMILES CN(C1CC1)S(=O)(=O)CC(=O)OCCOC(=O)c1ccc(-c2c3nc(c(-c4c(F)c(F)c(F)c(F)c4F)c4ccc([nH]4)c(-c4c(F)c(F)c(F)c(F)c4F)c4nc(c(-c5c(F)c(F)c(F)c(F)c5F)c5ccc2[nH]5)C=C4)C=C3)cc1
REMARK SMILES IDX 13 1 12 2 10 3 11 4 9 5 6 6 7 7 8 8 2 9 1 10 3 11 4 12 5 13
REMARK SMILES IDX 14 14 15 15 16 16 17 17 18 18 19 19 80 20 20 21 79 22 21 23
REMARK SMILES IDX 22 24 23 25 73 26 24 27 78 28 72 29 74 30 25 31 77 32 71 33
REMARK SMILES IDX 70 34 26 36 58 37 38 38 57 39 39 40 42 41 56 42 75 43 40 44
REMARK SMILES IDX 41 45 55 47 76 48 43 49 27 50 28 51 36 52 29 53 30 54 34 55
REMARK SMILES IDX 37 56 31 57 32 58 35 59 33 60 59 61 60 62 68 63 61 64 62 65
REMARK SMILES IDX 66 66 69 67 63 68 64 69 67 70 65 71 44 72 45 73 53 74 46 75
REMARK SMILES IDX 47 76 51 77 54 78 48 79 49 80 52 81 50 82
REMARK H PARENT 74 35 42 46
REMARK Flexibility Score: inf
ROOT
ATOM      1  C   UNL A   1      34.358  33.775  30.094  1.00  0.00     0.274 C 
ENDROOT
BRANCH   1   2
ATOM      2  O   UNL A   1      34.259  32.936  31.265  1.00  0.00    -0.461 OA
BRANCH   2   3
ATOM      3  C   UNL A   1      34.216  33.570  32.457  1.00  0.00     0.322 C 
ATOM      4  O   UNL A   1      33.283  33.465  33.251  1.00  0.00    -0.251 OA
BRANCH   3   5
ATOM      5  C   UNL A   1      35.321  34.521  32.738  1.00  0.00     0.276 C 
BRANCH   5   6
ATOM      6  S   UNL A   1      36.769  33.858  33.492  1.00  0.00     0.224 S 
ATOM      7  O   UNL A   1      36.347  32.789  34.378  1.00  0.00    -0.212 OA
ATOM      8  O   UNL A   1      37.542  34.953  34.043  1.00  0.00    -0.212 OA
BRANCH   6   9
ATOM      9  N   UNL A   1      37.645  33.162  32.218  1.00  0.00    -0.201 NA
ATOM     10  C   UNL A   1      37.458  31.691  32.103  1.00  0.00     0.124 C 
BRANCH   9  11
ATOM     11  C   UNL A   1      37.701  33.791  30.878  1.00  0.00     0.072 C 
ATOM     12  C   UNL A   1      38.998  34.249  30.266  1.00  0.00     0.022 C 
ATOM     13  C   UNL A   1      38.182  33.190  29.589  1.00  0.00     0.022 C 
ENDBRANCH   9  11
ENDBRANCH   6   9
ENDBRANCH   5   6
ENDBRANCH   3   5
ENDBRANCH   2   3
ENDBRANCH   1   2
BRANCH   1  14
ATOM     14  C   UNL A   1      34.569  32.946  28.831  1.00  0.00     0.275 C 
BRANCH  14  15
ATOM     15  O   UNL A   1      34.697  31.556  29.172  1.00  0.00    -0.458 OA
BRANCH  15  16
ATOM     16  C   UNL A   1      34.952  30.720  28.142  1.00  0.00     0.338 C 
ATOM     17  O   UNL A   1      34.257  30.495  27.167  1.00  0.00    -0.246 OA
BRANCH  16  18
ATOM     18  C   UNL A   1      36.242  30.051  28.363  1.00  0.00     0.060 A 
ATOM     19  C   UNL A   1      36.495  29.384  29.563  1.00  0.00     0.016 A 
ATOM     20  C   UNL A   1      37.253  30.212  27.416  1.00  0.00     0.016 A 
ATOM     21  C   UNL A   1      37.784  28.933  29.847  1.00  0.00     0.010 A 
ATOM     22  C   UNL A   1      38.526  29.703  27.674  1.00  0.00     0.010 A 
ATOM     23  C   UNL A   1      38.813  29.092  28.907  1.00  0.00    -0.014 A 
BRANCH  23  24
ATOM     24  C   UNL A   1      40.200  28.661  29.218  1.00  0.00     0.031 A 
ATOM     25  C   UNL A   1      41.112  29.568  29.998  1.00  0.00     0.074 A 
ATOM     26  C   UNL A   1      40.649  27.467  28.790  1.00  0.00     0.049 A 
ATOM     27  N   UNL A   1      42.396  29.454  30.230  1.00  0.00    -0.248 NA
ATOM     28  C   UNL A   1      40.501  30.769  30.589  1.00  0.00     0.031 C 
ATOM     29  C   UNL A   1      39.859  26.479  28.059  1.00  0.00     0.029 A 
ATOM     30  N   UNL A   1      41.888  26.886  28.905  1.00  0.00    -0.354 N 
ATOM     31  C   UNL A   1      42.753  30.586  30.950  1.00  0.00     0.074 A 
ATOM     32  C   UNL A   1      41.553  31.377  31.120  1.00  0.00     0.031 C 
ATOM     33  C   UNL A   1      40.625  25.407  27.802  1.00  0.00     0.029 A 
ATOM     34  C   UNL A   1      41.976  25.661  28.292  1.00  0.00     0.049 A 
ATOM     35  H   UNL A   1      42.640  27.308  29.379  1.00  0.00     0.167 HD
ATOM     36  C   UNL A   1      43.974  30.933  31.423  1.00  0.00     0.037 A 
ATOM     37  C   UNL A   1      43.034  24.850  28.114  1.00  0.00     0.037 A 
ATOM     38  C   UNL A   1      45.158  30.125  31.295  1.00  0.00     0.049 A 
ATOM     39  C   UNL A   1      44.383  25.271  28.624  1.00  0.00     0.074 A 
ATOM     40  C   UNL A   1      46.433  30.378  31.770  1.00  0.00     0.029 A 
ATOM     41  N   UNL A   1      45.209  28.899  30.648  1.00  0.00    -0.354 N 
ATOM     42  N   UNL A   1      44.718  26.357  29.275  1.00  0.00    -0.248 NA
ATOM     43  C   UNL A   1      45.506  24.359  28.357  1.00  0.00     0.031 C 
ATOM     44  C   UNL A   1      47.263  29.319  31.385  1.00  0.00     0.029 A 
ATOM     45  C   UNL A   1      46.497  28.390  30.700  1.00  0.00     0.049 A 
ATOM     46  H   UNL A   1      44.443  28.456  30.216  1.00  0.00     0.167 HD
ATOM     47  C   UNL A   1      46.082  26.258  29.507  1.00  0.00     0.074 A 
ATOM     48  C   UNL A   1      46.512  24.996  28.940  1.00  0.00     0.031 C 
ATOM     49  C   UNL A   1      46.906  27.134  30.130  1.00  0.00     0.037 A 
BRANCH  36  50
ATOM     50  C   UNL A   1      44.103  32.262  32.107  1.00  0.00     0.064 A 
ATOM     51  C   UNL A   1      44.439  33.427  31.403  1.00  0.00     0.173 A 
ATOM     52  C   UNL A   1      43.835  32.376  33.480  1.00  0.00     0.173 A 
ATOM     53  F   UNL A   1      44.718  33.366  30.093  1.00  0.00    -0.203 F 
ATOM     54  C   UNL A   1      44.521  34.656  32.053  1.00  0.00     0.198 A 
ATOM     55  C   UNL A   1      43.896  33.609  34.122  1.00  0.00     0.198 A 
ATOM     56  F   UNL A   1      43.506  31.291  34.197  1.00  0.00    -0.203 F 
ATOM     57  F   UNL A   1      44.877  35.752  31.369  1.00  0.00    -0.200 F 
ATOM     58  C   UNL A   1      44.242  34.747  33.409  1.00  0.00     0.200 A 
ATOM     59  F   UNL A   1      43.618  33.697  35.430  1.00  0.00    -0.200 F 
ATOM     60  F   UNL A   1      44.312  35.932  34.031  1.00  0.00    -0.200 F 
ENDBRANCH  36  50
BRANCH  37  61
ATOM     61  C   UNL A   1      42.860  23.564  27.393  1.00  0.00     0.064 A 
ATOM     62  C   UNL A   1      43.253  23.433  26.054  1.00  0.00     0.173 A 
ATOM     63  C   UNL A   1      42.310  22.441  28.028  1.00  0.00     0.173 A 
ATOM     64  F   UNL A   1      43.759  24.489  25.400  1.00  0.00    -0.203 F 
ATOM     65  C   UNL A   1      43.099  22.226  25.376  1.00  0.00     0.198 A 
ATOM     66  C   UNL A   1      42.180  21.229  27.356  1.00  0.00     0.198 A 
ATOM     67  F   UNL A   1      41.918  22.519  29.308  1.00  0.00    -0.203 F 
ATOM     68  F   UNL A   1      43.453  22.135  24.087  1.00  0.00    -0.200 F 
ATOM     69  C   UNL A   1      42.569  21.123  26.030  1.00  0.00     0.200 A 
ATOM     70  F   UNL A   1      41.678  20.162  27.995  1.00  0.00    -0.200 F 
ATOM     71  F   UNL A   1      42.430  19.960  25.379  1.00  0.00    -0.200 F 
ENDBRANCH  37  61
BRANCH  49  72
ATOM     72  C   UNL A   1      48.350  26.749  30.247  1.00  0.00     0.064 A 
ATOM     73  C   UNL A   1      49.293  27.156  29.294  1.00  0.00     0.173 A 
ATOM     74  C   UNL A   1      48.796  25.990  31.339  1.00  0.00     0.173 A 
ATOM     75  F   UNL A   1      48.908  27.869  28.225  1.00  0.00    -0.203 F 
ATOM     76  C   UNL A   1      50.633  26.800  29.420  1.00  0.00     0.198 A 
ATOM     77  C   UNL A   1      50.140  25.654  31.473  1.00  0.00     0.198 A 
ATOM     78  F   UNL A   1      47.930  25.581  32.278  1.00  0.00    -0.203 F 
ATOM     79  F   UNL A   1      51.513  27.166  28.478  1.00  0.00    -0.200 F 
ATOM     80  C   UNL A   1      51.056  26.054  30.511  1.00  0.00     0.200 A 
ATOM     81  F   UNL A   1      50.549  24.940  32.530  1.00  0.00    -0.200 F 
ATOM     82  F   UNL A   1      52.347  25.713  30.631  1.00  0.00    -0.200 F 
ENDBRANCH  49  72
ENDBRANCH  23  24
ENDBRANCH  16  18
ENDBRANCH  15  16
ENDBRANCH  14  15
ENDBRANCH   1  14
TORSDOF 14
ENDMDL
MODEL 2
REMARK VINA RESULT:      -9.3      5.143      8.673
REMARK SMILES CN(C1CC1)S(=O)(=O)CC(=O)OCCOC(=O)c1ccc(-c2c3nc(c(-c4c(F)c(F)c(F)c(F)c4F)c4ccc([nH]4)c(-c4c(F)c(F)c(F)c(F)c4F)c4nc(c(-c5c(F)c(F)c(F)c(F)c5F)c5ccc2[nH]5)C=C4)C=C3)cc1
REMARK SMILES IDX 13 1 12 2 10 3 11 4 9 5 6 6 7 7 8 8 2 9 1 10 3 11 4 12 5 13
REMARK SMILES IDX 14 14 15 15 16 16 17 17 18 18 19 19 80 20 20 21 79 22 21 23
REMARK SMILES IDX 22 24 23 25 73 26 24 27 78 28 72 29 74 30 25 31 77 32 71 33
REMARK SMILES IDX 70 34 26 36 58 37 38 38 57 39 39 40 42 41 56 42 75 43 40 44
REMARK SMILES IDX 41 45 55 47 76 48 43 49 27 50 28 51 36 52 29 53 30 54 34 55
REMARK SMILES IDX 37 56 31 57 32 58 35 59 33 60 59 61 60 62 68 63 61 64 62 65
REMARK SMILES IDX 66 66 69 67 63 68 64 69 67 70 65 71 44 72 45 73 53 74 46 75
REMARK SMILES IDX 47 76 51 77 54 78 48 79 49 80 52 81 50 82
REMARK H PARENT 74 35 42 46
REMARK Flexibility Score: inf
ROOT
ATOM      1  C   UNL A   1      35.214  21.055  24.664  1.00  0.00     0.274 C 
ENDROOT
BRANCH   1   2
ATOM      2  O   UNL A   1      34.272  19.962  24.624  1.00  0.00    -0.461 OA
BRANCH   2   3
ATOM      3  C   UNL A   1      32.974  20.280  24.817  1.00  0.00     0.322 C 
ATOM      4  O   UNL A   1      32.094  19.448  25.030  1.00  0.00    -0.251 OA
BRANCH   3   5
ATOM      5  C   UNL A   1      32.613  21.710  24.647  1.00  0.00     0.276 C 
BRANCH   5   6
ATOM      6  S   UNL A   1      31.938  22.533  26.051  1.00  0.00     0.224 S 
ATOM      7  O   UNL A   1      32.779  22.213  27.189  1.00  0.00    -0.212 OA
ATOM      8  O   UNL A   1      30.523  22.228  26.125  1.00  0.00    -0.212 OA
BRANCH   6   9
ATOM      9  N   UNL A   1      32.121  24.186  25.718  1.00  0.00    -0.201 NA
ATOM     10  C   UNL A   1      30.911  24.992  26.035  1.00  0.00     0.124 C 
BRANCH   9  11
ATOM     11  C   UNL A   1      33.354  24.921  26.084  1.00  0.00     0.072 C 
ATOM     12  C   UNL A   1      34.662  24.682  25.379  1.00  0.00     0.022 C 
ATOM     13  C   UNL A   1      34.025  26.037  25.338  1.00  0.00     0.022 C 
ENDBRANCH   9  11
ENDBRANCH   6   9
ENDBRANCH   5   6
ENDBRANCH   3   5
ENDBRANCH   2   3
ENDBRANCH   1   2
BRANCH   1  14
ATOM     14  C   UNL A   1      36.503  20.656  25.376  1.00  0.00     0.275 C 
BRANCH  14  15
ATOM     15  O   UNL A   1      37.314  21.819  25.609  1.00  0.00    -0.458 OA
BRANCH  15  16
ATOM     16  C   UNL A   1      38.608  21.579  25.916  1.00  0.00     0.338 C 
ATOM     17  O   UNL A   1      39.235  20.544  25.775  1.00  0.00    -0.246 OA
BRANCH  16  18
ATOM     18  C   UNL A   1      39.204  22.789  26.501  1.00  0.00     0.060 A 
ATOM     19  C   UNL A   1      38.695  24.050  26.186  1.00  0.00     0.016 A 
ATOM     20  C   UNL A   1      40.367  22.664  27.260  1.00  0.00     0.016 A 
ATOM     21  C   UNL A   1      39.389  25.195  26.577  1.00  0.00     0.010 A 
ATOM     22  C   UNL A   1      41.025  23.811  27.705  1.00  0.00     0.010 A 
ATOM     23  C   UNL A   1      40.563  25.086  27.337  1.00  0.00    -0.014 A 
BRANCH  23  24
ATOM     24  C   UNL A   1      41.338  26.296  27.716  1.00  0.00     0.031 A 
ATOM     25  C   UNL A   1      40.691  27.377  28.537  1.00  0.00     0.074 A 
ATOM     26  C   UNL A   1      42.615  26.433  27.314  1.00  0.00     0.049 A 
ATOM     27  N   UNL A   1      41.135  28.573  28.832  1.00  0.00    -0.248 NA
ATOM     28  C   UNL A   1      39.363  27.077  29.094  1.00  0.00     0.031 C 
ATOM     29  C   UNL A   1      43.372  25.445  26.548  1.00  0.00     0.029 A 
ATOM     30  N   UNL A   1      43.499  27.468  27.490  1.00  0.00    -0.354 N 
ATOM     31  C   UNL A   1      40.126  29.182  29.566  1.00  0.00     0.074 A 
ATOM     32  C   UNL A   1      39.045  28.227  29.675  1.00  0.00     0.031 C 
ATOM     33  C   UNL A   1      44.611  25.912  26.332  1.00  0.00     0.029 A 
ATOM     34  C   UNL A   1      44.714  27.259  26.887  1.00  0.00     0.049 A 
ATOM     35  H   UNL A   1      43.283  28.282  28.000  1.00  0.00     0.167 HD
ATOM     36  C   UNL A   1      40.105  30.428  30.097  1.00  0.00     0.037 A 
ATOM     37  C   UNL A   1      45.778  28.073  26.762  1.00  0.00     0.037 A 
ATOM     38  C   UNL A   1      41.199  31.362  30.028  1.00  0.00     0.049 A 
ATOM     39  C   UNL A   1      45.719  29.460  27.337  1.00  0.00     0.074 A 
ATOM     40  C   UNL A   1      41.282  32.636  30.564  1.00  0.00     0.029 A 
ATOM     41  N   UNL A   1      42.404  31.118  29.388  1.00  0.00    -0.354 N 
ATOM     42  N   UNL A   1      44.749  30.038  28.000  1.00  0.00    -0.248 NA
ATOM     43  C   UNL A   1      46.897  30.313  27.127  1.00  0.00     0.031 C 
ATOM     44  C   UNL A   1      42.529  33.174  30.223  1.00  0.00     0.029 A 
ATOM     45  C   UNL A   1      43.234  32.223  29.504  1.00  0.00     0.049 A 
ATOM     46  H   UNL A   1      42.637  30.284  28.920  1.00  0.00     0.167 HD
ATOM     47  C   UNL A   1      45.200  31.316  28.298  1.00  0.00     0.074 A 
ATOM     48  C   UNL A   1      46.539  31.424  27.756  1.00  0.00     0.031 C 
ATOM     49  C   UNL A   1      44.562  32.312  28.958  1.00  0.00     0.037 A 
BRANCH  36  50
ATOM     50  C   UNL A   1      38.847  30.871  30.782  1.00  0.00     0.064 A 
ATOM     51  C   UNL A   1      37.764  31.404  30.069  1.00  0.00     0.173 A 
ATOM     52  C   UNL A   1      38.708  30.711  32.170  1.00  0.00     0.173 A 
ATOM     53  F   UNL A   1      37.856  31.590  28.745  1.00  0.00    -0.203 F 
ATOM     54  C   UNL A   1      36.592  31.778  30.723  1.00  0.00     0.198 A 
ATOM     55  C   UNL A   1      37.527  31.065  32.817  1.00  0.00     0.198 A 
ATOM     56  F   UNL A   1      39.714  30.203  32.896  1.00  0.00    -0.203 F 
ATOM     57  F   UNL A   1      35.582  32.317  30.028  1.00  0.00    -0.200 F 
ATOM     58  C   UNL A   1      36.472  31.601  32.094  1.00  0.00     0.200 A 
ATOM     59  F   UNL A   1      37.409  30.885  34.140  1.00  0.00    -0.200 F 
ATOM     60  F   UNL A   1      35.341  31.953  32.720  1.00  0.00    -0.200 F 
ENDBRANCH  36  50
BRANCH  37  61
ATOM     61  C   UNL A   1      46.983  27.599  26.037  1.00  0.00     0.064 A 
ATOM     62  C   UNL A   1      47.067  27.699  24.642  1.00  0.00     0.173 A 
ATOM     63  C   UNL A   1      48.077  27.051  26.722  1.00  0.00     0.173 A 
ATOM     64  F   UNL A   1      46.033  28.193  23.944  1.00  0.00    -0.203 F 
ATOM     65  C   UNL A   1      48.199  27.264  23.958  1.00  0.00     0.198 A 
ATOM     66  C   UNL A   1      49.218  26.638  26.039  1.00  0.00     0.198 A 
ATOM     67  F   UNL A   1      48.042  26.933  28.057  1.00  0.00    -0.203 F 
ATOM     68  F   UNL A   1      48.242  27.341  22.621  1.00  0.00    -0.200 F 
ATOM     69  C   UNL A   1      49.277  26.740  24.658  1.00  0.00     0.200 A 
ATOM     70  F   UNL A   1      50.262  26.144  26.720  1.00  0.00    -0.200 F 
ATOM     71  F   UNL A   1      50.370  26.330  24.000  1.00  0.00    -0.200 F 
ENDBRANCH  37  61
BRANCH  49  72
ATOM     72  C   UNL A   1      45.311  33.596  29.147  1.00  0.00     0.064 A 
ATOM     73  C   UNL A   1      45.210  34.643  28.221  1.00  0.00     0.173 A 
ATOM     74  C   UNL A   1      46.116  33.790  30.279  1.00  0.00     0.173 A 
ATOM     75  F   UNL A   1      44.465  34.496  27.115  1.00  0.00    -0.203 F 
ATOM     76  C   UNL A   1      45.903  35.834  28.413  1.00  0.00     0.198 A 
ATOM     77  C   UNL A   1      46.791  34.990  30.479  1.00  0.00     0.198 A 
ATOM     78  F   UNL A   1      46.240  32.817  31.194  1.00  0.00    -0.203 F 
ATOM     79  F   UNL A   1      45.824  36.809  27.496  1.00  0.00    -0.200 F 
ATOM     80  C   UNL A   1      46.689  36.009  29.543  1.00  0.00     0.200 A 
ATOM     81  F   UNL A   1      47.543  35.160  31.574  1.00  0.00    -0.200 F 
ATOM     82  F   UNL A   1      47.355  37.158  29.727  1.00  0.00    -0.200 F 
ENDBRANCH  49  72
ENDBRANCH  23  24
ENDBRANCH  16  18
ENDBRANCH  15  16
ENDBRANCH  14  15
ENDBRANCH   1  14
TORSDOF 14
ENDMDL
MODEL 3
REMARK VINA RESULT:      -9.2      1.566      2.226
REMARK SMILES CN(C1CC1)S(=O)(=O)CC(=O)OCCOC(=O)c1ccc(-c2c3nc(c(-c4c(F)c(F)c(F)c(F)c4F)c4ccc([nH]4)c(-c4c(F)c(F)c(F)c(F)c4F)c4nc(c(-c5c(F)c(F)c(F)c(F)c5F)c5ccc2[nH]5)C=C4)C=C3)cc1
REMARK SMILES IDX 13 1 12 2 10 3 11 4 9 5 6 6 7 7 8 8 2 9 1 10 3 11 4 12 5 13
REMARK SMILES IDX 14 14 15 15 16 16 17 17 18 18 19 19 80 20 20 21 79 22 21 23
REMARK SMILES IDX 22 24 23 25 73 26 24 27 78 28 72 29 74 30 25 31 77 32 71 33
REMARK SMILES IDX 70 34 26 36 58 37 38 38 57 39 39 40 42 41 56 42 75 43 40 44
REMARK SMILES IDX 41 45 55 47 76 48 43 49 27 50 28 51 36 52 29 53 30 54 34 55
REMARK SMILES IDX 37 56 31 57 32 58 35 59 33 60 59 61 60 62 68 63 61 64 62 65
REMARK SMILES IDX 66 66 69 67 63 68 64 69 67 70 65 71 44 72 45 73 53 74 46 75
REMARK SMILES IDX 47 76 51 77 54 78 48 79 49 80 52 81 50 82
REMARK H PARENT 74 35 42 46
REMARK Flexibility Score: inf
ROOT
ATOM      1  C   UNL A   1      33.852  34.393  28.340  1.00  0.00     0.274 C 
ENDROOT
BRANCH   1   2
ATOM      2  O   UNL A   1      32.758  35.086  28.977  1.00  0.00    -0.461 OA
BRANCH   2   3
ATOM      3  C   UNL A   1      33.055  35.767  30.105  1.00  0.00     0.322 C 
ATOM      4  O   UNL A   1      32.514  36.826  30.423  1.00  0.00    -0.251 OA
BRANCH   3   5
ATOM      5  C   UNL A   1      34.173  35.234  30.923  1.00  0.00     0.276 C 
BRANCH   5   6
ATOM      6  S   UNL A   1      33.891  35.082  32.656  1.00  0.00     0.224 S 
ATOM      7  O   UNL A   1      32.494  34.734  32.840  1.00  0.00    -0.212 OA
ATOM      8  O   UNL A   1      34.403  36.269  33.310  1.00  0.00    -0.212 OA
BRANCH   6   9
ATOM      9  N   UNL A   1      34.826  33.751  33.135  1.00  0.00    -0.201 NA
ATOM     10  C   UNL A   1      34.875  32.665  32.120  1.00  0.00     0.124 C 
BRANCH   9  11
ATOM     11  C   UNL A   1      36.145  33.922  33.787  1.00  0.00     0.072 C 
ATOM     12  C   UNL A   1      36.315  33.818  35.279  1.00  0.00     0.022 C 
ATOM     13  C   UNL A   1      37.035  32.865  34.374  1.00  0.00     0.022 C 
ENDBRANCH   9  11
ENDBRANCH   6   9
ENDBRANCH   5   6
ENDBRANCH   3   5
ENDBRANCH   2   3
ENDBRANCH   1   2
BRANCH   1  14
ATOM     14  C   UNL A   1      33.482  32.950  28.011  1.00  0.00     0.275 C 
BRANCH  14  15
ATOM     15  O   UNL A   1      34.671  32.188  27.746  1.00  0.00    -0.458 OA
BRANCH  15  16
ATOM     16  C   UNL A   1      34.509  30.848  27.695  1.00  0.00     0.338 C 
ATOM     17  O   UNL A   1      33.509  30.222  27.391  1.00  0.00    -0.246 OA
BRANCH  16  18
ATOM     18  C   UNL A   1      35.759  30.189  28.101  1.00  0.00     0.060 A 
ATOM     19  C   UNL A   1      35.897  29.667  29.388  1.00  0.00     0.016 A 
ATOM     20  C   UNL A   1      36.847  30.217  27.228  1.00  0.00     0.016 A 
ATOM     21  C   UNL A   1      37.147  29.232  29.830  1.00  0.00     0.010 A 
ATOM     22  C   UNL A   1      38.081  29.721  27.650  1.00  0.00     0.010 A 
ATOM     23  C   UNL A   1      38.251  29.259  28.966  1.00  0.00    -0.014 A 
BRANCH  23  24
ATOM     24  C   UNL A   1      39.598  28.846  29.440  1.00  0.00     0.031 A 
ATOM     25  C   UNL A   1      40.352  29.714  30.410  1.00  0.00     0.074 A 
ATOM     26  C   UNL A   1      40.151  27.704  28.992  1.00  0.00     0.049 A 
ATOM     27  N   UNL A   1      41.594  29.619  30.815  1.00  0.00    -0.248 NA
ATOM     28  C   UNL A   1      39.615  30.844  30.996  1.00  0.00     0.031 C 
ATOM     29  C   UNL A   1      39.512  26.755  28.082  1.00  0.00     0.029 A 
ATOM     30  N   UNL A   1      41.383  27.153  29.240  1.00  0.00    -0.354 N 
ATOM     31  C   UNL A   1      41.799  30.699  31.663  1.00  0.00     0.074 A 
ATOM     32  C   UNL A   1      40.556  31.438  31.717  1.00  0.00     0.031 C 
ATOM     33  C   UNL A   1      40.350  25.730  27.858  1.00  0.00     0.029 A 
ATOM     34  C   UNL A   1      41.607  25.984  28.556  1.00  0.00     0.049 A 
ATOM     35  H   UNL A   1      42.043  27.557  29.848  1.00  0.00     0.167 HD
ATOM     36  C   UNL A   1      42.926  31.043  32.331  1.00  0.00     0.037 A 
ATOM     37  C   UNL A   1      42.712  25.221  28.470  1.00  0.00     0.037 A 
ATOM     38  C   UNL A   1      44.149  30.283  32.314  1.00  0.00     0.049 A 
ATOM     39  C   UNL A   1      43.957  25.639  29.200  1.00  0.00     0.074 A 
ATOM     40  C   UNL A   1      45.332  30.535  32.986  1.00  0.00     0.029 A 
ATOM     41  N   UNL A   1      44.340  29.115  31.590  1.00  0.00    -0.354 N 
ATOM     42  N   UNL A   1      44.151  26.679  29.973  1.00  0.00    -0.248 NA
ATOM     43  C   UNL A   1      45.142  24.786  29.029  1.00  0.00     0.031 C 
ATOM     44  C   UNL A   1      46.251  29.534  32.645  1.00  0.00     0.029 A 
ATOM     45  C   UNL A   1      45.627  28.642  31.788  1.00  0.00     0.049 A 
ATOM     46  H   UNL A   1      43.662  28.687  31.020  1.00  0.00     0.167 HD
ATOM     47  C   UNL A   1      45.473  26.601  30.391  1.00  0.00     0.074 A 
ATOM     48  C   UNL A   1      46.029  25.402  29.797  1.00  0.00     0.031 C 
ATOM     49  C   UNL A   1      46.164  27.449  31.190  1.00  0.00     0.037 A 
BRANCH  36  50
ATOM     50  C   UNL A   1      42.903  32.315  33.125  1.00  0.00     0.064 A 
ATOM     51  C   UNL A   1      43.194  33.556  32.542  1.00  0.00     0.173 A 
ATOM     52  C   UNL A   1      42.534  32.294  34.479  1.00  0.00     0.173 A 
ATOM     53  F   UNL A   1      43.566  33.626  31.256  1.00  0.00    -0.203 F 
ATOM     54  C   UNL A   1      43.134  34.730  33.290  1.00  0.00     0.198 A 
ATOM     55  C   UNL A   1      42.453  33.470  35.219  1.00  0.00     0.198 A 
ATOM     56  F   UNL A   1      42.243  31.132  35.082  1.00  0.00    -0.203 F 
ATOM     57  F   UNL A   1      43.449  35.902  32.723  1.00  0.00    -0.200 F 
ATOM     58  C   UNL A   1      42.757  34.686  34.625  1.00  0.00     0.200 A 
ATOM     59  F   UNL A   1      42.080  33.428  36.505  1.00  0.00    -0.200 F 
ATOM     60  F   UNL A   1      42.691  35.817  35.342  1.00  0.00    -0.200 F 
ENDBRANCH  36  50
BRANCH  37  61
ATOM     61  C   UNL A   1      42.693  23.993  27.637  1.00  0.00     0.064 A 
ATOM     62  C   UNL A   1      43.054  24.040  26.284  1.00  0.00     0.173 A 
ATOM     63  C   UNL A   1      42.329  22.752  28.177  1.00  0.00     0.173 A 
ATOM     64  F   UNL A   1      43.384  25.211  25.719  1.00  0.00    -0.203 F 
ATOM     65  C   UNL A   1      43.046  22.888  25.499  1.00  0.00     0.198 A 
ATOM     66  C   UNL A   1      42.345  21.598  27.398  1.00  0.00     0.198 A 
ATOM     67  F   UNL A   1      41.974  22.658  29.466  1.00  0.00    -0.203 F 
ATOM     68  F   UNL A   1      43.364  22.964  24.200  1.00  0.00    -0.200 F 
ATOM     69  C   UNL A   1      42.699  21.667  26.059  1.00  0.00     0.200 A 
ATOM     70  F   UNL A   1      42.020  20.418  27.945  1.00  0.00    -0.200 F 
ATOM     71  F   UNL A   1      42.700  20.559  25.306  1.00  0.00    -0.200 F 
ENDBRANCH  37  61
BRANCH  49  72
ATOM     72  C   UNL A   1      47.591  27.098  31.485  1.00  0.00     0.064 A 
ATOM     73  C   UNL A   1      47.927  26.225  32.528  1.00  0.00     0.173 A 
ATOM     74  C   UNL A   1      48.628  27.619  30.697  1.00  0.00     0.173 A 
ATOM     75  F   UNL A   1      46.970  25.717  33.318  1.00  0.00    -0.203 F 
ATOM     76  C   UNL A   1      49.256  25.900  32.785  1.00  0.00     0.198 A 
ATOM     77  C   UNL A   1      49.953  27.274  30.943  1.00  0.00     0.198 A 
ATOM     78  F   UNL A   1      48.353  28.456  29.685  1.00  0.00    -0.203 F 
ATOM     79  F   UNL A   1      49.560  25.094  33.811  1.00  0.00    -0.200 F 
ATOM     80  C   UNL A   1      50.267  26.420  31.990  1.00  0.00     0.200 A 
ATOM     81  F   UNL A   1      50.928  27.772  30.170  1.00  0.00    -0.200 F 
ATOM     82  F   UNL A   1      51.546  26.104  32.238  1.00  0.00    -0.200 F 
ENDBRANCH  49  72
ENDBRANCH  23  24
ENDBRANCH  16  18
ENDBRANCH  15  16
ENDBRANCH  14  15
ENDBRANCH   1  14
TORSDOF 14
ENDMDL
