MODEL 1
REMARK VINA RESULT:     -12.6      0.000      0.000
REMARK SMILES CC(C)Cc1cc2c(cc1Cl)C=C(C(=O)OCCOC(=O)c1ccc(-c3c4nc(c(-c5c(F)c(F)c(F)c(F)c5F)c5ccc([nH]5)c(-c5c(F)c(F)c(F)c(F)c5F)c5nc(c(-c6c(F)c(F)c(F)c(F)c6F)c6ccc3[nH]6)C=C5)C=C4)cc1)[C@@H](C(F)(F)F)O2
REMARK SMILES IDX 17 1 16 2 14 3 15 4 13 5 5 6 6 7 10 8 7 9 9 10 11 11 8 12
REMARK SMILES IDX 90 13 12 14 85 15 4 16 2 17 1 18 3 19 86 20 87 21 88 22
REMARK SMILES IDX 89 23 18 24 19 25 20 26 21 27 22 28 23 29 84 30 24 31 83 32
REMARK SMILES IDX 25 33 26 34 27 35 77 36 28 37 82 38 76 39 78 40 29 41 81 42
REMARK SMILES IDX 75 43 74 44 30 46 62 47 42 48 61 49 43 50 46 51 60 52 79 53
REMARK SMILES IDX 44 54 45 55 59 57 80 58 47 59 31 60 32 61 40 62 33 63 34 64
REMARK SMILES IDX 38 65 41 66 35 67 36 68 39 69 37 70 63 71 64 72 72 73 65 74
REMARK SMILES IDX 66 75 70 76 73 77 67 78 68 79 71 80 69 81 48 82 49 83 57 84
REMARK SMILES IDX 50 85 51 86 55 87 58 88 52 89 53 90 56 91 54 92
REMARK H PARENT 78 45 46 56
REMARK Flexibility Score: inf
ROOT
ATOM      1  C   UNL A   1      36.035  20.243  24.998  1.00  0.00     0.275 C 
ENDROOT
BRANCH   1   2
ATOM      2  O   UNL A   1      35.365  21.426  24.510  1.00  0.00    -0.459 OA
BRANCH   2   3
ATOM      3  C   UNL A   1      34.013  21.372  24.517  1.00  0.00     0.338 C 
ATOM      4  O   UNL A   1      33.320  20.402  24.247  1.00  0.00    -0.246 OA
BRANCH   3   5
ATOM      5  C   UNL A   1      33.443  22.662  24.945  1.00  0.00     0.087 C 
ATOM      6  C   UNL A   1      32.547  27.572  25.570  1.00  0.00    -0.025 A 
ATOM      7  C   UNL A   1      32.227  26.410  26.301  1.00  0.00     0.052 A 
ATOM      8  C   UNL A   1      33.245  27.436  24.360  1.00  0.00     0.045 A 
ATOM      9  C   UNL A   1      32.593  25.147  25.842  1.00  0.00     0.128 A 
ATOM     10  C   UNL A   1      33.622  26.174  23.907  1.00  0.00     0.032 A 
ATOM     11  Cl  UNL A   1      33.675  28.794  23.383  1.00  0.00    -0.084 Cl
ATOM     12  C   UNL A   1      33.302  25.036  24.653  1.00  0.00     0.019 A 
ATOM     13  O   UNL A   1      32.208  24.075  26.597  1.00  0.00    -0.475 OA
ATOM     14  C   UNL A   1      33.737  23.733  24.202  1.00  0.00     0.027 C 
ATOM     15  C   UNL A   1      32.685  22.744  26.239  1.00  0.00     0.316 C 
BRANCH   6  16
ATOM     16  C   UNL A   1      32.086  28.912  26.094  1.00  0.00     0.040 C 
BRANCH  16  17
ATOM     17  C   UNL A   1      32.966  29.452  27.238  1.00  0.00    -0.013 C 
ATOM     18  C   UNL A   1      34.420  28.987  27.114  1.00  0.00     0.008 C 
ATOM     19  C   UNL A   1      32.909  30.979  27.253  1.00  0.00     0.008 C 
ENDBRANCH  16  17
ENDBRANCH   6  16
BRANCH  15  20
ATOM     20  C   UNL A   1      33.515  22.197  27.412  1.00  0.00     0.430 C 
ATOM     21  F   UNL A   1      34.778  22.685  27.393  1.00  0.00    -0.167 F 
ATOM     22  F   UNL A   1      32.983  22.548  28.607  1.00  0.00    -0.167 F 
ATOM     23  F   UNL A   1      33.601  20.848  27.387  1.00  0.00    -0.167 F 
ENDBRANCH  15  20
ENDBRANCH   3   5
ENDBRANCH   2   3
ENDBRANCH   1   2
BRANCH   1  24
ATOM     24  C   UNL A   1      37.553  20.344  24.830  1.00  0.00     0.275 C 
BRANCH  24  25
ATOM     25  O   UNL A   1      38.072  21.457  25.582  1.00  0.00    -0.458 OA
BRANCH  25  26
ATOM     26  C   UNL A   1      39.265  21.246  26.180  1.00  0.00     0.338 C 
ATOM     27  O   UNL A   1      39.922  20.220  26.197  1.00  0.00    -0.246 OA
BRANCH  26  28
ATOM     28  C   UNL A   1      39.750  22.499  26.778  1.00  0.00     0.060 A 
ATOM     29  C   UNL A   1      40.857  22.518  27.618  1.00  0.00     0.016 A 
ATOM     30  C   UNL A   1      39.189  23.693  26.341  1.00  0.00     0.016 A 
ATOM     31  C   UNL A   1      41.390  23.751  28.013  1.00  0.00     0.010 A 
ATOM     32  C   UNL A   1      39.815  24.907  26.603  1.00  0.00     0.010 A 
ATOM     33  C   UNL A   1      40.909  24.963  27.472  1.00  0.00    -0.014 A 
BRANCH  33  34
ATOM     34  C   UNL A   1      41.541  26.273  27.806  1.00  0.00     0.031 A 
ATOM     35  C   UNL A   1      42.926  26.624  27.310  1.00  0.00     0.074 A 
ATOM     36  C   UNL A   1      40.885  27.147  28.597  1.00  0.00     0.049 A 
ATOM     37  N   UNL A   1      43.618  27.724  27.496  1.00  0.00    -0.248 NA
ATOM     38  C   UNL A   1      43.653  25.596  26.546  1.00  0.00     0.031 C 
ATOM     39  C   UNL A   1      39.595  26.900  29.243  1.00  0.00     0.029 A 
ATOM     40  N   UNL A   1      41.201  28.429  28.978  1.00  0.00    -0.354 N 
ATOM     41  C   UNL A   1      44.855  27.501  26.903  1.00  0.00     0.074 A 
ATOM     42  C   UNL A   1      44.853  26.141  26.418  1.00  0.00     0.031 C 
ATOM     43  C   UNL A   1      39.189  28.019  29.864  1.00  0.00     0.029 A 
ATOM     44  C   UNL A   1      40.207  29.051  29.695  1.00  0.00     0.049 A 
ATOM     45  H   UNL A   1      42.059  28.862  28.759  1.00  0.00     0.167 HD
ATOM     46  C   UNL A   1      45.887  28.364  26.733  1.00  0.00     0.037 A 
ATOM     47  C   UNL A   1      40.109  30.318  30.142  1.00  0.00     0.037 A 
ATOM     48  C   UNL A   1      45.866  29.741  27.149  1.00  0.00     0.049 A 
ATOM     49  C   UNL A   1      41.227  31.284  29.867  1.00  0.00     0.074 A 
ATOM     50  C   UNL A   1      46.827  30.716  26.949  1.00  0.00     0.029 A 
ATOM     51  N   UNL A   1      44.820  30.340  27.833  1.00  0.00    -0.354 N 
ATOM     52  N   UNL A   1      42.357  31.081  29.235  1.00  0.00    -0.248 NA
ATOM     53  C   UNL A   1      41.054  32.658  30.360  1.00  0.00     0.031 C 
ATOM     54  C   UNL A   1      46.372  31.903  27.534  1.00  0.00     0.029 A 
ATOM     55  C   UNL A   1      45.112  31.673  28.064  1.00  0.00     0.049 A 
ATOM     56  H   UNL A   1      43.993  29.885  28.114  1.00  0.00     0.167 HD
ATOM     57  C   UNL A   1      43.020  32.299  29.239  1.00  0.00     0.074 A 
ATOM     58  C   UNL A   1      42.158  33.244  29.918  1.00  0.00     0.031 C 
ATOM     59  C   UNL A   1      44.239  32.604  28.730  1.00  0.00     0.037 A 
BRANCH  46  60
ATOM     60  C   UNL A   1      47.110  27.861  26.019  1.00  0.00     0.064 A 
ATOM     61  C   UNL A   1      47.179  27.833  24.617  1.00  0.00     0.173 A 
ATOM     62  C   UNL A   1      48.247  27.460  26.738  1.00  0.00     0.173 A 
ATOM     63  F   UNL A   1      46.118  28.200  23.883  1.00  0.00    -0.203 F 
ATOM     64  C   UNL A   1      48.326  27.394  23.963  1.00  0.00     0.198 A 
ATOM     65  C   UNL A   1      49.405  27.052  26.078  1.00  0.00     0.198 A 
ATOM     66  F   UNL A   1      48.241  27.477  28.079  1.00  0.00    -0.203 F 
ATOM     67  F   UNL A   1      48.349  27.335  22.623  1.00  0.00    -0.200 F 
ATOM     68  C   UNL A   1      49.441  27.013  24.692  1.00  0.00     0.200 A 
ATOM     69  F   UNL A   1      50.488  26.700  26.784  1.00  0.00    -0.200 F 
ATOM     70  F   UNL A   1      50.550  26.606  24.060  1.00  0.00    -0.200 F 
ENDBRANCH  46  60
BRANCH  47  71
ATOM     71  C   UNL A   1      38.862  30.763  30.817  1.00  0.00     0.064 A 
ATOM     72  C   UNL A   1      37.751  31.169  30.064  1.00  0.00     0.173 A 
ATOM     73  C   UNL A   1      38.738  30.759  32.214  1.00  0.00     0.173 A 
ATOM     74  F   UNL A   1      37.828  31.206  28.726  1.00  0.00    -0.203 F 
ATOM     75  C   UNL A   1      36.566  31.561  30.682  1.00  0.00     0.198 A 
ATOM     76  C   UNL A   1      37.543  31.127  32.830  1.00  0.00     0.198 A 
ATOM     77  F   UNL A   1      39.769  30.372  32.978  1.00  0.00    -0.203 F 
ATOM     78  F   UNL A   1      35.529  31.970  29.938  1.00  0.00    -0.200 F 
ATOM     79  C   UNL A   1      36.460  31.531  32.063  1.00  0.00     0.200 A 
ATOM     80  F   UNL A   1      37.439  31.082  34.164  1.00  0.00    -0.200 F 
ATOM     81  F   UNL A   1      35.315  31.894  32.657  1.00  0.00    -0.200 F 
ENDBRANCH  47  71
BRANCH  59  82
ATOM     82  C   UNL A   1      44.712  34.020  28.863  1.00  0.00     0.064 A 
ATOM     83  C   UNL A   1      45.507  34.426  29.945  1.00  0.00     0.173 A 
ATOM     84  C   UNL A   1      44.429  34.960  27.861  1.00  0.00     0.173 A 
ATOM     85  F   UNL A   1      45.795  33.564  30.932  1.00  0.00    -0.203 F 
ATOM     86  C   UNL A   1      45.991  35.728  30.024  1.00  0.00     0.198 A 
ATOM     87  C   UNL A   1      44.937  36.255  27.931  1.00  0.00     0.198 A 
ATOM     88  F   UNL A   1      43.680  34.617  26.803  1.00  0.00    -0.203 F 
ATOM     89  F   UNL A   1      46.724  36.105  31.081  1.00  0.00    -0.200 F 
ATOM     90  C   UNL A   1      45.715  36.638  29.014  1.00  0.00     0.200 A 
ATOM     91  F   UNL A   1      44.679  37.128  26.949  1.00  0.00    -0.200 F 
ATOM     92  F   UNL A   1      46.194  37.887  29.086  1.00  0.00    -0.200 F 
ENDBRANCH  59  82
ENDBRANCH  33  34
ENDBRANCH  26  28
ENDBRANCH  25  26
ENDBRANCH  24  25
ENDBRANCH   1  24
TORSDOF 14
ENDMDL
MODEL 2
REMARK VINA RESULT:     -12.5      4.548      9.931
REMARK SMILES CC(C)Cc1cc2c(cc1Cl)C=C(C(=O)OCCOC(=O)c1ccc(-c3c4nc(c(-c5c(F)c(F)c(F)c(F)c5F)c5ccc([nH]5)c(-c5c(F)c(F)c(F)c(F)c5F)c5nc(c(-c6c(F)c(F)c(F)c(F)c6F)c6ccc3[nH]6)C=C5)C=C4)cc1)[C@@H](C(F)(F)F)O2
REMARK SMILES IDX 17 1 16 2 14 3 15 4 13 5 5 6 6 7 10 8 7 9 9 10 11 11 8 12
REMARK SMILES IDX 90 13 12 14 85 15 4 16 2 17 1 18 3 19 86 20 87 21 88 22
REMARK SMILES IDX 89 23 18 24 19 25 20 26 21 27 22 28 23 29 84 30 24 31 83 32
REMARK SMILES IDX 25 33 26 34 27 35 77 36 28 37 82 38 76 39 78 40 29 41 81 42
REMARK SMILES IDX 75 43 74 44 30 46 62 47 42 48 61 49 43 50 46 51 60 52 79 53
REMARK SMILES IDX 44 54 45 55 59 57 80 58 47 59 31 60 32 61 40 62 33 63 34 64
REMARK SMILES IDX 38 65 41 66 35 67 36 68 39 69 37 70 63 71 64 72 72 73 65 74
REMARK SMILES IDX 66 75 70 76 73 77 67 78 68 79 71 80 69 81 48 82 49 83 57 84
REMARK SMILES IDX 50 85 51 86 55 87 58 88 52 89 53 90 56 91 54 92
REMARK H PARENT 78 45 46 56
REMARK Flexibility Score: inf
ROOT
ATOM      1  C   UNL A   1      31.046  30.298  24.974  1.00  0.00     0.275 C 
ENDROOT
BRANCH   1   2
ATOM      2  O   UNL A   1      31.150  28.880  25.231  1.00  0.00    -0.459 OA
BRANCH   2   3
ATOM      3  C   UNL A   1      30.841  28.077  24.188  1.00  0.00     0.338 C 
ATOM      4  O   UNL A   1      29.905  28.213  23.414  1.00  0.00    -0.246 OA
BRANCH   3   5
ATOM      5  C   UNL A   1      31.828  26.990  24.058  1.00  0.00     0.087 C 
ATOM      6  C   UNL A   1      35.047  23.252  25.043  1.00  0.00    -0.025 A 
ATOM      7  C   UNL A   1      34.869  24.143  23.964  1.00  0.00     0.052 A 
ATOM      8  C   UNL A   1      34.157  23.318  26.125  1.00  0.00     0.045 A 
ATOM      9  C   UNL A   1      33.835  25.074  23.964  1.00  0.00     0.128 A 
ATOM     10  C   UNL A   1      33.129  24.258  26.131  1.00  0.00     0.032 A 
ATOM     11  Cl  UNL A   1      34.279  22.266  27.489  1.00  0.00    -0.084 Cl
ATOM     12  C   UNL A   1      32.977  25.138  25.054  1.00  0.00     0.019 A 
ATOM     13  O   UNL A   1      33.716  25.871  22.859  1.00  0.00    -0.475 OA
ATOM     14  C   UNL A   1      31.938  26.143  25.086  1.00  0.00     0.027 C 
ATOM     15  C   UNL A   1      32.741  26.956  22.866  1.00  0.00     0.316 C 
BRANCH   6  16
ATOM     16  C   UNL A   1      36.160  22.233  24.969  1.00  0.00     0.040 C 
BRANCH  16  17
ATOM     17  C   UNL A   1      37.555  22.839  25.218  1.00  0.00    -0.013 C 
ATOM     18  C   UNL A   1      37.523  23.944  26.277  1.00  0.00     0.008 C 
ATOM     19  C   UNL A   1      38.525  21.737  25.646  1.00  0.00     0.008 C 
ENDBRANCH  16  17
ENDBRANCH   6  16
BRANCH  15  20
ATOM     20  C   UNL A   1      33.497  28.285  22.701  1.00  0.00     0.430 C 
ATOM     21  F   UNL A   1      32.672  29.273  22.280  1.00  0.00    -0.167 F 
ATOM     22  F   UNL A   1      34.035  28.702  23.871  1.00  0.00    -0.167 F 
ATOM     23  F   UNL A   1      34.504  28.187  21.804  1.00  0.00    -0.167 F 
ENDBRANCH  15  20
ENDBRANCH   3   5
ENDBRANCH   2   3
ENDBRANCH   1   2
BRANCH   1  24
ATOM     24  C   UNL A   1      31.413  31.124  26.208  1.00  0.00     0.275 C 
BRANCH  24  25
ATOM     25  O   UNL A   1      32.801  30.939  26.545  1.00  0.00    -0.458 OA
BRANCH  25  26
ATOM     26  C   UNL A   1      33.365  31.944  27.250  1.00  0.00     0.338 C 
ATOM     27  O   UNL A   1      32.868  33.015  27.554  1.00  0.00    -0.246 OA
BRANCH  26  28
ATOM     28  C   UNL A   1      34.703  31.541  27.708  1.00  0.00     0.060 A 
ATOM     29  C   UNL A   1      35.680  32.484  28.006  1.00  0.00     0.016 A 
ATOM     30  C   UNL A   1      34.915  30.201  28.012  1.00  0.00     0.016 A 
ATOM     31  C   UNL A   1      36.870  32.062  28.611  1.00  0.00     0.010 A 
ATOM     32  C   UNL A   1      36.023  29.811  28.756  1.00  0.00     0.010 A 
ATOM     33  C   UNL A   1      37.039  30.728  29.041  1.00  0.00    -0.014 A 
BRANCH  33  34
ATOM     34  C   UNL A   1      38.261  30.295  29.782  1.00  0.00     0.031 A 
ATOM     35  C   UNL A   1      38.502  30.721  31.213  1.00  0.00     0.074 A 
ATOM     36  C   UNL A   1      39.189  29.542  29.155  1.00  0.00     0.049 A 
ATOM     37  N   UNL A   1      39.503  30.423  32.007  1.00  0.00    -0.248 NA
ATOM     38  C   UNL A   1      37.522  31.635  31.821  1.00  0.00     0.031 C 
ATOM     39  C   UNL A   1      39.150  29.152  27.744  1.00  0.00     0.029 A 
ATOM     40  N   UNL A   1      40.338  28.953  29.625  1.00  0.00    -0.354 N 
ATOM     41  C   UNL A   1      39.283  31.134  33.181  1.00  0.00     0.074 A 
ATOM     42  C   UNL A   1      38.100  31.936  32.974  1.00  0.00     0.031 C 
ATOM     43  C   UNL A   1      40.170  28.320  27.486  1.00  0.00     0.029 A 
ATOM     44  C   UNL A   1      40.960  28.147  28.701  1.00  0.00     0.049 A 
ATOM     45  H   UNL A   1      40.682  29.093  30.537  1.00  0.00     0.167 HD
ATOM     46  C   UNL A   1      39.974  31.091  34.346  1.00  0.00     0.037 A 
ATOM     47  C   UNL A   1      42.030  27.338  28.823  1.00  0.00     0.037 A 
ATOM     48  C   UNL A   1      41.109  30.240  34.582  1.00  0.00     0.049 A 
ATOM     49  C   UNL A   1      42.731  27.238  30.149  1.00  0.00     0.074 A 
ATOM     50  C   UNL A   1      41.826  30.062  35.752  1.00  0.00     0.029 A 
ATOM     51  N   UNL A   1      41.679  29.408  33.631  1.00  0.00    -0.354 N 
ATOM     52  N   UNL A   1      42.462  27.856  31.273  1.00  0.00    -0.248 NA
ATOM     53  C   UNL A   1      43.877  26.322  30.227  1.00  0.00     0.031 C 
ATOM     54  C   UNL A   1      42.847  29.139  35.503  1.00  0.00     0.029 A 
ATOM     55  C   UNL A   1      42.740  28.715  34.188  1.00  0.00     0.049 A 
ATOM     56  H   UNL A   1      41.376  29.324  32.698  1.00  0.00     0.167 HD
ATOM     57  C   UNL A   1      43.391  27.394  32.193  1.00  0.00     0.074 A 
ATOM     58  C   UNL A   1      44.220  26.427  31.504  1.00  0.00     0.031 C 
ATOM     59  C   UNL A   1      43.547  27.746  33.492  1.00  0.00     0.037 A 
BRANCH  46  60
ATOM     60  C   UNL A   1      39.490  31.952  35.480  1.00  0.00     0.064 A 
ATOM     61  C   UNL A   1      38.581  31.464  36.432  1.00  0.00     0.173 A 
ATOM     62  C   UNL A   1      39.983  33.255  35.653  1.00  0.00     0.173 A 
ATOM     63  F   UNL A   1      38.074  30.228  36.309  1.00  0.00    -0.203 F 
ATOM     64  C   UNL A   1      38.161  32.257  37.496  1.00  0.00     0.198 A 
ATOM     65  C   UNL A   1      39.584  34.033  36.738  1.00  0.00     0.198 A 
ATOM     66  F   UNL A   1      40.863  33.767  34.780  1.00  0.00    -0.203 F 
ATOM     67  F   UNL A   1      37.257  31.783  38.365  1.00  0.00    -0.200 F 
ATOM     68  C   UNL A   1      38.669  33.536  37.653  1.00  0.00     0.200 A 
ATOM     69  F   UNL A   1      40.089  35.264  36.899  1.00  0.00    -0.200 F 
ATOM     70  F   UNL A   1      38.275  34.293  38.687  1.00  0.00    -0.200 F 
ENDBRANCH  46  60
BRANCH  47  71
ATOM     71  C   UNL A   1      42.443  26.491  27.674  1.00  0.00     0.064 A 
ATOM     72  C   UNL A   1      43.453  26.920  26.801  1.00  0.00     0.173 A 
ATOM     73  C   UNL A   1      41.874  25.230  27.444  1.00  0.00     0.173 A 
ATOM     74  F   UNL A   1      44.016  28.125  26.970  1.00  0.00    -0.203 F 
ATOM     75  C   UNL A   1      43.871  26.125  25.736  1.00  0.00     0.198 A 
ATOM     76  C   UNL A   1      42.311  24.425  26.394  1.00  0.00     0.198 A 
ATOM     77  F   UNL A   1      40.911  24.771  28.256  1.00  0.00    -0.203 F 
ATOM     78  F   UNL A   1      44.819  26.572  24.900  1.00  0.00    -0.200 F 
ATOM     79  C   UNL A   1      43.306  24.875  25.539  1.00  0.00     0.200 A 
ATOM     80  F   UNL A   1      41.774  23.211  26.216  1.00  0.00    -0.200 F 
ATOM     81  F   UNL A   1      43.719  24.103  24.524  1.00  0.00    -0.200 F 
ENDBRANCH  47  71
BRANCH  59  82
ATOM     82  C   UNL A   1      44.638  27.072  34.269  1.00  0.00     0.064 A 
ATOM     83  C   UNL A   1      44.423  25.848  34.918  1.00  0.00     0.173 A 
ATOM     84  C   UNL A   1      45.929  27.619  34.301  1.00  0.00     0.173 A 
ATOM     85  F   UNL A   1      43.201  25.292  34.923  1.00  0.00    -0.203 F 
ATOM     86  C   UNL A   1      45.460  25.202  35.583  1.00  0.00     0.198 A 
ATOM     87  C   UNL A   1      46.970  26.957  34.945  1.00  0.00     0.198 A 
ATOM     88  F   UNL A   1      46.185  28.784  33.687  1.00  0.00    -0.203 F 
ATOM     89  F   UNL A   1      45.227  24.048  36.223  1.00  0.00    -0.200 F 
ATOM     90  C   UNL A   1      46.734  25.750  35.589  1.00  0.00     0.200 A 
ATOM     91  F   UNL A   1      48.202  27.482  34.938  1.00  0.00    -0.200 F 
ATOM     92  F   UNL A   1      47.734  25.119  36.217  1.00  0.00    -0.200 F 
ENDBRANCH  59  82
ENDBRANCH  33  34
ENDBRANCH  26  28
ENDBRANCH  25  26
ENDBRANCH  24  25
ENDBRANCH   1  24
TORSDOF 14
ENDMDL
MODEL 3
REMARK VINA RESULT:     -12.5      4.540      9.892
REMARK SMILES CC(C)Cc1cc2c(cc1Cl)C=C(C(=O)OCCOC(=O)c1ccc(-c3c4nc(c(-c5c(F)c(F)c(F)c(F)c5F)c5ccc([nH]5)c(-c5c(F)c(F)c(F)c(F)c5F)c5nc(c(-c6c(F)c(F)c(F)c(F)c6F)c6ccc3[nH]6)C=C5)C=C4)cc1)[C@@H](C(F)(F)F)O2
REMARK SMILES IDX 17 1 16 2 14 3 15 4 13 5 5 6 6 7 10 8 7 9 9 10 11 11 8 12
REMARK SMILES IDX 90 13 12 14 85 15 4 16 2 17 1 18 3 19 86 20 87 21 88 22
REMARK SMILES IDX 89 23 18 24 19 25 20 26 21 27 22 28 23 29 84 30 24 31 83 32
REMARK SMILES IDX 25 33 26 34 27 35 77 36 28 37 82 38 76 39 78 40 29 41 81 42
REMARK SMILES IDX 75 43 74 44 30 46 62 47 42 48 61 49 43 50 46 51 60 52 79 53
REMARK SMILES IDX 44 54 45 55 59 57 80 58 47 59 31 60 32 61 40 62 33 63 34 64
REMARK SMILES IDX 38 65 41 66 35 67 36 68 39 69 37 70 63 71 64 72 72 73 65 74
REMARK SMILES IDX 66 75 70 76 73 77 67 78 68 79 71 80 69 81 48 82 49 83 57 84
REMARK SMILES IDX 50 85 51 86 55 87 58 88 52 89 53 90 56 91 54 92
REMARK H PARENT 78 45 46 56
REMARK Flexibility Score: inf
ROOT
ATOM      1  C   UNL A   1      31.131  30.161  25.054  1.00  0.00     0.275 C 
ENDROOT
BRANCH   1   2
ATOM      2  O   UNL A   1      31.036  28.737  25.282  1.00  0.00    -0.459 OA
BRANCH   2   3
ATOM      3  C   UNL A   1      30.849  27.983  24.175  1.00  0.00     0.338 C 
ATOM      4  O   UNL A   1      30.006  28.156  23.308  1.00  0.00    -0.246 OA
BRANCH   3   5
ATOM      5  C   UNL A   1      31.849  26.902  24.107  1.00  0.00     0.087 C 
ATOM      6  C   UNL A   1      35.043  23.201  25.293  1.00  0.00    -0.025 A 
ATOM      7  C   UNL A   1      34.912  24.078  24.196  1.00  0.00     0.052 A 
ATOM      8  C   UNL A   1      34.100  23.273  26.329  1.00  0.00     0.045 A 
ATOM      9  C   UNL A   1      33.872  25.002  24.134  1.00  0.00     0.128 A 
ATOM     10  C   UNL A   1      33.067  24.205  26.273  1.00  0.00     0.032 A 
ATOM     11  Cl  UNL A   1      34.163  22.238  27.710  1.00  0.00    -0.084 Cl
ATOM     12  C   UNL A   1      32.961  25.071  25.180  1.00  0.00     0.019 A 
ATOM     13  O   UNL A   1      33.803  25.785  23.016  1.00  0.00    -0.475 OA
ATOM     14  C   UNL A   1      31.915  26.068  25.149  1.00  0.00     0.027 C 
ATOM     15  C   UNL A   1      32.821  26.862  22.962  1.00  0.00     0.316 C 
BRANCH   6  16
ATOM     16  C   UNL A   1      36.166  22.191  25.287  1.00  0.00     0.040 C 
BRANCH  16  17
ATOM     17  C   UNL A   1      37.564  22.836  25.327  1.00  0.00    -0.013 C 
ATOM     18  C   UNL A   1      37.638  23.990  26.332  1.00  0.00     0.008 C 
ATOM     19  C   UNL A   1      38.609  21.777  25.677  1.00  0.00     0.008 C 
ENDBRANCH  16  17
ENDBRANCH   6  16
BRANCH  15  20
ATOM     20  C   UNL A   1      33.574  28.195  22.818  1.00  0.00     0.430 C 
ATOM     21  F   UNL A   1      32.770  29.166  22.323  1.00  0.00    -0.167 F 
ATOM     22  F   UNL A   1      34.030  28.641  24.012  1.00  0.00    -0.167 F 
ATOM     23  F   UNL A   1      34.639  28.089  21.991  1.00  0.00    -0.167 F 
ENDBRANCH  15  20
ENDBRANCH   3   5
ENDBRANCH   2   3
ENDBRANCH   1   2
BRANCH   1  24
ATOM     24  C   UNL A   1      31.539  30.910  26.324  1.00  0.00     0.275 C 
BRANCH  24  25
ATOM     25  O   UNL A   1      32.961  30.825  26.526  1.00  0.00    -0.458 OA
BRANCH  25  26
ATOM     26  C   UNL A   1      33.498  31.802  27.289  1.00  0.00     0.338 C 
ATOM     27  O   UNL A   1      32.978  32.846  27.641  1.00  0.00    -0.246 OA
BRANCH  26  28
ATOM     28  C   UNL A   1      34.838  31.400  27.743  1.00  0.00     0.060 A 
ATOM     29  C   UNL A   1      35.820  32.344  28.021  1.00  0.00     0.016 A 
ATOM     30  C   UNL A   1      35.048  30.064  28.063  1.00  0.00     0.016 A 
ATOM     31  C   UNL A   1      37.014  31.926  28.623  1.00  0.00     0.010 A 
ATOM     32  C   UNL A   1      36.161  29.680  28.803  1.00  0.00     0.010 A 
ATOM     33  C   UNL A   1      37.182  30.598  29.069  1.00  0.00    -0.014 A 
BRANCH  33  34
ATOM     34  C   UNL A   1      38.407  30.170  29.806  1.00  0.00     0.031 A 
ATOM     35  C   UNL A   1      38.660  30.613  31.230  1.00  0.00     0.074 A 
ATOM     36  C   UNL A   1      39.328  29.406  29.182  1.00  0.00     0.049 A 
ATOM     37  N   UNL A   1      39.666  30.323  32.020  1.00  0.00    -0.248 NA
ATOM     38  C   UNL A   1      37.688  31.539  31.834  1.00  0.00     0.031 C 
ATOM     39  C   UNL A   1      39.277  28.998  27.777  1.00  0.00     0.029 A 
ATOM     40  N   UNL A   1      40.479  28.819  29.652  1.00  0.00    -0.354 N 
ATOM     41  C   UNL A   1      39.457  31.050  33.187  1.00  0.00     0.074 A 
ATOM     42  C   UNL A   1      38.275  31.853  32.978  1.00  0.00     0.031 C 
ATOM     43  C   UNL A   1      40.293  28.159  27.523  1.00  0.00     0.029 A 
ATOM     44  C   UNL A   1      41.092  28.000  28.734  1.00  0.00     0.049 A 
ATOM     45  H   UNL A   1      40.830  28.970  30.559  1.00  0.00     0.167 HD
ATOM     46  C   UNL A   1      40.156  31.020  34.347  1.00  0.00     0.037 A 
ATOM     47  C   UNL A   1      42.160  27.188  28.859  1.00  0.00     0.037 A 
ATOM     48  C   UNL A   1      41.290  30.168  34.586  1.00  0.00     0.049 A 
ATOM     49  C   UNL A   1      42.870  27.103  30.181  1.00  0.00     0.074 A 
ATOM     50  C   UNL A   1      42.015  30.004  35.753  1.00  0.00     0.029 A 
ATOM     51  N   UNL A   1      41.851  29.322  33.641  1.00  0.00    -0.354 N 
ATOM     52  N   UNL A   1      42.612  27.737  31.298  1.00  0.00    -0.248 NA
ATOM     53  C   UNL A   1      44.014  26.185  30.262  1.00  0.00     0.031 C 
ATOM     54  C   UNL A   1      43.032  29.074  35.508  1.00  0.00     0.029 A 
ATOM     55  C   UNL A   1      42.914  28.633  34.200  1.00  0.00     0.049 A 
ATOM     56  H   UNL A   1      41.540  29.226  32.712  1.00  0.00     0.167 HD
ATOM     57  C   UNL A   1      43.546  27.284  32.218  1.00  0.00     0.074 A 
ATOM     58  C   UNL A   1      44.366  26.305  31.535  1.00  0.00     0.031 C 
ATOM     59  C   UNL A   1      43.713  27.653  33.511  1.00  0.00     0.037 A 
BRANCH  46  60
ATOM     60  C   UNL A   1      39.684  31.897  35.473  1.00  0.00     0.064 A 
ATOM     61  C   UNL A   1      40.166  33.205  35.632  1.00  0.00     0.173 A 
ATOM     62  C   UNL A   1      38.697  31.451  36.366  1.00  0.00     0.173 A 
ATOM     63  F   UNL A   1      41.115  33.679  34.810  1.00  0.00    -0.203 F 
ATOM     64  C   UNL A   1      39.702  34.022  36.659  1.00  0.00     0.198 A 
ATOM     65  C   UNL A   1      38.211  32.283  37.372  1.00  0.00     0.198 A 
ATOM     66  F   UNL A   1      38.191  30.213  36.253  1.00  0.00    -0.203 F 
ATOM     67  F   UNL A   1      40.213  35.252  36.816  1.00  0.00    -0.200 F 
ATOM     68  C   UNL A   1      38.720  33.565  37.522  1.00  0.00     0.200 A 
ATOM     69  F   UNL A   1      37.249  31.846  38.196  1.00  0.00    -0.200 F 
ATOM     70  F   UNL A   1      38.262  34.359  38.500  1.00  0.00    -0.200 F 
ENDBRANCH  46  60
BRANCH  47  71
ATOM     71  C   UNL A   1      42.562  26.325  27.718  1.00  0.00     0.064 A 
ATOM     72  C   UNL A   1      41.911  25.105  27.485  1.00  0.00     0.173 A 
ATOM     73  C   UNL A   1      43.569  26.709  26.821  1.00  0.00     0.173 A 
ATOM     74  F   UNL A   1      40.953  24.687  28.325  1.00  0.00    -0.203 F 
ATOM     75  C   UNL A   1      42.256  24.299  26.403  1.00  0.00     0.198 A 
ATOM     76  C   UNL A   1      43.896  25.913  25.724  1.00  0.00     0.198 A 
ATOM     77  F   UNL A   1      44.216  27.870  26.995  1.00  0.00    -0.203 F 
ATOM     78  F   UNL A   1      41.636  23.125  26.220  1.00  0.00    -0.200 F 
ATOM     79  C   UNL A   1      43.242  24.707  25.519  1.00  0.00     0.200 A 
ATOM     80  F   UNL A   1      44.838  26.319  24.863  1.00  0.00    -0.200 F 
ATOM     81  F   UNL A   1      43.565  23.938  24.469  1.00  0.00    -0.200 F 
ENDBRANCH  47  71
BRANCH  59  82
ATOM     82  C   UNL A   1      44.807  26.985  34.288  1.00  0.00     0.064 A 
ATOM     83  C   UNL A   1      44.591  25.772  34.959  1.00  0.00     0.173 A 
ATOM     84  C   UNL A   1      46.101  27.526  34.300  1.00  0.00     0.173 A 
ATOM     85  F   UNL A   1      43.367  25.223  34.983  1.00  0.00    -0.203 F 
ATOM     86  C   UNL A   1      45.632  25.131  35.624  1.00  0.00     0.198 A 
ATOM     87  C   UNL A   1      47.145  26.868  34.945  1.00  0.00     0.198 A 
ATOM     88  F   UNL A   1      46.358  28.679  33.666  1.00  0.00    -0.203 F 
ATOM     89  F   UNL A   1      45.398  23.989  36.285  1.00  0.00    -0.200 F 
ATOM     90  C   UNL A   1      46.908  25.673  35.610  1.00  0.00     0.200 A 
ATOM     91  F   UNL A   1      48.379  27.387  34.919  1.00  0.00    -0.200 F 
ATOM     92  F   UNL A   1      47.911  25.047  36.239  1.00  0.00    -0.200 F 
ENDBRANCH  59  82
ENDBRANCH  33  34
ENDBRANCH  26  28
ENDBRANCH  25  26
ENDBRANCH  24  25
ENDBRANCH   1  24
TORSDOF 14
ENDMDL
