MODEL 1
REMARK VINA RESULT:     -11.6      0.000      0.000
REMARK SMILES O=C(COc1ccc(Br)cc1)NC(=S)Nc1ccc(Cl)cc1C(=O)OCCOC(=O)c1ccc(-c2c3nc(c(-c4c(F)c(F)c(F)c(F)c4F)c4ccc([nH]4)c(-c4c(F)c(F)c(F)c(F)c4F)c4nc(c(-c5c(F)c(F)c(F)c(F)c5F)c5ccc2[nH]5)C=C4)C=C3)cc1
REMARK SMILES IDX 23 1 24 2 22 3 16 4 17 5 18 6 21 7 19 8 20 9 15 10 13 12
REMARK SMILES IDX 14 13 12 14 1 15 2 16 3 18 4 19 5 20 6 21 11 22 7 23 10 24
REMARK SMILES IDX 8 25 9 26 25 27 26 28 27 29 28 30 29 31 30 32 31 33 32 34
REMARK SMILES IDX 93 35 33 36 92 37 34 38 35 39 36 40 86 41 37 42 91 43 85 44
REMARK SMILES IDX 87 45 38 46 90 47 84 48 83 49 39 51 71 52 51 53 70 54 52 55
REMARK SMILES IDX 55 56 69 57 88 58 53 59 54 60 68 62 89 63 56 64 40 65 41 66
REMARK SMILES IDX 49 67 42 68 43 69 47 70 50 71 44 72 45 73 48 74 46 75 72 76
REMARK SMILES IDX 73 77 81 78 74 79 75 80 79 81 82 82 76 83 77 84 80 85 78 86
REMARK SMILES IDX 57 87 58 88 66 89 59 90 60 91 64 92 67 93 61 94 62 95 65 96
REMARK SMILES IDX 63 97
REMARK H PARENT 15 11 12 17 87 50 55 61
REMARK Flexibility Score: inf
ROOT
ATOM      1  C   UNL A   1      36.123  20.757  25.198  1.00  0.00     0.340 C 
ATOM      2  O   UNL A   1      36.136  21.883  25.673  1.00  0.00    -0.246 OA
ENDROOT
BRANCH   1   3
ATOM      3  C   UNL A   1      34.852  20.102  24.781  1.00  0.00     0.085 A 
ATOM      4  C   UNL A   1      33.622  20.757  24.600  1.00  0.00     0.055 A 
ATOM      5  C   UNL A   1      32.525  20.033  24.096  1.00  0.00     0.028 A 
ATOM      6  C   UNL A   1      32.595  18.650  23.934  1.00  0.00     0.023 A 
ATOM      7  C   UNL A   1      34.913  18.706  24.597  1.00  0.00     0.038 A 
ATOM      8  C   UNL A   1      33.780  17.988  24.226  1.00  0.00     0.042 A 
ATOM      9  Cl  UNL A   1      33.846  16.272  24.139  1.00  0.00    -0.084 Cl
BRANCH   4  10
ATOM     10  N   UNL A   1      33.458  22.115  24.932  1.00  0.00    -0.332 N 
ATOM     11  H   UNL A   1      33.761  22.372  25.833  1.00  0.00     0.169 HD
BRANCH  10  12
ATOM     12  C   UNL A   1      32.941  23.119  24.182  1.00  0.00     0.177 C 
ATOM     13  S   UNL A   1      33.578  23.417  22.665  1.00  0.00    -0.040 S 
BRANCH  12  14
ATOM     14  N   UNL A   1      31.982  23.975  24.659  1.00  0.00    -0.300 N 
ATOM     15  O   UNL A   1      30.947  22.897  26.474  1.00  0.00    -0.271 OA
ATOM     16  C   UNL A   1      31.074  23.859  25.722  1.00  0.00     0.264 C 
ATOM     17  H   UNL A   1      31.920  24.825  24.168  1.00  0.00     0.172 HD
BRANCH  16  18
ATOM     18  C   UNL A   1      30.277  25.138  25.955  1.00  0.00     0.329 C 
BRANCH  18  19
ATOM     19  O   UNL A   1      30.547  26.125  24.956  1.00  0.00    -0.484 OA
BRANCH  19  20
ATOM     20  C   UNL A   1      31.174  27.214  25.505  1.00  0.00     0.120 A 
ATOM     21  C   UNL A   1      31.363  27.303  26.886  1.00  0.00     0.047 A 
ATOM     22  C   UNL A   1      31.674  28.203  24.661  1.00  0.00     0.047 A 
ATOM     23  C   UNL A   1      31.992  28.419  27.434  1.00  0.00     0.019 A 
ATOM     24  C   UNL A   1      32.326  29.312  25.207  1.00  0.00     0.019 A 
ATOM     25  C   UNL A   1      32.473  29.419  26.591  1.00  0.00     0.018 A 
ATOM     26  Br  UNL A   1      33.342  30.925  27.332  1.00  0.00    -0.051 Br
ENDBRANCH  19  20
ENDBRANCH  18  19
ENDBRANCH  16  18
ENDBRANCH  12  14
ENDBRANCH  10  12
ENDBRANCH   4  10
ENDBRANCH   1   3
BRANCH   1  27
ATOM     27  O   UNL A   1      37.217  19.989  24.959  1.00  0.00    -0.458 OA
BRANCH  27  28
ATOM     28  C   UNL A   1      38.495  20.594  25.260  1.00  0.00     0.275 C 
BRANCH  28  29
ATOM     29  C   UNL A   1      39.442  19.594  25.924  1.00  0.00     0.275 C 
BRANCH  29  30
ATOM     30  O   UNL A   1      40.665  19.536  25.173  1.00  0.00    -0.458 OA
BRANCH  30  31
ATOM     31  C   UNL A   1      41.795  19.339  25.889  1.00  0.00     0.338 C 
ATOM     32  O   UNL A   1      42.326  18.279  26.166  1.00  0.00    -0.246 OA
BRANCH  31  33
ATOM     33  C   UNL A   1      42.309  20.653  26.320  1.00  0.00     0.060 A 
ATOM     34  C   UNL A   1      42.279  20.997  27.671  1.00  0.00     0.016 A 
ATOM     35  C   UNL A   1      42.767  21.570  25.375  1.00  0.00     0.016 A 
ATOM     36  C   UNL A   1      42.678  22.266  28.084  1.00  0.00     0.010 A 
ATOM     37  C   UNL A   1      43.234  22.820  25.797  1.00  0.00     0.010 A 
ATOM     38  C   UNL A   1      43.182  23.188  27.156  1.00  0.00    -0.014 A 
BRANCH  38  39
ATOM     39  C   UNL A   1      43.625  24.539  27.599  1.00  0.00     0.031 A 
ATOM     40  C   UNL A   1      42.613  25.570  28.016  1.00  0.00     0.074 A 
ATOM     41  C   UNL A   1      44.937  24.846  27.638  1.00  0.00     0.049 A 
ATOM     42  N   UNL A   1      42.782  26.844  28.273  1.00  0.00    -0.248 NA
ATOM     43  C   UNL A   1      41.223  25.112  28.155  1.00  0.00     0.031 C 
ATOM     44  C   UNL A   1      46.031  23.932  27.305  1.00  0.00     0.029 A 
ATOM     45  N   UNL A   1      45.577  26.013  27.983  1.00  0.00    -0.354 N 
ATOM     46  C   UNL A   1      41.518  27.347  28.552  1.00  0.00     0.074 A 
ATOM     47  C   UNL A   1      40.589  26.242  28.433  1.00  0.00     0.031 C 
ATOM     48  C   UNL A   1      47.202  24.558  27.498  1.00  0.00     0.029 A 
ATOM     49  C   UNL A   1      46.945  25.942  27.882  1.00  0.00     0.049 A 
ATOM     50  H   UNL A   1      45.099  26.823  28.274  1.00  0.00     0.167 HD
ATOM     51  C   UNL A   1      41.165  28.614  28.878  1.00  0.00     0.037 A 
ATOM     52  C   UNL A   1      47.888  26.890  28.039  1.00  0.00     0.037 A 
ATOM     53  C   UNL A   1      42.096  29.699  29.049  1.00  0.00     0.049 A 
ATOM     54  C   UNL A   1      47.469  28.297  28.362  1.00  0.00     0.074 A 
ATOM     55  C   UNL A   1      41.837  31.013  29.401  1.00  0.00     0.029 A 
ATOM     56  N   UNL A   1      43.471  29.593  28.893  1.00  0.00    -0.354 N 
ATOM     57  N   UNL A   1      46.266  28.775  28.572  1.00  0.00    -0.248 NA
ATOM     58  C   UNL A   1      48.536  29.305  28.443  1.00  0.00     0.031 C 
ATOM     59  C   UNL A   1      43.050  31.710  29.423  1.00  0.00     0.029 A 
ATOM     60  C   UNL A   1      44.069  30.822  29.124  1.00  0.00     0.049 A 
ATOM     61  H   UNL A   1      43.950  28.766  28.654  1.00  0.00     0.167 HD
ATOM     62  C   UNL A   1      46.431  30.132  28.810  1.00  0.00     0.074 A 
ATOM     63  C   UNL A   1      47.852  30.399  28.746  1.00  0.00     0.031 C 
ATOM     64  C   UNL A   1      45.486  31.073  29.050  1.00  0.00     0.037 A 
BRANCH  51  65
ATOM     65  C   UNL A   1      39.703  28.911  29.039  1.00  0.00     0.064 A 
ATOM     66  C   UNL A   1      38.901  29.307  27.959  1.00  0.00     0.173 A 
ATOM     67  C   UNL A   1      39.087  28.752  30.290  1.00  0.00     0.173 A 
ATOM     68  F   UNL A   1      39.444  29.483  26.745  1.00  0.00    -0.203 F 
ATOM     69  C   UNL A   1      37.541  29.553  28.130  1.00  0.00     0.198 A 
ATOM     70  C   UNL A   1      37.723  28.975  30.452  1.00  0.00     0.198 A 
ATOM     71  F   UNL A   1      39.808  28.369  31.355  1.00  0.00    -0.203 F 
ATOM     72  F   UNL A   1      36.802  29.967  27.092  1.00  0.00    -0.200 F 
ATOM     73  C   UNL A   1      36.952  29.380  29.373  1.00  0.00     0.200 A 
ATOM     74  F   UNL A   1      37.153  28.794  31.651  1.00  0.00    -0.200 F 
ATOM     75  F   UNL A   1      35.641  29.609  29.533  1.00  0.00    -0.200 F 
ENDBRANCH  51  65
BRANCH  52  76
ATOM     76  C   UNL A   1      49.321  26.547  27.845  1.00  0.00     0.064 A 
ATOM     77  C   UNL A   1      49.866  26.422  26.560  1.00  0.00     0.173 A 
ATOM     78  C   UNL A   1      50.176  26.345  28.940  1.00  0.00     0.173 A 
ATOM     79  F   UNL A   1      49.083  26.574  25.482  1.00  0.00    -0.203 F 
ATOM     80  C   UNL A   1      51.211  26.107  26.378  1.00  0.00     0.198 A 
ATOM     81  C   UNL A   1      51.525  26.060  28.757  1.00  0.00     0.198 A 
ATOM     82  F   UNL A   1      49.700  26.445  30.189  1.00  0.00    -0.203 F 
ATOM     83  F   UNL A   1      51.701  25.957  25.139  1.00  0.00    -0.200 F 
ATOM     84  C   UNL A   1      52.042  25.936  27.476  1.00  0.00     0.200 A 
ATOM     85  F   UNL A   1      52.326  25.908  29.820  1.00  0.00    -0.200 F 
ATOM     86  F   UNL A   1      53.338  25.644  27.300  1.00  0.00    -0.200 F 
ENDBRANCH  52  76
BRANCH  64  87
ATOM     87  C   UNL A   1      45.963  32.478  29.270  1.00  0.00     0.064 A 
ATOM     88  C   UNL A   1      46.092  33.379  28.204  1.00  0.00     0.173 A 
ATOM     89  C   UNL A   1      46.266  32.933  30.560  1.00  0.00     0.173 A 
ATOM     90  F   UNL A   1      45.830  32.984  26.948  1.00  0.00    -0.203 F 
ATOM     91  C   UNL A   1      46.528  34.683  28.420  1.00  0.00     0.198 A 
ATOM     92  C   UNL A   1      46.679  34.245  30.776  1.00  0.00     0.198 A 
ATOM     93  F   UNL A   1      46.155  32.109  31.613  1.00  0.00    -0.203 F 
ATOM     94  F   UNL A   1      46.684  35.517  27.382  1.00  0.00    -0.200 F 
ATOM     95  C   UNL A   1      46.816  35.116  29.706  1.00  0.00     0.200 A 
ATOM     96  F   UNL A   1      46.948  34.665  32.020  1.00  0.00    -0.200 F 
ATOM     97  F   UNL A   1      47.233  36.373  29.913  1.00  0.00    -0.200 F 
ENDBRANCH  64  87
ENDBRANCH  38  39
ENDBRANCH  31  33
ENDBRANCH  30  31
ENDBRANCH  29  30
ENDBRANCH  28  29
ENDBRANCH  27  28
ENDBRANCH   1  27
TORSDOF 17
ENDMDL
MODEL 2
REMARK VINA RESULT:     -11.6      5.819     11.068
REMARK SMILES O=C(COc1ccc(Br)cc1)NC(=S)Nc1ccc(Cl)cc1C(=O)OCCOC(=O)c1ccc(-c2c3nc(c(-c4c(F)c(F)c(F)c(F)c4F)c4ccc([nH]4)c(-c4c(F)c(F)c(F)c(F)c4F)c4nc(c(-c5c(F)c(F)c(F)c(F)c5F)c5ccc2[nH]5)C=C4)C=C3)cc1
REMARK SMILES IDX 23 1 24 2 22 3 16 4 17 5 18 6 21 7 19 8 20 9 15 10 13 12
REMARK SMILES IDX 14 13 12 14 1 15 2 16 3 18 4 19 5 20 6 21 11 22 7 23 10 24
REMARK SMILES IDX 8 25 9 26 25 27 26 28 27 29 28 30 29 31 30 32 31 33 32 34
REMARK SMILES IDX 93 35 33 36 92 37 34 38 35 39 36 40 86 41 37 42 91 43 85 44
REMARK SMILES IDX 87 45 38 46 90 47 84 48 83 49 39 51 71 52 51 53 70 54 52 55
REMARK SMILES IDX 55 56 69 57 88 58 53 59 54 60 68 62 89 63 56 64 40 65 41 66
REMARK SMILES IDX 49 67 42 68 43 69 47 70 50 71 44 72 45 73 48 74 46 75 72 76
REMARK SMILES IDX 73 77 81 78 74 79 75 80 79 81 82 82 76 83 77 84 80 85 78 86
REMARK SMILES IDX 57 87 58 88 66 89 59 90 60 91 64 92 67 93 61 94 62 95 65 96
REMARK SMILES IDX 63 97
REMARK H PARENT 15 11 12 17 87 50 55 61
REMARK Flexibility Score: inf
ROOT
ATOM      1  C   UNL A   1      32.161  30.056  25.698  1.00  0.00     0.340 C 
ATOM      2  O   UNL A   1      33.261  29.525  25.712  1.00  0.00    -0.246 OA
ENDROOT
BRANCH   1   3
ATOM      3  C   UNL A   1      31.131  29.690  24.686  1.00  0.00     0.085 A 
ATOM      4  C   UNL A   1      31.096  28.486  23.962  1.00  0.00     0.055 A 
ATOM      5  C   UNL A   1      30.002  28.224  23.116  1.00  0.00     0.028 A 
ATOM      6  C   UNL A   1      29.046  29.206  22.860  1.00  0.00     0.023 A 
ATOM      7  C   UNL A   1      30.149  30.667  24.429  1.00  0.00     0.038 A 
ATOM      8  C   UNL A   1      29.150  30.439  23.488  1.00  0.00     0.042 A 
ATOM      9  Cl  UNL A   1      28.044  31.696  23.095  1.00  0.00    -0.084 Cl
BRANCH   4  10
ATOM     10  N   UNL A   1      32.141  27.546  24.050  1.00  0.00    -0.332 N 
ATOM     11  H   UNL A   1      32.998  27.894  24.389  1.00  0.00     0.169 HD
BRANCH  10  12
ATOM     12  C   UNL A   1      32.131  26.229  23.732  1.00  0.00     0.177 C 
ATOM     13  S   UNL A   1      32.660  25.750  22.220  1.00  0.00    -0.040 S 
BRANCH  12  14
ATOM     14  N   UNL A   1      31.602  25.276  24.564  1.00  0.00    -0.300 N 
ATOM     15  O   UNL A   1      31.382  26.265  26.685  1.00  0.00    -0.271 OA
ATOM     16  C   UNL A   1      31.257  25.311  25.923  1.00  0.00     0.264 C 
ATOM     17  H   UNL A   1      31.431  24.410  24.127  1.00  0.00     0.172 HD
BRANCH  16  18
ATOM     18  C   UNL A   1      30.575  24.029  26.388  1.00  0.00     0.329 C 
BRANCH  18  19
ATOM     19  O   UNL A   1      31.330  23.359  27.401  1.00  0.00    -0.484 OA
BRANCH  19  20
ATOM     20  C   UNL A   1      32.406  22.707  26.854  1.00  0.00     0.120 A 
ATOM     21  C   UNL A   1      32.238  21.853  25.762  1.00  0.00     0.047 A 
ATOM     22  C   UNL A   1      33.677  22.956  27.365  1.00  0.00     0.047 A 
ATOM     23  C   UNL A   1      33.338  21.189  25.221  1.00  0.00     0.019 A 
ATOM     24  C   UNL A   1      34.783  22.308  26.809  1.00  0.00     0.019 A 
ATOM     25  C   UNL A   1      34.607  21.420  25.746  1.00  0.00     0.018 A 
ATOM     26  Br  UNL A   1      36.101  20.533  25.003  1.00  0.00    -0.051 Br
ENDBRANCH  19  20
ENDBRANCH  18  19
ENDBRANCH  16  18
ENDBRANCH  12  14
ENDBRANCH  10  12
ENDBRANCH   4  10
ENDBRANCH   1   3
BRANCH   1  27
ATOM     27  O   UNL A   1      31.724  30.989  26.584  1.00  0.00    -0.458 OA
BRANCH  27  28
ATOM     28  C   UNL A   1      32.750  31.742  27.270  1.00  0.00     0.275 C 
BRANCH  28  29
ATOM     29  C   UNL A   1      32.567  33.245  27.065  1.00  0.00     0.275 C 
BRANCH  29  30
ATOM     30  O   UNL A   1      32.153  33.841  28.304  1.00  0.00    -0.458 OA
BRANCH  30  31
ATOM     31  C   UNL A   1      32.909  34.869  28.753  1.00  0.00     0.338 C 
ATOM     32  O   UNL A   1      32.707  36.061  28.607  1.00  0.00    -0.246 OA
BRANCH  31  33
ATOM     33  C   UNL A   1      34.076  34.314  29.464  1.00  0.00     0.060 A 
ATOM     34  C   UNL A   1      35.362  34.579  28.994  1.00  0.00     0.016 A 
ATOM     35  C   UNL A   1      33.893  33.479  30.565  1.00  0.00     0.016 A 
ATOM     36  C   UNL A   1      36.470  33.991  29.601  1.00  0.00     0.010 A 
ATOM     37  C   UNL A   1      35.009  32.944  31.218  1.00  0.00     0.010 A 
ATOM     38  C   UNL A   1      36.310  33.182  30.735  1.00  0.00    -0.014 A 
BRANCH  38  39
ATOM     39  C   UNL A   1      37.496  32.567  31.395  1.00  0.00     0.031 A 
ATOM     40  C   UNL A   1      38.281  31.493  30.694  1.00  0.00     0.074 A 
ATOM     41  C   UNL A   1      37.879  32.974  32.622  1.00  0.00     0.049 A 
ATOM     42  N   UNL A   1      39.233  30.722  31.160  1.00  0.00    -0.248 NA
ATOM     43  C   UNL A   1      37.946  31.244  29.284  1.00  0.00     0.031 C 
ATOM     44  C   UNL A   1      37.240  34.036  33.400  1.00  0.00     0.029 A 
ATOM     45  N   UNL A   1      38.907  32.547  33.429  1.00  0.00    -0.354 N 
ATOM     46  C   UNL A   1      39.574  29.867  30.119  1.00  0.00     0.074 A 
ATOM     47  C   UNL A   1      38.726  30.211  28.997  1.00  0.00     0.031 C 
ATOM     48  C   UNL A   1      37.909  34.203  34.550  1.00  0.00     0.029 A 
ATOM     49  C   UNL A   1      38.970  33.205  34.634  1.00  0.00     0.049 A 
ATOM     50  H   UNL A   1      39.537  31.838  33.168  1.00  0.00     0.167 HD
ATOM     51  C   UNL A   1      40.507  28.886  30.103  1.00  0.00     0.037 A 
ATOM     52  C   UNL A   1      39.762  33.003  35.704  1.00  0.00     0.037 A 
ATOM     53  C   UNL A   1      41.387  28.582  31.203  1.00  0.00     0.049 A 
ATOM     54  C   UNL A   1      40.764  31.882  35.676  1.00  0.00     0.074 A 
ATOM     55  C   UNL A   1      42.382  27.621  31.273  1.00  0.00     0.029 A 
ATOM     56  N   UNL A   1      41.387  29.243  32.422  1.00  0.00    -0.354 N 
ATOM     57  N   UNL A   1      41.041  31.045  34.707  1.00  0.00    -0.248 NA
ATOM     58  C   UNL A   1      41.545  31.661  36.902  1.00  0.00     0.031 C 
ATOM     59  C   UNL A   1      42.958  27.677  32.546  1.00  0.00     0.029 A 
ATOM     60  C   UNL A   1      42.351  28.700  33.255  1.00  0.00     0.049 A 
ATOM     61  H   UNL A   1      40.790  29.990  32.659  1.00  0.00     0.167 HD
ATOM     62  C   UNL A   1      42.025  30.201  35.203  1.00  0.00     0.074 A 
ATOM     63  C   UNL A   1      42.317  30.643  36.550  1.00  0.00     0.031 C 
ATOM     64  C   UNL A   1      42.625  29.147  34.597  1.00  0.00     0.037 A 
BRANCH  51  65
ATOM     65  C   UNL A   1      40.608  28.040  28.868  1.00  0.00     0.064 A 
ATOM     66  C   UNL A   1      39.877  26.853  28.718  1.00  0.00     0.173 A 
ATOM     67  C   UNL A   1      41.419  28.451  27.798  1.00  0.00     0.173 A 
ATOM     68  F   UNL A   1      39.096  26.411  29.715  1.00  0.00    -0.203 F 
ATOM     69  C   UNL A   1      39.970  26.098  27.551  1.00  0.00     0.198 A 
ATOM     70  C   UNL A   1      41.490  27.708  26.624  1.00  0.00     0.198 A 
ATOM     71  F   UNL A   1      42.134  29.583  27.888  1.00  0.00    -0.203 F 
ATOM     72  F   UNL A   1      39.292  24.948  27.444  1.00  0.00    -0.200 F 
ATOM     73  C   UNL A   1      40.770  26.529  26.504  1.00  0.00     0.200 A 
ATOM     74  F   UNL A   1      42.252  28.133  25.607  1.00  0.00    -0.200 F 
ATOM     75  F   UNL A   1      40.850  25.805  25.378  1.00  0.00    -0.200 F 
ENDBRANCH  51  65
BRANCH  52  76
ATOM     76  C   UNL A   1      39.604  33.855  36.911  1.00  0.00     0.064 A 
ATOM     77  C   UNL A   1      40.253  35.093  37.011  1.00  0.00     0.173 A 
ATOM     78  C   UNL A   1      38.795  33.453  37.985  1.00  0.00     0.173 A 
ATOM     79  F   UNL A   1      41.063  35.507  36.026  1.00  0.00    -0.203 F 
ATOM     80  C   UNL A   1      40.100  35.895  38.141  1.00  0.00     0.198 A 
ATOM     81  C   UNL A   1      38.619  34.268  39.099  1.00  0.00     0.198 A 
ATOM     82  F   UNL A   1      38.159  32.273  37.941  1.00  0.00    -0.203 F 
ATOM     83  F   UNL A   1      40.760  37.058  38.229  1.00  0.00    -0.200 F 
ATOM     84  C   UNL A   1      39.275  35.487  39.179  1.00  0.00     0.200 A 
ATOM     85  F   UNL A   1      37.812  33.875  40.094  1.00  0.00    -0.200 F 
ATOM     86  F   UNL A   1      39.119  36.264  40.260  1.00  0.00    -0.200 F 
ENDBRANCH  52  76
BRANCH  64  87
ATOM     87  C   UNL A   1      43.663  28.408  35.387  1.00  0.00     0.064 A 
ATOM     88  C   UNL A   1      45.026  28.712  35.265  1.00  0.00     0.173 A 
ATOM     89  C   UNL A   1      43.289  27.407  36.294  1.00  0.00     0.173 A 
ATOM     90  F   UNL A   1      45.434  29.651  34.396  1.00  0.00    -0.203 F 
ATOM     91  C   UNL A   1      45.981  28.025  36.009  1.00  0.00     0.198 A 
ATOM     92  C   UNL A   1      44.245  26.738  37.055  1.00  0.00     0.198 A 
ATOM     93  F   UNL A   1      41.996  27.082  36.450  1.00  0.00    -0.203 F 
ATOM     94  F   UNL A   1      47.282  28.303  35.847  1.00  0.00    -0.200 F 
ATOM     95  C   UNL A   1      45.589  27.043  36.907  1.00  0.00     0.200 A 
ATOM     96  F   UNL A   1      43.863  25.795  37.929  1.00  0.00    -0.200 F 
ATOM     97  F   UNL A   1      46.509  26.384  37.625  1.00  0.00    -0.200 F 
ENDBRANCH  64  87
ENDBRANCH  38  39
ENDBRANCH  31  33
ENDBRANCH  30  31
ENDBRANCH  29  30
ENDBRANCH  28  29
ENDBRANCH  27  28
ENDBRANCH   1  27
TORSDOF 17
ENDMDL
MODEL 3
REMARK VINA RESULT:     -11.5      2.458      3.713
REMARK SMILES O=C(COc1ccc(Br)cc1)NC(=S)Nc1ccc(Cl)cc1C(=O)OCCOC(=O)c1ccc(-c2c3nc(c(-c4c(F)c(F)c(F)c(F)c4F)c4ccc([nH]4)c(-c4c(F)c(F)c(F)c(F)c4F)c4nc(c(-c5c(F)c(F)c(F)c(F)c5F)c5ccc2[nH]5)C=C4)C=C3)cc1
REMARK SMILES IDX 23 1 24 2 22 3 16 4 17 5 18 6 21 7 19 8 20 9 15 10 13 12
REMARK SMILES IDX 14 13 12 14 1 15 2 16 3 18 4 19 5 20 6 21 11 22 7 23 10 24
REMARK SMILES IDX 8 25 9 26 25 27 26 28 27 29 28 30 29 31 30 32 31 33 32 34
REMARK SMILES IDX 93 35 33 36 92 37 34 38 35 39 36 40 86 41 37 42 91 43 85 44
REMARK SMILES IDX 87 45 38 46 90 47 84 48 83 49 39 51 71 52 51 53 70 54 52 55
REMARK SMILES IDX 55 56 69 57 88 58 53 59 54 60 68 62 89 63 56 64 40 65 41 66
REMARK SMILES IDX 49 67 42 68 43 69 47 70 50 71 44 72 45 73 48 74 46 75 72 76
REMARK SMILES IDX 73 77 81 78 74 79 75 80 79 81 82 82 76 83 77 84 80 85 78 86
REMARK SMILES IDX 57 87 58 88 66 89 59 90 60 91 64 92 67 93 61 94 62 95 65 96
REMARK SMILES IDX 63 97
REMARK H PARENT 15 11 12 17 87 50 55 61
REMARK Flexibility Score: inf
ROOT
ATOM      1  C   UNL A   1      33.892  23.145  26.395  1.00  0.00     0.340 C 
ATOM      2  O   UNL A   1      34.319  22.911  27.516  1.00  0.00    -0.246 OA
ENDROOT
BRANCH   1   3
ATOM      3  C   UNL A   1      32.731  24.053  26.177  1.00  0.00     0.085 A 
ATOM      4  C   UNL A   1      31.647  23.793  25.322  1.00  0.00     0.055 A 
ATOM      5  C   UNL A   1      30.562  24.690  25.295  1.00  0.00     0.028 A 
ATOM      6  C   UNL A   1      30.623  25.905  25.975  1.00  0.00     0.023 A 
ATOM      7  C   UNL A   1      32.772  25.278  26.870  1.00  0.00     0.038 A 
ATOM      8  C   UNL A   1      31.749  26.211  26.726  1.00  0.00     0.042 A 
ATOM      9  Cl  UNL A   1      31.887  27.753  27.475  1.00  0.00    -0.084 Cl
BRANCH   4  10
ATOM     10  N   UNL A   1      31.632  22.667  24.476  1.00  0.00    -0.332 N 
ATOM     11  H   UNL A   1      31.453  21.806  24.918  1.00  0.00     0.169 HD
BRANCH  10  12
ATOM     12  C   UNL A   1      31.831  22.605  23.137  1.00  0.00     0.177 C 
ATOM     13  S   UNL A   1      32.087  21.118  22.417  1.00  0.00    -0.040 S 
BRANCH  12  14
ATOM     14  N   UNL A   1      31.938  23.727  22.357  1.00  0.00    -0.300 N 
ATOM     15  O   UNL A   1      34.149  24.497  22.564  1.00  0.00    -0.271 OA
ATOM     16  C   UNL A   1      33.017  24.585  22.098  1.00  0.00     0.264 C 
ATOM     17  H   UNL A   1      31.106  23.976  21.891  1.00  0.00     0.172 HD
BRANCH  16  18
ATOM     18  C   UNL A   1      32.689  25.642  21.050  1.00  0.00     0.329 C 
BRANCH  18  19
ATOM     19  O   UNL A   1      31.377  26.182  21.228  1.00  0.00    -0.484 OA
BRANCH  19  20
ATOM     20  C   UNL A   1      31.381  27.164  22.186  1.00  0.00     0.120 A 
ATOM     21  C   UNL A   1      30.180  27.641  22.718  1.00  0.00     0.047 A 
ATOM     22  C   UNL A   1      32.600  27.636  22.664  1.00  0.00     0.047 A 
ATOM     23  C   UNL A   1      30.196  28.645  23.683  1.00  0.00     0.019 A 
ATOM     24  C   UNL A   1      32.618  28.627  23.649  1.00  0.00     0.019 A 
ATOM     25  C   UNL A   1      31.416  29.134  24.147  1.00  0.00     0.018 A 
ATOM     26  Br  UNL A   1      31.439  30.485  25.469  1.00  0.00    -0.051 Br
ENDBRANCH  19  20
ENDBRANCH  18  19
ENDBRANCH  16  18
ENDBRANCH  12  14
ENDBRANCH  10  12
ENDBRANCH   4  10
ENDBRANCH   1   3
BRANCH   1  27
ATOM     27  O   UNL A   1      34.412  22.662  25.236  1.00  0.00    -0.458 OA
BRANCH  27  28
ATOM     28  C   UNL A   1      34.873  21.293  25.270  1.00  0.00     0.275 C 
BRANCH  28  29
ATOM     29  C   UNL A   1      36.357  21.198  24.915  1.00  0.00     0.275 C 
BRANCH  29  30
ATOM     30  O   UNL A   1      37.136  21.685  26.019  1.00  0.00    -0.458 OA
BRANCH  30  31
ATOM     31  C   UNL A   1      38.459  21.409  25.982  1.00  0.00     0.338 C 
ATOM     32  O   UNL A   1      38.994  20.369  25.644  1.00  0.00    -0.246 OA
BRANCH  31  33
ATOM     33  C   UNL A   1      39.197  22.600  26.446  1.00  0.00     0.060 A 
ATOM     34  C   UNL A   1      38.746  23.872  26.094  1.00  0.00     0.016 A 
ATOM     35  C   UNL A   1      40.372  22.453  27.180  1.00  0.00     0.016 A 
ATOM     36  C   UNL A   1      39.478  25.002  26.449  1.00  0.00     0.010 A 
ATOM     37  C   UNL A   1      41.072  23.592  27.597  1.00  0.00     0.010 A 
ATOM     38  C   UNL A   1      40.640  24.879  27.223  1.00  0.00    -0.014 A 
BRANCH  38  39
ATOM     39  C   UNL A   1      41.415  26.089  27.618  1.00  0.00     0.031 A 
ATOM     40  C   UNL A   1      40.786  27.141  28.491  1.00  0.00     0.074 A 
ATOM     41  C   UNL A   1      42.688  26.247  27.205  1.00  0.00     0.049 A 
ATOM     42  N   UNL A   1      41.230  28.332  28.806  1.00  0.00    -0.248 NA
ATOM     43  C   UNL A   1      39.479  26.813  29.081  1.00  0.00     0.031 C 
ATOM     44  C   UNL A   1      43.440  25.289  26.394  1.00  0.00     0.029 A 
ATOM     45  N   UNL A   1      43.581  27.271  27.417  1.00  0.00    -0.354 N 
ATOM     46  C   UNL A   1      40.238  28.913  29.586  1.00  0.00     0.074 A 
ATOM     47  C   UNL A   1      39.167  27.945  29.695  1.00  0.00     0.031 C 
ATOM     48  C   UNL A   1      44.686  25.750  26.209  1.00  0.00     0.029 A 
ATOM     49  C   UNL A   1      44.798  27.074  26.811  1.00  0.00     0.049 A 
ATOM     50  H   UNL A   1      43.367  28.069  27.951  1.00  0.00     0.167 HD
ATOM     51  C   UNL A   1      40.222  30.142  30.156  1.00  0.00     0.037 A 
ATOM     52  C   UNL A   1      45.871  27.882  26.714  1.00  0.00     0.037 A 
ATOM     53  C   UNL A   1      41.311  31.083  30.091  1.00  0.00     0.049 A 
ATOM     54  C   UNL A   1      45.816  29.255  27.322  1.00  0.00     0.074 A 
ATOM     55  C   UNL A   1      41.399  32.343  30.657  1.00  0.00     0.029 A 
ATOM     56  N   UNL A   1      42.510  30.860  29.429  1.00  0.00    -0.354 N 
ATOM     57  N   UNL A   1      44.852  29.816  28.011  1.00  0.00    -0.248 NA
ATOM     58  C   UNL A   1      46.986  30.120  27.115  1.00  0.00     0.031 C 
ATOM     59  C   UNL A   1      42.635  32.898  30.307  1.00  0.00     0.029 A 
ATOM     60  C   UNL A   1      43.334  31.967  29.558  1.00  0.00     0.049 A 
ATOM     61  H   UNL A   1      42.741  30.037  28.941  1.00  0.00     0.167 HD
ATOM     62  C   UNL A   1      45.298  31.093  28.321  1.00  0.00     0.074 A 
ATOM     63  C   UNL A   1      46.630  31.218  27.767  1.00  0.00     0.031 C 
ATOM     64  C   UNL A   1      44.655  32.077  28.995  1.00  0.00     0.037 A 
BRANCH  51  65
ATOM     65  C   UNL A   1      38.975  30.561  30.877  1.00  0.00     0.064 A 
ATOM     66  C   UNL A   1      38.830  30.408  32.263  1.00  0.00     0.173 A 
ATOM     67  C   UNL A   1      37.923  31.166  30.169  1.00  0.00     0.173 A 
ATOM     68  F   UNL A   1      39.800  29.826  32.983  1.00  0.00    -0.203 F 
ATOM     69  C   UNL A   1      37.671  30.827  32.911  1.00  0.00     0.198 A 
ATOM     70  C   UNL A   1      36.778  31.606  30.824  1.00  0.00     0.198 A 
ATOM     71  F   UNL A   1      38.015  31.341  28.842  1.00  0.00    -0.203 F 
ATOM     72  F   UNL A   1      37.538  30.637  34.231  1.00  0.00    -0.200 F 
ATOM     73  C   UNL A   1      36.649  31.431  32.194  1.00  0.00     0.200 A 
ATOM     74  F   UNL A   1      35.798  32.202  30.131  1.00  0.00    -0.200 F 
ATOM     75  F   UNL A   1      35.539  31.842  32.822  1.00  0.00    -0.200 F 
ENDBRANCH  51  65
BRANCH  52  76
ATOM     76  C   UNL A   1      47.074  27.426  25.968  1.00  0.00     0.064 A 
ATOM     77  C   UNL A   1      47.168  27.590  24.580  1.00  0.00     0.173 A 
ATOM     78  C   UNL A   1      48.156  26.825  26.630  1.00  0.00     0.173 A 
ATOM     79  F   UNL A   1      46.147  28.129  23.897  1.00  0.00    -0.203 F 
ATOM     80  C   UNL A   1      48.298  27.168  23.882  1.00  0.00     0.198 A 
ATOM     81  C   UNL A   1      49.297  26.433  25.937  1.00  0.00     0.198 A 
ATOM     82  F   UNL A   1      48.111  26.639  27.957  1.00  0.00    -0.203 F 
ATOM     83  F   UNL A   1      48.350  27.303  22.549  1.00  0.00    -0.200 F 
ATOM     84  C   UNL A   1      49.366  26.600  24.562  1.00  0.00     0.200 A 
ATOM     85  F   UNL A   1      50.330  25.895  26.599  1.00  0.00    -0.200 F 
ATOM     86  F   UNL A   1      50.457  26.205  23.891  1.00  0.00    -0.200 F 
ENDBRANCH  52  76
BRANCH  64  87
ATOM     87  C   UNL A   1      45.391  33.371  29.177  1.00  0.00     0.064 A 
ATOM     88  C   UNL A   1      45.249  34.426  28.264  1.00  0.00     0.173 A 
ATOM     89  C   UNL A   1      46.223  33.568  30.289  1.00  0.00     0.173 A 
ATOM     90  F   UNL A   1      44.478  34.279  27.176  1.00  0.00    -0.203 F 
ATOM     91  C   UNL A   1      45.930  35.626  28.447  1.00  0.00     0.198 A 
ATOM     92  C   UNL A   1      46.883  34.778  30.482  1.00  0.00     0.198 A 
ATOM     93  F   UNL A   1      46.388  32.590  31.192  1.00  0.00    -0.203 F 
ATOM     94  F   UNL A   1      45.813  36.607  27.542  1.00  0.00    -0.200 F 
ATOM     95  C   UNL A   1      46.742  35.803  29.559  1.00  0.00     0.200 A 
ATOM     96  F   UNL A   1      47.661  34.950  31.560  1.00  0.00    -0.200 F 
ATOM     97  F   UNL A   1      47.395  36.959  29.735  1.00  0.00    -0.200 F 
ENDBRANCH  64  87
ENDBRANCH  38  39
ENDBRANCH  31  33
ENDBRANCH  30  31
ENDBRANCH  29  30
ENDBRANCH  28  29
ENDBRANCH  27  28
ENDBRANCH   1  27
TORSDOF 17
ENDMDL
