MODEL 1
REMARK VINA RESULT:     -13.3      0.000      0.000
REMARK SMILES COC(=O)c1ccc2c(c1)=N[C@H](c1cn(CCC(=O)OCCOC(=O)c3ccc(-c4c5nc(c(-c6c(F)c(F)c(F)c(F)c6F)c6ccc([nH]6)c(-c6c(F)c(F)c(F)c(F)c6F)c6nc(c(-c7c(F)c(F)c(F)c(F)c7F)c7ccc4[nH]7)C=C6)C=C5)cc3)c3ccccc13)N=2
REMARK SMILES IDX 20 1 18 2 19 3 17 4 16 5 15 6 13 7 14 8 94 9 89 10 93 11
REMARK SMILES IDX 90 12 92 13 91 14 12 15 5 16 6 17 10 18 7 19 9 20 8 21 11 22
REMARK SMILES IDX 95 23 3 24 4 25 2 26 1 27 21 28 22 29 23 30 24 31 25 32
REMARK SMILES IDX 26 33 27 34 88 35 28 36 87 37 29 38 30 39 31 40 81 41 32 42
REMARK SMILES IDX 86 43 80 44 82 45 33 46 85 47 79 48 78 49 34 51 66 52 46 53
REMARK SMILES IDX 65 54 47 55 50 56 64 57 83 58 48 59 49 60 63 62 84 63 51 64
REMARK SMILES IDX 35 65 36 66 44 67 37 68 38 69 42 70 45 71 39 72 40 73 43 74
REMARK SMILES IDX 41 75 67 76 68 77 76 78 69 79 70 80 74 81 77 82 71 83 72 84
REMARK SMILES IDX 75 85 73 86 52 87 53 88 61 89 54 90 55 91 59 92 62 93 56 94
REMARK SMILES IDX 57 95 60 96 58 97
REMARK H PARENT 82 50 50 61
REMARK Flexibility Score: inf
ROOT
ATOM      1  O   UNL A   1      38.048  21.166  25.323  1.00  0.00    -0.462 OA
ENDROOT
BRANCH   1   2
ATOM      2  C   UNL A   1      36.735  21.476  25.365  1.00  0.00     0.307 C 
ATOM      3  O   UNL A   1      35.825  20.701  25.096  1.00  0.00    -0.252 OA
BRANCH   2   4
ATOM      4  C   UNL A   1      36.488  22.914  25.767  1.00  0.00     0.144 C 
BRANCH   4   5
ATOM      5  C   UNL A   1      36.093  23.866  24.627  1.00  0.00     0.134 C 
BRANCH   5   6
ATOM      6  N   UNL A   1      34.685  24.223  24.719  1.00  0.00    -0.346 N 
ATOM      7  C   UNL A   1      33.039  24.926  26.004  1.00  0.00     0.024 A 
ATOM      8  C   UNL A   1      34.233  25.314  25.413  1.00  0.00     0.094 A 
ATOM      9  C   UNL A   1      32.916  23.521  25.754  1.00  0.00     0.007 A 
ATOM     10  C   UNL A   1      33.635  23.348  24.578  1.00  0.00     0.048 A 
ATOM     11  C   UNL A   1      32.059  22.496  26.179  1.00  0.00     0.011 A 
ATOM     12  C   UNL A   1      33.236  22.442  23.594  1.00  0.00     0.027 A 
ATOM     13  C   UNL A   1      31.691  21.529  25.242  1.00  0.00     0.001 A 
ATOM     14  C   UNL A   1      32.185  21.582  23.938  1.00  0.00     0.002 A 
BRANCH   7  15
ATOM     15  C   UNL A   1      31.969  25.853  26.506  1.00  0.00     0.255 C 
ATOM     16  C   UNL A   1      29.676  28.106  23.330  1.00  0.00     0.062 A 
ATOM     17  C   UNL A   1      28.701  27.065  23.645  1.00  0.00     0.018 A 
ATOM     18  C   UNL A   1      30.881  28.168  23.923  1.00  0.00     0.046 A 
ATOM     19  C   UNL A   1      28.929  26.086  24.534  1.00  0.00     0.031 A 
ATOM     20  C   UNL A   1      31.173  27.181  24.968  1.00  0.00     0.087 A 
ATOM     21  C   UNL A   1      30.205  26.107  25.257  1.00  0.00     0.086 A 
ATOM     22  N   UNL A   1      32.178  27.143  25.772  1.00  0.00    -0.252 NA
ATOM     23  N   UNL A   1      30.605  25.331  26.204  1.00  0.00    -0.252 NA
BRANCH  16  24
ATOM     24  C   UNL A   1      29.386  29.182  22.333  1.00  0.00     0.337 C 
ATOM     25  O   UNL A   1      30.185  29.616  21.537  1.00  0.00    -0.246 OA
BRANCH  24  26
ATOM     26  O   UNL A   1      28.108  29.625  22.514  1.00  0.00    -0.465 OA
ATOM     27  C   UNL A   1      27.997  30.757  23.381  1.00  0.00     0.282 C 
ENDBRANCH  24  26
ENDBRANCH  16  24
ENDBRANCH   7  15
ENDBRANCH   5   6
ENDBRANCH   4   5
ENDBRANCH   2   4
ENDBRANCH   1   2
BRANCH   1  28
ATOM     28  C   UNL A   1      38.966  21.922  26.136  1.00  0.00     0.274 C 
BRANCH  28  29
ATOM     29  C   UNL A   1      40.285  21.144  26.207  1.00  0.00     0.275 C 
BRANCH  29  30
ATOM     30  O   UNL A   1      41.195  21.853  27.068  1.00  0.00    -0.458 OA
BRANCH  30  31
ATOM     31  C   UNL A   1      41.870  22.875  26.485  1.00  0.00     0.338 C 
ATOM     32  O   UNL A   1      42.472  22.843  25.426  1.00  0.00    -0.246 OA
BRANCH  31  33
ATOM     33  C   UNL A   1      41.439  24.122  27.159  1.00  0.00     0.060 A 
ATOM     34  C   UNL A   1      40.533  24.998  26.553  1.00  0.00     0.016 A 
ATOM     35  C   UNL A   1      42.166  24.524  28.285  1.00  0.00     0.016 A 
ATOM     36  C   UNL A   1      40.477  26.318  26.978  1.00  0.00     0.010 A 
ATOM     37  C   UNL A   1      42.132  25.854  28.688  1.00  0.00     0.010 A 
ATOM     38  C   UNL A   1      41.329  26.763  27.999  1.00  0.00    -0.014 A 
BRANCH  38  39
ATOM     39  C   UNL A   1      41.103  28.105  28.530  1.00  0.00     0.031 A 
ATOM     40  C   UNL A   1      42.149  29.044  28.052  1.00  0.00     0.074 A 
ATOM     41  C   UNL A   1      40.082  28.546  29.293  1.00  0.00     0.049 A 
ATOM     42  N   UNL A   1      43.108  29.564  28.744  1.00  0.00    -0.248 NA
ATOM     43  C   UNL A   1      42.250  29.279  26.603  1.00  0.00     0.031 C 
ATOM     44  C   UNL A   1      38.834  27.875  29.645  1.00  0.00     0.029 A 
ATOM     45  N   UNL A   1      39.945  29.773  29.884  1.00  0.00    -0.354 N 
ATOM     46  C   UNL A   1      43.847  30.322  27.843  1.00  0.00     0.074 A 
ATOM     47  C   UNL A   1      43.393  29.956  26.530  1.00  0.00     0.031 C 
ATOM     48  C   UNL A   1      37.989  28.769  30.219  1.00  0.00     0.029 A 
ATOM     49  C   UNL A   1      38.681  30.036  30.401  1.00  0.00     0.049 A 
ATOM     50  H   UNL A   1      40.685  30.421  29.937  1.00  0.00     0.167 HD
ATOM     51  C   UNL A   1      44.604  31.368  28.266  1.00  0.00     0.037 A 
ATOM     52  C   UNL A   1      38.244  31.220  30.909  1.00  0.00     0.037 A 
ATOM     53  C   UNL A   1      44.905  31.250  29.672  1.00  0.00     0.049 A 
ATOM     54  C   UNL A   1      39.445  32.002  31.292  1.00  0.00     0.074 A 
ATOM     55  C   UNL A   1      45.564  30.313  30.445  1.00  0.00     0.029 A 
ATOM     56  N   UNL A   1      44.188  32.020  30.552  1.00  0.00    -0.354 N 
ATOM     57  N   UNL A   1      40.220  31.710  32.296  1.00  0.00    -0.248 NA
ATOM     58  C   UNL A   1      40.007  32.912  30.307  1.00  0.00     0.031 C 
ATOM     59  C   UNL A   1      44.847  30.275  31.677  1.00  0.00     0.029 A 
ATOM     60  C   UNL A   1      43.826  31.224  31.605  1.00  0.00     0.049 A 
ATOM     61  H   UNL A   1      43.974  32.976  30.446  1.00  0.00     0.167 HD
ATOM     62  C   UNL A   1      41.492  32.031  31.854  1.00  0.00     0.074 A 
ATOM     63  C   UNL A   1      41.290  32.862  30.672  1.00  0.00     0.031 C 
ATOM     64  C   UNL A   1      42.582  31.361  32.324  1.00  0.00     0.037 A 
BRANCH  51  65
ATOM     65  C   UNL A   1      44.728  32.669  27.505  1.00  0.00     0.064 A 
ATOM     66  C   UNL A   1      45.885  32.892  26.731  1.00  0.00     0.173 A 
ATOM     67  C   UNL A   1      43.924  33.810  27.725  1.00  0.00     0.173 A 
ATOM     68  F   UNL A   1      46.735  31.888  26.465  1.00  0.00    -0.203 F 
ATOM     69  C   UNL A   1      46.252  34.168  26.298  1.00  0.00     0.198 A 
ATOM     70  C   UNL A   1      44.265  35.072  27.242  1.00  0.00     0.198 A 
ATOM     71  F   UNL A   1      42.837  33.793  28.501  1.00  0.00    -0.203 F 
ATOM     72  F   UNL A   1      47.431  34.347  25.688  1.00  0.00    -0.200 F 
ATOM     73  C   UNL A   1      45.446  35.259  26.561  1.00  0.00     0.200 A 
ATOM     74  F   UNL A   1      43.473  36.117  27.523  1.00  0.00    -0.200 F 
ATOM     75  F   UNL A   1      45.825  36.492  26.204  1.00  0.00    -0.200 F 
ENDBRANCH  51  65
BRANCH  52  76
ATOM     76  C   UNL A   1      36.901  31.860  30.866  1.00  0.00     0.064 A 
ATOM     77  C   UNL A   1      36.092  31.919  32.018  1.00  0.00     0.173 A 
ATOM     78  C   UNL A   1      36.525  32.702  29.805  1.00  0.00     0.173 A 
ATOM     79  F   UNL A   1      36.391  31.178  33.096  1.00  0.00    -0.203 F 
ATOM     80  C   UNL A   1      35.011  32.803  32.122  1.00  0.00     0.198 A 
ATOM     81  C   UNL A   1      35.441  33.579  29.906  1.00  0.00     0.198 A 
ATOM     82  F   UNL A   1      37.261  32.768  28.687  1.00  0.00    -0.203 F 
ATOM     83  F   UNL A   1      34.320  32.887  33.267  1.00  0.00    -0.200 F 
ATOM     84  C   UNL A   1      34.698  33.644  31.070  1.00  0.00     0.200 A 
ATOM     85  F   UNL A   1      35.166  34.414  28.893  1.00  0.00    -0.200 F 
ATOM     86  F   UNL A   1      33.713  34.546  31.193  1.00  0.00    -0.200 F 
ENDBRANCH  52  76
BRANCH  64  87
ATOM     87  C   UNL A   1      42.412  30.489  33.536  1.00  0.00     0.064 A 
ATOM     88  C   UNL A   1      42.486  30.959  34.859  1.00  0.00     0.173 A 
ATOM     89  C   UNL A   1      41.976  29.172  33.340  1.00  0.00     0.173 A 
ATOM     90  F   UNL A   1      42.819  32.229  35.125  1.00  0.00    -0.203 F 
ATOM     91  C   UNL A   1      42.147  30.138  35.934  1.00  0.00     0.198 A 
ATOM     92  C   UNL A   1      41.600  28.368  34.411  1.00  0.00     0.198 A 
ATOM     93  F   UNL A   1      41.849  28.685  32.095  1.00  0.00    -0.203 F 
ATOM     94  F   UNL A   1      42.218  30.607  37.188  1.00  0.00    -0.200 F 
ATOM     95  C   UNL A   1      41.689  28.850  35.707  1.00  0.00     0.200 A 
ATOM     96  F   UNL A   1      41.114  27.141  34.184  1.00  0.00    -0.200 F 
ATOM     97  F   UNL A   1      41.300  28.081  36.736  1.00  0.00    -0.200 F 
ENDBRANCH  64  87
ENDBRANCH  38  39
ENDBRANCH  31  33
ENDBRANCH  30  31
ENDBRANCH  29  30
ENDBRANCH  28  29
ENDBRANCH   1  28
TORSDOF 16
ENDMDL
MODEL 2
REMARK VINA RESULT:     -13.0      3.406      9.184
REMARK SMILES COC(=O)c1ccc2c(c1)=N[C@H](c1cn(CCC(=O)OCCOC(=O)c3ccc(-c4c5nc(c(-c6c(F)c(F)c(F)c(F)c6F)c6ccc([nH]6)c(-c6c(F)c(F)c(F)c(F)c6F)c6nc(c(-c7c(F)c(F)c(F)c(F)c7F)c7ccc4[nH]7)C=C6)C=C5)cc3)c3ccccc13)N=2
REMARK SMILES IDX 20 1 18 2 19 3 17 4 16 5 15 6 13 7 14 8 94 9 89 10 93 11
REMARK SMILES IDX 90 12 92 13 91 14 12 15 5 16 6 17 10 18 7 19 9 20 8 21 11 22
REMARK SMILES IDX 95 23 3 24 4 25 2 26 1 27 21 28 22 29 23 30 24 31 25 32
REMARK SMILES IDX 26 33 27 34 88 35 28 36 87 37 29 38 30 39 31 40 81 41 32 42
REMARK SMILES IDX 86 43 80 44 82 45 33 46 85 47 79 48 78 49 34 51 66 52 46 53
REMARK SMILES IDX 65 54 47 55 50 56 64 57 83 58 48 59 49 60 63 62 84 63 51 64
REMARK SMILES IDX 35 65 36 66 44 67 37 68 38 69 42 70 45 71 39 72 40 73 43 74
REMARK SMILES IDX 41 75 67 76 68 77 76 78 69 79 70 80 74 81 77 82 71 83 72 84
REMARK SMILES IDX 75 85 73 86 52 87 53 88 61 89 54 90 55 91 59 92 62 93 56 94
REMARK SMILES IDX 57 95 60 96 58 97
REMARK H PARENT 82 50 50 61
REMARK Flexibility Score: inf
ROOT
ATOM      1  O   UNL A   1      33.232  30.745  27.724  1.00  0.00    -0.462 OA
ENDROOT
BRANCH   1   2
ATOM      2  C   UNL A   1      32.862  30.127  26.583  1.00  0.00     0.307 C 
ATOM      3  O   UNL A   1      31.927  30.473  25.872  1.00  0.00    -0.252 OA
BRANCH   2   4
ATOM      4  C   UNL A   1      33.723  28.921  26.269  1.00  0.00     0.144 C 
BRANCH   4   5
ATOM      5  C   UNL A   1      33.231  27.584  26.845  1.00  0.00     0.134 C 
BRANCH   5   6
ATOM      6  N   UNL A   1      33.024  26.611  25.783  1.00  0.00    -0.346 N 
ATOM      7  C   UNL A   1      33.816  25.686  23.947  1.00  0.00     0.024 A 
ATOM      8  C   UNL A   1      34.016  25.790  25.317  1.00  0.00     0.094 A 
ATOM      9  C   UNL A   1      32.772  26.613  23.631  1.00  0.00     0.007 A 
ATOM     10  C   UNL A   1      32.051  26.688  24.816  1.00  0.00     0.048 A 
ATOM     11  C   UNL A   1      32.194  27.114  22.456  1.00  0.00     0.011 A 
ATOM     12  C   UNL A   1      30.661  26.818  24.829  1.00  0.00     0.027 A 
ATOM     13  C   UNL A   1      30.815  27.324  22.451  1.00  0.00     0.001 A 
ATOM     14  C   UNL A   1      30.054  27.061  23.591  1.00  0.00     0.002 A 
BRANCH   7  15
ATOM     15  C   UNL A   1      34.360  24.599  23.064  1.00  0.00     0.255 C 
ATOM     16  C   UNL A   1      33.088  20.393  24.117  1.00  0.00     0.062 A 
ATOM     17  C   UNL A   1      32.194  20.645  22.991  1.00  0.00     0.018 A 
ATOM     18  C   UNL A   1      33.953  21.317  24.571  1.00  0.00     0.046 A 
ATOM     19  C   UNL A   1      32.152  21.811  22.329  1.00  0.00     0.031 A 
ATOM     20  C   UNL A   1      34.027  22.589  23.846  1.00  0.00     0.087 A 
ATOM     21  C   UNL A   1      33.096  22.858  22.735  1.00  0.00     0.086 A 
ATOM     22  N   UNL A   1      34.877  23.544  23.995  1.00  0.00    -0.252 NA
ATOM     23  N   UNL A   1      33.296  24.012  22.199  1.00  0.00    -0.252 NA
BRANCH  16  24
ATOM     24  C   UNL A   1      33.106  19.078  24.831  1.00  0.00     0.337 C 
ATOM     25  O   UNL A   1      32.221  18.671  25.546  1.00  0.00    -0.246 OA
BRANCH  24  26
ATOM     26  O   UNL A   1      34.298  18.458  24.593  1.00  0.00    -0.465 OA
ATOM     27  C   UNL A   1      34.202  17.305  23.754  1.00  0.00     0.282 C 
ENDBRANCH  24  26
ENDBRANCH  16  24
ENDBRANCH   7  15
ENDBRANCH   5   6
ENDBRANCH   4   5
ENDBRANCH   2   4
ENDBRANCH   1   2
BRANCH   1  28
ATOM     28  C   UNL A   1      33.765  32.082  27.648  1.00  0.00     0.274 C 
BRANCH  28  29
ATOM     29  C   UNL A   1      35.257  32.016  27.996  1.00  0.00     0.275 C 
BRANCH  29  30
ATOM     30  O   UNL A   1      35.519  32.923  29.084  1.00  0.00    -0.458 OA
BRANCH  30  31
ATOM     31  C   UNL A   1      35.403  32.391  30.325  1.00  0.00     0.338 C 
ATOM     32  O   UNL A   1      34.411  32.395  31.033  1.00  0.00    -0.246 OA
BRANCH  31  33
ATOM     33  C   UNL A   1      36.558  31.482  30.519  1.00  0.00     0.060 A 
ATOM     34  C   UNL A   1      37.851  31.982  30.698  1.00  0.00     0.016 A 
ATOM     35  C   UNL A   1      36.354  30.124  30.247  1.00  0.00     0.016 A 
ATOM     36  C   UNL A   1      38.938  31.155  30.449  1.00  0.00     0.010 A 
ATOM     37  C   UNL A   1      37.444  29.308  29.966  1.00  0.00     0.010 A 
ATOM     38  C   UNL A   1      38.733  29.838  30.014  1.00  0.00    -0.014 A 
BRANCH  38  39
ATOM     39  C   UNL A   1      39.899  28.961  29.942  1.00  0.00     0.031 A 
ATOM     40  C   UNL A   1      40.514  28.791  31.282  1.00  0.00     0.074 A 
ATOM     41  C   UNL A   1      40.384  28.295  28.874  1.00  0.00     0.049 A 
ATOM     42  N   UNL A   1      41.636  29.280  31.694  1.00  0.00    -0.248 NA
ATOM     43  C   UNL A   1      39.701  28.166  32.336  1.00  0.00     0.031 C 
ATOM     44  C   UNL A   1      39.791  28.107  27.553  1.00  0.00     0.029 A 
ATOM     45  N   UNL A   1      41.545  27.574  28.791  1.00  0.00    -0.354 N 
ATOM     46  C   UNL A   1      41.746  28.890  33.024  1.00  0.00     0.074 A 
ATOM     47  C   UNL A   1      40.457  28.384  33.409  1.00  0.00     0.031 C 
ATOM     48  C   UNL A   1      40.496  27.169  26.871  1.00  0.00     0.029 A 
ATOM     49  C   UNL A   1      41.667  26.790  27.648  1.00  0.00     0.049 A 
ATOM     50  H   UNL A   1      42.240  27.607  29.488  1.00  0.00     0.167 HD
ATOM     51  C   UNL A   1      42.960  28.792  33.626  1.00  0.00     0.037 A 
ATOM     52  C   UNL A   1      42.646  25.882  27.390  1.00  0.00     0.037 A 
ATOM     53  C   UNL A   1      43.948  29.571  32.921  1.00  0.00     0.049 A 
ATOM     54  C   UNL A   1      43.803  26.229  28.251  1.00  0.00     0.074 A 
ATOM     55  C   UNL A   1      44.083  30.911  32.611  1.00  0.00     0.029 A 
ATOM     56  N   UNL A   1      44.826  28.910  32.100  1.00  0.00    -0.354 N 
ATOM     57  N   UNL A   1      44.554  27.279  28.081  1.00  0.00    -0.248 NA
ATOM     58  C   UNL A   1      43.896  25.593  29.555  1.00  0.00     0.031 C 
ATOM     59  C   UNL A   1      44.677  30.936  31.315  1.00  0.00     0.029 A 
ATOM     60  C   UNL A   1      44.917  29.616  30.932  1.00  0.00     0.049 A 
ATOM     61  H   UNL A   1      45.305  28.076  32.314  1.00  0.00     0.167 HD
ATOM     62  C   UNL A   1      44.866  27.691  29.366  1.00  0.00     0.074 A 
ATOM     63  C   UNL A   1      44.526  26.560  30.225  1.00  0.00     0.031 C 
ATOM     64  C   UNL A   1      45.103  29.005  29.637  1.00  0.00     0.037 A 
BRANCH  51  65
ATOM     65  C   UNL A   1      43.320  27.694  34.601  1.00  0.00     0.064 A 
ATOM     66  C   UNL A   1      43.607  28.042  35.936  1.00  0.00     0.173 A 
ATOM     67  C   UNL A   1      43.679  26.377  34.233  1.00  0.00     0.173 A 
ATOM     68  F   UNL A   1      43.324  29.268  36.400  1.00  0.00    -0.203 F 
ATOM     69  C   UNL A   1      44.285  27.176  36.798  1.00  0.00     0.198 A 
ATOM     70  C   UNL A   1      44.304  25.496  35.114  1.00  0.00     0.198 A 
ATOM     71  F   UNL A   1      43.551  25.911  32.987  1.00  0.00    -0.203 F 
ATOM     72  F   UNL A   1      44.658  27.606  38.010  1.00  0.00    -0.200 F 
ATOM     73  C   UNL A   1      44.640  25.907  36.384  1.00  0.00     0.200 A 
ATOM     74  F   UNL A   1      44.652  24.275  34.683  1.00  0.00    -0.200 F 
ATOM     75  F   UNL A   1      45.345  25.098  37.184  1.00  0.00    -0.200 F 
ENDBRANCH  51  65
BRANCH  52  76
ATOM     76  C   UNL A   1      42.602  24.585  26.661  1.00  0.00     0.064 A 
ATOM     77  C   UNL A   1      43.316  24.407  25.459  1.00  0.00     0.173 A 
ATOM     78  C   UNL A   1      42.137  23.412  27.282  1.00  0.00     0.173 A 
ATOM     79  F   UNL A   1      43.829  25.465  24.812  1.00  0.00    -0.203 F 
ATOM     80  C   UNL A   1      43.595  23.136  24.943  1.00  0.00     0.198 A 
ATOM     81  C   UNL A   1      42.409  22.144  26.761  1.00  0.00     0.198 A 
ATOM     82  F   UNL A   1      41.500  23.464  28.459  1.00  0.00    -0.203 F 
ATOM     83  F   UNL A   1      44.350  23.010  23.842  1.00  0.00    -0.200 F 
ATOM     84  C   UNL A   1      43.154  22.005  25.605  1.00  0.00     0.200 A 
ATOM     85  F   UNL A   1      42.006  21.052  27.428  1.00  0.00    -0.200 F 
ATOM     86  F   UNL A   1      43.484  20.785  25.156  1.00  0.00    -0.200 F 
ENDBRANCH  52  76
BRANCH  64  87
ATOM     87  C   UNL A   1      45.318  29.942  28.482  1.00  0.00     0.064 A 
ATOM     88  C   UNL A   1      44.279  30.589  27.790  1.00  0.00     0.173 A 
ATOM     89  C   UNL A   1      46.632  30.334  28.193  1.00  0.00     0.173 A 
ATOM     90  F   UNL A   1      42.996  30.327  28.065  1.00  0.00    -0.203 F 
ATOM     91  C   UNL A   1      44.552  31.578  26.845  1.00  0.00     0.198 A 
ATOM     92  C   UNL A   1      46.899  31.348  27.279  1.00  0.00     0.198 A 
ATOM     93  F   UNL A   1      47.660  29.776  28.853  1.00  0.00    -0.203 F 
ATOM     94  F   UNL A   1      43.547  32.188  26.200  1.00  0.00    -0.200 F 
ATOM     95  C   UNL A   1      45.859  31.967  26.604  1.00  0.00     0.200 A 
ATOM     96  F   UNL A   1      48.161  31.753  27.083  1.00  0.00    -0.200 F 
ATOM     97  F   UNL A   1      46.119  32.963  25.742  1.00  0.00    -0.200 F 
ENDBRANCH  64  87
ENDBRANCH  38  39
ENDBRANCH  31  33
ENDBRANCH  30  31
ENDBRANCH  29  30
ENDBRANCH  28  29
ENDBRANCH   1  28
TORSDOF 16
ENDMDL
MODEL 3
REMARK VINA RESULT:     -13.0      3.546      9.191
REMARK SMILES COC(=O)c1ccc2c(c1)=N[C@H](c1cn(CCC(=O)OCCOC(=O)c3ccc(-c4c5nc(c(-c6c(F)c(F)c(F)c(F)c6F)c6ccc([nH]6)c(-c6c(F)c(F)c(F)c(F)c6F)c6nc(c(-c7c(F)c(F)c(F)c(F)c7F)c7ccc4[nH]7)C=C6)C=C5)cc3)c3ccccc13)N=2
REMARK SMILES IDX 20 1 18 2 19 3 17 4 16 5 15 6 13 7 14 8 94 9 89 10 93 11
REMARK SMILES IDX 90 12 92 13 91 14 12 15 5 16 6 17 10 18 7 19 9 20 8 21 11 22
REMARK SMILES IDX 95 23 3 24 4 25 2 26 1 27 21 28 22 29 23 30 24 31 25 32
REMARK SMILES IDX 26 33 27 34 88 35 28 36 87 37 29 38 30 39 31 40 81 41 32 42
REMARK SMILES IDX 86 43 80 44 82 45 33 46 85 47 79 48 78 49 34 51 66 52 46 53
REMARK SMILES IDX 65 54 47 55 50 56 64 57 83 58 48 59 49 60 63 62 84 63 51 64
REMARK SMILES IDX 35 65 36 66 44 67 37 68 38 69 42 70 45 71 39 72 40 73 43 74
REMARK SMILES IDX 41 75 67 76 68 77 76 78 69 79 70 80 74 81 77 82 71 83 72 84
REMARK SMILES IDX 75 85 73 86 52 87 53 88 61 89 54 90 55 91 59 92 62 93 56 94
REMARK SMILES IDX 57 95 60 96 58 97
REMARK H PARENT 82 50 50 61
REMARK Flexibility Score: inf
ROOT
ATOM      1  O   UNL A   1      34.395  31.256  28.063  1.00  0.00    -0.462 OA
ENDROOT
BRANCH   1   2
ATOM      2  C   UNL A   1      35.176  30.251  27.613  1.00  0.00     0.307 C 
ATOM      3  O   UNL A   1      36.395  30.305  27.513  1.00  0.00    -0.252 OA
BRANCH   2   4
ATOM      4  C   UNL A   1      34.378  29.027  27.216  1.00  0.00     0.144 C 
BRANCH   4   5
ATOM      5  C   UNL A   1      33.696  29.096  25.840  1.00  0.00     0.134 C 
BRANCH   5   6
ATOM      6  N   UNL A   1      32.519  28.241  25.806  1.00  0.00    -0.346 N 
ATOM      7  C   UNL A   1      31.722  26.207  25.521  1.00  0.00     0.024 A 
ATOM      8  C   UNL A   1      32.482  26.995  26.374  1.00  0.00     0.094 A 
ATOM      9  C   UNL A   1      31.468  27.012  24.364  1.00  0.00     0.007 A 
ATOM     10  C   UNL A   1      31.519  28.307  24.866  1.00  0.00     0.048 A 
ATOM     11  C   UNL A   1      30.910  26.801  23.096  1.00  0.00     0.011 A 
ATOM     12  C   UNL A   1      30.675  29.314  24.398  1.00  0.00     0.027 A 
ATOM     13  C   UNL A   1      30.115  27.816  22.560  1.00  0.00     0.001 A 
ATOM     14  C   UNL A   1      29.911  29.002  23.266  1.00  0.00     0.002 A 
BRANCH   7  15
ATOM     15  C   UNL A   1      31.049  24.916  25.890  1.00  0.00     0.255 C 
ATOM     16  C   UNL A   1      33.614  21.208  25.586  1.00  0.00     0.062 A 
ATOM     17  C   UNL A   1      33.654  21.417  27.031  1.00  0.00     0.018 A 
ATOM     18  C   UNL A   1      32.957  22.037  24.757  1.00  0.00     0.046 A 
ATOM     19  C   UNL A   1      33.056  22.450  27.643  1.00  0.00     0.031 A 
ATOM     20  C   UNL A   1      32.207  23.144  25.359  1.00  0.00     0.087 A 
ATOM     21  C   UNL A   1      32.282  23.378  26.813  1.00  0.00     0.086 A 
ATOM     22  N   UNL A   1      31.387  23.956  24.789  1.00  0.00    -0.252 NA
ATOM     23  N   UNL A   1      31.562  24.380  27.184  1.00  0.00    -0.252 NA
BRANCH  16  24
ATOM     24  C   UNL A   1      34.293  20.043  24.939  1.00  0.00     0.337 C 
ATOM     25  O   UNL A   1      35.491  19.901  24.860  1.00  0.00    -0.246 OA
BRANCH  24  26
ATOM     26  O   UNL A   1      33.347  19.216  24.405  1.00  0.00    -0.465 OA
ATOM     27  C   UNL A   1      32.761  18.313  25.344  1.00  0.00     0.282 C 
ENDBRANCH  24  26
ENDBRANCH  16  24
ENDBRANCH   7  15
ENDBRANCH   5   6
ENDBRANCH   4   5
ENDBRANCH   2   4
ENDBRANCH   1   2
BRANCH   1  28
ATOM     28  C   UNL A   1      34.905  32.603  28.026  1.00  0.00     0.274 C 
BRANCH  28  29
ATOM     29  C   UNL A   1      34.513  33.293  29.337  1.00  0.00     0.275 C 
BRANCH  29  30
ATOM     30  O   UNL A   1      35.670  33.351  30.193  1.00  0.00    -0.458 OA
BRANCH  30  31
ATOM     31  C   UNL A   1      35.740  32.386  31.142  1.00  0.00     0.338 C 
ATOM     32  O   UNL A   1      34.920  32.157  32.014  1.00  0.00    -0.246 OA
BRANCH  31  33
ATOM     33  C   UNL A   1      36.784  31.426  30.711  1.00  0.00     0.060 A 
ATOM     34  C   UNL A   1      36.671  30.060  30.985  1.00  0.00     0.016 A 
ATOM     35  C   UNL A   1      37.999  31.962  30.267  1.00  0.00     0.016 A 
ATOM     36  C   UNL A   1      37.811  29.268  30.967  1.00  0.00     0.010 A 
ATOM     37  C   UNL A   1      39.144  31.174  30.282  1.00  0.00     0.010 A 
ATOM     38  C   UNL A   1      39.059  29.841  30.684  1.00  0.00    -0.014 A 
BRANCH  38  39
ATOM     39  C   UNL A   1      40.192  28.937  30.500  1.00  0.00     0.031 A 
ATOM     40  C   UNL A   1      40.932  28.752  31.773  1.00  0.00     0.074 A 
ATOM     41  C   UNL A   1      40.554  28.260  29.391  1.00  0.00     0.049 A 
ATOM     42  N   UNL A   1      42.100  29.215  32.072  1.00  0.00    -0.248 NA
ATOM     43  C   UNL A   1      40.212  28.147  32.904  1.00  0.00     0.031 C 
ATOM     44  C   UNL A   1      39.830  28.087  28.135  1.00  0.00     0.029 A 
ATOM     45  N   UNL A   1      41.684  27.512  29.196  1.00  0.00    -0.354 N 
ATOM     46  C   UNL A   1      42.331  28.823  33.386  1.00  0.00     0.074 A 
ATOM     47  C   UNL A   1      41.075  28.347  33.897  1.00  0.00     0.031 C 
ATOM     48  C   UNL A   1      40.443  27.132  27.390  1.00  0.00     0.029 A 
ATOM     49  C   UNL A   1      41.675  26.726  28.049  1.00  0.00     0.049 A 
ATOM     50  H   UNL A   1      42.445  27.528  29.822  1.00  0.00     0.167 HD
ATOM     51  C   UNL A   1      43.595  28.696  33.866  1.00  0.00     0.037 A 
ATOM     52  C   UNL A   1      42.603  25.795  27.698  1.00  0.00     0.037 A 
ATOM     53  C   UNL A   1      44.527  29.451  33.066  1.00  0.00     0.049 A 
ATOM     54  C   UNL A   1      43.846  26.115  28.439  1.00  0.00     0.074 A 
ATOM     55  C   UNL A   1      44.663  30.789  32.741  1.00  0.00     0.029 A 
ATOM     56  N   UNL A   1      45.304  28.770  32.164  1.00  0.00    -0.354 N 
ATOM     57  N   UNL A   1      44.602  27.147  28.195  1.00  0.00    -0.248 NA
ATOM     58  C   UNL A   1      44.052  25.477  29.730  1.00  0.00     0.031 C 
ATOM     59  C   UNL A   1      45.127  30.800  31.393  1.00  0.00     0.029 A 
ATOM     60  C   UNL A   1      45.297  29.475  30.991  1.00  0.00     0.049 A 
ATOM     61  H   UNL A   1      45.783  27.926  32.332  1.00  0.00     0.167 HD
ATOM     62  C   UNL A   1      45.047  27.551  29.442  1.00  0.00     0.074 A 
ATOM     63  C   UNL A   1      44.767  26.429  30.332  1.00  0.00     0.031 C 
ATOM     64  C   UNL A   1      45.340  28.860  29.686  1.00  0.00     0.037 A 
BRANCH  51  65
ATOM     65  C   UNL A   1      44.024  27.590  34.803  1.00  0.00     0.064 A 
ATOM     66  C   UNL A   1      43.844  26.251  34.397  1.00  0.00     0.173 A 
ATOM     67  C   UNL A   1      44.322  27.766  36.174  1.00  0.00     0.173 A 
ATOM     68  F   UNL A   1      43.544  25.957  33.123  1.00  0.00    -0.203 F 
ATOM     69  C   UNL A   1      43.867  25.192  35.307  1.00  0.00     0.198 A 
ATOM     70  C   UNL A   1      44.400  26.700  37.068  1.00  0.00     0.198 A 
ATOM     71  F   UNL A   1      44.443  28.970  36.740  1.00  0.00    -0.203 F 
ATOM     72  F   UNL A   1      43.552  23.958  34.894  1.00  0.00    -0.200 F 
ATOM     73  C   UNL A   1      44.137  25.418  36.643  1.00  0.00     0.200 A 
ATOM     74  F   UNL A   1      44.649  26.947  38.362  1.00  0.00    -0.200 F 
ATOM     75  F   UNL A   1      44.097  24.415  37.528  1.00  0.00    -0.200 F 
ENDBRANCH  51  65
BRANCH  52  76
ATOM     76  C   UNL A   1      42.457  24.500  26.979  1.00  0.00     0.064 A 
ATOM     77  C   UNL A   1      42.972  24.333  25.678  1.00  0.00     0.173 A 
ATOM     78  C   UNL A   1      42.110  23.320  27.661  1.00  0.00     0.173 A 
ATOM     79  F   UNL A   1      43.363  25.399  24.962  1.00  0.00    -0.203 F 
ATOM     80  C   UNL A   1      43.179  23.067  25.118  1.00  0.00     0.198 A 
ATOM     81  C   UNL A   1      42.309  22.056  27.098  1.00  0.00     0.198 A 
ATOM     82  F   UNL A   1      41.668  23.362  28.925  1.00  0.00    -0.203 F 
ATOM     83  F   UNL A   1      43.749  22.952  23.910  1.00  0.00    -0.200 F 
ATOM     84  C   UNL A   1      42.862  21.928  25.837  1.00  0.00     0.200 A 
ATOM     85  F   UNL A   1      42.030  20.958  27.816  1.00  0.00    -0.200 F 
ATOM     86  F   UNL A   1      43.129  20.714  25.336  1.00  0.00    -0.200 F 
ENDBRANCH  52  76
BRANCH  64  87
ATOM     87  C   UNL A   1      45.463  29.791  28.513  1.00  0.00     0.064 A 
ATOM     88  C   UNL A   1      44.373  30.443  27.909  1.00  0.00     0.173 A 
ATOM     89  C   UNL A   1      46.750  30.174  28.112  1.00  0.00     0.173 A 
ATOM     90  F   UNL A   1      43.116  30.190  28.293  1.00  0.00    -0.203 F 
ATOM     91  C   UNL A   1      44.571  31.427  26.940  1.00  0.00     0.198 A 
ATOM     92  C   UNL A   1      46.945  31.184  27.175  1.00  0.00     0.198 A 
ATOM     93  F   UNL A   1      47.826  29.612  28.685  1.00  0.00    -0.203 F 
ATOM     94  F   UNL A   1      43.519  32.042  26.381  1.00  0.00    -0.200 F 
ATOM     95  C   UNL A   1      45.856  31.807  26.588  1.00  0.00     0.200 A 
ATOM     96  F   UNL A   1      48.188  31.579  26.871  1.00  0.00    -0.200 F 
ATOM     97  F   UNL A   1      46.047  32.798  25.704  1.00  0.00    -0.200 F 
ENDBRANCH  64  87
ENDBRANCH  38  39
ENDBRANCH  31  33
ENDBRANCH  30  31
ENDBRANCH  29  30
ENDBRANCH  28  29
ENDBRANCH   1  28
TORSDOF 16
ENDMDL
