MODEL 1
REMARK VINA RESULT:     -10.9      0.000      0.000
REMARK SMILES O=C(OCCOC(=O)c1ccc(C(F)(F)F)nc1NC[C@@H]1CCOC1)c1ccc(-c2c3nc(c(-c4c(F)c(F)c(F)c(F)c4F)c4ccc([nH]4)c(-c4c(F)c(F)c(F)c(F)c4F)c4nc(c(-c5c(F)c(F)c(F)c(F)c5F)c5ccc2[nH]5)C=C4)C=C3)cc1
REMARK SMILES IDX 5 1 4 2 3 3 2 4 1 5 26 6 27 7 88 8 28 9 87 10 29 11 30 12
REMARK SMILES IDX 31 13 81 14 32 15 86 16 80 17 82 18 33 19 85 20 79 21 78 22
REMARK SMILES IDX 34 24 66 25 46 26 65 27 47 28 50 29 64 30 83 31 48 32 49 33
REMARK SMILES IDX 63 35 84 36 51 37 35 38 36 39 44 40 37 41 38 42 42 43 45 44
REMARK SMILES IDX 39 45 40 46 43 47 41 48 67 49 68 50 76 51 69 52 70 53 74 54
REMARK SMILES IDX 77 55 71 56 72 57 75 58 73 59 52 60 53 61 61 62 54 63 55 64
REMARK SMILES IDX 59 65 62 66 56 67 57 68 60 69 58 70 6 71 7 72 8 73 9 74
REMARK SMILES IDX 10 75 18 76 11 77 17 78 12 79 19 80 20 82 21 83 22 84 25 85
REMARK SMILES IDX 23 86 24 87 13 88 14 89 15 90 16 91
REMARK H PARENT 82 23 50 34 19 81
REMARK Flexibility Score: inf
ROOT
ATOM      1  C   UNL A   1      35.410  34.048  29.574  1.00  0.00     0.275 C 
ENDROOT
BRANCH   1   2
ATOM      2  C   UNL A   1      35.227  33.356  28.220  1.00  0.00     0.275 C 
BRANCH   2   3
ATOM      3  O   UNL A   1      34.320  32.239  28.233  1.00  0.00    -0.458 OA
BRANCH   3   4
ATOM      4  C   UNL A   1      34.593  30.938  27.967  1.00  0.00     0.338 C 
ATOM      5  O   UNL A   1      33.711  30.211  27.516  1.00  0.00    -0.246 OA
BRANCH   4   6
ATOM      6  C   UNL A   1      35.872  30.302  28.398  1.00  0.00     0.060 A 
ATOM      7  C   UNL A   1      36.113  29.729  29.648  1.00  0.00     0.016 A 
ATOM      8  C   UNL A   1      36.924  30.322  27.468  1.00  0.00     0.016 A 
ATOM      9  C   UNL A   1      37.340  29.129  29.932  1.00  0.00     0.010 A 
ATOM     10  C   UNL A   1      38.144  29.698  27.731  1.00  0.00     0.010 A 
ATOM     11  C   UNL A   1      38.362  29.117  28.980  1.00  0.00    -0.014 A 
BRANCH  11  12
ATOM     12  C   UNL A   1      39.711  28.681  29.393  1.00  0.00     0.031 A 
ATOM     13  C   UNL A   1      40.416  29.481  30.447  1.00  0.00     0.074 A 
ATOM     14  C   UNL A   1      40.242  27.543  28.913  1.00  0.00     0.049 A 
ATOM     15  N   UNL A   1      41.523  29.213  31.086  1.00  0.00    -0.248 NA
ATOM     16  C   UNL A   1      39.768  30.736  30.864  1.00  0.00     0.031 C 
ATOM     17  C   UNL A   1      39.598  26.661  27.943  1.00  0.00     0.029 A 
ATOM     18  N   UNL A   1      41.433  26.924  29.185  1.00  0.00    -0.354 N 
ATOM     19  C   UNL A   1      41.681  30.243  32.002  1.00  0.00     0.074 A 
ATOM     20  C   UNL A   1      40.601  31.179  31.790  1.00  0.00     0.031 C 
ATOM     21  C   UNL A   1      40.413  25.626  27.676  1.00  0.00     0.029 A 
ATOM     22  C   UNL A   1      41.627  25.766  28.473  1.00  0.00     0.049 A 
ATOM     23  H   UNL A   1      42.088  27.276  29.831  1.00  0.00     0.167 HD
ATOM     24  C   UNL A   1      42.623  30.373  32.963  1.00  0.00     0.037 A 
ATOM     25  C   UNL A   1      42.666  24.910  28.486  1.00  0.00     0.037 A 
ATOM     26  C   UNL A   1      43.709  29.450  33.138  1.00  0.00     0.049 A 
ATOM     27  C   UNL A   1      43.775  25.150  29.476  1.00  0.00     0.074 A 
ATOM     28  C   UNL A   1      44.734  29.484  34.063  1.00  0.00     0.029 A 
ATOM     29  N   UNL A   1      43.917  28.329  32.344  1.00  0.00    -0.354 N 
ATOM     30  N   UNL A   1      43.882  26.089  30.385  1.00  0.00    -0.248 NA
ATOM     31  C   UNL A   1      44.889  24.193  29.466  1.00  0.00     0.031 C 
ATOM     32  C   UNL A   1      45.594  28.412  33.793  1.00  0.00     0.029 A 
ATOM     33  C   UNL A   1      45.073  27.678  32.737  1.00  0.00     0.049 A 
ATOM     34  H   UNL A   1      43.328  28.040  31.609  1.00  0.00     0.167 HD
ATOM     35  C   UNL A   1      45.045  25.811  31.088  1.00  0.00     0.074 A 
ATOM     36  C   UNL A   1      45.608  24.611  30.498  1.00  0.00     0.031 C 
ATOM     37  C   UNL A   1      45.597  26.478  32.133  1.00  0.00     0.037 A 
BRANCH  24  38
ATOM     38  C   UNL A   1      42.516  31.574  33.854  1.00  0.00     0.064 A 
ATOM     39  C   UNL A   1      42.014  31.475  35.163  1.00  0.00     0.173 A 
ATOM     40  C   UNL A   1      42.867  32.845  33.381  1.00  0.00     0.173 A 
ATOM     41  F   UNL A   1      41.639  30.284  35.654  1.00  0.00    -0.203 F 
ATOM     42  C   UNL A   1      41.830  32.610  35.948  1.00  0.00     0.198 A 
ATOM     43  C   UNL A   1      42.708  33.975  34.180  1.00  0.00     0.198 A 
ATOM     44  F   UNL A   1      43.346  32.995  32.137  1.00  0.00    -0.203 F 
ATOM     45  F   UNL A   1      41.284  32.499  37.167  1.00  0.00    -0.200 F 
ATOM     46  C   UNL A   1      42.179  33.858  35.456  1.00  0.00     0.200 A 
ATOM     47  F   UNL A   1      43.051  35.181  33.705  1.00  0.00    -0.200 F 
ATOM     48  F   UNL A   1      41.989  34.952  36.207  1.00  0.00    -0.200 F 
ENDBRANCH  24  38
BRANCH  25  49
ATOM     49  C   UNL A   1      42.685  23.736  27.572  1.00  0.00     0.064 A 
ATOM     50  C   UNL A   1      43.143  23.846  26.253  1.00  0.00     0.173 A 
ATOM     51  C   UNL A   1      42.229  22.479  28.000  1.00  0.00     0.173 A 
ATOM     52  F   UNL A   1      43.580  25.027  25.792  1.00  0.00    -0.203 F 
ATOM     53  C   UNL A   1      43.121  22.752  25.388  1.00  0.00     0.198 A 
ATOM     54  C   UNL A   1      42.230  21.380  27.142  1.00  0.00     0.198 A 
ATOM     55  F   UNL A   1      41.791  22.315  29.256  1.00  0.00    -0.203 F 
ATOM     56  F   UNL A   1      43.527  22.896  24.119  1.00  0.00    -0.200 F 
ATOM     57  C   UNL A   1      42.667  21.520  25.834  1.00  0.00     0.200 A 
ATOM     58  F   UNL A   1      41.806  20.188  27.582  1.00  0.00    -0.200 F 
ATOM     59  F   UNL A   1      42.648  20.469  25.002  1.00  0.00    -0.200 F 
ENDBRANCH  25  49
BRANCH  37  60
ATOM     60  C   UNL A   1      46.844  25.897  32.730  1.00  0.00     0.064 A 
ATOM     61  C   UNL A   1      46.799  25.005  33.810  1.00  0.00     0.173 A 
ATOM     62  C   UNL A   1      48.098  26.207  32.181  1.00  0.00     0.173 A 
ATOM     63  F   UNL A   1      45.626  24.691  34.378  1.00  0.00    -0.203 F 
ATOM     64  C   UNL A   1      47.968  24.465  34.338  1.00  0.00     0.198 A 
ATOM     65  C   UNL A   1      49.261  25.638  32.689  1.00  0.00     0.198 A 
ATOM     66  F   UNL A   1      48.193  27.050  31.141  1.00  0.00    -0.203 F 
ATOM     67  F   UNL A   1      47.907  23.656  35.404  1.00  0.00    -0.200 F 
ATOM     68  C   UNL A   1      49.196  24.775  33.772  1.00  0.00     0.200 A 
ATOM     69  F   UNL A   1      50.445  25.927  32.131  1.00  0.00    -0.200 F 
ATOM     70  F   UNL A   1      50.319  24.247  34.277  1.00  0.00    -0.200 F 
ENDBRANCH  37  60
ENDBRANCH  11  12
ENDBRANCH   4   6
ENDBRANCH   3   4
ENDBRANCH   2   3
ENDBRANCH   1   2
BRANCH   1  71
ATOM     71  O   UNL A   1      36.028  33.227  30.578  1.00  0.00    -0.458 OA
BRANCH  71  72
ATOM     72  C   UNL A   1      35.197  32.856  31.587  1.00  0.00     0.342 C 
ATOM     73  O   UNL A   1      34.028  32.519  31.477  1.00  0.00    -0.246 OA
BRANCH  72  74
ATOM     74  C   UNL A   1      35.927  32.814  32.867  1.00  0.00     0.102 A 
ATOM     75  C   UNL A   1      36.938  31.875  33.077  1.00  0.00     0.022 A 
ATOM     76  C   UNL A   1      35.616  33.739  33.869  1.00  0.00     0.141 A 
ATOM     77  C   UNL A   1      37.604  31.861  34.299  1.00  0.00     0.034 A 
ATOM     78  N   UNL A   1      36.248  33.698  35.064  1.00  0.00    -0.226 NA
ATOM     79  C   UNL A   1      37.227  32.771  35.286  1.00  0.00     0.146 A 
BRANCH  76  80
ATOM     80  N   UNL A   1      34.580  34.637  33.707  1.00  0.00    -0.369 N 
ATOM     81  H   UNL A   1      33.695  34.391  34.063  1.00  0.00     0.162 HD
BRANCH  80  82
ATOM     82  C   UNL A   1      34.714  35.919  33.042  1.00  0.00     0.120 C 
BRANCH  82  83
ATOM     83  C   UNL A   1      33.344  36.601  32.991  1.00  0.00     0.036 C 
ATOM     84  C   UNL A   1      32.306  35.745  32.295  1.00  0.00     0.036 C 
ATOM     85  C   UNL A   1      33.373  37.832  32.102  1.00  0.00     0.165 C 
ATOM     86  C   UNL A   1      32.525  36.072  30.832  1.00  0.00     0.160 C 
ATOM     87  O   UNL A   1      33.049  37.405  30.773  1.00  0.00    -0.381 OA
ENDBRANCH  82  83
ENDBRANCH  80  82
ENDBRANCH  76  80
BRANCH  79  88
ATOM     88  C   UNL A   1      37.905  32.742  36.651  1.00  0.00     0.433 C 
ATOM     89  F   UNL A   1      38.805  33.754  36.818  1.00  0.00    -0.165 F 
ATOM     90  F   UNL A   1      37.025  32.838  37.687  1.00  0.00    -0.165 F 
ATOM     91  F   UNL A   1      38.609  31.592  36.875  1.00  0.00    -0.165 F 
ENDBRANCH  79  88
ENDBRANCH  72  74
ENDBRANCH  71  72
ENDBRANCH   1  71
TORSDOF 15
ENDMDL
MODEL 2
REMARK VINA RESULT:     -10.9      4.664     12.240
REMARK SMILES O=C(OCCOC(=O)c1ccc(C(F)(F)F)nc1NC[C@@H]1CCOC1)c1ccc(-c2c3nc(c(-c4c(F)c(F)c(F)c(F)c4F)c4ccc([nH]4)c(-c4c(F)c(F)c(F)c(F)c4F)c4nc(c(-c5c(F)c(F)c(F)c(F)c5F)c5ccc2[nH]5)C=C4)C=C3)cc1
REMARK SMILES IDX 5 1 4 2 3 3 2 4 1 5 26 6 27 7 88 8 28 9 87 10 29 11 30 12
REMARK SMILES IDX 31 13 81 14 32 15 86 16 80 17 82 18 33 19 85 20 79 21 78 22
REMARK SMILES IDX 34 24 66 25 46 26 65 27 47 28 50 29 64 30 83 31 48 32 49 33
REMARK SMILES IDX 63 35 84 36 51 37 35 38 36 39 44 40 37 41 38 42 42 43 45 44
REMARK SMILES IDX 39 45 40 46 43 47 41 48 67 49 68 50 76 51 69 52 70 53 74 54
REMARK SMILES IDX 77 55 71 56 72 57 75 58 73 59 52 60 53 61 61 62 54 63 55 64
REMARK SMILES IDX 59 65 62 66 56 67 57 68 60 69 58 70 6 71 7 72 8 73 9 74
REMARK SMILES IDX 10 75 18 76 11 77 17 78 12 79 19 80 20 82 21 83 22 84 25 85
REMARK SMILES IDX 23 86 24 87 13 88 14 89 15 90 16 91
REMARK H PARENT 82 23 50 34 19 81
REMARK Flexibility Score: inf
ROOT
ATOM      1  C   UNL A   1      42.569  21.653  27.277  1.00  0.00     0.275 C 
ENDROOT
BRANCH   1   2
ATOM      2  C   UNL A   1      41.084  21.513  27.628  1.00  0.00     0.275 C 
BRANCH   2   3
ATOM      3  O   UNL A   1      40.182  21.766  26.536  1.00  0.00    -0.458 OA
BRANCH   3   4
ATOM      4  C   UNL A   1      39.282  22.772  26.412  1.00  0.00     0.338 C 
ATOM      5  O   UNL A   1      38.273  22.606  25.731  1.00  0.00    -0.246 OA
BRANCH   4   6
ATOM      6  C   UNL A   1      39.575  24.150  26.905  1.00  0.00     0.060 A 
ATOM      7  C   UNL A   1      40.261  25.137  26.196  1.00  0.00     0.016 A 
ATOM      8  C   UNL A   1      39.149  24.451  28.209  1.00  0.00     0.016 A 
ATOM      9  C   UNL A   1      40.448  26.406  26.743  1.00  0.00     0.010 A 
ATOM     10  C   UNL A   1      39.304  25.726  28.753  1.00  0.00     0.010 A 
ATOM     11  C   UNL A   1      39.979  26.705  28.024  1.00  0.00    -0.014 A 
BRANCH  11  12
ATOM     12  C   UNL A   1      40.393  27.974  28.654  1.00  0.00     0.031 A 
ATOM     13  C   UNL A   1      41.848  28.164  28.962  1.00  0.00     0.074 A 
ATOM     14  C   UNL A   1      39.507  28.966  28.847  1.00  0.00     0.049 A 
ATOM     15  N   UNL A   1      42.476  29.238  29.360  1.00  0.00    -0.248 NA
ATOM     16  C   UNL A   1      42.722  26.995  28.760  1.00  0.00     0.031 C 
ATOM     17  C   UNL A   1      38.088  28.901  28.509  1.00  0.00     0.029 A 
ATOM     18  N   UNL A   1      39.670  30.227  29.357  1.00  0.00    -0.354 N 
ATOM     19  C   UNL A   1      43.816  28.883  29.417  1.00  0.00     0.074 A 
ATOM     20  C   UNL A   1      43.907  27.480  29.088  1.00  0.00     0.031 C 
ATOM     21  C   UNL A   1      37.498  30.060  28.847  1.00  0.00     0.029 A 
ATOM     22  C   UNL A   1      38.505  30.955  29.407  1.00  0.00     0.049 A 
ATOM     23  H   UNL A   1      40.539  30.579  29.659  1.00  0.00     0.167 HD
ATOM     24  C   UNL A   1      44.881  29.672  29.684  1.00  0.00     0.037 A 
ATOM     25  C   UNL A   1      38.292  32.211  29.842  1.00  0.00     0.037 A 
ATOM     26  C   UNL A   1      44.770  31.059  30.043  1.00  0.00     0.049 A 
ATOM     27  C   UNL A   1      39.482  33.031  30.264  1.00  0.00     0.074 A 
ATOM     28  C   UNL A   1      45.774  31.956  30.352  1.00  0.00     0.029 A 
ATOM     29  N   UNL A   1      43.565  31.740  30.161  1.00  0.00    -0.354 N 
ATOM     30  N   UNL A   1      40.754  32.709  30.250  1.00  0.00    -0.248 NA
ATOM     31  C   UNL A   1      39.213  34.398  30.726  1.00  0.00     0.031 C 
ATOM     32  C   UNL A   1      45.171  33.168  30.711  1.00  0.00     0.029 A 
ATOM     33  C   UNL A   1      43.797  33.042  30.571  1.00  0.00     0.049 A 
ATOM     34  H   UNL A   1      42.678  31.354  29.981  1.00  0.00     0.167 HD
ATOM     35  C   UNL A   1      41.441  33.845  30.654  1.00  0.00     0.074 A 
ATOM     36  C   UNL A   1      40.440  34.866  30.903  1.00  0.00     0.031 C 
ATOM     37  C   UNL A   1      42.776  34.035  30.797  1.00  0.00     0.037 A 
BRANCH  24  38
ATOM     38  C   UNL A   1      46.232  29.024  29.624  1.00  0.00     0.064 A 
ATOM     39  C   UNL A   1      47.056  29.148  28.492  1.00  0.00     0.173 A 
ATOM     40  C   UNL A   1      46.689  28.229  30.683  1.00  0.00     0.173 A 
ATOM     41  F   UNL A   1      46.653  29.876  27.439  1.00  0.00    -0.203 F 
ATOM     42  C   UNL A   1      48.266  28.465  28.408  1.00  0.00     0.198 A 
ATOM     43  C   UNL A   1      47.914  27.571  30.607  1.00  0.00     0.198 A 
ATOM     44  F   UNL A   1      45.939  28.075  31.785  1.00  0.00    -0.203 F 
ATOM     45  F   UNL A   1      49.001  28.541  27.290  1.00  0.00    -0.200 F 
ATOM     46  C   UNL A   1      48.694  27.679  29.467  1.00  0.00     0.200 A 
ATOM     47  F   UNL A   1      48.329  26.816  31.634  1.00  0.00    -0.200 F 
ATOM     48  F   UNL A   1      49.853  27.011  29.380  1.00  0.00    -0.200 F 
ENDBRANCH  24  38
BRANCH  25  49
ATOM     49  C   UNL A   1      36.916  32.777  29.858  1.00  0.00     0.064 A 
ATOM     50  C   UNL A   1      36.381  33.425  28.737  1.00  0.00     0.173 A 
ATOM     51  C   UNL A   1      36.113  32.694  31.006  1.00  0.00     0.173 A 
ATOM     52  F   UNL A   1      37.112  33.540  27.618  1.00  0.00    -0.203 F 
ATOM     53  C   UNL A   1      35.107  33.990  28.769  1.00  0.00     0.198 A 
ATOM     54  C   UNL A   1      34.829  33.238  31.030  1.00  0.00     0.198 A 
ATOM     55  F   UNL A   1      36.571  32.074  32.103  1.00  0.00    -0.203 F 
ATOM     56  F   UNL A   1      34.636  34.639  27.696  1.00  0.00    -0.200 F 
ATOM     57  C   UNL A   1      34.331  33.894  29.915  1.00  0.00     0.200 A 
ATOM     58  F   UNL A   1      34.077  33.128  32.133  1.00  0.00    -0.200 F 
ATOM     59  F   UNL A   1      33.106  34.436  29.945  1.00  0.00    -0.200 F 
ENDBRANCH  25  49
BRANCH  37  60
ATOM     60  C   UNL A   1      43.230  35.407  31.196  1.00  0.00     0.064 A 
ATOM     61  C   UNL A   1      43.344  35.785  32.542  1.00  0.00     0.173 A 
ATOM     62  C   UNL A   1      43.596  36.341  30.215  1.00  0.00     0.173 A 
ATOM     63  F   UNL A   1      42.991  34.932  33.515  1.00  0.00    -0.203 F 
ATOM     64  C   UNL A   1      43.783  37.058  32.890  1.00  0.00     0.198 A 
ATOM     65  C   UNL A   1      44.068  37.602  30.568  1.00  0.00     0.198 A 
ATOM     66  F   UNL A   1      43.512  36.025  28.913  1.00  0.00    -0.203 F 
ATOM     67  F   UNL A   1      43.835  37.417  34.179  1.00  0.00    -0.200 F 
ATOM     68  C   UNL A   1      44.153  37.962  31.904  1.00  0.00     0.200 A 
ATOM     69  F   UNL A   1      44.439  38.467  29.614  1.00  0.00    -0.200 F 
ATOM     70  F   UNL A   1      44.583  39.185  32.242  1.00  0.00    -0.200 F 
ENDBRANCH  37  60
ENDBRANCH  11  12
ENDBRANCH   4   6
ENDBRANCH   3   4
ENDBRANCH   2   3
ENDBRANCH   1   2
BRANCH   1  71
ATOM     71  O   UNL A   1      42.951  22.969  26.846  1.00  0.00    -0.458 OA
BRANCH  71  72
ATOM     72  C   UNL A   1      43.314  23.046  25.538  1.00  0.00     0.342 C 
ATOM     73  O   UNL A   1      42.813  22.431  24.610  1.00  0.00    -0.246 OA
BRANCH  72  74
ATOM     74  C   UNL A   1      44.358  24.070  25.352  1.00  0.00     0.102 A 
ATOM     75  C   UNL A   1      44.121  25.399  25.706  1.00  0.00     0.022 A 
ATOM     76  C   UNL A   1      45.605  23.697  24.838  1.00  0.00     0.141 A 
ATOM     77  C   UNL A   1      45.129  26.340  25.514  1.00  0.00     0.034 A 
ATOM     78  N   UNL A   1      46.567  24.625  24.626  1.00  0.00    -0.226 NA
ATOM     79  C   UNL A   1      46.338  25.931  24.953  1.00  0.00     0.146 A 
BRANCH  76  80
ATOM     80  N   UNL A   1      45.842  22.402  24.425  1.00  0.00    -0.369 N 
ATOM     81  H   UNL A   1      45.888  22.226  23.457  1.00  0.00     0.162 HD
BRANCH  80  82
ATOM     82  C   UNL A   1      46.026  21.282  25.330  1.00  0.00     0.120 C 
BRANCH  82  83
ATOM     83  C   UNL A   1      46.183  19.998  24.510  1.00  0.00     0.036 C 
ATOM     84  C   UNL A   1      44.894  19.602  23.819  1.00  0.00     0.036 C 
ATOM     85  C   UNL A   1      46.432  18.799  25.408  1.00  0.00     0.165 C 
ATOM     86  C   UNL A   1      44.159  18.829  24.893  1.00  0.00     0.160 C 
ATOM     87  O   UNL A   1      45.152  18.251  25.751  1.00  0.00    -0.381 OA
ENDBRANCH  82  83
ENDBRANCH  80  82
ENDBRANCH  76  80
BRANCH  79  88
ATOM     88  C   UNL A   1      47.437  26.952  24.683  1.00  0.00     0.433 C 
ATOM     89  F   UNL A   1      48.638  26.593  25.222  1.00  0.00    -0.165 F 
ATOM     90  F   UNL A   1      47.661  27.157  23.354  1.00  0.00    -0.165 F 
ATOM     91  F   UNL A   1      47.162  28.186  25.202  1.00  0.00    -0.165 F 
ENDBRANCH  79  88
ENDBRANCH  72  74
ENDBRANCH  71  72
ENDBRANCH   1  71
TORSDOF 15
ENDMDL
MODEL 3
REMARK VINA RESULT:     -10.8      6.470     12.011
REMARK SMILES O=C(OCCOC(=O)c1ccc(C(F)(F)F)nc1NC[C@@H]1CCOC1)c1ccc(-c2c3nc(c(-c4c(F)c(F)c(F)c(F)c4F)c4ccc([nH]4)c(-c4c(F)c(F)c(F)c(F)c4F)c4nc(c(-c5c(F)c(F)c(F)c(F)c5F)c5ccc2[nH]5)C=C4)C=C3)cc1
REMARK SMILES IDX 5 1 4 2 3 3 2 4 1 5 26 6 27 7 88 8 28 9 87 10 29 11 30 12
REMARK SMILES IDX 31 13 81 14 32 15 86 16 80 17 82 18 33 19 85 20 79 21 78 22
REMARK SMILES IDX 34 24 66 25 46 26 65 27 47 28 50 29 64 30 83 31 48 32 49 33
REMARK SMILES IDX 63 35 84 36 51 37 35 38 36 39 44 40 37 41 38 42 42 43 45 44
REMARK SMILES IDX 39 45 40 46 43 47 41 48 67 49 68 50 76 51 69 52 70 53 74 54
REMARK SMILES IDX 77 55 71 56 72 57 75 58 73 59 52 60 53 61 61 62 54 63 55 64
REMARK SMILES IDX 59 65 62 66 56 67 57 68 60 69 58 70 6 71 7 72 8 73 9 74
REMARK SMILES IDX 10 75 18 76 11 77 17 78 12 79 19 80 20 82 21 83 22 84 25 85
REMARK SMILES IDX 23 86 24 87 13 88 14 89 15 90 16 91
REMARK H PARENT 82 23 50 34 19 81
REMARK Flexibility Score: inf
ROOT
ATOM      1  C   UNL A   1      37.768  19.774  24.962  1.00  0.00     0.275 C 
ENDROOT
BRANCH   1   2
ATOM      2  C   UNL A   1      39.014  20.169  25.761  1.00  0.00     0.275 C 
BRANCH   2   3
ATOM      3  O   UNL A   1      40.068  19.190  25.755  1.00  0.00    -0.458 OA
BRANCH   3   4
ATOM      4  C   UNL A   1      41.394  19.389  25.952  1.00  0.00     0.338 C 
ATOM      5  O   UNL A   1      42.168  18.436  25.894  1.00  0.00    -0.246 OA
BRANCH   4   6
ATOM      6  C   UNL A   1      41.925  20.693  26.447  1.00  0.00     0.060 A 
ATOM      7  C   UNL A   1      42.100  21.043  27.786  1.00  0.00     0.016 A 
ATOM      8  C   UNL A   1      42.236  21.652  25.469  1.00  0.00     0.016 A 
ATOM      9  C   UNL A   1      42.639  22.281  28.135  1.00  0.00     0.010 A 
ATOM     10  C   UNL A   1      42.804  22.881  25.805  1.00  0.00     0.010 A 
ATOM     11  C   UNL A   1      42.986  23.208  27.149  1.00  0.00    -0.014 A 
BRANCH  11  12
ATOM     12  C   UNL A   1      43.336  24.583  27.558  1.00  0.00     0.031 A 
ATOM     13  C   UNL A   1      44.746  25.044  27.340  1.00  0.00     0.074 A 
ATOM     14  C   UNL A   1      42.392  25.425  28.011  1.00  0.00     0.049 A 
ATOM     15  N   UNL A   1      45.252  26.241  27.463  1.00  0.00    -0.248 NA
ATOM     16  C   UNL A   1      45.709  24.025  26.887  1.00  0.00     0.031 C 
ATOM     17  C   UNL A   1      40.981  25.090  28.185  1.00  0.00     0.029 A 
ATOM     18  N   UNL A   1      42.470  26.738  28.395  1.00  0.00    -0.354 N 
ATOM     19  C   UNL A   1      46.577  26.125  27.067  1.00  0.00     0.074 A 
ATOM     20  C   UNL A   1      46.819  24.732  26.771  1.00  0.00     0.031 C 
ATOM     21  C   UNL A   1      40.327  26.159  28.668  1.00  0.00     0.029 A 
ATOM     22  C   UNL A   1      41.272  27.260  28.819  1.00  0.00     0.049 A 
ATOM     23  H   UNL A   1      43.306  27.258  28.368  1.00  0.00     0.167 HD
ATOM     24  C   UNL A   1      47.499  27.104  26.927  1.00  0.00     0.037 A 
ATOM     25  C   UNL A   1      40.980  28.497  29.261  1.00  0.00     0.037 A 
ATOM     26  C   UNL A   1      47.251  28.480  27.258  1.00  0.00     0.049 A 
ATOM     27  C   UNL A   1      42.062  29.543  29.221  1.00  0.00     0.074 A 
ATOM     28  C   UNL A   1      48.108  29.559  27.174  1.00  0.00     0.029 A 
ATOM     29  N   UNL A   1      46.047  28.956  27.761  1.00  0.00    -0.354 N 
ATOM     30  N   UNL A   1      43.294  29.441  28.781  1.00  0.00    -0.248 NA
ATOM     31  C   UNL A   1      41.706  30.883  29.704  1.00  0.00     0.031 C 
ATOM     32  C   UNL A   1      47.440  30.680  27.680  1.00  0.00     0.029 A 
ATOM     33  C   UNL A   1      46.148  30.311  28.025  1.00  0.00     0.049 A 
ATOM     34  H   UNL A   1      45.241  28.411  27.910  1.00  0.00     0.167 HD
ATOM     35  C   UNL A   1      43.846  30.709  28.887  1.00  0.00     0.074 A 
ATOM     36  C   UNL A   1      42.809  31.566  29.433  1.00  0.00     0.031 C 
ATOM     37  C   UNL A   1      45.090  31.135  28.557  1.00  0.00     0.037 A 
BRANCH  24  38
ATOM     38  C   UNL A   1      48.850  26.691  26.426  1.00  0.00     0.064 A 
ATOM     39  C   UNL A   1      49.831  26.181  27.294  1.00  0.00     0.173 A 
ATOM     40  C   UNL A   1      49.190  26.853  25.076  1.00  0.00     0.173 A 
ATOM     41  F   UNL A   1      49.565  26.031  28.600  1.00  0.00    -0.203 F 
ATOM     42  C   UNL A   1      51.113  25.889  26.835  1.00  0.00     0.198 A 
ATOM     43  C   UNL A   1      50.465  26.533  24.615  1.00  0.00     0.198 A 
ATOM     44  F   UNL A   1      48.292  27.340  24.207  1.00  0.00    -0.203 F 
ATOM     45  F   UNL A   1      52.052  25.472  27.695  1.00  0.00    -0.200 F 
ATOM     46  C   UNL A   1      51.427  26.064  25.496  1.00  0.00     0.200 A 
ATOM     47  F   UNL A   1      50.766  26.697  23.320  1.00  0.00    -0.200 F 
ATOM     48  F   UNL A   1      52.665  25.796  25.057  1.00  0.00    -0.200 F 
ENDBRANCH  24  38
BRANCH  25  49
ATOM     49  C   UNL A   1      39.606  28.823  29.731  1.00  0.00     0.064 A 
ATOM     50  C   UNL A   1      39.218  28.601  31.059  1.00  0.00     0.173 A 
ATOM     51  C   UNL A   1      38.647  29.352  28.853  1.00  0.00     0.173 A 
ATOM     52  F   UNL A   1      40.094  28.088  31.936  1.00  0.00    -0.203 F 
ATOM     53  C   UNL A   1      37.918  28.870  31.486  1.00  0.00     0.198 A 
ATOM     54  C   UNL A   1      37.355  29.643  29.286  1.00  0.00     0.198 A 
ATOM     55  F   UNL A   1      38.969  29.595  27.575  1.00  0.00    -0.203 F 
ATOM     56  F   UNL A   1      37.563  28.609  32.751  1.00  0.00    -0.200 F 
ATOM     57  C   UNL A   1      36.988  29.393  30.599  1.00  0.00     0.200 A 
ATOM     58  F   UNL A   1      36.465  30.164  28.431  1.00  0.00    -0.200 F 
ATOM     59  F   UNL A   1      35.740  29.653  31.011  1.00  0.00    -0.200 F 
ENDBRANCH  25  49
BRANCH  37  60
ATOM     60  C   UNL A   1      45.380  32.595  28.732  1.00  0.00     0.064 A 
ATOM     61  C   UNL A   1      45.092  33.531  27.729  1.00  0.00     0.173 A 
ATOM     62  C   UNL A   1      45.914  33.067  29.941  1.00  0.00     0.173 A 
ATOM     63  F   UNL A   1      44.596  33.126  26.550  1.00  0.00    -0.203 F 
ATOM     64  C   UNL A   1      45.354  34.884  27.919  1.00  0.00     0.198 A 
ATOM     65  C   UNL A   1      46.142  34.425  30.141  1.00  0.00     0.198 A 
ATOM     66  F   UNL A   1      46.200  32.212  30.936  1.00  0.00    -0.203 F 
ATOM     67  F   UNL A   1      45.121  35.755  26.928  1.00  0.00    -0.200 F 
ATOM     68  C   UNL A   1      45.871  35.331  29.127  1.00  0.00     0.200 A 
ATOM     69  F   UNL A   1      46.626  34.856  31.314  1.00  0.00    -0.200 F 
ATOM     70  F   UNL A   1      46.114  36.635  29.311  1.00  0.00    -0.200 F 
ENDBRANCH  37  60
ENDBRANCH  11  12
ENDBRANCH   4   6
ENDBRANCH   3   4
ENDBRANCH   2   3
ENDBRANCH   1   2
BRANCH   1  71
ATOM     71  O   UNL A   1      36.570  20.459  25.361  1.00  0.00    -0.458 OA
BRANCH  71  72
ATOM     72  C   UNL A   1      36.251  21.529  24.586  1.00  0.00     0.342 C 
ATOM     73  O   UNL A   1      36.918  21.984  23.670  1.00  0.00    -0.246 OA
BRANCH  72  74
ATOM     74  C   UNL A   1      34.911  22.035  24.932  1.00  0.00     0.102 A 
ATOM     75  C   UNL A   1      34.733  23.364  25.322  1.00  0.00     0.022 A 
ATOM     76  C   UNL A   1      33.808  21.180  24.845  1.00  0.00     0.141 A 
ATOM     77  C   UNL A   1      33.453  23.807  25.644  1.00  0.00     0.034 A 
ATOM     78  N   UNL A   1      32.573  21.613  25.191  1.00  0.00    -0.226 NA
ATOM     79  C   UNL A   1      32.391  22.906  25.590  1.00  0.00     0.146 A 
BRANCH  76  80
ATOM     80  N   UNL A   1      33.968  19.848  24.521  1.00  0.00    -0.369 N 
ATOM     81  H   UNL A   1      34.405  19.629  23.667  1.00  0.00     0.162 HD
BRANCH  80  82
ATOM     82  C   UNL A   1      33.528  18.750  25.363  1.00  0.00     0.120 C 
BRANCH  82  83
ATOM     83  C   UNL A   1      32.573  17.859  24.562  1.00  0.00     0.036 C 
ATOM     84  C   UNL A   1      32.996  16.405  24.586  1.00  0.00     0.036 C 
ATOM     85  C   UNL A   1      32.639  18.175  23.079  1.00  0.00     0.165 C 
ATOM     86  C   UNL A   1      34.010  16.330  23.464  1.00  0.00     0.160 C 
ATOM     87  O   UNL A   1      33.660  17.343  22.511  1.00  0.00    -0.381 OA
ENDBRANCH  82  83
ENDBRANCH  80  82
ENDBRANCH  76  80
BRANCH  79  88
ATOM     88  C   UNL A   1      30.990  23.354  25.990  1.00  0.00     0.433 C 
ATOM     89  F   UNL A   1      30.971  24.055  27.160  1.00  0.00    -0.165 F 
ATOM     90  F   UNL A   1      30.398  24.152  25.057  1.00  0.00    -0.165 F 
ATOM     91  F   UNL A   1      30.127  22.312  26.179  1.00  0.00    -0.165 F 
ENDBRANCH  79  88
ENDBRANCH  72  74
ENDBRANCH  71  72
ENDBRANCH   1  71
TORSDOF 15
ENDMDL
