MODEL 1
REMARK VINA RESULT:     -12.2      0.000      0.000
REMARK SMILES COc1ccc(C(=O)c2ccccc2)cc1[C@@H](C)C(=O)OCCOC(=O)c1ccc(-c2c3nc(c(-c4c(F)c(F)c(F)c(F)c4F)c4ccc([nH]4)c(-c4c(F)c(F)c(F)c(F)c4F)c4nc(c(-c5c(F)c(F)c(F)c(F)c5F)c5ccc2[nH]5)C=C4)C=C3)cc1
REMARK SMILES IDX 22 1 21 2 19 3 20 4 17 5 18 6 16 7 3 8 4 9 5 10 15 11 6 12
REMARK SMILES IDX 2 13 1 14 7 15 8 16 9 17 10 18 14 19 11 20 13 21 12 22 23 23
REMARK SMILES IDX 24 24 25 25 26 26 27 27 28 28 89 29 29 30 88 31 30 32 31 33
REMARK SMILES IDX 32 34 82 35 33 36 87 37 81 38 83 39 34 40 86 41 80 42 79 43
REMARK SMILES IDX 35 45 67 46 47 47 66 48 48 49 51 50 65 51 84 52 49 53 50 54
REMARK SMILES IDX 64 56 85 57 52 58 36 59 37 60 45 61 38 62 39 63 43 64 46 65
REMARK SMILES IDX 40 66 41 67 44 68 42 69 68 70 69 71 77 72 70 73 71 74 75 75
REMARK SMILES IDX 78 76 72 77 73 78 76 79 74 80 53 81 54 82 62 83 55 84 56 85
REMARK SMILES IDX 60 86 63 87 57 88 58 89 61 90 59 91
REMARK H PARENT 83 44 51 55
REMARK Flexibility Score: inf
ROOT
ATOM      1  C   UNL A   1      31.618  30.529  26.015  1.00  0.00     0.274 C 
ENDROOT
BRANCH   1   2
ATOM      2  O   UNL A   1      32.815  30.079  25.352  1.00  0.00    -0.462 OA
BRANCH   2   3
ATOM      3  C   UNL A   1      33.041  28.742  25.307  1.00  0.00     0.313 C 
ATOM      4  O   UNL A   1      33.624  28.116  26.188  1.00  0.00    -0.252 OA
BRANCH   3   5
ATOM      5  C   UNL A   1      32.557  28.068  24.026  1.00  0.00     0.130 C 
ATOM      6  C   UNL A   1      32.821  28.984  22.832  1.00  0.00     0.025 C 
BRANCH   5   7
ATOM      7  C   UNL A   1      31.125  27.547  24.006  1.00  0.00     0.009 A 
ATOM      8  C   UNL A   1      30.831  26.213  24.331  1.00  0.00     0.122 A 
ATOM      9  C   UNL A   1      29.523  25.723  24.257  1.00  0.00     0.047 A 
ATOM     10  C   UNL A   1      28.479  26.569  23.875  1.00  0.00     0.016 A 
ATOM     11  C   UNL A   1      30.060  28.374  23.610  1.00  0.00     0.020 A 
ATOM     12  C   UNL A   1      28.742  27.900  23.542  1.00  0.00     0.023 A 
BRANCH   8  13
ATOM     13  O   UNL A   1      31.871  25.373  24.631  1.00  0.00    -0.496 OA
ATOM     14  C   UNL A   1      31.723  24.760  25.910  1.00  0.00     0.278 C 
ENDBRANCH   8  13
BRANCH  12  15
ATOM     15  C   UNL A   1      27.607  28.790  23.155  1.00  0.00     0.193 C 
ATOM     16  O   UNL A   1      26.445  28.427  23.312  1.00  0.00    -0.289 OA
BRANCH  15  17
ATOM     17  C   UNL A   1      27.857  30.150  22.624  1.00  0.00     0.022 A 
ATOM     18  C   UNL A   1      27.945  31.213  23.527  1.00  0.00     0.012 A 
ATOM     19  C   UNL A   1      28.034  30.368  21.253  1.00  0.00     0.012 A 
ATOM     20  C   UNL A   1      28.263  32.489  23.060  1.00  0.00     0.001 A 
ATOM     21  C   UNL A   1      28.359  31.644  20.793  1.00  0.00     0.001 A 
ATOM     22  C   UNL A   1      28.481  32.701  21.697  1.00  0.00     0.000 A 
ENDBRANCH  15  17
ENDBRANCH  12  15
ENDBRANCH   5   7
ENDBRANCH   3   5
ENDBRANCH   2   3
ENDBRANCH   1   2
BRANCH   1  23
ATOM     23  C   UNL A   1      31.766  31.974  26.490  1.00  0.00     0.275 C 
BRANCH  23  24
ATOM     24  O   UNL A   1      32.580  32.037  27.674  1.00  0.00    -0.458 OA
BRANCH  24  25
ATOM     25  C   UNL A   1      33.583  32.940  27.631  1.00  0.00     0.338 C 
ATOM     26  O   UNL A   1      33.512  34.132  27.392  1.00  0.00    -0.246 OA
BRANCH  25  27
ATOM     27  C   UNL A   1      34.844  32.290  28.004  1.00  0.00     0.060 A 
ATOM     28  C   UNL A   1      34.827  30.922  28.269  1.00  0.00     0.016 A 
ATOM     29  C   UNL A   1      35.987  33.051  28.251  1.00  0.00     0.016 A 
ATOM     30  C   UNL A   1      35.937  30.317  28.851  1.00  0.00     0.010 A 
ATOM     31  C   UNL A   1      37.115  32.432  28.799  1.00  0.00     0.010 A 
ATOM     32  C   UNL A   1      37.084  31.068  29.144  1.00  0.00    -0.014 A 
BRANCH  32  33
ATOM     33  C   UNL A   1      38.203  30.445  29.900  1.00  0.00     0.031 A 
ATOM     34  C   UNL A   1      38.390  30.764  31.359  1.00  0.00     0.074 A 
ATOM     35  C   UNL A   1      39.017  29.554  29.305  1.00  0.00     0.049 A 
ATOM     36  N   UNL A   1      39.367  30.427  32.164  1.00  0.00    -0.248 NA
ATOM     37  C   UNL A   1      37.341  31.574  31.998  1.00  0.00     0.031 C 
ATOM     38  C   UNL A   1      38.914  29.108  27.916  1.00  0.00     0.029 A 
ATOM     39  N   UNL A   1      40.086  28.851  29.804  1.00  0.00    -0.354 N 
ATOM     40  C   UNL A   1      39.081  31.030  33.382  1.00  0.00     0.074 A 
ATOM     41  C   UNL A   1      37.833  31.743  33.218  1.00  0.00     0.031 C 
ATOM     42  C   UNL A   1      39.855  28.181  27.683  1.00  0.00     0.029 A 
ATOM     43  C   UNL A   1      40.668  28.014  28.885  1.00  0.00     0.049 A 
ATOM     44  H   UNL A   1      40.404  28.939  30.730  1.00  0.00     0.167 HD
ATOM     45  C   UNL A   1      39.799  30.995  34.529  1.00  0.00     0.037 A 
ATOM     46  C   UNL A   1      41.750  27.219  28.991  1.00  0.00     0.037 A 
ATOM     47  C   UNL A   1      41.008  30.238  34.712  1.00  0.00     0.049 A 
ATOM     48  C   UNL A   1      42.523  27.186  30.280  1.00  0.00     0.074 A 
ATOM     49  C   UNL A   1      41.814  30.153  35.835  1.00  0.00     0.029 A 
ATOM     50  N   UNL A   1      41.572  29.412  33.753  1.00  0.00    -0.354 N 
ATOM     51  N   UNL A   1      42.290  27.828  31.398  1.00  0.00    -0.248 NA
ATOM     52  C   UNL A   1      43.719  26.334  30.313  1.00  0.00     0.031 C 
ATOM     53  C   UNL A   1      42.874  29.284  35.549  1.00  0.00     0.029 A 
ATOM     54  C   UNL A   1      42.712  28.810  34.258  1.00  0.00     0.049 A 
ATOM     55  H   UNL A   1      41.215  29.275  32.845  1.00  0.00     0.167 HD
ATOM     56  C   UNL A   1      43.307  27.459  32.267  1.00  0.00     0.074 A 
ATOM     57  C   UNL A   1      44.145  26.516  31.555  1.00  0.00     0.031 C 
ATOM     58  C   UNL A   1      43.531  27.872  33.537  1.00  0.00     0.037 A 
BRANCH  45  59
ATOM     59  C   UNL A   1      39.313  31.831  35.674  1.00  0.00     0.064 A 
ATOM     60  C   UNL A   1      38.393  31.340  36.609  1.00  0.00     0.173 A 
ATOM     61  C   UNL A   1      39.809  33.131  35.855  1.00  0.00     0.173 A 
ATOM     62  F   UNL A   1      37.877  30.111  36.468  1.00  0.00    -0.203 F 
ATOM     63  C   UNL A   1      37.976  32.128  37.681  1.00  0.00     0.198 A 
ATOM     64  C   UNL A   1      39.407  33.908  36.937  1.00  0.00     0.198 A 
ATOM     65  F   UNL A   1      40.695  33.643  34.986  1.00  0.00    -0.203 F 
ATOM     66  F   UNL A   1      37.070  31.654  38.547  1.00  0.00    -0.200 F 
ATOM     67  C   UNL A   1      38.488  33.408  37.847  1.00  0.00     0.200 A 
ATOM     68  F   UNL A   1      39.908  35.139  37.100  1.00  0.00    -0.200 F 
ATOM     69  F   UNL A   1      38.090  34.161  38.881  1.00  0.00    -0.200 F 
ENDBRANCH  45  59
BRANCH  46  70
ATOM     70  C   UNL A   1      42.177  26.402  27.828  1.00  0.00     0.064 A 
ATOM     71  C   UNL A   1      43.155  26.872  26.941  1.00  0.00     0.173 A 
ATOM     72  C   UNL A   1      41.626  25.136  27.587  1.00  0.00     0.173 A 
ATOM     73  F   UNL A   1      43.690  28.089  27.118  1.00  0.00    -0.203 F 
ATOM     74  C   UNL A   1      43.565  26.104  25.854  1.00  0.00     0.198 A 
ATOM     75  C   UNL A   1      42.053  24.359  26.513  1.00  0.00     0.198 A 
ATOM     76  F   UNL A   1      40.684  24.647  28.407  1.00  0.00    -0.203 F 
ATOM     77  F   UNL A   1      44.480  26.586  25.002  1.00  0.00    -0.200 F 
ATOM     78  C   UNL A   1      43.020  24.845  25.645  1.00  0.00     0.200 A 
ATOM     79  F   UNL A   1      41.531  23.141  26.322  1.00  0.00    -0.200 F 
ATOM     80  F   UNL A   1      43.421  24.103  24.604  1.00  0.00    -0.200 F 
ENDBRANCH  46  70
BRANCH  58  81
ATOM     81  C   UNL A   1      44.722  27.298  34.241  1.00  0.00     0.064 A 
ATOM     82  C   UNL A   1      44.643  26.078  34.927  1.00  0.00     0.173 A 
ATOM     83  C   UNL A   1      45.959  27.957  34.201  1.00  0.00     0.173 A 
ATOM     84  F   UNL A   1      43.476  25.421  35.003  1.00  0.00    -0.203 F 
ATOM     85  C   UNL A   1      45.760  25.545  35.563  1.00  0.00     0.198 A 
ATOM     86  C   UNL A   1      47.078  27.412  34.823  1.00  0.00     0.198 A 
ATOM     87  F   UNL A   1      46.081  29.126  33.553  1.00  0.00    -0.203 F 
ATOM     88  F   UNL A   1      45.658  24.393  36.242  1.00  0.00    -0.200 F 
ATOM     89  C   UNL A   1      46.977  26.210  35.507  1.00  0.00     0.200 A 
ATOM     90  F   UNL A   1      48.253  28.053  34.766  1.00  0.00    -0.200 F 
ATOM     91  F   UNL A   1      48.051  25.696  36.121  1.00  0.00    -0.200 F 
ENDBRANCH  58  81
ENDBRANCH  32  33
ENDBRANCH  25  27
ENDBRANCH  24  25
ENDBRANCH  23  24
ENDBRANCH   1  23
TORSDOF 15
ENDMDL
MODEL 2
REMARK VINA RESULT:     -12.1      1.678      8.605
REMARK SMILES COc1ccc(C(=O)c2ccccc2)cc1[C@@H](C)C(=O)OCCOC(=O)c1ccc(-c2c3nc(c(-c4c(F)c(F)c(F)c(F)c4F)c4ccc([nH]4)c(-c4c(F)c(F)c(F)c(F)c4F)c4nc(c(-c5c(F)c(F)c(F)c(F)c5F)c5ccc2[nH]5)C=C4)C=C3)cc1
REMARK SMILES IDX 22 1 21 2 19 3 20 4 17 5 18 6 16 7 3 8 4 9 5 10 15 11 6 12
REMARK SMILES IDX 2 13 1 14 7 15 8 16 9 17 10 18 14 19 11 20 13 21 12 22 23 23
REMARK SMILES IDX 24 24 25 25 26 26 27 27 28 28 89 29 29 30 88 31 30 32 31 33
REMARK SMILES IDX 32 34 82 35 33 36 87 37 81 38 83 39 34 40 86 41 80 42 79 43
REMARK SMILES IDX 35 45 67 46 47 47 66 48 48 49 51 50 65 51 84 52 49 53 50 54
REMARK SMILES IDX 64 56 85 57 52 58 36 59 37 60 45 61 38 62 39 63 43 64 46 65
REMARK SMILES IDX 40 66 41 67 44 68 42 69 68 70 69 71 77 72 70 73 71 74 75 75
REMARK SMILES IDX 78 76 72 77 73 78 76 79 74 80 53 81 54 82 62 83 55 84 56 85
REMARK SMILES IDX 60 86 63 87 57 88 58 89 61 90 59 91
REMARK H PARENT 83 44 51 55
REMARK Flexibility Score: inf
ROOT
ATOM      1  C   UNL A   1      31.109  30.130  24.896  1.00  0.00     0.274 C 
ENDROOT
BRANCH   1   2
ATOM      2  O   UNL A   1      30.986  28.719  25.160  1.00  0.00    -0.462 OA
BRANCH   2   3
ATOM      3  C   UNL A   1      31.852  27.887  24.530  1.00  0.00     0.313 C 
ATOM      4  O   UNL A   1      31.717  27.510  23.368  1.00  0.00    -0.252 OA
BRANCH   3   5
ATOM      5  C   UNL A   1      33.003  27.399  25.405  1.00  0.00     0.130 C 
ATOM      6  C   UNL A   1      34.276  28.168  25.056  1.00  0.00     0.025 C 
BRANCH   5   7
ATOM      7  C   UNL A   1      33.266  25.899  25.444  1.00  0.00     0.009 A 
ATOM      8  C   UNL A   1      32.394  25.023  26.109  1.00  0.00     0.122 A 
ATOM      9  C   UNL A   1      32.669  23.653  26.192  1.00  0.00     0.047 A 
ATOM     10  C   UNL A   1      33.816  23.132  25.588  1.00  0.00     0.016 A 
ATOM     11  C   UNL A   1      34.421  25.352  24.857  1.00  0.00     0.020 A 
ATOM     12  C   UNL A   1      34.704  23.980  24.922  1.00  0.00     0.023 A 
BRANCH   8  13
ATOM     13  O   UNL A   1      31.314  25.554  26.762  1.00  0.00    -0.496 OA
ATOM     14  C   UNL A   1      30.087  25.294  26.084  1.00  0.00     0.278 C 
ENDBRANCH   8  13
BRANCH  12  15
ATOM     15  C   UNL A   1      35.913  23.397  24.267  1.00  0.00     0.193 C 
ATOM     16  O   UNL A   1      35.967  23.277  23.046  1.00  0.00    -0.289 OA
BRANCH  15  17
ATOM     17  C   UNL A   1      37.092  23.000  25.070  1.00  0.00     0.022 A 
ATOM     18  C   UNL A   1      37.541  21.679  24.989  1.00  0.00     0.012 A 
ATOM     19  C   UNL A   1      37.767  23.930  25.870  1.00  0.00     0.012 A 
ATOM     20  C   UNL A   1      38.699  21.301  25.668  1.00  0.00     0.001 A 
ATOM     21  C   UNL A   1      38.928  23.548  26.541  1.00  0.00     0.001 A 
ATOM     22  C   UNL A   1      39.397  22.238  26.434  1.00  0.00     0.000 A 
ENDBRANCH  15  17
ENDBRANCH  12  15
ENDBRANCH   5   7
ENDBRANCH   3   5
ENDBRANCH   2   3
ENDBRANCH   1   2
BRANCH   1  23
ATOM     23  C   UNL A   1      31.466  30.897  26.170  1.00  0.00     0.275 C 
BRANCH  23  24
ATOM     24  O   UNL A   1      32.869  30.770  26.461  1.00  0.00    -0.458 OA
BRANCH  24  25
ATOM     25  C   UNL A   1      33.385  31.755  27.226  1.00  0.00     0.338 C 
ATOM     26  O   UNL A   1      32.857  32.798  27.566  1.00  0.00    -0.246 OA
BRANCH  25  27
ATOM     27  C   UNL A   1      34.718  31.362  27.696  1.00  0.00     0.060 A 
ATOM     28  C   UNL A   1      34.921  30.033  28.065  1.00  0.00     0.016 A 
ATOM     29  C   UNL A   1      35.700  32.326  27.927  1.00  0.00     0.016 A 
ATOM     30  C   UNL A   1      36.087  29.673  28.735  1.00  0.00     0.010 A 
ATOM     31  C   UNL A   1      36.888  31.952  28.564  1.00  0.00     0.010 A 
ATOM     32  C   UNL A   1      37.073  30.631  29.012  1.00  0.00    -0.014 A 
BRANCH  32  33
ATOM     33  C   UNL A   1      38.241  30.267  29.856  1.00  0.00     0.031 A 
ATOM     34  C   UNL A   1      39.356  29.438  29.274  1.00  0.00     0.074 A 
ATOM     35  C   UNL A   1      38.339  30.717  31.121  1.00  0.00     0.049 A 
ATOM     36  N   UNL A   1      40.396  28.911  29.870  1.00  0.00    -0.248 NA
ATOM     37  C   UNL A   1      39.289  29.162  27.830  1.00  0.00     0.031 C 
ATOM     38  C   UNL A   1      37.363  31.576  31.791  1.00  0.00     0.029 A 
ATOM     39  N   UNL A   1      39.320  30.525  32.062  1.00  0.00    -0.354 N 
ATOM     40  C   UNL A   1      41.073  28.196  28.890  1.00  0.00     0.074 A 
ATOM     41  C   UNL A   1      40.335  28.366  27.657  1.00  0.00     0.031 C 
ATOM     42  C   UNL A   1      37.810  31.868  33.022  1.00  0.00     0.029 A 
ATOM     43  C   UNL A   1      39.071  31.165  33.251  1.00  0.00     0.049 A 
ATOM     44  H   UNL A   1      40.123  29.982  31.901  1.00  0.00     0.167 HD
ATOM     45  C   UNL A   1      42.202  27.460  29.012  1.00  0.00     0.037 A 
ATOM     46  C   UNL A   1      39.767  31.168  34.403  1.00  0.00     0.037 A 
ATOM     47  C   UNL A   1      42.971  27.339  30.223  1.00  0.00     0.049 A 
ATOM     48  C   UNL A   1      41.027  30.354  34.510  1.00  0.00     0.074 A 
ATOM     49  C   UNL A   1      44.122  26.603  30.447  1.00  0.00     0.029 A 
ATOM     50  N   UNL A   1      42.678  27.993  31.409  1.00  0.00    -0.354 N 
ATOM     51  N   UNL A   1      41.609  29.613  33.601  1.00  0.00    -0.248 NA
ATOM     52  C   UNL A   1      41.712  30.363  35.810  1.00  0.00     0.031 C 
ATOM     53  C   UNL A   1      44.518  26.802  31.774  1.00  0.00     0.029 A 
ATOM     54  C   UNL A   1      43.628  27.683  32.367  1.00  0.00     0.049 A 
ATOM     55  H   UNL A   1      41.907  28.590  31.550  1.00  0.00     0.167 HD
ATOM     56  C   UNL A   1      42.729  29.068  34.215  1.00  0.00     0.074 A 
ATOM     57  C   UNL A   1      42.758  29.584  35.568  1.00  0.00     0.031 C 
ATOM     58  C   UNL A   1      43.644  28.208  33.706  1.00  0.00     0.037 A 
BRANCH  45  59
ATOM     59  C   UNL A   1      42.662  26.695  27.808  1.00  0.00     0.064 A 
ATOM     60  C   UNL A   1      43.551  27.247  26.877  1.00  0.00     0.173 A 
ATOM     61  C   UNL A   1      42.233  25.374  27.610  1.00  0.00     0.173 A 
ATOM     62  F   UNL A   1      43.974  28.511  27.015  1.00  0.00    -0.203 F 
ATOM     63  C   UNL A   1      43.985  26.506  25.779  1.00  0.00     0.198 A 
ATOM     64  C   UNL A   1      42.684  24.629  26.524  1.00  0.00     0.198 A 
ATOM     65  F   UNL A   1      41.384  24.802  28.477  1.00  0.00    -0.203 F 
ATOM     66  F   UNL A   1      44.809  27.062  24.881  1.00  0.00    -0.200 F 
ATOM     67  C   UNL A   1      43.556  25.197  25.608  1.00  0.00     0.200 A 
ATOM     68  F   UNL A   1      42.276  23.363  26.364  1.00  0.00    -0.200 F 
ATOM     69  F   UNL A   1      43.980  24.484  24.554  1.00  0.00    -0.200 F 
ENDBRANCH  45  59
BRANCH  46  70
ATOM     70  C   UNL A   1      39.270  31.954  35.559  1.00  0.00     0.064 A 
ATOM     71  C   UNL A   1      38.417  31.377  36.508  1.00  0.00     0.173 A 
ATOM     72  C   UNL A   1      39.647  33.292  35.743  1.00  0.00     0.173 A 
ATOM     73  F   UNL A   1      38.009  30.109  36.357  1.00  0.00    -0.203 F 
ATOM     74  C   UNL A   1      37.957  32.111  37.599  1.00  0.00     0.198 A 
ATOM     75  C   UNL A   1      39.206  34.018  36.846  1.00  0.00     0.198 A 
ATOM     76  F   UNL A   1      40.460  33.888  34.857  1.00  0.00    -0.203 F 
ATOM     77  F   UNL A   1      37.117  31.547  38.478  1.00  0.00    -0.200 F 
ATOM     78  C   UNL A   1      38.358  33.428  37.771  1.00  0.00     0.200 A 
ATOM     79  F   UNL A   1      39.603  35.286  37.013  1.00  0.00    -0.200 F 
ATOM     80  F   UNL A   1      37.921  34.130  38.826  1.00  0.00    -0.200 F 
ENDBRANCH  46  70
BRANCH  58  81
ATOM     81  C   UNL A   1      44.758  27.783  34.611  1.00  0.00     0.064 A 
ATOM     82  C   UNL A   1      45.945  28.524  34.700  1.00  0.00     0.173 A 
ATOM     83  C   UNL A   1      44.623  26.647  35.422  1.00  0.00     0.173 A 
ATOM     84  F   UNL A   1      46.122  29.610  33.934  1.00  0.00    -0.203 F 
ATOM     85  C   UNL A   1      46.968  28.129  35.558  1.00  0.00     0.198 A 
ATOM     86  C   UNL A   1      45.641  26.266  36.291  1.00  0.00     0.198 A 
ATOM     87  F   UNL A   1      43.503  25.910  35.372  1.00  0.00    -0.203 F 
ATOM     88  F   UNL A   1      48.109  28.830  35.605  1.00  0.00    -0.200 F 
ATOM     89  C   UNL A   1      46.814  27.004  36.355  1.00  0.00     0.200 A 
ATOM     90  F   UNL A   1      45.489  25.181  37.063  1.00  0.00    -0.200 F 
ATOM     91  F   UNL A   1      47.800  26.625  37.180  1.00  0.00    -0.200 F 
ENDBRANCH  58  81
ENDBRANCH  32  33
ENDBRANCH  25  27
ENDBRANCH  24  25
ENDBRANCH  23  24
ENDBRANCH   1  23
TORSDOF 15
ENDMDL
MODEL 3
REMARK VINA RESULT:     -12.0      1.764      8.397
REMARK SMILES COc1ccc(C(=O)c2ccccc2)cc1[C@@H](C)C(=O)OCCOC(=O)c1ccc(-c2c3nc(c(-c4c(F)c(F)c(F)c(F)c4F)c4ccc([nH]4)c(-c4c(F)c(F)c(F)c(F)c4F)c4nc(c(-c5c(F)c(F)c(F)c(F)c5F)c5ccc2[nH]5)C=C4)C=C3)cc1
REMARK SMILES IDX 22 1 21 2 19 3 20 4 17 5 18 6 16 7 3 8 4 9 5 10 15 11 6 12
REMARK SMILES IDX 2 13 1 14 7 15 8 16 9 17 10 18 14 19 11 20 13 21 12 22 23 23
REMARK SMILES IDX 24 24 25 25 26 26 27 27 28 28 89 29 29 30 88 31 30 32 31 33
REMARK SMILES IDX 32 34 82 35 33 36 87 37 81 38 83 39 34 40 86 41 80 42 79 43
REMARK SMILES IDX 35 45 67 46 47 47 66 48 48 49 51 50 65 51 84 52 49 53 50 54
REMARK SMILES IDX 64 56 85 57 52 58 36 59 37 60 45 61 38 62 39 63 43 64 46 65
REMARK SMILES IDX 40 66 41 67 44 68 42 69 68 70 69 71 77 72 70 73 71 74 75 75
REMARK SMILES IDX 78 76 72 77 73 78 76 79 74 80 53 81 54 82 62 83 55 84 56 85
REMARK SMILES IDX 60 86 63 87 57 88 58 89 61 90 59 91
REMARK H PARENT 83 44 51 55
REMARK Flexibility Score: inf
ROOT
ATOM      1  C   UNL A   1      31.509  29.507  24.771  1.00  0.00     0.274 C 
ENDROOT
BRANCH   1   2
ATOM      2  O   UNL A   1      31.095  28.237  25.310  1.00  0.00    -0.462 OA
BRANCH   2   3
ATOM      3  C   UNL A   1      31.665  27.121  24.791  1.00  0.00     0.313 C 
ATOM      4  O   UNL A   1      31.473  26.724  23.644  1.00  0.00    -0.252 OA
BRANCH   3   5
ATOM      5  C   UNL A   1      32.536  26.346  25.775  1.00  0.00     0.130 C 
ATOM      6  C   UNL A   1      33.764  27.178  26.139  1.00  0.00     0.025 C 
BRANCH   5   7
ATOM      7  C   UNL A   1      32.936  24.926  25.390  1.00  0.00     0.009 A 
ATOM      8  C   UNL A   1      32.064  23.844  25.593  1.00  0.00     0.122 A 
ATOM      9  C   UNL A   1      32.456  22.535  25.292  1.00  0.00     0.047 A 
ATOM     10  C   UNL A   1      33.724  22.288  24.761  1.00  0.00     0.016 A 
ATOM     11  C   UNL A   1      34.212  24.650  24.869  1.00  0.00     0.020 A 
ATOM     12  C   UNL A   1      34.614  23.345  24.552  1.00  0.00     0.023 A 
BRANCH   8  13
ATOM     13  O   UNL A   1      30.854  24.088  26.185  1.00  0.00    -0.496 OA
ATOM     14  C   UNL A   1      30.266  22.906  26.725  1.00  0.00     0.278 C 
ENDBRANCH   8  13
BRANCH  12  15
ATOM     15  C   UNL A   1      35.957  23.059  23.964  1.00  0.00     0.193 C 
ATOM     16  O   UNL A   1      36.113  23.026  22.746  1.00  0.00    -0.289 OA
BRANCH  15  17
ATOM     17  C   UNL A   1      37.138  22.861  24.834  1.00  0.00     0.022 A 
ATOM     18  C   UNL A   1      37.558  23.922  25.640  1.00  0.00     0.012 A 
ATOM     19  C   UNL A   1      37.806  21.631  24.876  1.00  0.00     0.012 A 
ATOM     20  C   UNL A   1      38.616  23.735  26.531  1.00  0.00     0.001 A 
ATOM     21  C   UNL A   1      38.857  21.447  25.774  1.00  0.00     0.001 A 
ATOM     22  C   UNL A   1      39.256  22.496  26.605  1.00  0.00     0.000 A 
ENDBRANCH  15  17
ENDBRANCH  12  15
ENDBRANCH   5   7
ENDBRANCH   3   5
ENDBRANCH   2   3
ENDBRANCH   1   2
BRANCH   1  23
ATOM     23  C   UNL A   1      31.627  30.558  25.874  1.00  0.00     0.275 C 
BRANCH  23  24
ATOM     24  O   UNL A   1      32.789  30.313  26.685  1.00  0.00    -0.458 OA
BRANCH  24  25
ATOM     25  C   UNL A   1      33.360  31.416  27.214  1.00  0.00     0.338 C 
ATOM     26  O   UNL A   1      32.866  32.518  27.369  1.00  0.00    -0.246 OA
BRANCH  25  27
ATOM     27  C   UNL A   1      34.712  31.092  27.682  1.00  0.00     0.060 A 
ATOM     28  C   UNL A   1      35.006  29.761  27.974  1.00  0.00     0.016 A 
ATOM     29  C   UNL A   1      35.619  32.107  27.986  1.00  0.00     0.016 A 
ATOM     30  C   UNL A   1      36.186  29.445  28.640  1.00  0.00     0.010 A 
ATOM     31  C   UNL A   1      36.823  31.781  28.619  1.00  0.00     0.010 A 
ATOM     32  C   UNL A   1      37.097  30.452  28.991  1.00  0.00    -0.014 A 
BRANCH  32  33
ATOM     33  C   UNL A   1      38.278  30.121  29.830  1.00  0.00     0.031 A 
ATOM     34  C   UNL A   1      39.392  29.284  29.260  1.00  0.00     0.074 A 
ATOM     35  C   UNL A   1      38.388  30.610  31.080  1.00  0.00     0.049 A 
ATOM     36  N   UNL A   1      40.444  28.783  29.859  1.00  0.00    -0.248 NA
ATOM     37  C   UNL A   1      39.310  28.965  27.826  1.00  0.00     0.031 C 
ATOM     38  C   UNL A   1      37.414  31.481  31.737  1.00  0.00     0.029 A 
ATOM     39  N   UNL A   1      39.381  30.453  32.015  1.00  0.00    -0.354 N 
ATOM     40  C   UNL A   1      41.114  28.044  28.892  1.00  0.00     0.074 A 
ATOM     41  C   UNL A   1      40.360  28.171  27.663  1.00  0.00     0.031 C 
ATOM     42  C   UNL A   1      37.873  31.812  32.953  1.00  0.00     0.029 A 
ATOM     43  C   UNL A   1      39.142  31.126  33.187  1.00  0.00     0.049 A 
ATOM     44  H   UNL A   1      40.187  29.911  31.859  1.00  0.00     0.167 HD
ATOM     45  C   UNL A   1      42.250  27.320  29.022  1.00  0.00     0.037 A 
ATOM     46  C   UNL A   1      39.851  31.168  34.330  1.00  0.00     0.037 A 
ATOM     47  C   UNL A   1      43.034  27.240  30.225  1.00  0.00     0.049 A 
ATOM     48  C   UNL A   1      41.119  30.366  34.446  1.00  0.00     0.074 A 
ATOM     49  C   UNL A   1      44.194  26.520  30.457  1.00  0.00     0.029 A 
ATOM     50  N   UNL A   1      42.750  27.927  31.395  1.00  0.00    -0.354 N 
ATOM     51  N   UNL A   1      41.696  29.603  33.552  1.00  0.00    -0.248 NA
ATOM     52  C   UNL A   1      41.820  30.419  35.736  1.00  0.00     0.031 C 
ATOM     53  C   UNL A   1      44.604  26.762  31.773  1.00  0.00     0.029 A 
ATOM     54  C   UNL A   1      43.715  27.652  32.350  1.00  0.00     0.049 A 
ATOM     55  H   UNL A   1      41.977  28.522  31.528  1.00  0.00     0.167 HD
ATOM     56  C   UNL A   1      42.827  29.085  34.168  1.00  0.00     0.074 A 
ATOM     57  C   UNL A   1      42.868  29.641  35.504  1.00  0.00     0.031 C 
ATOM     58  C   UNL A   1      43.742  28.217  33.673  1.00  0.00     0.037 A 
BRANCH  45  59
ATOM     59  C   UNL A   1      42.702  26.523  27.835  1.00  0.00     0.064 A 
ATOM     60  C   UNL A   1      42.288  25.200  27.633  1.00  0.00     0.173 A 
ATOM     61  C   UNL A   1      43.530  27.112  26.868  1.00  0.00     0.173 A 
ATOM     62  F   UNL A   1      41.511  24.589  28.538  1.00  0.00    -0.203 F 
ATOM     63  C   UNL A   1      42.701  24.488  26.508  1.00  0.00     0.198 A 
ATOM     64  C   UNL A   1      43.924  26.405  25.736  1.00  0.00     0.198 A 
ATOM     65  F   UNL A   1      43.950  28.378  27.018  1.00  0.00    -0.203 F 
ATOM     66  F   UNL A   1      42.323  23.213  26.348  1.00  0.00    -0.200 F 
ATOM     67  C   UNL A   1      43.513  25.093  25.558  1.00  0.00     0.200 A 
ATOM     68  F   UNL A   1      44.701  26.993  24.816  1.00  0.00    -0.200 F 
ATOM     69  F   UNL A   1      43.904  24.408  24.475  1.00  0.00    -0.200 F 
ENDBRANCH  45  59
BRANCH  46  70
ATOM     70  C   UNL A   1      39.363  31.984  35.468  1.00  0.00     0.064 A 
ATOM     71  C   UNL A   1      39.730  33.330  35.597  1.00  0.00     0.173 A 
ATOM     72  C   UNL A   1      38.513  31.440  36.441  1.00  0.00     0.173 A 
ATOM     73  F   UNL A   1      40.563  33.885  34.704  1.00  0.00    -0.203 F 
ATOM     74  C   UNL A   1      39.266  34.102  36.660  1.00  0.00     0.198 A 
ATOM     75  C   UNL A   1      38.030  32.218  37.491  1.00  0.00     0.198 A 
ATOM     76  F   UNL A   1      38.138  30.155  36.362  1.00  0.00    -0.203 F 
ATOM     77  F   UNL A   1      39.654  35.379  36.778  1.00  0.00    -0.200 F 
ATOM     78  C   UNL A   1      38.410  33.547  37.601  1.00  0.00     0.200 A 
ATOM     79  F   UNL A   1      37.197  31.681  38.391  1.00  0.00    -0.200 F 
ATOM     80  F   UNL A   1      37.957  34.293  38.618  1.00  0.00    -0.200 F 
ENDBRANCH  46  70
BRANCH  58  81
ATOM     81  C   UNL A   1      44.870  27.828  34.577  1.00  0.00     0.064 A 
ATOM     82  C   UNL A   1      44.782  26.700  35.406  1.00  0.00     0.173 A 
ATOM     83  C   UNL A   1      46.062  28.567  34.589  1.00  0.00     0.173 A 
ATOM     84  F   UNL A   1      43.656  25.972  35.436  1.00  0.00    -0.203 F 
ATOM     85  C   UNL A   1      45.844  26.337  36.230  1.00  0.00     0.198 A 
ATOM     86  C   UNL A   1      47.127  28.191  35.402  1.00  0.00     0.198 A 
ATOM     87  F   UNL A   1      46.191  29.652  33.810  1.00  0.00    -0.203 F 
ATOM     88  F   UNL A   1      45.728  25.275  37.040  1.00  0.00    -0.200 F 
ATOM     89  C   UNL A   1      47.016  27.080  36.224  1.00  0.00     0.200 A 
ATOM     90  F   UNL A   1      48.260  28.906  35.392  1.00  0.00    -0.200 F 
ATOM     91  F   UNL A   1      48.036  26.729  37.019  1.00  0.00    -0.200 F 
ENDBRANCH  58  81
ENDBRANCH  32  33
ENDBRANCH  25  27
ENDBRANCH  24  25
ENDBRANCH  23  24
ENDBRANCH   1  23
TORSDOF 15
ENDMDL
