MODEL 1
REMARK VINA RESULT:     -12.3      0.000      0.000
REMARK SMILES O=C(OCCOC(=O)[C@H](c1ccc(Cl)cc1)[NH+]1CCCCC1)c1ccc(-c2c3nc(c(-c4c(F)c(F)c(F)c(F)c4F)c4ccc([nH]4)c(-c4c(F)c(F)c(F)c(F)c4F)c4nc(c(-c5c(F)c(F)c(F)c(F)c5F)c5ccc2[nH]5)C=C4)C=C3)cc1
REMARK SMILES IDX 4 1 3 2 2 3 1 4 23 5 24 6 85 7 25 8 84 9 26 10 27 11 28 12
REMARK SMILES IDX 78 13 29 14 83 15 77 16 79 17 30 18 82 19 76 20 75 21 31 23
REMARK SMILES IDX 63 24 43 25 62 26 44 27 47 28 61 29 80 30 45 31 46 32 60 34
REMARK SMILES IDX 81 35 48 36 32 37 33 38 41 39 34 40 35 41 39 42 42 43 36 44
REMARK SMILES IDX 37 45 40 46 38 47 64 48 65 49 73 50 66 51 67 52 71 53 74 54
REMARK SMILES IDX 68 55 69 56 72 57 70 58 49 59 50 60 58 61 51 62 52 63 56 64
REMARK SMILES IDX 59 65 53 66 54 67 57 68 55 69 5 70 6 71 7 72 8 73 9 74 17 75
REMARK SMILES IDX 18 76 22 77 19 79 21 80 20 81 10 82 11 83 16 84 12 85 15 86
REMARK SMILES IDX 13 87 14 88
REMARK H PARENT 79 22 47 33 17 78
REMARK Flexibility Score: inf
ROOT
ATOM      1  C   UNL A   1      32.042  30.053  26.464  1.00  0.00     0.275 C 
ENDROOT
BRANCH   1   2
ATOM      2  O   UNL A   1      33.417  30.448  26.513  1.00  0.00    -0.458 OA
BRANCH   2   3
ATOM      3  C   UNL A   1      33.680  31.353  27.485  1.00  0.00     0.338 C 
ATOM      4  O   UNL A   1      33.172  32.446  27.638  1.00  0.00    -0.246 OA
BRANCH   3   5
ATOM      5  C   UNL A   1      34.986  30.942  28.023  1.00  0.00     0.060 A 
ATOM      6  C   UNL A   1      35.308  29.628  28.338  1.00  0.00     0.016 A 
ATOM      7  C   UNL A   1      35.963  31.932  28.040  1.00  0.00     0.016 A 
ATOM      8  C   UNL A   1      36.610  29.344  28.738  1.00  0.00     0.010 A 
ATOM      9  C   UNL A   1      37.271  31.654  28.364  1.00  0.00     0.010 A 
ATOM     10  C   UNL A   1      37.574  30.366  28.773  1.00  0.00    -0.014 A 
BRANCH  10  11
ATOM     11  C   UNL A   1      38.876  30.129  29.392  1.00  0.00     0.031 A 
ATOM     12  C   UNL A   1      39.120  30.743  30.728  1.00  0.00     0.074 A 
ATOM     13  C   UNL A   1      39.791  29.403  28.737  1.00  0.00     0.049 A 
ATOM     14  N   UNL A   1      39.972  30.394  31.646  1.00  0.00    -0.248 NA
ATOM     15  C   UNL A   1      38.293  31.913  31.084  1.00  0.00     0.031 C 
ATOM     16  C   UNL A   1      39.685  28.964  27.345  1.00  0.00     0.029 A 
ATOM     17  N   UNL A   1      40.983  28.897  29.165  1.00  0.00    -0.354 N 
ATOM     18  C   UNL A   1      39.724  31.240  32.719  1.00  0.00     0.074 A 
ATOM     19  C   UNL A   1      38.736  32.201  32.298  1.00  0.00     0.031 C 
ATOM     20  C   UNL A   1      40.760  28.218  27.041  1.00  0.00     0.029 A 
ATOM     21  C   UNL A   1      41.578  28.078  28.241  1.00  0.00     0.049 A 
ATOM     22  H   UNL A   1      41.374  29.099  30.046  1.00  0.00     0.167 HD
ATOM     23  C   UNL A   1      40.246  31.146  33.962  1.00  0.00     0.037 A 
ATOM     24  C   UNL A   1      42.615  27.237  28.404  1.00  0.00     0.037 A 
ATOM     25  C   UNL A   1      41.258  30.175  34.280  1.00  0.00     0.049 A 
ATOM     26  C   UNL A   1      43.112  27.055  29.815  1.00  0.00     0.074 A 
ATOM     27  C   UNL A   1      41.878  29.906  35.483  1.00  0.00     0.029 A 
ATOM     28  N   UNL A   1      41.803  29.303  33.340  1.00  0.00    -0.354 N 
ATOM     29  N   UNL A   1      42.770  27.714  30.901  1.00  0.00    -0.248 NA
ATOM     30  C   UNL A   1      44.066  25.968  30.046  1.00  0.00     0.031 C 
ATOM     31  C   UNL A   1      42.811  28.882  35.264  1.00  0.00     0.029 A 
ATOM     32  C   UNL A   1      42.746  28.487  33.933  1.00  0.00     0.049 A 
ATOM     33  H   UNL A   1      41.552  29.273  32.389  1.00  0.00     0.167 HD
ATOM     34  C   UNL A   1      43.447  27.112  31.950  1.00  0.00     0.074 A 
ATOM     35  C   UNL A   1      44.193  26.009  31.365  1.00  0.00     0.031 C 
ATOM     36  C   UNL A   1      43.467  27.427  33.271  1.00  0.00     0.037 A 
BRANCH  23  37
ATOM     37  C   UNL A   1      39.694  32.061  35.018  1.00  0.00     0.064 A 
ATOM     38  C   UNL A   1      40.169  33.379  35.155  1.00  0.00     0.173 A 
ATOM     39  C   UNL A   1      38.695  31.639  35.905  1.00  0.00     0.173 A 
ATOM     40  F   UNL A   1      41.133  33.838  34.341  1.00  0.00    -0.203 F 
ATOM     41  C   UNL A   1      39.693  34.221  36.158  1.00  0.00     0.198 A 
ATOM     42  C   UNL A   1      38.200  32.494  36.891  1.00  0.00     0.198 A 
ATOM     43  F   UNL A   1      38.203  30.394  35.828  1.00  0.00    -0.203 F 
ATOM     44  F   UNL A   1      40.203  35.453  36.296  1.00  0.00    -0.200 F 
ATOM     45  C   UNL A   1      38.704  33.780  37.022  1.00  0.00     0.200 A 
ATOM     46  F   UNL A   1      37.237  32.070  37.722  1.00  0.00    -0.200 F 
ATOM     47  F   UNL A   1      38.244  34.591  37.985  1.00  0.00    -0.200 F 
ENDBRANCH  23  37
BRANCH  24  48
ATOM     48  C   UNL A   1      43.079  26.414  27.258  1.00  0.00     0.064 A 
ATOM     49  C   UNL A   1      44.148  26.822  26.447  1.00  0.00     0.173 A 
ATOM     50  C   UNL A   1      42.516  25.155  27.000  1.00  0.00     0.173 A 
ATOM     51  F   UNL A   1      44.735  28.009  26.659  1.00  0.00    -0.203 F 
ATOM     52  C   UNL A   1      44.617  26.017  25.407  1.00  0.00     0.198 A 
ATOM     53  C   UNL A   1      43.001  24.340  25.976  1.00  0.00     0.198 A 
ATOM     54  F   UNL A   1      41.513  24.699  27.766  1.00  0.00    -0.203 F 
ATOM     55  F   UNL A   1      45.622  26.446  24.633  1.00  0.00    -0.200 F 
ATOM     56  C   UNL A   1      44.046  24.775  25.177  1.00  0.00     0.200 A 
ATOM     57  F   UNL A   1      42.464  23.129  25.775  1.00  0.00    -0.200 F 
ATOM     58  F   UNL A   1      44.507  23.996  24.189  1.00  0.00    -0.200 F 
ENDBRANCH  24  48
BRANCH  36  59
ATOM     59  C   UNL A   1      44.347  26.576  34.132  1.00  0.00     0.064 A 
ATOM     60  C   UNL A   1      43.842  25.434  34.771  1.00  0.00     0.173 A 
ATOM     61  C   UNL A   1      45.703  26.888  34.294  1.00  0.00     0.173 A 
ATOM     62  F   UNL A   1      42.547  25.109  34.649  1.00  0.00    -0.203 F 
ATOM     63  C   UNL A   1      44.661  24.653  35.576  1.00  0.00     0.198 A 
ATOM     64  C   UNL A   1      46.526  26.086  35.076  1.00  0.00     0.198 A 
ATOM     65  F   UNL A   1      46.227  27.967  33.692  1.00  0.00    -0.203 F 
ATOM     66  F   UNL A   1      44.148  23.600  36.226  1.00  0.00    -0.200 F 
ATOM     67  C   UNL A   1      46.002  24.976  35.724  1.00  0.00     0.200 A 
ATOM     68  F   UNL A   1      47.824  26.390  35.209  1.00  0.00    -0.200 F 
ATOM     69  F   UNL A   1      46.790  24.221  36.501  1.00  0.00    -0.200 F 
ENDBRANCH  36  59
ENDBRANCH  10  11
ENDBRANCH   3   5
ENDBRANCH   2   3
ENDBRANCH   1   2
BRANCH   1  70
ATOM     70  C   UNL A   1      31.826  28.783  27.304  1.00  0.00     0.274 C 
BRANCH  70  71
ATOM     71  O   UNL A   1      31.471  27.633  26.490  1.00  0.00    -0.457 OA
BRANCH  71  72
ATOM     72  C   UNL A   1      32.486  27.118  25.738  1.00  0.00     0.370 C 
ATOM     73  O   UNL A   1      33.594  26.883  26.221  1.00  0.00    -0.245 OA
BRANCH  72  74
ATOM     74  C   UNL A   1      32.183  26.950  24.210  1.00  0.00     0.326 C 
BRANCH  74  75
ATOM     75  N   UNL A   1      32.197  25.508  23.835  1.00  0.00    -0.319 N 
ATOM     76  C   UNL A   1      33.520  25.029  23.425  1.00  0.00     0.263 C 
ATOM     77  C   UNL A   1      31.577  24.646  24.850  1.00  0.00     0.263 C 
ATOM     78  H   UNL A   1      31.608  25.439  23.006  1.00  0.00     0.349 HD
ATOM     79  C   UNL A   1      33.429  23.605  22.884  1.00  0.00     0.062 C 
ATOM     80  C   UNL A   1      31.478  23.195  24.384  1.00  0.00     0.062 C 
ATOM     81  C   UNL A   1      32.838  22.674  23.935  1.00  0.00     0.012 C 
ENDBRANCH  74  75
BRANCH  74  82
ATOM     82  C   UNL A   1      31.045  27.738  23.547  1.00  0.00     0.021 A 
ATOM     83  C   UNL A   1      29.690  27.392  23.650  1.00  0.00     0.012 A 
ATOM     84  C   UNL A   1      31.379  28.866  22.754  1.00  0.00     0.012 A 
ATOM     85  C   UNL A   1      28.702  28.192  23.054  1.00  0.00     0.021 A 
ATOM     86  C   UNL A   1      30.394  29.659  22.159  1.00  0.00     0.021 A 
ATOM     87  C   UNL A   1      29.055  29.331  22.332  1.00  0.00     0.041 A 
ATOM     88  Cl  UNL A   1      27.840  30.363  21.685  1.00  0.00    -0.084 Cl
ENDBRANCH  74  82
ENDBRANCH  72  74
ENDBRANCH  71  72
ENDBRANCH  70  71
ENDBRANCH   1  70
TORSDOF 13
ENDMDL
MODEL 2
REMARK VINA RESULT:     -12.3      0.360      1.682
REMARK SMILES O=C(OCCOC(=O)[C@H](c1ccc(Cl)cc1)[NH+]1CCCCC1)c1ccc(-c2c3nc(c(-c4c(F)c(F)c(F)c(F)c4F)c4ccc([nH]4)c(-c4c(F)c(F)c(F)c(F)c4F)c4nc(c(-c5c(F)c(F)c(F)c(F)c5F)c5ccc2[nH]5)C=C4)C=C3)cc1
REMARK SMILES IDX 4 1 3 2 2 3 1 4 23 5 24 6 85 7 25 8 84 9 26 10 27 11 28 12
REMARK SMILES IDX 78 13 29 14 83 15 77 16 79 17 30 18 82 19 76 20 75 21 31 23
REMARK SMILES IDX 63 24 43 25 62 26 44 27 47 28 61 29 80 30 45 31 46 32 60 34
REMARK SMILES IDX 81 35 48 36 32 37 33 38 41 39 34 40 35 41 39 42 42 43 36 44
REMARK SMILES IDX 37 45 40 46 38 47 64 48 65 49 73 50 66 51 67 52 71 53 74 54
REMARK SMILES IDX 68 55 69 56 72 57 70 58 49 59 50 60 58 61 51 62 52 63 56 64
REMARK SMILES IDX 59 65 53 66 54 67 57 68 55 69 5 70 6 71 7 72 8 73 9 74 17 75
REMARK SMILES IDX 18 76 22 77 19 79 21 80 20 81 10 82 11 83 16 84 12 85 15 86
REMARK SMILES IDX 13 87 14 88
REMARK H PARENT 79 22 47 33 17 78
REMARK Flexibility Score: inf
ROOT
ATOM      1  C   UNL A   1      32.073  30.060  26.611  1.00  0.00     0.275 C 
ENDROOT
BRANCH   1   2
ATOM      2  O   UNL A   1      33.445  30.469  26.596  1.00  0.00    -0.458 OA
BRANCH   2   3
ATOM      3  C   UNL A   1      33.739  31.389  27.545  1.00  0.00     0.338 C 
ATOM      4  O   UNL A   1      33.257  32.496  27.679  1.00  0.00    -0.246 OA
BRANCH   3   5
ATOM      5  C   UNL A   1      35.044  30.963  28.074  1.00  0.00     0.060 A 
ATOM      6  C   UNL A   1      35.352  29.646  28.391  1.00  0.00     0.016 A 
ATOM      7  C   UNL A   1      36.034  31.940  28.082  1.00  0.00     0.016 A 
ATOM      8  C   UNL A   1      36.652  29.345  28.782  1.00  0.00     0.010 A 
ATOM      9  C   UNL A   1      37.340  31.646  28.398  1.00  0.00     0.010 A 
ATOM     10  C   UNL A   1      37.629  30.355  28.808  1.00  0.00    -0.014 A 
BRANCH  10  11
ATOM     11  C   UNL A   1      38.932  30.103  29.419  1.00  0.00     0.031 A 
ATOM     12  C   UNL A   1      39.190  30.710  30.756  1.00  0.00     0.074 A 
ATOM     13  C   UNL A   1      39.837  29.370  28.756  1.00  0.00     0.049 A 
ATOM     14  N   UNL A   1      40.044  30.349  31.668  1.00  0.00    -0.248 NA
ATOM     15  C   UNL A   1      38.378  31.887  31.120  1.00  0.00     0.031 C 
ATOM     16  C   UNL A   1      39.717  28.936  27.364  1.00  0.00     0.029 A 
ATOM     17  N   UNL A   1      41.025  28.850  29.176  1.00  0.00    -0.354 N 
ATOM     18  C   UNL A   1      39.811  31.194  32.744  1.00  0.00     0.074 A 
ATOM     19  C   UNL A   1      38.830  32.167  32.332  1.00  0.00     0.031 C 
ATOM     20  C   UNL A   1      40.783  28.181  27.051  1.00  0.00     0.029 A 
ATOM     21  C   UNL A   1      41.607  28.028  28.245  1.00  0.00     0.049 A 
ATOM     22  H   UNL A   1      41.424  29.046  30.055  1.00  0.00     0.167 HD
ATOM     23  C   UNL A   1      40.339  31.090  33.984  1.00  0.00     0.037 A 
ATOM     24  C   UNL A   1      42.636  27.177  28.399  1.00  0.00     0.037 A 
ATOM     25  C   UNL A   1      41.343  30.109  34.293  1.00  0.00     0.049 A 
ATOM     26  C   UNL A   1      43.139  26.985  29.808  1.00  0.00     0.074 A 
ATOM     27  C   UNL A   1      41.967  29.829  35.492  1.00  0.00     0.029 A 
ATOM     28  N   UNL A   1      41.874  29.234  33.347  1.00  0.00    -0.354 N 
ATOM     29  N   UNL A   1      42.810  27.644  30.898  1.00  0.00    -0.248 NA
ATOM     30  C   UNL A   1      44.083  25.888  30.029  1.00  0.00     0.031 C 
ATOM     31  C   UNL A   1      42.888  28.796  35.264  1.00  0.00     0.029 A 
ATOM     32  C   UNL A   1      42.811  28.406  33.932  1.00  0.00     0.049 A 
ATOM     33  H   UNL A   1      41.617  29.209  32.397  1.00  0.00     0.167 HD
ATOM     34  C   UNL A   1      43.487  27.031  31.940  1.00  0.00     0.074 A 
ATOM     35  C   UNL A   1      44.218  25.923  31.348  1.00  0.00     0.031 C 
ATOM     36  C   UNL A   1      43.518  27.341  33.262  1.00  0.00     0.037 A 
BRANCH  23  37
ATOM     37  C   UNL A   1      39.802  32.008  35.046  1.00  0.00     0.064 A 
ATOM     38  C   UNL A   1      38.772  31.592  35.910  1.00  0.00     0.173 A 
ATOM     39  C   UNL A   1      40.299  33.308  35.212  1.00  0.00     0.173 A 
ATOM     40  F   UNL A   1      38.249  30.362  35.793  1.00  0.00    -0.203 F 
ATOM     41  C   UNL A   1      38.240  32.450  36.870  1.00  0.00     0.198 A 
ATOM     42  C   UNL A   1      39.782  34.156  36.193  1.00  0.00     0.198 A 
ATOM     43  F   UNL A   1      41.278  33.765  34.418  1.00  0.00    -0.203 F 
ATOM     44  F   UNL A   1      37.223  32.042  37.643  1.00  0.00    -0.200 F 
ATOM     45  C   UNL A   1      38.749  33.730  37.015  1.00  0.00     0.200 A 
ATOM     46  F   UNL A   1      40.281  35.392  36.337  1.00  0.00    -0.200 F 
ATOM     47  F   UNL A   1      38.238  34.555  37.939  1.00  0.00    -0.200 F 
ENDBRANCH  23  37
BRANCH  24  48
ATOM     48  C   UNL A   1      43.086  26.352  27.248  1.00  0.00     0.064 A 
ATOM     49  C   UNL A   1      44.164  26.744  26.443  1.00  0.00     0.173 A 
ATOM     50  C   UNL A   1      42.496  25.107  26.979  1.00  0.00     0.173 A 
ATOM     51  F   UNL A   1      44.776  27.916  26.665  1.00  0.00    -0.203 F 
ATOM     52  C   UNL A   1      44.618  25.938  25.398  1.00  0.00     0.198 A 
ATOM     53  C   UNL A   1      42.966  24.291  25.950  1.00  0.00     0.198 A 
ATOM     54  F   UNL A   1      41.482  24.668  27.740  1.00  0.00    -0.203 F 
ATOM     55  F   UNL A   1      45.635  26.351  24.629  1.00  0.00    -0.200 F 
ATOM     56  C   UNL A   1      44.022  24.709  25.157  1.00  0.00     0.200 A 
ATOM     57  F   UNL A   1      42.404  23.093  25.739  1.00  0.00    -0.200 F 
ATOM     58  F   UNL A   1      44.469  23.928  24.164  1.00  0.00    -0.200 F 
ENDBRANCH  24  48
BRANCH  36  59
ATOM     59  C   UNL A   1      44.394  26.478  34.115  1.00  0.00     0.064 A 
ATOM     60  C   UNL A   1      45.746  26.793  34.309  1.00  0.00     0.173 A 
ATOM     61  C   UNL A   1      43.870  25.351  34.763  1.00  0.00     0.173 A 
ATOM     62  F   UNL A   1      46.286  27.858  33.698  1.00  0.00    -0.203 F 
ATOM     63  C   UNL A   1      46.556  25.983  35.095  1.00  0.00     0.198 A 
ATOM     64  C   UNL A   1      44.677  24.561  35.573  1.00  0.00     0.198 A 
ATOM     65  F   UNL A   1      42.579  25.020  34.611  1.00  0.00    -0.203 F 
ATOM     66  F   UNL A   1      47.859  26.267  35.222  1.00  0.00    -0.200 F 
ATOM     67  C   UNL A   1      46.021  24.872  35.730  1.00  0.00     0.200 A 
ATOM     68  F   UNL A   1      44.158  23.495  36.197  1.00  0.00    -0.200 F 
ATOM     69  F   UNL A   1      46.804  24.093  36.487  1.00  0.00    -0.200 F 
ENDBRANCH  36  59
ENDBRANCH  10  11
ENDBRANCH   3   5
ENDBRANCH   2   3
ENDBRANCH   1   2
BRANCH   1  70
ATOM     70  C   UNL A   1      31.900  28.817  27.500  1.00  0.00     0.274 C 
BRANCH  70  71
ATOM     71  O   UNL A   1      31.379  27.677  26.764  1.00  0.00    -0.457 OA
BRANCH  71  72
ATOM     72  C   UNL A   1      32.293  27.013  25.999  1.00  0.00     0.370 C 
ATOM     73  O   UNL A   1      33.451  26.841  26.378  1.00  0.00    -0.245 OA
BRANCH  72  74
ATOM     74  C   UNL A   1      31.803  26.586  24.573  1.00  0.00     0.326 C 
BRANCH  74  75
ATOM     75  N   UNL A   1      31.482  25.131  24.551  1.00  0.00    -0.319 N 
ATOM     76  C   UNL A   1      32.468  24.332  23.818  1.00  0.00     0.263 C 
ATOM     77  C   UNL A   1      31.196  24.587  25.885  1.00  0.00     0.263 C 
ATOM     78  H   UNL A   1      30.614  25.055  24.021  1.00  0.00     0.349 HD
ATOM     79  C   UNL A   1      31.989  22.890  23.679  1.00  0.00     0.062 C 
ATOM     80  C   UNL A   1      30.736  23.133  25.822  1.00  0.00     0.062 C 
ATOM     81  C   UNL A   1      31.735  22.278  25.050  1.00  0.00     0.012 C 
ENDBRANCH  74  75
BRANCH  74  82
ATOM     82  C   UNL A   1      30.788  27.443  23.806  1.00  0.00     0.021 A 
ATOM     83  C   UNL A   1      29.411  27.176  23.764  1.00  0.00     0.012 A 
ATOM     84  C   UNL A   1      31.266  28.554  23.064  1.00  0.00     0.012 A 
ATOM     85  C   UNL A   1      28.538  28.036  23.079  1.00  0.00     0.021 A 
ATOM     86  C   UNL A   1      30.395  29.407  22.381  1.00  0.00     0.021 A 
ATOM     87  C   UNL A   1      29.029  29.157  22.410  1.00  0.00     0.041 A 
ATOM     88  Cl  UNL A   1      27.948  30.261  21.654  1.00  0.00    -0.084 Cl
ENDBRANCH  74  82
ENDBRANCH  72  74
ENDBRANCH  71  72
ENDBRANCH  70  71
ENDBRANCH   1  70
TORSDOF 13
ENDMDL
MODEL 3
REMARK VINA RESULT:     -12.2      1.483      2.865
REMARK SMILES O=C(OCCOC(=O)[C@H](c1ccc(Cl)cc1)[NH+]1CCCCC1)c1ccc(-c2c3nc(c(-c4c(F)c(F)c(F)c(F)c4F)c4ccc([nH]4)c(-c4c(F)c(F)c(F)c(F)c4F)c4nc(c(-c5c(F)c(F)c(F)c(F)c5F)c5ccc2[nH]5)C=C4)C=C3)cc1
REMARK SMILES IDX 4 1 3 2 2 3 1 4 23 5 24 6 85 7 25 8 84 9 26 10 27 11 28 12
REMARK SMILES IDX 78 13 29 14 83 15 77 16 79 17 30 18 82 19 76 20 75 21 31 23
REMARK SMILES IDX 63 24 43 25 62 26 44 27 47 28 61 29 80 30 45 31 46 32 60 34
REMARK SMILES IDX 81 35 48 36 32 37 33 38 41 39 34 40 35 41 39 42 42 43 36 44
REMARK SMILES IDX 37 45 40 46 38 47 64 48 65 49 73 50 66 51 67 52 71 53 74 54
REMARK SMILES IDX 68 55 69 56 72 57 70 58 49 59 50 60 58 61 51 62 52 63 56 64
REMARK SMILES IDX 59 65 53 66 54 67 57 68 55 69 5 70 6 71 7 72 8 73 9 74 17 75
REMARK SMILES IDX 18 76 22 77 19 79 21 80 20 81 10 82 11 83 16 84 12 85 15 86
REMARK SMILES IDX 13 87 14 88
REMARK H PARENT 79 22 47 33 17 78
REMARK Flexibility Score: inf
ROOT
ATOM      1  C   UNL A   1      31.932  29.887  26.909  1.00  0.00     0.275 C 
ENDROOT
BRANCH   1   2
ATOM      2  O   UNL A   1      33.298  30.288  26.752  1.00  0.00    -0.458 OA
BRANCH   2   3
ATOM      3  C   UNL A   1      33.653  31.309  27.567  1.00  0.00     0.338 C 
ATOM      4  O   UNL A   1      33.205  32.439  27.579  1.00  0.00    -0.246 OA
BRANCH   3   5
ATOM      5  C   UNL A   1      34.965  30.912  28.101  1.00  0.00     0.060 A 
ATOM      6  C   UNL A   1      35.292  29.605  28.440  1.00  0.00     0.016 A 
ATOM      7  C   UNL A   1      35.941  31.902  28.087  1.00  0.00     0.016 A 
ATOM      8  C   UNL A   1      36.598  29.330  28.833  1.00  0.00     0.010 A 
ATOM      9  C   UNL A   1      37.252  31.632  28.404  1.00  0.00     0.010 A 
ATOM     10  C   UNL A   1      37.561  30.354  28.837  1.00  0.00    -0.014 A 
BRANCH  10  11
ATOM     11  C   UNL A   1      38.869  30.132  29.448  1.00  0.00     0.031 A 
ATOM     12  C   UNL A   1      39.115  30.750  30.782  1.00  0.00     0.074 A 
ATOM     13  C   UNL A   1      39.788  29.414  28.789  1.00  0.00     0.049 A 
ATOM     14  N   UNL A   1      39.977  30.411  31.695  1.00  0.00    -0.248 NA
ATOM     15  C   UNL A   1      38.279  31.912  31.141  1.00  0.00     0.031 C 
ATOM     16  C   UNL A   1      39.677  28.972  27.398  1.00  0.00     0.029 A 
ATOM     17  N   UNL A   1      40.987  28.921  29.210  1.00  0.00    -0.354 N 
ATOM     18  C   UNL A   1      39.727  31.256  32.768  1.00  0.00     0.074 A 
ATOM     19  C   UNL A   1      38.726  32.207  32.352  1.00  0.00     0.031 C 
ATOM     20  C   UNL A   1      40.758  28.237  27.088  1.00  0.00     0.029 A 
ATOM     21  C   UNL A   1      41.586  28.107  28.283  1.00  0.00     0.049 A 
ATOM     22  H   UNL A   1      41.382  29.129  30.087  1.00  0.00     0.167 HD
ATOM     23  C   UNL A   1      40.258  31.170  34.008  1.00  0.00     0.037 A 
ATOM     24  C   UNL A   1      42.632  27.278  28.440  1.00  0.00     0.037 A 
ATOM     25  C   UNL A   1      41.282  30.211  34.321  1.00  0.00     0.049 A 
ATOM     26  C   UNL A   1      43.140  27.103  29.849  1.00  0.00     0.074 A 
ATOM     27  C   UNL A   1      41.912  29.950  35.520  1.00  0.00     0.029 A 
ATOM     28  N   UNL A   1      41.830  29.343  33.378  1.00  0.00    -0.354 N 
ATOM     29  N   UNL A   1      42.797  27.760  30.936  1.00  0.00    -0.248 NA
ATOM     30  C   UNL A   1      44.106  26.026  30.075  1.00  0.00     0.031 C 
ATOM     31  C   UNL A   1      42.855  28.935  35.296  1.00  0.00     0.029 A 
ATOM     32  C   UNL A   1      42.785  28.537  33.966  1.00  0.00     0.049 A 
ATOM     33  H   UNL A   1      41.573  29.308  32.429  1.00  0.00     0.167 HD
ATOM     34  C   UNL A   1      43.488  27.167  31.981  1.00  0.00     0.074 A 
ATOM     35  C   UNL A   1      44.241  26.071  31.394  1.00  0.00     0.031 C 
ATOM     36  C   UNL A   1      43.513  27.484  33.302  1.00  0.00     0.037 A 
BRANCH  23  37
ATOM     37  C   UNL A   1      39.703  32.081  35.065  1.00  0.00     0.064 A 
ATOM     38  C   UNL A   1      40.202  33.387  35.232  1.00  0.00     0.173 A 
ATOM     39  C   UNL A   1      38.677  31.667  35.926  1.00  0.00     0.173 A 
ATOM     40  F   UNL A   1      41.191  33.837  34.445  1.00  0.00    -0.203 F 
ATOM     41  C   UNL A   1      39.722  34.224  36.237  1.00  0.00     0.198 A 
ATOM     42  C   UNL A   1      38.179  32.518  36.914  1.00  0.00     0.198 A 
ATOM     43  F   UNL A   1      38.161  30.434  35.820  1.00  0.00    -0.203 F 
ATOM     44  F   UNL A   1      40.254  35.443  36.404  1.00  0.00    -0.200 F 
ATOM     45  C   UNL A   1      38.707  33.791  37.075  1.00  0.00     0.200 A 
ATOM     46  F   UNL A   1      37.192  32.101  37.719  1.00  0.00    -0.200 F 
ATOM     47  F   UNL A   1      38.243  34.597  38.040  1.00  0.00    -0.200 F 
ENDBRANCH  23  37
BRANCH  24  48
ATOM     48  C   UNL A   1      43.098  26.457  27.293  1.00  0.00     0.064 A 
ATOM     49  C   UNL A   1      44.159  26.873  26.477  1.00  0.00     0.173 A 
ATOM     50  C   UNL A   1      42.542  25.193  27.038  1.00  0.00     0.173 A 
ATOM     51  F   UNL A   1      44.738  28.065  26.685  1.00  0.00    -0.203 F 
ATOM     52  C   UNL A   1      44.629  26.072  25.435  1.00  0.00     0.198 A 
ATOM     53  C   UNL A   1      43.029  24.382  26.013  1.00  0.00     0.198 A 
ATOM     54  F   UNL A   1      41.547  24.731  27.809  1.00  0.00    -0.203 F 
ATOM     55  F   UNL A   1      45.628  26.508  24.657  1.00  0.00    -0.200 F 
ATOM     56  C   UNL A   1      44.068  24.824  25.209  1.00  0.00     0.200 A 
ATOM     57  F   UNL A   1      42.501  23.167  25.814  1.00  0.00    -0.200 F 
ATOM     58  F   UNL A   1      44.531  24.049  24.219  1.00  0.00    -0.200 F 
ENDBRANCH  24  48
BRANCH  36  59
ATOM     59  C   UNL A   1      44.407  26.643  34.158  1.00  0.00     0.064 A 
ATOM     60  C   UNL A   1      45.760  26.970  34.326  1.00  0.00     0.173 A 
ATOM     61  C   UNL A   1      43.900  25.526  34.835  1.00  0.00     0.173 A 
ATOM     62  F   UNL A   1      46.284  28.026  33.686  1.00  0.00    -0.203 F 
ATOM     63  C   UNL A   1      46.587  26.181  35.116  1.00  0.00     0.198 A 
ATOM     64  C   UNL A   1      44.724  24.756  35.648  1.00  0.00     0.198 A 
ATOM     65  F   UNL A   1      42.609  25.184  34.709  1.00  0.00    -0.203 F 
ATOM     66  F   UNL A   1      47.890  26.475  35.217  1.00  0.00    -0.200 F 
ATOM     67  C   UNL A   1      46.068  25.079  35.779  1.00  0.00     0.200 A 
ATOM     68  F   UNL A   1      44.221  23.700  36.300  1.00  0.00    -0.200 F 
ATOM     69  F   UNL A   1      46.867  24.320  36.540  1.00  0.00    -0.200 F 
ENDBRANCH  36  59
ENDBRANCH  10  11
ENDBRANCH   3   5
ENDBRANCH   2   3
ENDBRANCH   1   2
BRANCH   1  70
ATOM     70  C   UNL A   1      31.861  28.453  27.459  1.00  0.00     0.274 C 
BRANCH  70  71
ATOM     71  O   UNL A   1      32.475  27.485  26.566  1.00  0.00    -0.457 OA
BRANCH  71  72
ATOM     72  C   UNL A   1      31.660  26.468  26.163  1.00  0.00     0.370 C 
ATOM     73  O   UNL A   1      30.782  26.014  26.896  1.00  0.00    -0.245 OA
BRANCH  72  74
ATOM     74  C   UNL A   1      31.987  25.850  24.761  1.00  0.00     0.326 C 
BRANCH  74  75
ATOM     75  N   UNL A   1      31.720  26.844  23.683  1.00  0.00    -0.319 N 
ATOM     76  C   UNL A   1      30.324  27.287  23.637  1.00  0.00     0.263 C 
ATOM     77  C   UNL A   1      32.666  27.967  23.691  1.00  0.00     0.263 C 
ATOM     78  H   UNL A   1      31.881  26.343  22.809  1.00  0.00     0.349 HD
ATOM     79  C   UNL A   1      30.080  28.157  22.407  1.00  0.00     0.062 C 
ATOM     80  C   UNL A   1      32.461  28.896  22.498  1.00  0.00     0.062 C 
ATOM     81  C   UNL A   1      31.012  29.362  22.414  1.00  0.00     0.012 C 
ENDBRANCH  74  75
BRANCH  74  82
ATOM     82  C   UNL A   1      33.276  25.048  24.541  1.00  0.00     0.021 A 
ATOM     83  C   UNL A   1      34.350  25.029  25.443  1.00  0.00     0.012 A 
ATOM     84  C   UNL A   1      33.412  24.305  23.340  1.00  0.00     0.012 A 
ATOM     85  C   UNL A   1      35.478  24.229  25.193  1.00  0.00     0.021 A 
ATOM     86  C   UNL A   1      34.536  23.513  23.091  1.00  0.00     0.021 A 
ATOM     87  C   UNL A   1      35.556  23.460  24.033  1.00  0.00     0.041 A 
ATOM     88  Cl  UNL A   1      36.894  22.409  23.775  1.00  0.00    -0.084 Cl
ENDBRANCH  74  82
ENDBRANCH  72  74
ENDBRANCH  71  72
ENDBRANCH  70  71
ENDBRANCH   1  70
TORSDOF 13
ENDMDL
