MODEL 1
REMARK VINA RESULT:     -14.2      0.000      0.000
REMARK SMILES Cc1cccc(C(=O)Nc2cc(C(=O)OCCOC(=O)c3ccc(-c4c5nc(c(-c6c(F)c(F)c(F)c(F)c6F)c6ccc([nH]6)c(-c6c(F)c(F)c(F)c(F)c6F)c6nc(c(-c7c(F)c(F)c(F)c(F)c7F)c7ccc4[nH]7)C=C6)C=C5)cc3)ccc2N2CC[NH+](CC(=O)NC(C)(C)C)CC2)c1
REMARK SMILES IDX 16 1 15 2 13 3 14 4 12 5 10 6 11 7 86 8 85 9 84 10 9 11 7 12
REMARK SMILES IDX 8 13 6 15 1 16 2 17 3 18 101 19 4 20 5 21 87 22 88 23 100 24
REMARK SMILES IDX 89 25 99 26 90 27 91 29 92 30 93 31 94 32 95 34 96 35 97 36
REMARK SMILES IDX 98 37 17 38 18 39 19 40 20 41 21 42 22 43 83 44 23 45 82 46
REMARK SMILES IDX 24 47 25 48 26 49 76 50 27 51 81 52 75 53 77 54 28 55 80 56
REMARK SMILES IDX 74 57 73 58 29 60 61 61 41 62 60 63 42 64 45 65 59 66 78 67
REMARK SMILES IDX 43 68 44 69 58 71 79 72 46 73 30 74 31 75 39 76 32 77 33 78
REMARK SMILES IDX 37 79 40 80 34 81 35 82 38 83 36 84 62 85 63 86 71 87 64 88
REMARK SMILES IDX 65 89 69 90 72 91 66 92 67 93 70 94 68 95 47 96 48 97 56 98
REMARK SMILES IDX 49 99 50 100 54 101 57 102 51 103 52 104 55 105 53 106
REMARK H PARENT 9 14 90 28 94 33 77 59 45 70
REMARK Flexibility Score: inf
ROOT
ATOM      1  C   UNL A   1      33.747  32.023  27.827  1.00  0.00     0.275 C 
ENDROOT
BRANCH   1   2
ATOM      2  O   UNL A   1      33.422  31.212  26.692  1.00  0.00    -0.458 OA
BRANCH   2   3
ATOM      3  C   UNL A   1      32.108  30.945  26.616  1.00  0.00     0.338 C 
ATOM      4  O   UNL A   1      31.194  31.754  26.646  1.00  0.00    -0.246 OA
BRANCH   3   5
ATOM      5  C   UNL A   1      31.789  29.530  26.617  1.00  0.00     0.062 A 
ATOM      6  C   UNL A   1      31.650  27.706  25.082  1.00  0.00     0.065 A 
ATOM      7  C   UNL A   1      31.496  29.046  25.351  1.00  0.00     0.044 A 
ATOM      8  C   UNL A   1      31.908  26.774  26.145  1.00  0.00     0.061 A 
ATOM      9  C   UNL A   1      32.109  27.303  27.438  1.00  0.00     0.029 A 
ATOM     10  C   UNL A   1      32.095  28.681  27.672  1.00  0.00     0.018 A 
BRANCH   6  11
ATOM     11  N   UNL A   1      31.536  27.264  23.755  1.00  0.00    -0.320 N 
ATOM     12  C   UNL A   1      30.765  27.600  22.659  1.00  0.00     0.255 C 
ATOM     13  O   UNL A   1      31.064  27.008  21.612  1.00  0.00    -0.269 OA
ATOM     14  H   UNL A   1      32.162  26.531  23.555  1.00  0.00     0.170 HD
BRANCH  12  15
ATOM     15  C   UNL A   1      29.655  28.606  22.571  1.00  0.00     0.040 A 
ATOM     16  C   UNL A   1      28.679  32.195  21.662  1.00  0.00     0.044 C 
ATOM     17  C   UNL A   1      28.594  30.755  22.069  1.00  0.00    -0.050 A 
ATOM     18  C   UNL A   1      27.395  30.313  22.628  1.00  0.00     0.003 A 
ATOM     19  C   UNL A   1      29.699  29.875  21.979  1.00  0.00     0.017 A 
ATOM     20  C   UNL A   1      27.300  29.024  23.123  1.00  0.00     0.001 A 
ATOM     21  C   UNL A   1      28.422  28.193  23.114  1.00  0.00     0.014 A 
ENDBRANCH  12  15
ENDBRANCH   6  11
BRANCH   8  22
ATOM     22  N   UNL A   1      32.025  25.407  25.930  1.00  0.00    -0.359 N 
ATOM     23  C   UNL A   1      30.927  24.422  26.081  1.00  0.00     0.178 C 
ATOM     24  C   UNL A   1      33.319  24.768  26.125  1.00  0.00     0.178 C 
ATOM     25  C   UNL A   1      31.186  23.143  25.205  1.00  0.00     0.284 C 
ATOM     26  C   UNL A   1      33.512  23.787  24.956  1.00  0.00     0.284 C 
ATOM     27  N   UNL A   1      32.575  22.663  24.999  1.00  0.00    -0.324 N 
ATOM     28  H   UNL A   1      32.561  22.220  24.080  1.00  0.00     0.348 HD
BRANCH  27  29
ATOM     29  C   UNL A   1      33.027  21.536  25.834  1.00  0.00     0.363 C 
BRANCH  29  30
ATOM     30  C   UNL A   1      34.293  20.829  25.370  1.00  0.00     0.275 C 
ATOM     31  O   UNL A   1      35.371  21.440  25.374  1.00  0.00    -0.268 OA
ATOM     32  N   UNL A   1      34.344  19.537  24.942  1.00  0.00    -0.347 N 
ATOM     33  H   UNL A   1      35.280  19.241  24.876  1.00  0.00     0.164 HD
BRANCH  32  34
ATOM     34  C   UNL A   1      33.429  18.429  24.542  1.00  0.00     0.032 C 
ATOM     35  C   UNL A   1      32.462  18.882  23.430  1.00  0.00     0.034 C 
ATOM     36  C   UNL A   1      34.321  17.336  23.914  1.00  0.00     0.034 C 
ATOM     37  C   UNL A   1      32.643  17.767  25.680  1.00  0.00     0.034 C 
ENDBRANCH  32  34
ENDBRANCH  29  30
ENDBRANCH  27  29
ENDBRANCH   8  22
ENDBRANCH   3   5
ENDBRANCH   2   3
ENDBRANCH   1   2
BRANCH   1  38
ATOM     38  C   UNL A   1      35.252  32.026  28.085  1.00  0.00     0.275 C 
BRANCH  38  39
ATOM     39  O   UNL A   1      35.874  30.893  28.754  1.00  0.00    -0.458 OA
BRANCH  39  40
ATOM     40  C   UNL A   1      36.160  29.734  28.101  1.00  0.00     0.338 C 
ATOM     41  O   UNL A   1      35.361  29.098  27.455  1.00  0.00    -0.246 OA
BRANCH  40  42
ATOM     42  C   UNL A   1      37.553  29.272  28.359  1.00  0.00     0.060 A 
ATOM     43  C   UNL A   1      38.622  29.739  27.567  1.00  0.00     0.016 A 
ATOM     44  C   UNL A   1      37.809  28.490  29.480  1.00  0.00     0.016 A 
ATOM     45  C   UNL A   1      39.952  29.467  27.930  1.00  0.00     0.010 A 
ATOM     46  C   UNL A   1      39.107  28.326  29.899  1.00  0.00     0.010 A 
ATOM     47  C   UNL A   1      40.191  28.758  29.106  1.00  0.00    -0.014 A 
BRANCH  47  48
ATOM     48  C   UNL A   1      41.451  28.129  29.517  1.00  0.00     0.031 A 
ATOM     49  C   UNL A   1      42.001  26.875  28.960  1.00  0.00     0.074 A 
ATOM     50  C   UNL A   1      42.235  29.017  30.169  1.00  0.00     0.049 A 
ATOM     51  N   UNL A   1      43.234  26.770  28.581  1.00  0.00    -0.248 NA
ATOM     52  C   UNL A   1      41.224  25.645  28.746  1.00  0.00     0.031 C 
ATOM     53  C   UNL A   1      43.667  29.038  30.404  1.00  0.00     0.029 A 
ATOM     54  N   UNL A   1      41.755  30.093  30.938  1.00  0.00    -0.354 N 
ATOM     55  C   UNL A   1      43.437  25.491  28.127  1.00  0.00     0.074 A 
ATOM     56  C   UNL A   1      42.143  24.833  28.196  1.00  0.00     0.031 C 
ATOM     57  C   UNL A   1      43.898  29.781  31.503  1.00  0.00     0.029 A 
ATOM     58  C   UNL A   1      42.594  30.119  32.060  1.00  0.00     0.049 A 
ATOM     59  H   UNL A   1      41.001  30.692  30.734  1.00  0.00     0.167 HD
ATOM     60  C   UNL A   1      44.657  24.901  28.263  1.00  0.00     0.037 A 
ATOM     61  C   UNL A   1      42.082  29.624  33.228  1.00  0.00     0.037 A 
ATOM     62  C   UNL A   1      45.345  25.447  29.409  1.00  0.00     0.049 A 
ATOM     63  C   UNL A   1      42.825  28.385  33.662  1.00  0.00     0.074 A 
ATOM     64  C   UNL A   1      46.220  26.493  29.626  1.00  0.00     0.029 A 
ATOM     65  N   UNL A   1      44.875  25.047  30.646  1.00  0.00    -0.354 N 
ATOM     66  N   UNL A   1      43.371  27.520  32.847  1.00  0.00    -0.248 NA
ATOM     67  C   UNL A   1      43.087  28.087  35.063  1.00  0.00     0.031 C 
ATOM     68  C   UNL A   1      46.175  26.794  31.019  1.00  0.00     0.029 A 
ATOM     69  C   UNL A   1      45.307  25.904  31.631  1.00  0.00     0.049 A 
ATOM     70  H   UNL A   1      44.307  24.257  30.801  1.00  0.00     0.167 HD
ATOM     71  C   UNL A   1      44.121  26.635  33.576  1.00  0.00     0.074 A 
ATOM     72  C   UNL A   1      43.888  27.014  34.957  1.00  0.00     0.031 C 
ATOM     73  C   UNL A   1      44.910  25.675  33.009  1.00  0.00     0.037 A 
BRANCH  60  74
ATOM     74  C   UNL A   1      45.303  24.145  27.132  1.00  0.00     0.064 A 
ATOM     75  C   UNL A   1      46.264  24.773  26.307  1.00  0.00     0.173 A 
ATOM     76  C   UNL A   1      44.933  22.843  26.740  1.00  0.00     0.173 A 
ATOM     77  F   UNL A   1      46.718  26.004  26.583  1.00  0.00    -0.203 F 
ATOM     78  C   UNL A   1      46.768  24.170  25.152  1.00  0.00     0.198 A 
ATOM     79  C   UNL A   1      45.447  22.236  25.588  1.00  0.00     0.198 A 
ATOM     80  F   UNL A   1      44.053  22.129  27.451  1.00  0.00    -0.203 F 
ATOM     81  F   UNL A   1      47.641  24.832  24.379  1.00  0.00    -0.200 F 
ATOM     82  C   UNL A   1      46.352  22.905  24.786  1.00  0.00     0.200 A 
ATOM     83  F   UNL A   1      45.041  21.004  25.248  1.00  0.00    -0.200 F 
ATOM     84  F   UNL A   1      46.817  22.336  23.666  1.00  0.00    -0.200 F 
ENDBRANCH  60  74
BRANCH  61  85
ATOM     85  C   UNL A   1      40.609  29.883  33.379  1.00  0.00     0.064 A 
ATOM     86  C   UNL A   1      40.167  31.229  33.368  1.00  0.00     0.173 A 
ATOM     87  C   UNL A   1      39.628  28.900  33.202  1.00  0.00     0.173 A 
ATOM     88  F   UNL A   1      41.054  32.225  33.528  1.00  0.00    -0.203 F 
ATOM     89  C   UNL A   1      38.847  31.573  33.080  1.00  0.00     0.198 A 
ATOM     90  C   UNL A   1      38.293  29.249  32.948  1.00  0.00     0.198 A 
ATOM     91  F   UNL A   1      39.959  27.601  33.184  1.00  0.00    -0.203 F 
ATOM     92  F   UNL A   1      38.502  32.863  32.955  1.00  0.00    -0.200 F 
ATOM     93  C   UNL A   1      37.911  30.581  32.855  1.00  0.00     0.200 A 
ATOM     94  F   UNL A   1      37.384  28.291  32.710  1.00  0.00    -0.200 F 
ATOM     95  F   UNL A   1      36.656  30.904  32.513  1.00  0.00    -0.200 F 
ENDBRANCH  61  85
BRANCH  73  96
ATOM     96  C   UNL A   1      45.434  24.453  33.724  1.00  0.00     0.064 A 
ATOM     97  C   UNL A   1      44.714  23.250  33.815  1.00  0.00     0.173 A 
ATOM     98  C   UNL A   1      46.774  24.393  34.183  1.00  0.00     0.173 A 
ATOM     99  F   UNL A   1      43.494  23.123  33.275  1.00  0.00    -0.203 F 
ATOM    100  C   UNL A   1      45.254  22.104  34.401  1.00  0.00     0.198 A 
ATOM    101  C   UNL A   1      47.333  23.226  34.700  1.00  0.00     0.198 A 
ATOM    102  F   UNL A   1      47.594  25.450  34.099  1.00  0.00    -0.203 F 
ATOM    103  F   UNL A   1      44.502  21.001  34.507  1.00  0.00    -0.200 F 
ATOM    104  C   UNL A   1      46.566  22.088  34.832  1.00  0.00     0.200 A 
ATOM    105  F   UNL A   1      48.629  23.204  35.041  1.00  0.00    -0.200 F 
ATOM    106  F   UNL A   1      47.097  20.969  35.341  1.00  0.00    -0.200 F 
ENDBRANCH  73  96
ENDBRANCH  47  48
ENDBRANCH  40  42
ENDBRANCH  39  40
ENDBRANCH  38  39
ENDBRANCH   1  38
TORSDOF 17
ENDMDL
MODEL 2
REMARK VINA RESULT:     -14.2      1.485      2.376
REMARK SMILES Cc1cccc(C(=O)Nc2cc(C(=O)OCCOC(=O)c3ccc(-c4c5nc(c(-c6c(F)c(F)c(F)c(F)c6F)c6ccc([nH]6)c(-c6c(F)c(F)c(F)c(F)c6F)c6nc(c(-c7c(F)c(F)c(F)c(F)c7F)c7ccc4[nH]7)C=C6)C=C5)cc3)ccc2N2CC[NH+](CC(=O)NC(C)(C)C)CC2)c1
REMARK SMILES IDX 16 1 15 2 13 3 14 4 12 5 10 6 11 7 86 8 85 9 84 10 9 11 7 12
REMARK SMILES IDX 8 13 6 15 1 16 2 17 3 18 101 19 4 20 5 21 87 22 88 23 100 24
REMARK SMILES IDX 89 25 99 26 90 27 91 29 92 30 93 31 94 32 95 34 96 35 97 36
REMARK SMILES IDX 98 37 17 38 18 39 19 40 20 41 21 42 22 43 83 44 23 45 82 46
REMARK SMILES IDX 24 47 25 48 26 49 76 50 27 51 81 52 75 53 77 54 28 55 80 56
REMARK SMILES IDX 74 57 73 58 29 60 61 61 41 62 60 63 42 64 45 65 59 66 78 67
REMARK SMILES IDX 43 68 44 69 58 71 79 72 46 73 30 74 31 75 39 76 32 77 33 78
REMARK SMILES IDX 37 79 40 80 34 81 35 82 38 83 36 84 62 85 63 86 71 87 64 88
REMARK SMILES IDX 65 89 69 90 72 91 66 92 67 93 70 94 68 95 47 96 48 97 56 98
REMARK SMILES IDX 49 99 50 100 54 101 57 102 51 103 52 104 55 105 53 106
REMARK H PARENT 9 14 90 28 94 33 77 59 45 70
REMARK Flexibility Score: inf
ROOT
ATOM      1  C   UNL A   1      32.646  33.100  27.501  1.00  0.00     0.275 C 
ENDROOT
BRANCH   1   2
ATOM      2  O   UNL A   1      32.838  31.699  27.270  1.00  0.00    -0.458 OA
BRANCH   2   3
ATOM      3  C   UNL A   1      31.867  31.170  26.508  1.00  0.00     0.338 C 
ATOM      4  O   UNL A   1      31.001  31.778  25.901  1.00  0.00    -0.246 OA
BRANCH   3   5
ATOM      5  C   UNL A   1      31.816  29.721  26.535  1.00  0.00     0.062 A 
ATOM      6  C   UNL A   1      31.844  27.881  25.013  1.00  0.00     0.065 A 
ATOM      7  C   UNL A   1      31.478  29.174  25.306  1.00  0.00     0.044 A 
ATOM      8  C   UNL A   1      32.385  27.026  26.035  1.00  0.00     0.061 A 
ATOM      9  C   UNL A   1      32.627  27.602  27.301  1.00  0.00     0.029 A 
ATOM     10  C   UNL A   1      32.387  28.957  27.544  1.00  0.00     0.018 A 
BRANCH   6  11
ATOM     11  N   UNL A   1      31.667  27.407  23.704  1.00  0.00    -0.320 N 
ATOM     12  C   UNL A   1      30.834  27.706  22.644  1.00  0.00     0.255 C 
ATOM     13  O   UNL A   1      31.086  27.095  21.596  1.00  0.00    -0.269 OA
ATOM     14  H   UNL A   1      32.292  26.678  23.488  1.00  0.00     0.170 HD
BRANCH  12  15
ATOM     15  C   UNL A   1      29.705  28.695  22.593  1.00  0.00     0.040 A 
ATOM     16  C   UNL A   1      28.671  32.308  21.865  1.00  0.00     0.044 C 
ATOM     17  C   UNL A   1      28.609  30.847  22.192  1.00  0.00    -0.050 A 
ATOM     18  C   UNL A   1      27.411  30.352  22.706  1.00  0.00     0.003 A 
ATOM     19  C   UNL A   1      29.733  29.994  22.071  1.00  0.00     0.017 A 
ATOM     20  C   UNL A   1      27.334  29.037  23.129  1.00  0.00     0.001 A 
ATOM     21  C   UNL A   1      28.473  28.228  23.092  1.00  0.00     0.014 A 
ENDBRANCH  12  15
ENDBRANCH   6  11
BRANCH   8  22
ATOM     22  N   UNL A   1      32.726  25.701  25.799  1.00  0.00    -0.359 N 
ATOM     23  C   UNL A   1      31.988  24.525  26.318  1.00  0.00     0.178 C 
ATOM     24  C   UNL A   1      34.120  25.363  25.547  1.00  0.00     0.178 C 
ATOM     25  C   UNL A   1      32.222  23.262  25.412  1.00  0.00     0.284 C 
ATOM     26  C   UNL A   1      34.131  24.354  24.387  1.00  0.00     0.284 C 
ATOM     27  N   UNL A   1      33.536  23.067  24.750  1.00  0.00    -0.324 N 
ATOM     28  H   UNL A   1      33.319  22.558  23.892  1.00  0.00     0.348 HD
BRANCH  27  29
ATOM     29  C   UNL A   1      34.476  22.129  25.387  1.00  0.00     0.363 C 
BRANCH  29  30
ATOM     30  C   UNL A   1      33.878  21.190  26.426  1.00  0.00     0.275 C 
ATOM     31  O   UNL A   1      33.862  21.527  27.619  1.00  0.00    -0.268 OA
ATOM     32  N   UNL A   1      33.337  19.972  26.147  1.00  0.00    -0.347 N 
ATOM     33  H   UNL A   1      32.849  19.632  26.931  1.00  0.00     0.164 HD
BRANCH  32  34
ATOM     34  C   UNL A   1      33.248  18.991  25.026  1.00  0.00     0.032 C 
ATOM     35  C   UNL A   1      34.652  18.547  24.567  1.00  0.00     0.034 C 
ATOM     36  C   UNL A   1      32.571  17.730  25.607  1.00  0.00     0.034 C 
ATOM     37  C   UNL A   1      32.416  19.429  23.816  1.00  0.00     0.034 C 
ENDBRANCH  32  34
ENDBRANCH  29  30
ENDBRANCH  27  29
ENDBRANCH   8  22
ENDBRANCH   3   5
ENDBRANCH   2   3
ENDBRANCH   1   2
BRANCH   1  38
ATOM     38  C   UNL A   1      33.931  33.753  28.004  1.00  0.00     0.275 C 
BRANCH  38  39
ATOM     39  O   UNL A   1      35.058  32.923  28.403  1.00  0.00    -0.458 OA
BRANCH  39  40
ATOM     40  C   UNL A   1      35.148  32.372  29.644  1.00  0.00     0.338 C 
ATOM     41  O   UNL A   1      34.405  32.628  30.561  1.00  0.00    -0.246 OA
BRANCH  40  42
ATOM     42  C   UNL A   1      36.340  31.488  29.781  1.00  0.00     0.060 A 
ATOM     43  C   UNL A   1      36.189  30.088  29.859  1.00  0.00     0.016 A 
ATOM     44  C   UNL A   1      37.610  32.046  29.685  1.00  0.00     0.016 A 
ATOM     45  C   UNL A   1      37.311  29.245  29.785  1.00  0.00     0.010 A 
ATOM     46  C   UNL A   1      38.690  31.220  29.494  1.00  0.00     0.010 A 
ATOM     47  C   UNL A   1      38.567  29.819  29.599  1.00  0.00    -0.014 A 
BRANCH  47  48
ATOM     48  C   UNL A   1      39.870  29.170  29.778  1.00  0.00     0.031 A 
ATOM     49  C   UNL A   1      40.259  27.861  29.213  1.00  0.00     0.074 A 
ATOM     50  C   UNL A   1      40.797  30.069  30.180  1.00  0.00     0.049 A 
ATOM     51  N   UNL A   1      41.378  27.682  28.589  1.00  0.00    -0.248 NA
ATOM     52  C   UNL A   1      39.425  26.651  29.261  1.00  0.00     0.031 C 
ATOM     53  C   UNL A   1      42.247  30.050  30.103  1.00  0.00     0.029 A 
ATOM     54  N   UNL A   1      40.519  31.213  30.950  1.00  0.00    -0.354 N 
ATOM     55  C   UNL A   1      41.449  26.368  28.200  1.00  0.00     0.074 A 
ATOM     56  C   UNL A   1      40.185  25.767  28.591  1.00  0.00     0.031 C 
ATOM     57  C   UNL A   1      42.726  30.857  31.069  1.00  0.00     0.029 A 
ATOM     58  C   UNL A   1      41.580  31.282  31.864  1.00  0.00     0.049 A 
ATOM     59  H   UNL A   1      39.753  31.826  30.867  1.00  0.00     0.167 HD
ATOM     60  C   UNL A   1      42.655  25.742  28.116  1.00  0.00     0.037 A 
ATOM     61  C   UNL A   1      41.319  30.889  33.147  1.00  0.00     0.037 A 
ATOM     62  C   UNL A   1      43.587  26.337  29.046  1.00  0.00     0.049 A 
ATOM     63  C   UNL A   1      42.109  29.654  33.505  1.00  0.00     0.074 A 
ATOM     64  C   UNL A   1      44.512  27.361  28.993  1.00  0.00     0.029 A 
ATOM     65  N   UNL A   1      43.384  26.041  30.381  1.00  0.00    -0.354 N 
ATOM     66  N   UNL A   1      42.446  28.716  32.659  1.00  0.00    -0.248 NA
ATOM     67  C   UNL A   1      42.659  29.442  34.837  1.00  0.00     0.031 C 
ATOM     68  C   UNL A   1      44.775  27.758  30.337  1.00  0.00     0.029 A 
ATOM     69  C   UNL A   1      44.037  26.945  31.184  1.00  0.00     0.049 A 
ATOM     70  H   UNL A   1      42.844  25.286  30.712  1.00  0.00     0.167 HD
ATOM     71  C   UNL A   1      43.314  27.853  33.276  1.00  0.00     0.074 A 
ATOM     72  C   UNL A   1      43.393  28.334  34.643  1.00  0.00     0.031 C 
ATOM     73  C   UNL A   1      43.941  26.827  32.628  1.00  0.00     0.037 A 
BRANCH  60  74
ATOM     74  C   UNL A   1      43.025  24.885  26.934  1.00  0.00     0.064 A 
ATOM     75  C   UNL A   1      42.400  23.633  26.733  1.00  0.00     0.173 A 
ATOM     76  C   UNL A   1      44.066  25.188  26.034  1.00  0.00     0.173 A 
ATOM     77  F   UNL A   1      41.380  23.234  27.507  1.00  0.00    -0.203 F 
ATOM     78  C   UNL A   1      42.822  22.734  25.751  1.00  0.00     0.198 A 
ATOM     79  C   UNL A   1      44.481  24.290  25.043  1.00  0.00     0.198 A 
ATOM     80  F   UNL A   1      44.721  26.353  26.099  1.00  0.00    -0.203 F 
ATOM     81  F   UNL A   1      42.225  21.539  25.638  1.00  0.00    -0.200 F 
ATOM     82  C   UNL A   1      43.870  23.058  24.912  1.00  0.00     0.200 A 
ATOM     83  F   UNL A   1      45.495  24.620  24.230  1.00  0.00    -0.200 F 
ATOM     84  F   UNL A   1      44.291  22.187  23.985  1.00  0.00    -0.200 F 
ENDBRANCH  60  74
BRANCH  61  85
ATOM     85  C   UNL A   1      39.920  31.215  33.588  1.00  0.00     0.064 A 
ATOM     86  C   UNL A   1      39.648  32.540  34.011  1.00  0.00     0.173 A 
ATOM     87  C   UNL A   1      38.811  30.409  33.305  1.00  0.00     0.173 A 
ATOM     88  F   UNL A   1      40.664  33.372  34.295  1.00  0.00    -0.203 F 
ATOM     89  C   UNL A   1      38.355  33.060  34.033  1.00  0.00     0.198 A 
ATOM     90  C   UNL A   1      37.508  30.925  33.365  1.00  0.00     0.198 A 
ATOM     91  F   UNL A   1      38.975  29.146  32.885  1.00  0.00    -0.203 F 
ATOM     92  F   UNL A   1      38.158  34.356  34.317  1.00  0.00    -0.200 F 
ATOM     93  C   UNL A   1      37.284  32.255  33.695  1.00  0.00     0.200 A 
ATOM     94  F   UNL A   1      36.466  30.153  33.019  1.00  0.00    -0.200 F 
ATOM     95  F   UNL A   1      36.045  32.765  33.652  1.00  0.00    -0.200 F 
ENDBRANCH  61  85
BRANCH  73  96
ATOM     96  C   UNL A   1      44.577  25.637  33.305  1.00  0.00     0.064 A 
ATOM     97  C   UNL A   1      45.959  25.387  33.279  1.00  0.00     0.173 A 
ATOM     98  C   UNL A   1      43.827  24.802  34.172  1.00  0.00     0.173 A 
ATOM     99  F   UNL A   1      46.803  26.198  32.628  1.00  0.00    -0.203 F 
ATOM    100  C   UNL A   1      46.536  24.332  33.988  1.00  0.00     0.198 A 
ATOM    101  C   UNL A   1      44.418  23.796  34.934  1.00  0.00     0.198 A 
ATOM    102  F   UNL A   1      42.507  24.969  34.341  1.00  0.00    -0.203 F 
ATOM    103  F   UNL A   1      47.853  24.110  33.883  1.00  0.00    -0.200 F 
ATOM    104  C   UNL A   1      45.769  23.546  34.824  1.00  0.00     0.200 A 
ATOM    105  F   UNL A   1      43.674  23.094  35.800  1.00  0.00    -0.200 F 
ATOM    106  F   UNL A   1      46.337  22.571  35.546  1.00  0.00    -0.200 F 
ENDBRANCH  73  96
ENDBRANCH  47  48
ENDBRANCH  40  42
ENDBRANCH  39  40
ENDBRANCH  38  39
ENDBRANCH   1  38
TORSDOF 17
ENDMDL
MODEL 3
REMARK VINA RESULT:     -14.2      3.862     10.804
REMARK SMILES Cc1cccc(C(=O)Nc2cc(C(=O)OCCOC(=O)c3ccc(-c4c5nc(c(-c6c(F)c(F)c(F)c(F)c6F)c6ccc([nH]6)c(-c6c(F)c(F)c(F)c(F)c6F)c6nc(c(-c7c(F)c(F)c(F)c(F)c7F)c7ccc4[nH]7)C=C6)C=C5)cc3)ccc2N2CC[NH+](CC(=O)NC(C)(C)C)CC2)c1
REMARK SMILES IDX 16 1 15 2 13 3 14 4 12 5 10 6 11 7 86 8 85 9 84 10 9 11 7 12
REMARK SMILES IDX 8 13 6 15 1 16 2 17 3 18 101 19 4 20 5 21 87 22 88 23 100 24
REMARK SMILES IDX 89 25 99 26 90 27 91 29 92 30 93 31 94 32 95 34 96 35 97 36
REMARK SMILES IDX 98 37 17 38 18 39 19 40 20 41 21 42 22 43 83 44 23 45 82 46
REMARK SMILES IDX 24 47 25 48 26 49 76 50 27 51 81 52 75 53 77 54 28 55 80 56
REMARK SMILES IDX 74 57 73 58 29 60 61 61 41 62 60 63 42 64 45 65 59 66 78 67
REMARK SMILES IDX 43 68 44 69 58 71 79 72 46 73 30 74 31 75 39 76 32 77 33 78
REMARK SMILES IDX 37 79 40 80 34 81 35 82 38 83 36 84 62 85 63 86 71 87 64 88
REMARK SMILES IDX 65 89 69 90 72 91 66 92 67 93 70 94 68 95 47 96 48 97 56 98
REMARK SMILES IDX 49 99 50 100 54 101 57 102 51 103 52 104 55 105 53 106
REMARK H PARENT 9 14 90 28 94 33 77 59 45 70
REMARK Flexibility Score: inf
ROOT
ATOM      1  C   UNL A   1      39.610  21.501  26.011  1.00  0.00     0.275 C 
ENDROOT
BRANCH   1   2
ATOM      2  O   UNL A   1      38.182  21.476  26.122  1.00  0.00    -0.458 OA
BRANCH   2   3
ATOM      3  C   UNL A   1      37.599  20.889  25.064  1.00  0.00     0.338 C 
ATOM      4  O   UNL A   1      37.854  19.787  24.607  1.00  0.00    -0.246 OA
BRANCH   3   5
ATOM      5  C   UNL A   1      36.659  21.739  24.358  1.00  0.00     0.062 A 
ATOM      6  C   UNL A   1      34.364  22.386  24.476  1.00  0.00     0.065 A 
ATOM      7  C   UNL A   1      35.338  21.430  24.645  1.00  0.00     0.044 A 
ATOM      8  C   UNL A   1      34.666  23.626  23.813  1.00  0.00     0.061 A 
ATOM      9  C   UNL A   1      36.010  23.859  23.455  1.00  0.00     0.029 A 
ATOM     10  C   UNL A   1      37.018  22.941  23.764  1.00  0.00     0.018 A 
BRANCH   6  11
ATOM     11  N   UNL A   1      33.069  22.125  24.949  1.00  0.00    -0.320 N 
ATOM     12  C   UNL A   1      32.254  21.014  25.048  1.00  0.00     0.255 C 
ATOM     13  O   UNL A   1      31.182  21.206  25.641  1.00  0.00    -0.269 OA
ATOM     14  H   UNL A   1      32.631  22.935  25.295  1.00  0.00     0.170 HD
BRANCH  12  15
ATOM     15  C   UNL A   1      32.518  19.615  24.571  1.00  0.00     0.040 A 
ATOM     16  C   UNL A   1      33.813  16.131  25.490  1.00  0.00     0.044 C 
ATOM     17  C   UNL A   1      33.198  17.269  24.732  1.00  0.00    -0.050 A 
ATOM     18  C   UNL A   1      33.018  17.105  23.359  1.00  0.00     0.003 A 
ATOM     19  C   UNL A   1      32.879  18.505  25.344  1.00  0.00     0.017 A 
ATOM     20  C   UNL A   1      32.559  18.163  22.593  1.00  0.00     0.001 A 
ATOM     21  C   UNL A   1      32.334  19.405  23.190  1.00  0.00     0.014 A 
ENDBRANCH  12  15
ENDBRANCH   6  11
BRANCH   8  22
ATOM     22  N   UNL A   1      33.706  24.602  23.579  1.00  0.00    -0.359 N 
ATOM     23  C   UNL A   1      32.864  24.695  22.362  1.00  0.00     0.178 C 
ATOM     24  C   UNL A   1      33.861  25.911  24.198  1.00  0.00     0.178 C 
ATOM     25  C   UNL A   1      31.525  25.465  22.656  1.00  0.00     0.284 C 
ATOM     26  C   UNL A   1      32.473  26.325  24.716  1.00  0.00     0.284 C 
ATOM     27  N   UNL A   1      31.518  26.579  23.636  1.00  0.00    -0.324 N 
ATOM     28  H   UNL A   1      30.577  26.570  24.030  1.00  0.00     0.348 HD
BRANCH  27  29
ATOM     29  C   UNL A   1      31.570  27.949  23.097  1.00  0.00     0.363 C 
BRANCH  29  30
ATOM     30  C   UNL A   1      31.205  29.062  24.070  1.00  0.00     0.275 C 
ATOM     31  O   UNL A   1      31.876  29.220  25.099  1.00  0.00    -0.268 OA
ATOM     32  N   UNL A   1      30.171  29.932  23.896  1.00  0.00    -0.347 N 
ATOM     33  H   UNL A   1      30.241  30.671  24.542  1.00  0.00     0.164 HD
BRANCH  32  34
ATOM     34  C   UNL A   1      28.967  30.118  23.035  1.00  0.00     0.032 C 
ATOM     35  C   UNL A   1      29.369  30.404  21.574  1.00  0.00     0.034 C 
ATOM     36  C   UNL A   1      28.234  28.758  23.017  1.00  0.00     0.034 C 
ATOM     37  C   UNL A   1      27.957  31.165  23.515  1.00  0.00     0.034 C 
ENDBRANCH  32  34
ENDBRANCH  29  30
ENDBRANCH  27  29
ENDBRANCH   8  22
ENDBRANCH   3   5
ENDBRANCH   2   3
ENDBRANCH   1   2
BRANCH   1  38
ATOM     38  C   UNL A   1      40.217  22.508  26.986  1.00  0.00     0.275 C 
BRANCH  38  39
ATOM     39  O   UNL A   1      40.186  23.929  26.672  1.00  0.00    -0.458 OA
BRANCH  39  40
ATOM     40  C   UNL A   1      39.103  24.706  26.939  1.00  0.00     0.338 C 
ATOM     41  O   UNL A   1      37.983  24.477  26.547  1.00  0.00    -0.246 OA
BRANCH  40  42
ATOM     42  C   UNL A   1      39.468  25.943  27.687  1.00  0.00     0.060 A 
ATOM     43  C   UNL A   1      39.599  25.919  29.091  1.00  0.00     0.016 A 
ATOM     44  C   UNL A   1      39.822  27.083  26.975  1.00  0.00     0.016 A 
ATOM     45  C   UNL A   1      40.136  27.022  29.775  1.00  0.00     0.010 A 
ATOM     46  C   UNL A   1      40.455  28.111  27.630  1.00  0.00     0.010 A 
ATOM     47  C   UNL A   1      40.569  28.122  29.036  1.00  0.00    -0.014 A 
BRANCH  47  48
ATOM     48  C   UNL A   1      40.885  29.460  29.546  1.00  0.00     0.031 A 
ATOM     49  C   UNL A   1      39.894  30.512  29.859  1.00  0.00     0.074 A 
ATOM     50  C   UNL A   1      42.133  29.487  30.067  1.00  0.00     0.049 A 
ATOM     51  N   UNL A   1      39.918  31.176  30.970  1.00  0.00    -0.248 NA
ATOM     52  C   UNL A   1      38.776  30.891  28.984  1.00  0.00     0.031 C 
ATOM     53  C   UNL A   1      42.752  30.387  31.023  1.00  0.00     0.029 A 
ATOM     54  N   UNL A   1      43.199  28.681  29.629  1.00  0.00    -0.354 N 
ATOM     55  C   UNL A   1      38.886  32.080  30.953  1.00  0.00     0.074 A 
ATOM     56  C   UNL A   1      38.160  31.834  29.718  1.00  0.00     0.031 C 
ATOM     57  C   UNL A   1      44.084  30.353  30.825  1.00  0.00     0.029 A 
ATOM     58  C   UNL A   1      44.308  29.538  29.638  1.00  0.00     0.049 A 
ATOM     59  H   UNL A   1      43.172  27.730  29.373  1.00  0.00     0.167 HD
ATOM     60  C   UNL A   1      39.007  33.270  31.602  1.00  0.00     0.037 A 
ATOM     61  C   UNL A   1      44.739  30.006  28.428  1.00  0.00     0.037 A 
ATOM     62  C   UNL A   1      40.395  33.665  31.657  1.00  0.00     0.049 A 
ATOM     63  C   UNL A   1      44.558  31.502  28.331  1.00  0.00     0.074 A 
ATOM     64  C   UNL A   1      41.437  33.478  32.544  1.00  0.00     0.029 A 
ATOM     65  N   UNL A   1      40.946  34.112  30.471  1.00  0.00    -0.354 N 
ATOM     66  N   UNL A   1      43.601  32.174  28.916  1.00  0.00    -0.248 NA
ATOM     67  C   UNL A   1      45.512  32.357  27.639  1.00  0.00     0.031 C 
ATOM     68  C   UNL A   1      42.645  33.711  31.824  1.00  0.00     0.029 A 
ATOM     69  C   UNL A   1      42.318  34.072  30.527  1.00  0.00     0.049 A 
ATOM     70  H   UNL A   1      40.426  34.417  29.692  1.00  0.00     0.167 HD
ATOM     71  C   UNL A   1      43.852  33.514  28.777  1.00  0.00     0.074 A 
ATOM     72  C   UNL A   1      45.041  33.577  27.948  1.00  0.00     0.031 C 
ATOM     73  C   UNL A   1      43.098  34.485  29.374  1.00  0.00     0.037 A 
BRANCH  60  74
ATOM     74  C   UNL A   1      37.907  33.813  32.476  1.00  0.00     0.064 A 
ATOM     75  C   UNL A   1      37.975  33.674  33.881  1.00  0.00     0.173 A 
ATOM     76  C   UNL A   1      36.711  34.373  31.985  1.00  0.00     0.173 A 
ATOM     77  F   UNL A   1      39.067  33.175  34.479  1.00  0.00    -0.203 F 
ATOM     78  C   UNL A   1      36.909  34.012  34.720  1.00  0.00     0.198 A 
ATOM     79  C   UNL A   1      35.649  34.721  32.827  1.00  0.00     0.198 A 
ATOM     80  F   UNL A   1      36.531  34.584  30.676  1.00  0.00    -0.203 F 
ATOM     81  F   UNL A   1      37.010  33.813  36.042  1.00  0.00    -0.200 F 
ATOM     82  C   UNL A   1      35.741  34.527  34.192  1.00  0.00     0.200 A 
ATOM     83  F   UNL A   1      34.523  35.227  32.303  1.00  0.00    -0.200 F 
ATOM     84  F   UNL A   1      34.711  34.829  34.993  1.00  0.00    -0.200 F 
ENDBRANCH  60  74
BRANCH  61  85
ATOM     85  C   UNL A   1      44.562  29.011  27.315  1.00  0.00     0.064 A 
ATOM     86  C   UNL A   1      45.287  27.796  27.390  1.00  0.00     0.173 A 
ATOM     87  C   UNL A   1      43.505  29.054  26.399  1.00  0.00     0.173 A 
ATOM     88  F   UNL A   1      46.312  27.681  28.252  1.00  0.00    -0.203 F 
ATOM     89  C   UNL A   1      44.903  26.659  26.680  1.00  0.00     0.198 A 
ATOM     90  C   UNL A   1      43.145  27.918  25.658  1.00  0.00     0.198 A 
ATOM     91  F   UNL A   1      42.756  30.158  26.272  1.00  0.00    -0.203 F 
ATOM     92  F   UNL A   1      45.542  25.497  26.880  1.00  0.00    -0.200 F 
ATOM     93  C   UNL A   1      43.821  26.717  25.823  1.00  0.00     0.200 A 
ATOM     94  F   UNL A   1      42.082  27.963  24.839  1.00  0.00    -0.200 F 
ATOM     95  F   UNL A   1      43.406  25.611  25.187  1.00  0.00    -0.200 F 
ENDBRANCH  61  85
BRANCH  73  96
ATOM     96  C   UNL A   1      43.072  35.937  28.959  1.00  0.00     0.064 A 
ATOM     97  C   UNL A   1      42.305  36.413  27.883  1.00  0.00     0.173 A 
ATOM     98  C   UNL A   1      43.680  36.936  29.760  1.00  0.00     0.173 A 
ATOM     99  F   UNL A   1      41.551  35.590  27.143  1.00  0.00    -0.203 F 
ATOM    100  C   UNL A   1      42.223  37.772  27.574  1.00  0.00     0.198 A 
ATOM    101  C   UNL A   1      43.536  38.296  29.491  1.00  0.00     0.198 A 
ATOM    102  F   UNL A   1      44.390  36.626  30.854  1.00  0.00    -0.203 F 
ATOM    103  F   UNL A   1      41.519  38.163  26.505  1.00  0.00    -0.200 F 
ATOM    104  C   UNL A   1      42.828  38.713  28.384  1.00  0.00     0.200 A 
ATOM    105  F   UNL A   1      44.062  39.199  30.330  1.00  0.00    -0.200 F 
ATOM    106  F   UNL A   1      42.699  40.019  28.116  1.00  0.00    -0.200 F 
ENDBRANCH  73  96
ENDBRANCH  47  48
ENDBRANCH  40  42
ENDBRANCH  39  40
ENDBRANCH  38  39
ENDBRANCH   1  38
TORSDOF 17
ENDMDL
