MODEL 1
REMARK VINA RESULT:     -12.8      0.000      0.000
REMARK SMILES C[C@H]1[C@@H](C(=O)OCCOC(=O)c2ccc(-c3c4nc(c(-c5c(F)c(F)c(F)c(F)c5F)c5ccc([nH]5)c(-c5c(F)c(F)c(F)c(F)c5F)c5nc(c(-c6c(F)c(F)c(F)c(F)c6F)c6ccc3[nH]6)C=C5)C=C4)cc2)CCN1C(=O)c1cc([N+](=O)[O-])ccc1Br
REMARK SMILES IDX 7 1 6 2 4 3 5 4 3 5 1 6 2 7 77 8 75 9 76 10 78 11 79 12
REMARK SMILES IDX 80 13 81 14 88 15 82 16 87 17 89 18 86 19 83 20 84 21 85 22
REMARK SMILES IDX 8 23 9 24 10 25 11 26 12 27 13 28 74 29 14 30 73 31 15 32
REMARK SMILES IDX 16 33 17 34 67 35 18 36 72 37 66 38 68 39 19 40 71 41 65 42
REMARK SMILES IDX 64 43 20 45 52 46 32 47 51 48 33 49 36 50 50 51 69 52 34 53
REMARK SMILES IDX 35 54 49 56 70 57 37 58 21 59 22 60 30 61 23 62 24 63 28 64
REMARK SMILES IDX 31 65 25 66 26 67 29 68 27 69 53 70 54 71 62 72 55 73 56 74
REMARK SMILES IDX 60 75 63 76 57 77 58 78 61 79 59 80 38 81 39 82 47 83 40 84
REMARK SMILES IDX 41 85 45 86 48 87 42 88 43 89 46 90 44 91
REMARK H PARENT 68 44 36 55
REMARK Flexibility Score: inf
ROOT
ATOM      1  C   UNL A   1      31.449  28.559  24.547  1.00  0.00     0.274 C 
ENDROOT
BRANCH   1   2
ATOM      2  O   UNL A   1      30.616  27.515  25.096  1.00  0.00    -0.462 OA
BRANCH   2   3
ATOM      3  C   UNL A   1      31.131  26.758  26.085  1.00  0.00     0.311 C 
ATOM      4  O   UNL A   1      31.190  27.113  27.260  1.00  0.00    -0.252 OA
BRANCH   3   5
ATOM      5  C   UNL A   1      31.632  25.390  25.655  1.00  0.00     0.123 C 
ATOM      6  C   UNL A   1      33.999  26.316  24.939  1.00  0.00     0.032 C 
ATOM      7  C   UNL A   1      33.054  25.133  25.105  1.00  0.00     0.096 C 
ATOM      8  N   UNL A   1      32.829  24.452  23.819  1.00  0.00    -0.335 N 
ATOM      9  C   UNL A   1      30.688  24.760  24.618  1.00  0.00     0.039 C 
ATOM     10  C   UNL A   1      31.494  24.720  23.338  1.00  0.00     0.121 C 
BRANCH   8  11
ATOM     11  C   UNL A   1      33.650  23.578  23.134  1.00  0.00     0.255 C 
ATOM     12  O   UNL A   1      34.087  23.779  22.005  1.00  0.00    -0.269 OA
BRANCH  11  13
ATOM     13  C   UNL A   1      34.051  22.332  23.801  1.00  0.00     0.061 A 
ATOM     14  C   UNL A   1      33.131  21.276  23.768  1.00  0.00     0.100 A 
ATOM     15  C   UNL A   1      35.271  22.200  24.474  1.00  0.00     0.031 A 
ATOM     16  C   UNL A   1      33.472  20.059  24.365  1.00  0.00     0.270 A 
ATOM     17  C   UNL A   1      35.607  20.974  25.056  1.00  0.00     0.023 A 
ATOM     18  Br  UNL A   1      36.500  23.635  24.662  1.00  0.00    -0.050 Br
ATOM     19  C   UNL A   1      34.714  19.899  24.997  1.00  0.00     0.087 A 
BRANCH  16  20
ATOM     20  N   UNL A   1      32.527  18.936  24.319  1.00  0.00     0.062 N 
ATOM     21  O   UNL A   1      32.164  18.535  23.206  1.00  0.00    -0.258 OA
ATOM     22  O   UNL A   1      32.159  18.453  25.399  1.00  0.00    -0.258 OA
ENDBRANCH  16  20
ENDBRANCH  11  13
ENDBRANCH   8  11
ENDBRANCH   3   5
ENDBRANCH   2   3
ENDBRANCH   1   2
BRANCH   1  23
ATOM     23  C   UNL A   1      31.540  29.739  25.509  1.00  0.00     0.275 C 
BRANCH  23  24
ATOM     24  O   UNL A   1      32.917  30.036  25.790  1.00  0.00    -0.458 OA
BRANCH  24  25
ATOM     25  C   UNL A   1      33.119  30.978  26.736  1.00  0.00     0.338 C 
ATOM     26  O   UNL A   1      32.359  31.857  27.100  1.00  0.00    -0.246 OA
BRANCH  25  27
ATOM     27  C   UNL A   1      34.435  30.763  27.344  1.00  0.00     0.060 A 
ATOM     28  C   UNL A   1      34.809  29.468  27.704  1.00  0.00     0.016 A 
ATOM     29  C   UNL A   1      35.243  31.853  27.660  1.00  0.00     0.016 A 
ATOM     30  C   UNL A   1      35.953  29.266  28.469  1.00  0.00     0.010 A 
ATOM     31  C   UNL A   1      36.442  31.634  28.340  1.00  0.00     0.010 A 
ATOM     32  C   UNL A   1      36.796  30.342  28.775  1.00  0.00    -0.014 A 
BRANCH  32  33
ATOM     33  C   UNL A   1      38.049  30.140  29.546  1.00  0.00     0.031 A 
ATOM     34  C   UNL A   1      39.141  29.276  28.984  1.00  0.00     0.074 A 
ATOM     35  C   UNL A   1      38.193  30.695  30.765  1.00  0.00     0.049 A 
ATOM     36  N   UNL A   1      40.164  28.733  29.593  1.00  0.00    -0.248 NA
ATOM     37  C   UNL A   1      39.065  28.970  27.547  1.00  0.00     0.031 C 
ATOM     38  C   UNL A   1      37.240  31.604  31.403  1.00  0.00     0.029 A 
ATOM     39  N   UNL A   1      39.194  30.559  31.693  1.00  0.00    -0.354 N 
ATOM     40  C   UNL A   1      40.812  27.969  28.633  1.00  0.00     0.074 A 
ATOM     41  C   UNL A   1      40.082  28.134  27.394  1.00  0.00     0.031 C 
ATOM     42  C   UNL A   1      37.706  31.956  32.609  1.00  0.00     0.029 A 
ATOM     43  C   UNL A   1      38.940  31.223  32.869  1.00  0.00     0.049 A 
ATOM     44  H   UNL A   1      40.015  30.039  31.533  1.00  0.00     0.167 HD
ATOM     45  C   UNL A   1      41.910  27.190  28.784  1.00  0.00     0.037 A 
ATOM     46  C   UNL A   1      39.590  31.196  34.047  1.00  0.00     0.037 A 
ATOM     47  C   UNL A   1      42.659  27.079  30.008  1.00  0.00     0.049 A 
ATOM     48  C   UNL A   1      40.791  30.308  34.200  1.00  0.00     0.074 A 
ATOM     49  C   UNL A   1      43.785  26.319  30.268  1.00  0.00     0.029 A 
ATOM     50  N   UNL A   1      42.364  27.770  31.174  1.00  0.00    -0.354 N 
ATOM     51  N   UNL A   1      41.347  29.516  33.316  1.00  0.00    -0.248 NA
ATOM     52  C   UNL A   1      41.436  30.287  35.520  1.00  0.00     0.031 C 
ATOM     53  C   UNL A   1      44.160  26.534  31.599  1.00  0.00     0.029 A 
ATOM     54  C   UNL A   1      43.286  27.452  32.157  1.00  0.00     0.049 A 
ATOM     55  H   UNL A   1      41.611  28.393  31.286  1.00  0.00     0.167 HD
ATOM     56  C   UNL A   1      42.411  28.909  33.967  1.00  0.00     0.074 A 
ATOM     57  C   UNL A   1      42.430  29.434  35.318  1.00  0.00     0.031 C 
ATOM     58  C   UNL A   1      43.289  27.995  33.490  1.00  0.00     0.037 A 
BRANCH  45  59
ATOM     59  C   UNL A   1      42.344  26.363  27.612  1.00  0.00     0.064 A 
ATOM     60  C   UNL A   1      43.342  26.795  26.729  1.00  0.00     0.173 A 
ATOM     61  C   UNL A   1      41.780  25.096  27.400  1.00  0.00     0.173 A 
ATOM     62  F   UNL A   1      43.901  28.005  26.881  1.00  0.00    -0.203 F 
ATOM     63  C   UNL A   1      43.749  25.994  25.664  1.00  0.00     0.198 A 
ATOM     64  C   UNL A   1      42.204  24.289  26.349  1.00  0.00     0.198 A 
ATOM     65  F   UNL A   1      40.824  24.636  28.220  1.00  0.00    -0.203 F 
ATOM     66  F   UNL A   1      44.683  26.437  24.812  1.00  0.00    -0.200 F 
ATOM     67  C   UNL A   1      43.185  24.740  25.479  1.00  0.00     0.200 A 
ATOM     68  F   UNL A   1      41.665  23.074  26.178  1.00  0.00    -0.200 F 
ATOM     69  F   UNL A   1      43.585  23.967  24.460  1.00  0.00    -0.200 F 
ENDBRANCH  45  59
BRANCH  46  70
ATOM     70  C   UNL A   1      39.072  31.996  35.185  1.00  0.00     0.064 A 
ATOM     71  C   UNL A   1      38.304  31.400  36.192  1.00  0.00     0.173 A 
ATOM     72  C   UNL A   1      39.371  33.361  35.310  1.00  0.00     0.173 A 
ATOM     73  F   UNL A   1      37.974  30.103  36.104  1.00  0.00    -0.203 F 
ATOM     74  C   UNL A   1      37.854  32.140  37.284  1.00  0.00     0.198 A 
ATOM     75  C   UNL A   1      38.944  34.093  36.414  1.00  0.00     0.198 A 
ATOM     76  F   UNL A   1      40.107  33.976  34.371  1.00  0.00    -0.203 F 
ATOM     77  F   UNL A   1      37.100  31.552  38.223  1.00  0.00    -0.200 F 
ATOM     78  C   UNL A   1      38.183  33.482  37.399  1.00  0.00     0.200 A 
ATOM     79  F   UNL A   1      39.278  35.386  36.528  1.00  0.00    -0.200 F 
ATOM     80  F   UNL A   1      37.766  34.188  38.458  1.00  0.00    -0.200 F 
ENDBRANCH  46  70
BRANCH  58  81
ATOM     81  C   UNL A   1      44.362  27.530  34.423  1.00  0.00     0.064 A 
ATOM     82  C   UNL A   1      45.574  28.222  34.542  1.00  0.00     0.173 A 
ATOM     83  C   UNL A   1      44.153  26.411  35.241  1.00  0.00     0.173 A 
ATOM     84  F   UNL A   1      45.822  29.289  33.767  1.00  0.00    -0.203 F 
ATOM     85  C   UNL A   1      46.547  27.803  35.446  1.00  0.00     0.198 A 
ATOM     86  C   UNL A   1      45.120  26.005  36.154  1.00  0.00     0.198 A 
ATOM     87  F   UNL A   1      43.005  25.720  35.159  1.00  0.00    -0.203 F 
ATOM     88  F   UNL A   1      47.711  28.462  35.528  1.00  0.00    -0.200 F 
ATOM     89  C   UNL A   1      46.316  26.700  36.254  1.00  0.00     0.200 A 
ATOM     90  F   UNL A   1      44.894  24.942  36.938  1.00  0.00    -0.200 F 
ATOM     91  F   UNL A   1      47.251  26.301  37.128  1.00  0.00    -0.200 F 
ENDBRANCH  58  81
ENDBRANCH  32  33
ENDBRANCH  25  27
ENDBRANCH  24  25
ENDBRANCH  23  24
ENDBRANCH   1  23
TORSDOF 14
ENDMDL
MODEL 2
REMARK VINA RESULT:     -12.7      1.631      2.466
REMARK SMILES C[C@H]1[C@@H](C(=O)OCCOC(=O)c2ccc(-c3c4nc(c(-c5c(F)c(F)c(F)c(F)c5F)c5ccc([nH]5)c(-c5c(F)c(F)c(F)c(F)c5F)c5nc(c(-c6c(F)c(F)c(F)c(F)c6F)c6ccc3[nH]6)C=C5)C=C4)cc2)CCN1C(=O)c1cc([N+](=O)[O-])ccc1Br
REMARK SMILES IDX 7 1 6 2 4 3 5 4 3 5 1 6 2 7 77 8 75 9 76 10 78 11 79 12
REMARK SMILES IDX 80 13 81 14 88 15 82 16 87 17 89 18 86 19 83 20 84 21 85 22
REMARK SMILES IDX 8 23 9 24 10 25 11 26 12 27 13 28 74 29 14 30 73 31 15 32
REMARK SMILES IDX 16 33 17 34 67 35 18 36 72 37 66 38 68 39 19 40 71 41 65 42
REMARK SMILES IDX 64 43 20 45 52 46 32 47 51 48 33 49 36 50 50 51 69 52 34 53
REMARK SMILES IDX 35 54 49 56 70 57 37 58 21 59 22 60 30 61 23 62 24 63 28 64
REMARK SMILES IDX 31 65 25 66 26 67 29 68 27 69 53 70 54 71 62 72 55 73 56 74
REMARK SMILES IDX 60 75 63 76 57 77 58 78 61 79 59 80 38 81 39 82 47 83 40 84
REMARK SMILES IDX 41 85 45 86 48 87 42 88 43 89 46 90 44 91
REMARK H PARENT 68 44 36 55
REMARK Flexibility Score: inf
ROOT
ATOM      1  C   UNL A   1      31.028  29.875  24.733  1.00  0.00     0.274 C 
ENDROOT
BRANCH   1   2
ATOM      2  O   UNL A   1      31.690  29.317  23.578  1.00  0.00    -0.462 OA
BRANCH   2   3
ATOM      3  C   UNL A   1      31.104  28.269  22.966  1.00  0.00     0.311 C 
ATOM      4  O   UNL A   1      30.034  28.335  22.368  1.00  0.00    -0.252 OA
BRANCH   3   5
ATOM      5  C   UNL A   1      31.878  26.964  23.043  1.00  0.00     0.123 C 
ATOM      6  C   UNL A   1      30.569  26.139  25.183  1.00  0.00     0.032 C 
ATOM      7  C   UNL A   1      31.622  25.879  24.114  1.00  0.00     0.096 C 
ATOM      8  N   UNL A   1      32.945  25.646  24.720  1.00  0.00    -0.335 N 
ATOM      9  C   UNL A   1      33.392  27.224  23.101  1.00  0.00     0.039 C 
ATOM     10  C   UNL A   1      33.808  26.780  24.486  1.00  0.00     0.121 C 
BRANCH   8  11
ATOM     11  C   UNL A   1      33.436  24.518  25.346  1.00  0.00     0.255 C 
ATOM     12  O   UNL A   1      32.880  23.944  26.277  1.00  0.00    -0.269 OA
BRANCH  11  13
ATOM     13  C   UNL A   1      34.698  23.945  24.857  1.00  0.00     0.061 A 
ATOM     14  C   UNL A   1      35.807  24.046  25.708  1.00  0.00     0.100 A 
ATOM     15  C   UNL A   1      34.815  23.358  23.592  1.00  0.00     0.031 A 
ATOM     16  C   UNL A   1      37.025  23.494  25.303  1.00  0.00     0.270 A 
ATOM     17  C   UNL A   1      36.036  22.798  23.203  1.00  0.00     0.023 A 
ATOM     18  Br  UNL A   1      33.383  23.309  22.346  1.00  0.00    -0.050 Br
ATOM     19  C   UNL A   1      37.141  22.857  24.059  1.00  0.00     0.087 A 
BRANCH  16  20
ATOM     20  N   UNL A   1      38.190  23.572  26.194  1.00  0.00     0.062 N 
ATOM     21  O   UNL A   1      38.855  22.542  26.363  1.00  0.00    -0.258 OA
ATOM     22  O   UNL A   1      38.442  24.669  26.713  1.00  0.00    -0.258 OA
ENDBRANCH  16  20
ENDBRANCH  11  13
ENDBRANCH   8  11
ENDBRANCH   3   5
ENDBRANCH   2   3
ENDBRANCH   1   2
BRANCH   1  23
ATOM     23  C   UNL A   1      31.774  29.509  26.012  1.00  0.00     0.275 C 
BRANCH  23  24
ATOM     24  O   UNL A   1      33.083  30.099  26.000  1.00  0.00    -0.458 OA
BRANCH  24  25
ATOM     25  C   UNL A   1      33.292  31.051  26.935  1.00  0.00     0.338 C 
ATOM     26  O   UNL A   1      32.535  31.936  27.291  1.00  0.00    -0.246 OA
BRANCH  25  27
ATOM     27  C   UNL A   1      34.609  30.840  27.539  1.00  0.00     0.060 A 
ATOM     28  C   UNL A   1      34.978  29.549  27.919  1.00  0.00     0.016 A 
ATOM     29  C   UNL A   1      35.425  31.930  27.833  1.00  0.00     0.016 A 
ATOM     30  C   UNL A   1      36.125  29.354  28.682  1.00  0.00     0.010 A 
ATOM     31  C   UNL A   1      36.626  31.717  28.511  1.00  0.00     0.010 A 
ATOM     32  C   UNL A   1      36.975  30.431  28.966  1.00  0.00    -0.014 A 
BRANCH  32  33
ATOM     33  C   UNL A   1      38.230  30.235  29.734  1.00  0.00     0.031 A 
ATOM     34  C   UNL A   1      39.327  29.380  29.169  1.00  0.00     0.074 A 
ATOM     35  C   UNL A   1      38.374  30.788  30.954  1.00  0.00     0.049 A 
ATOM     36  N   UNL A   1      40.355  28.842  29.774  1.00  0.00    -0.248 NA
ATOM     37  C   UNL A   1      39.250  29.076  27.731  1.00  0.00     0.031 C 
ATOM     38  C   UNL A   1      37.416  31.689  31.596  1.00  0.00     0.029 A 
ATOM     39  N   UNL A   1      39.377  30.657  31.880  1.00  0.00    -0.354 N 
ATOM     40  C   UNL A   1      41.006  28.084  28.811  1.00  0.00     0.074 A 
ATOM     41  C   UNL A   1      40.272  28.247  27.574  1.00  0.00     0.031 C 
ATOM     42  C   UNL A   1      37.882  32.042  32.802  1.00  0.00     0.029 A 
ATOM     43  C   UNL A   1      39.121  31.316  33.058  1.00  0.00     0.049 A 
ATOM     44  H   UNL A   1      40.201  30.143  31.717  1.00  0.00     0.167 HD
ATOM     45  C   UNL A   1      42.109  27.312  28.958  1.00  0.00     0.037 A 
ATOM     46  C   UNL A   1      39.773  31.290  34.234  1.00  0.00     0.037 A 
ATOM     47  C   UNL A   1      42.861  27.203  30.180  1.00  0.00     0.049 A 
ATOM     48  C   UNL A   1      40.980  30.410  34.383  1.00  0.00     0.074 A 
ATOM     49  C   UNL A   1      43.993  26.450  30.437  1.00  0.00     0.029 A 
ATOM     50  N   UNL A   1      42.564  27.889  31.349  1.00  0.00    -0.354 N 
ATOM     51  N   UNL A   1      41.540  29.624  33.497  1.00  0.00    -0.248 NA
ATOM     52  C   UNL A   1      41.628  30.391  35.702  1.00  0.00     0.031 C 
ATOM     53  C   UNL A   1      44.369  26.664  31.767  1.00  0.00     0.029 A 
ATOM     54  C   UNL A   1      43.490  27.575  32.329  1.00  0.00     0.049 A 
ATOM     55  H   UNL A   1      41.807  28.508  31.464  1.00  0.00     0.167 HD
ATOM     56  C   UNL A   1      42.609  29.023  34.144  1.00  0.00     0.074 A 
ATOM     57  C   UNL A   1      42.627  29.544  35.496  1.00  0.00     0.031 C 
ATOM     58  C   UNL A   1      43.492  28.116  33.663  1.00  0.00     0.037 A 
BRANCH  45  59
ATOM     59  C   UNL A   1      42.547  26.491  27.784  1.00  0.00     0.064 A 
ATOM     60  C   UNL A   1      42.027  25.213  27.538  1.00  0.00     0.173 A 
ATOM     61  C   UNL A   1      43.470  27.014  26.866  1.00  0.00     0.173 A 
ATOM     62  F   UNL A   1      41.153  24.664  28.395  1.00  0.00    -0.203 F 
ATOM     63  C   UNL A   1      42.428  24.481  26.422  1.00  0.00     0.198 A 
ATOM     64  C   UNL A   1      43.852  26.289  25.741  1.00  0.00     0.198 A 
ATOM     65  F   UNL A   1      43.994  28.234  27.055  1.00  0.00    -0.203 F 
ATOM     66  F   UNL A   1      41.942  23.249  26.220  1.00  0.00    -0.200 F 
ATOM     67  C   UNL A   1      43.334  25.022  25.522  1.00  0.00     0.200 A 
ATOM     68  F   UNL A   1      44.720  26.818  24.868  1.00  0.00    -0.200 F 
ATOM     69  F   UNL A   1      43.711  24.320  24.444  1.00  0.00    -0.200 F 
ENDBRANCH  45  59
BRANCH  46  70
ATOM     70  C   UNL A   1      39.252  32.085  35.375  1.00  0.00     0.064 A 
ATOM     71  C   UNL A   1      38.438  31.495  36.350  1.00  0.00     0.173 A 
ATOM     72  C   UNL A   1      39.594  33.436  35.536  1.00  0.00     0.173 A 
ATOM     73  F   UNL A   1      38.068  30.212  36.225  1.00  0.00    -0.203 F 
ATOM     74  C   UNL A   1      37.984  32.228  37.445  1.00  0.00     0.198 A 
ATOM     75  C   UNL A   1      39.162  34.160  36.644  1.00  0.00     0.198 A 
ATOM     76  F   UNL A   1      40.374  34.044  34.630  1.00  0.00    -0.203 F 
ATOM     77  F   UNL A   1      37.186  31.648  38.351  1.00  0.00    -0.200 F 
ATOM     78  C   UNL A   1      38.355  33.556  37.597  1.00  0.00     0.200 A 
ATOM     79  F   UNL A   1      39.536  35.439  36.795  1.00  0.00    -0.200 F 
ATOM     80  F   UNL A   1      37.933  34.254  38.659  1.00  0.00    -0.200 F 
ENDBRANCH  46  70
BRANCH  58  81
ATOM     81  C   UNL A   1      44.570  27.656  34.593  1.00  0.00     0.064 A 
ATOM     82  C   UNL A   1      45.782  28.348  34.704  1.00  0.00     0.173 A 
ATOM     83  C   UNL A   1      44.365  26.540  35.418  1.00  0.00     0.173 A 
ATOM     84  F   UNL A   1      46.026  29.411  33.922  1.00  0.00    -0.203 F 
ATOM     85  C   UNL A   1      46.759  27.933  35.604  1.00  0.00     0.198 A 
ATOM     86  C   UNL A   1      45.336  26.138  36.329  1.00  0.00     0.198 A 
ATOM     87  F   UNL A   1      43.217  25.848  35.345  1.00  0.00    -0.203 F 
ATOM     88  F   UNL A   1      47.924  28.594  35.678  1.00  0.00    -0.200 F 
ATOM     89  C   UNL A   1      46.533  26.834  36.419  1.00  0.00     0.200 A 
ATOM     90  F   UNL A   1      45.115  25.080  37.119  1.00  0.00    -0.200 F 
ATOM     91  F   UNL A   1      47.473  26.441  37.291  1.00  0.00    -0.200 F 
ENDBRANCH  58  81
ENDBRANCH  32  33
ENDBRANCH  25  27
ENDBRANCH  24  25
ENDBRANCH  23  24
ENDBRANCH   1  23
TORSDOF 14
ENDMDL
MODEL 3
REMARK VINA RESULT:     -12.7      1.623      2.938
REMARK SMILES C[C@H]1[C@@H](C(=O)OCCOC(=O)c2ccc(-c3c4nc(c(-c5c(F)c(F)c(F)c(F)c5F)c5ccc([nH]5)c(-c5c(F)c(F)c(F)c(F)c5F)c5nc(c(-c6c(F)c(F)c(F)c(F)c6F)c6ccc3[nH]6)C=C5)C=C4)cc2)CCN1C(=O)c1cc([N+](=O)[O-])ccc1Br
REMARK SMILES IDX 7 1 6 2 4 3 5 4 3 5 1 6 2 7 77 8 75 9 76 10 78 11 79 12
REMARK SMILES IDX 80 13 81 14 88 15 82 16 87 17 89 18 86 19 83 20 84 21 85 22
REMARK SMILES IDX 8 23 9 24 10 25 11 26 12 27 13 28 74 29 14 30 73 31 15 32
REMARK SMILES IDX 16 33 17 34 67 35 18 36 72 37 66 38 68 39 19 40 71 41 65 42
REMARK SMILES IDX 64 43 20 45 52 46 32 47 51 48 33 49 36 50 50 51 69 52 34 53
REMARK SMILES IDX 35 54 49 56 70 57 37 58 21 59 22 60 30 61 23 62 24 63 28 64
REMARK SMILES IDX 31 65 25 66 26 67 29 68 27 69 53 70 54 71 62 72 55 73 56 74
REMARK SMILES IDX 60 75 63 76 57 77 58 78 61 79 59 80 38 81 39 82 47 83 40 84
REMARK SMILES IDX 41 85 45 86 48 87 42 88 43 89 46 90 44 91
REMARK H PARENT 68 44 36 55
REMARK Flexibility Score: inf
ROOT
ATOM      1  C   UNL A   1      31.062  29.828  24.669  1.00  0.00     0.274 C 
ENDROOT
BRANCH   1   2
ATOM      2  O   UNL A   1      31.741  29.305  23.507  1.00  0.00    -0.462 OA
BRANCH   2   3
ATOM      3  C   UNL A   1      31.190  28.242  22.886  1.00  0.00     0.311 C 
ATOM      4  O   UNL A   1      30.134  28.286  22.259  1.00  0.00    -0.252 OA
BRANCH   3   5
ATOM      5  C   UNL A   1      31.984  26.952  22.992  1.00  0.00     0.123 C 
ATOM      6  C   UNL A   1      30.564  26.069  25.036  1.00  0.00     0.032 C 
ATOM      7  C   UNL A   1      31.685  25.846  24.030  1.00  0.00     0.096 C 
ATOM      8  N   UNL A   1      32.973  25.630  24.712  1.00  0.00    -0.335 N 
ATOM      9  C   UNL A   1      33.486  27.241  23.145  1.00  0.00     0.039 C 
ATOM     10  C   UNL A   1      33.826  26.783  24.547  1.00  0.00     0.121 C 
BRANCH   8  11
ATOM     11  C   UNL A   1      33.449  24.502  25.351  1.00  0.00     0.255 C 
ATOM     12  O   UNL A   1      32.883  23.945  26.287  1.00  0.00    -0.269 OA
BRANCH  11  13
ATOM     13  C   UNL A   1      34.703  23.906  24.871  1.00  0.00     0.061 A 
ATOM     14  C   UNL A   1      35.819  24.026  25.709  1.00  0.00     0.100 A 
ATOM     15  C   UNL A   1      34.807  23.280  23.622  1.00  0.00     0.031 A 
ATOM     16  C   UNL A   1      37.031  23.455  25.312  1.00  0.00     0.270 A 
ATOM     17  C   UNL A   1      36.021  22.702  23.242  1.00  0.00     0.023 A 
ATOM     18  Br  UNL A   1      33.365  23.202  22.390  1.00  0.00    -0.050 Br
ATOM     19  C   UNL A   1      37.133  22.780  24.087  1.00  0.00     0.087 A 
BRANCH  16  20
ATOM     20  N   UNL A   1      38.203  23.553  26.191  1.00  0.00     0.062 N 
ATOM     21  O   UNL A   1      38.803  22.507  26.470  1.00  0.00    -0.258 OA
ATOM     22  O   UNL A   1      38.526  24.680  26.591  1.00  0.00    -0.258 OA
ENDBRANCH  16  20
ENDBRANCH  11  13
ENDBRANCH   8  11
ENDBRANCH   3   5
ENDBRANCH   2   3
ENDBRANCH   1   2
BRANCH   1  23
ATOM     23  C   UNL A   1      31.803  29.444  25.945  1.00  0.00     0.275 C 
BRANCH  23  24
ATOM     24  O   UNL A   1      33.113  30.032  25.945  1.00  0.00    -0.458 OA
BRANCH  24  25
ATOM     25  C   UNL A   1      33.323  30.965  26.899  1.00  0.00     0.338 C 
ATOM     26  O   UNL A   1      32.564  31.837  27.280  1.00  0.00    -0.246 OA
BRANCH  25  27
ATOM     27  C   UNL A   1      34.647  30.749  27.488  1.00  0.00     0.060 A 
ATOM     28  C   UNL A   1      35.010  29.461  27.881  1.00  0.00     0.016 A 
ATOM     29  C   UNL A   1      35.476  31.836  27.757  1.00  0.00     0.016 A 
ATOM     30  C   UNL A   1      36.165  29.265  28.631  1.00  0.00     0.010 A 
ATOM     31  C   UNL A   1      36.684  31.621  28.421  1.00  0.00     0.010 A 
ATOM     32  C   UNL A   1      37.028  30.338  28.888  1.00  0.00    -0.014 A 
BRANCH  32  33
ATOM     33  C   UNL A   1      38.292  30.140  29.642  1.00  0.00     0.031 A 
ATOM     34  C   UNL A   1      39.376  29.272  29.071  1.00  0.00     0.074 A 
ATOM     35  C   UNL A   1      38.455  30.704  30.854  1.00  0.00     0.049 A 
ATOM     36  N   UNL A   1      40.407  28.733  29.668  1.00  0.00    -0.248 NA
ATOM     37  C   UNL A   1      39.278  28.956  27.637  1.00  0.00     0.031 C 
ATOM     38  C   UNL A   1      37.512  31.619  31.500  1.00  0.00     0.029 A 
ATOM     39  N   UNL A   1      39.470  30.575  31.769  1.00  0.00    -0.354 N 
ATOM     40  C   UNL A   1      41.041  27.961  28.705  1.00  0.00     0.074 A 
ATOM     41  C   UNL A   1      40.292  28.117  27.475  1.00  0.00     0.031 C 
ATOM     42  C   UNL A   1      37.996  31.979  32.696  1.00  0.00     0.029 A 
ATOM     43  C   UNL A   1      39.233  31.248  32.943  1.00  0.00     0.049 A 
ATOM     44  H   UNL A   1      40.288  30.054  31.600  1.00  0.00     0.167 HD
ATOM     45  C   UNL A   1      42.140  27.184  28.845  1.00  0.00     0.037 A 
ATOM     46  C   UNL A   1      39.900  31.229  34.112  1.00  0.00     0.037 A 
ATOM     47  C   UNL A   1      42.907  27.081  30.058  1.00  0.00     0.049 A 
ATOM     48  C   UNL A   1      41.103  30.342  34.253  1.00  0.00     0.074 A 
ATOM     49  C   UNL A   1      44.037  26.322  30.307  1.00  0.00     0.029 A 
ATOM     50  N   UNL A   1      42.630  27.780  31.224  1.00  0.00    -0.354 N 
ATOM     51  N   UNL A   1      41.646  29.543  33.368  1.00  0.00    -0.248 NA
ATOM     52  C   UNL A   1      41.767  30.330  35.563  1.00  0.00     0.031 C 
ATOM     53  C   UNL A   1      44.432  26.547  31.631  1.00  0.00     0.029 A 
ATOM     54  C   UNL A   1      43.566  27.469  32.195  1.00  0.00     0.049 A 
ATOM     55  H   UNL A   1      41.879  28.405  31.342  1.00  0.00     0.167 HD
ATOM     56  C   UNL A   1      42.719  28.940  34.007  1.00  0.00     0.074 A 
ATOM     57  C   UNL A   1      42.758  29.475  35.353  1.00  0.00     0.031 C 
ATOM     58  C   UNL A   1      43.590  28.023  33.524  1.00  0.00     0.037 A 
BRANCH  45  59
ATOM     59  C   UNL A   1      42.557  26.347  27.673  1.00  0.00     0.064 A 
ATOM     60  C   UNL A   1      41.978  25.099  27.410  1.00  0.00     0.173 A 
ATOM     61  C   UNL A   1      43.521  26.829  26.774  1.00  0.00     0.173 A 
ATOM     62  F   UNL A   1      41.063  24.589  28.248  1.00  0.00    -0.203 F 
ATOM     63  C   UNL A   1      42.362  24.354  26.297  1.00  0.00     0.198 A 
ATOM     64  C   UNL A   1      43.886  26.093  25.651  1.00  0.00     0.198 A 
ATOM     65  F   UNL A   1      44.101  28.021  26.980  1.00  0.00    -0.203 F 
ATOM     66  F   UNL A   1      41.820  23.148  26.079  1.00  0.00    -0.200 F 
ATOM     67  C   UNL A   1      43.310  24.854  25.415  1.00  0.00     0.200 A 
ATOM     68  F   UNL A   1      44.794  26.582  24.796  1.00  0.00    -0.200 F 
ATOM     69  F   UNL A   1      43.670  24.140  24.340  1.00  0.00    -0.200 F 
ENDBRANCH  45  59
BRANCH  46  70
ATOM     70  C   UNL A   1      39.400  32.038  35.251  1.00  0.00     0.064 A 
ATOM     71  C   UNL A   1      39.721  33.396  35.365  1.00  0.00     0.173 A 
ATOM     72  C   UNL A   1      38.558  31.480  36.225  1.00  0.00     0.173 A 
ATOM     73  F   UNL A   1      40.540  33.966  34.469  1.00  0.00    -0.203 F 
ATOM     74  C   UNL A   1      39.217  34.168  36.409  1.00  0.00     0.198 A 
ATOM     75  C   UNL A   1      38.034  32.257  37.254  1.00  0.00     0.198 A 
ATOM     76  F   UNL A   1      38.220  30.183  36.158  1.00  0.00    -0.203 F 
ATOM     77  F   UNL A   1      39.557  35.460  36.509  1.00  0.00    -0.200 F 
ATOM     78  C   UNL A   1      38.366  33.601  37.347  1.00  0.00     0.200 A 
ATOM     79  F   UNL A   1      37.199  31.709  38.148  1.00  0.00    -0.200 F 
ATOM     80  F   UNL A   1      37.867  34.348  38.341  1.00  0.00    -0.200 F 
ENDBRANCH  46  70
BRANCH  58  81
ATOM     81  C   UNL A   1      44.676  27.564  34.444  1.00  0.00     0.064 A 
ATOM     82  C   UNL A   1      44.518  26.430  35.250  1.00  0.00     0.173 A 
ATOM     83  C   UNL A   1      45.906  28.238  34.479  1.00  0.00     0.173 A 
ATOM     84  F   UNL A   1      43.353  25.765  35.260  1.00  0.00    -0.203 F 
ATOM     85  C   UNL A   1      45.553  25.990  36.070  1.00  0.00     0.198 A 
ATOM     86  C   UNL A   1      46.944  27.785  35.286  1.00  0.00     0.198 A 
ATOM     87  F   UNL A   1      46.100  29.328  33.721  1.00  0.00    -0.203 F 
ATOM     88  F   UNL A   1      45.375  24.917  36.854  1.00  0.00    -0.200 F 
ATOM     89  C   UNL A   1      46.766  26.663  36.083  1.00  0.00     0.200 A 
ATOM     90  F   UNL A   1      48.116  28.433  35.294  1.00  0.00    -0.200 F 
ATOM     91  F   UNL A   1      47.764  26.233  36.868  1.00  0.00    -0.200 F 
ENDBRANCH  58  81
ENDBRANCH  32  33
ENDBRANCH  25  27
ENDBRANCH  24  25
ENDBRANCH  23  24
ENDBRANCH   1  23
TORSDOF 14
ENDMDL
