MODEL 1
REMARK VINA RESULT:     -11.7      0.000      0.000
REMARK SMILES C[C@@H]1CN(S(=O)(=O)[C@@H](C)C(=O)OCCOC(=O)c2ccc(-c3c4nc(c(-c5c(F)c(F)c(F)c(F)c5F)c5ccc([nH]5)c(-c5c(F)c(F)c(F)c(F)c5F)c5nc(c(-c6c(F)c(F)c(F)c(F)c6F)c6ccc3[nH]6)C=C5)C=C4)cc2)CC[C@@H]1[NH3+]
REMARK SMILES IDX 13 1 12 2 10 3 11 4 8 5 9 6 5 7 6 8 7 9 4 10 1 11 2 12 3 13
REMARK SMILES IDX 83 14 82 15 81 16 84 17 14 21 15 22 16 23 17 24 18 25 19 26
REMARK SMILES IDX 80 27 20 28 79 29 21 30 22 31 23 32 73 33 24 34 78 35 72 36
REMARK SMILES IDX 74 37 25 38 77 39 71 40 70 41 26 43 58 44 38 45 57 46 39 47
REMARK SMILES IDX 42 48 56 49 75 50 40 51 41 52 55 54 76 55 43 56 27 57 28 58
REMARK SMILES IDX 36 59 29 60 30 61 34 62 37 63 31 64 32 65 35 66 33 67 59 68
REMARK SMILES IDX 60 69 68 70 61 71 62 72 66 73 69 74 63 75 64 76 67 77 65 78
REMARK SMILES IDX 44 79 45 80 53 81 46 82 47 83 51 84 54 85 48 86 49 87 52 88
REMARK SMILES IDX 50 89
REMARK H PARENT 84 18 84 19 84 20 74 42 42 53
REMARK Flexibility Score: inf
ROOT
ATOM      1  C   UNL A   1      31.211  29.630  24.640  1.00  0.00     0.274 C 
ENDROOT
BRANCH   1   2
ATOM      2  O   UNL A   1      30.916  28.283  24.206  1.00  0.00    -0.461 OA
BRANCH   2   3
ATOM      3  C   UNL A   1      31.336  27.877  22.992  1.00  0.00     0.325 C 
ATOM      4  O   UNL A   1      30.607  27.848  22.004  1.00  0.00    -0.251 OA
BRANCH   3   5
ATOM      5  C   UNL A   1      32.726  27.311  22.953  1.00  0.00     0.230 C 
ATOM      6  C   UNL A   1      33.738  28.283  22.386  1.00  0.00     0.039 C 
BRANCH   5   7
ATOM      7  S   UNL A   1      32.895  25.645  22.359  1.00  0.00     0.227 S 
ATOM      8  O   UNL A   1      33.248  25.683  20.957  1.00  0.00    -0.211 OA
ATOM      9  O   UNL A   1      31.672  24.962  22.745  1.00  0.00    -0.211 OA
BRANCH   7  10
ATOM     10  N   UNL A   1      34.165  24.825  23.201  1.00  0.00    -0.200 NA
ATOM     11  C   UNL A   1      36.673  22.816  23.296  1.00  0.00     0.015 C 
ATOM     12  C   UNL A   1      35.247  22.597  23.822  1.00  0.00     0.059 C 
ATOM     13  C   UNL A   1      34.223  23.354  22.971  1.00  0.00     0.111 C 
ATOM     14  C   UNL A   1      35.056  22.940  25.303  1.00  0.00     0.186 C 
ATOM     15  C   UNL A   1      35.130  24.450  25.508  1.00  0.00     0.082 C 
ATOM     16  C   UNL A   1      34.064  25.150  24.674  1.00  0.00     0.108 C 
BRANCH  14  17
ATOM     17  N   UNL A   1      36.029  22.248  26.147  1.00  0.00    -0.355 N 
ATOM     18  H   UNL A   1      36.375  21.421  25.661  1.00  0.00     0.344 HD
ATOM     19  H   UNL A   1      35.583  21.966  27.021  1.00  0.00     0.344 HD
ATOM     20  H   UNL A   1      36.809  22.873  26.351  1.00  0.00     0.344 HD
ENDBRANCH  14  17
ENDBRANCH   7  10
ENDBRANCH   5   7
ENDBRANCH   3   5
ENDBRANCH   2   3
ENDBRANCH   1   2
BRANCH   1  21
ATOM     21  C   UNL A   1      31.830  29.622  26.032  1.00  0.00     0.275 C 
BRANCH  21  22
ATOM     22  O   UNL A   1      33.084  30.312  25.977  1.00  0.00    -0.458 OA
BRANCH  22  23
ATOM     23  C   UNL A   1      33.255  31.276  26.909  1.00  0.00     0.338 C 
ATOM     24  O   UNL A   1      32.515  32.202  27.171  1.00  0.00    -0.246 OA
BRANCH  23  25
ATOM     25  C   UNL A   1      34.510  30.976  27.610  1.00  0.00     0.060 A 
ATOM     26  C   UNL A   1      34.801  29.659  27.971  1.00  0.00     0.016 A 
ATOM     27  C   UNL A   1      35.392  32.015  27.907  1.00  0.00     0.016 A 
ATOM     28  C   UNL A   1      35.984  29.370  28.645  1.00  0.00     0.010 A 
ATOM     29  C   UNL A   1      36.579  31.725  28.579  1.00  0.00     0.010 A 
ATOM     30  C   UNL A   1      36.874  30.405  28.963  1.00  0.00    -0.014 A 
BRANCH  30  31
ATOM     31  C   UNL A   1      38.081  30.128  29.773  1.00  0.00     0.031 A 
ATOM     32  C   UNL A   1      39.133  29.209  29.227  1.00  0.00     0.074 A 
ATOM     33  C   UNL A   1      38.223  30.687  30.987  1.00  0.00     0.049 A 
ATOM     34  N   UNL A   1      40.211  28.745  29.805  1.00  0.00    -0.248 NA
ATOM     35  C   UNL A   1      38.940  28.743  27.845  1.00  0.00     0.031 C 
ATOM     36  C   UNL A   1      37.281  31.623  31.601  1.00  0.00     0.029 A 
ATOM     37  N   UNL A   1      39.212  30.538  31.926  1.00  0.00    -0.354 N 
ATOM     38  C   UNL A   1      40.814  27.919  28.866  1.00  0.00     0.074 A 
ATOM     39  C   UNL A   1      39.973  27.929  27.689  1.00  0.00     0.031 C 
ATOM     40  C   UNL A   1      37.736  31.960  32.820  1.00  0.00     0.029 A 
ATOM     41  C   UNL A   1      38.975  31.234  33.085  1.00  0.00     0.049 A 
ATOM     42  H   UNL A   1      40.014  29.985  31.782  1.00  0.00     0.167 HD
ATOM     43  C   UNL A   1      41.970  27.223  28.980  1.00  0.00     0.037 A 
ATOM     44  C   UNL A   1      39.670  31.259  34.237  1.00  0.00     0.037 A 
ATOM     45  C   UNL A   1      42.805  27.229  30.151  1.00  0.00     0.049 A 
ATOM     46  C   UNL A   1      40.927  30.437  34.353  1.00  0.00     0.074 A 
ATOM     47  C   UNL A   1      44.002  26.566  30.364  1.00  0.00     0.029 A 
ATOM     48  N   UNL A   1      42.528  27.935  31.312  1.00  0.00    -0.354 N 
ATOM     49  N   UNL A   1      41.494  29.660  33.462  1.00  0.00    -0.248 NA
ATOM     50  C   UNL A   1      41.638  30.495  35.638  1.00  0.00     0.031 C 
ATOM     51  C   UNL A   1      44.428  26.840  31.668  1.00  0.00     0.029 A 
ATOM     52  C   UNL A   1      43.522  27.711  32.252  1.00  0.00     0.049 A 
ATOM     53  H   UNL A   1      41.742  28.511  31.449  1.00  0.00     0.167 HD
ATOM     54  C   UNL A   1      42.637  29.156  34.068  1.00  0.00     0.074 A 
ATOM     55  C   UNL A   1      42.692  29.728  35.396  1.00  0.00     0.031 C 
ATOM     56  C   UNL A   1      43.558  28.294  33.569  1.00  0.00     0.037 A 
BRANCH  43  57
ATOM     57  C   UNL A   1      42.379  26.374  27.813  1.00  0.00     0.064 A 
ATOM     58  C   UNL A   1      41.902  25.065  27.648  1.00  0.00     0.173 A 
ATOM     59  C   UNL A   1      43.244  26.885  26.834  1.00  0.00     0.173 A 
ATOM     60  F   UNL A   1      41.084  24.525  28.564  1.00  0.00    -0.203 F 
ATOM     61  C   UNL A   1      42.296  24.291  26.560  1.00  0.00     0.198 A 
ATOM     62  C   UNL A   1      43.616  26.117  25.733  1.00  0.00     0.198 A 
ATOM     63  F   UNL A   1      43.728  28.132  26.942  1.00  0.00    -0.203 F 
ATOM     64  F   UNL A   1      41.864  23.027  26.447  1.00  0.00    -0.200 F 
ATOM     65  C   UNL A   1      43.147  24.819  25.601  1.00  0.00     0.200 A 
ATOM     66  F   UNL A   1      44.430  26.634  24.802  1.00  0.00    -0.200 F 
ATOM     67  F   UNL A   1      43.522  24.074  24.551  1.00  0.00    -0.200 F 
ENDBRANCH  43  57
BRANCH  44  68
ATOM     68  C   UNL A   1      39.190  32.082  35.376  1.00  0.00     0.064 A 
ATOM     69  C   UNL A   1      39.515  33.442  35.472  1.00  0.00     0.173 A 
ATOM     70  C   UNL A   1      38.405  31.525  36.397  1.00  0.00     0.173 A 
ATOM     71  F   UNL A   1      40.285  34.014  34.535  1.00  0.00    -0.203 F 
ATOM     72  C   UNL A   1      39.088  34.210  36.554  1.00  0.00     0.198 A 
ATOM     73  C   UNL A   1      37.955  32.299  37.464  1.00  0.00     0.198 A 
ATOM     74  F   UNL A   1      38.069  30.227  36.355  1.00  0.00    -0.203 F 
ATOM     75  F   UNL A   1      39.450  35.496  36.645  1.00  0.00    -0.200 F 
ATOM     76  C   UNL A   1      38.303  33.639  37.545  1.00  0.00     0.200 A 
ATOM     77  F   UNL A   1      37.189  31.747  38.414  1.00  0.00    -0.200 F 
ATOM     78  F   UNL A   1      37.890  34.379  38.584  1.00  0.00    -0.200 F 
ENDBRANCH  44  68
BRANCH  56  79
ATOM     79  C   UNL A   1      44.717  27.946  34.456  1.00  0.00     0.064 A 
ATOM     80  C   UNL A   1      44.667  26.857  35.339  1.00  0.00     0.173 A 
ATOM     81  C   UNL A   1      45.903  28.695  34.402  1.00  0.00     0.173 A 
ATOM     82  F   UNL A   1      43.551  26.120  35.438  1.00  0.00    -0.203 F 
ATOM     83  C   UNL A   1      45.752  26.548  36.156  1.00  0.00     0.198 A 
ATOM     84  C   UNL A   1      46.995  28.365  35.199  1.00  0.00     0.198 A 
ATOM     85  F   UNL A   1      46.004  29.742  33.570  1.00  0.00    -0.203 F 
ATOM     86  F   UNL A   1      45.663  25.534  37.027  1.00  0.00    -0.200 F 
ATOM     87  C   UNL A   1      46.916  27.298  36.081  1.00  0.00     0.200 A 
ATOM     88  F   UNL A   1      48.124  29.084  35.117  1.00  0.00    -0.200 F 
ATOM     89  F   UNL A   1      47.960  26.997  36.866  1.00  0.00    -0.200 F 
ENDBRANCH  56  79
ENDBRANCH  30  31
ENDBRANCH  23  25
ENDBRANCH  22  23
ENDBRANCH  21  22
ENDBRANCH   1  21
TORSDOF 14
ENDMDL
MODEL 2
REMARK VINA RESULT:     -11.7      0.106      1.642
REMARK SMILES C[C@@H]1CN(S(=O)(=O)[C@@H](C)C(=O)OCCOC(=O)c2ccc(-c3c4nc(c(-c5c(F)c(F)c(F)c(F)c5F)c5ccc([nH]5)c(-c5c(F)c(F)c(F)c(F)c5F)c5nc(c(-c6c(F)c(F)c(F)c(F)c6F)c6ccc3[nH]6)C=C5)C=C4)cc2)CC[C@@H]1[NH3+]
REMARK SMILES IDX 13 1 12 2 10 3 11 4 8 5 9 6 5 7 6 8 7 9 4 10 1 11 2 12 3 13
REMARK SMILES IDX 83 14 82 15 81 16 84 17 14 21 15 22 16 23 17 24 18 25 19 26
REMARK SMILES IDX 80 27 20 28 79 29 21 30 22 31 23 32 73 33 24 34 78 35 72 36
REMARK SMILES IDX 74 37 25 38 77 39 71 40 70 41 26 43 58 44 38 45 57 46 39 47
REMARK SMILES IDX 42 48 56 49 75 50 40 51 41 52 55 54 76 55 43 56 27 57 28 58
REMARK SMILES IDX 36 59 29 60 30 61 34 62 37 63 31 64 32 65 35 66 33 67 59 68
REMARK SMILES IDX 60 69 68 70 61 71 62 72 66 73 69 74 63 75 64 76 67 77 65 78
REMARK SMILES IDX 44 79 45 80 53 81 46 82 47 83 51 84 54 85 48 86 49 87 52 88
REMARK SMILES IDX 50 89
REMARK H PARENT 84 18 84 19 84 20 74 42 42 53
REMARK Flexibility Score: inf
ROOT
ATOM      1  C   UNL A   1      31.243  29.600  24.651  1.00  0.00     0.274 C 
ENDROOT
BRANCH   1   2
ATOM      2  O   UNL A   1      30.920  28.267  24.194  1.00  0.00    -0.461 OA
BRANCH   2   3
ATOM      3  C   UNL A   1      31.340  27.870  22.977  1.00  0.00     0.325 C 
ATOM      4  O   UNL A   1      30.612  27.855  21.988  1.00  0.00    -0.251 OA
BRANCH   3   5
ATOM      5  C   UNL A   1      32.726  27.295  22.936  1.00  0.00     0.230 C 
ATOM      6  C   UNL A   1      33.740  28.255  22.353  1.00  0.00     0.039 C 
BRANCH   5   7
ATOM      7  S   UNL A   1      32.882  25.622  22.358  1.00  0.00     0.227 S 
ATOM      8  O   UNL A   1      33.221  25.644  20.953  1.00  0.00    -0.211 OA
ATOM      9  O   UNL A   1      31.659  24.950  22.762  1.00  0.00    -0.211 OA
BRANCH   7  10
ATOM     10  N   UNL A   1      34.155  24.805  23.197  1.00  0.00    -0.200 NA
ATOM     11  C   UNL A   1      36.648  22.778  23.292  1.00  0.00     0.015 C 
ATOM     12  C   UNL A   1      35.227  22.578  23.838  1.00  0.00     0.059 C 
ATOM     13  C   UNL A   1      34.199  23.330  22.988  1.00  0.00     0.111 C 
ATOM     14  C   UNL A   1      35.056  22.944  25.315  1.00  0.00     0.186 C 
ATOM     15  C   UNL A   1      35.144  24.456  25.498  1.00  0.00     0.082 C 
ATOM     16  C   UNL A   1      34.074  25.151  24.666  1.00  0.00     0.108 C 
BRANCH  14  17
ATOM     17  N   UNL A   1      36.034  22.256  26.158  1.00  0.00    -0.355 N 
ATOM     18  H   UNL A   1      36.958  22.661  26.009  1.00  0.00     0.344 HD
ATOM     19  H   UNL A   1      36.055  21.265  25.915  1.00  0.00     0.344 HD
ATOM     20  H   UNL A   1      35.772  22.359  27.138  1.00  0.00     0.344 HD
ENDBRANCH  14  17
ENDBRANCH   7  10
ENDBRANCH   5   7
ENDBRANCH   3   5
ENDBRANCH   2   3
ENDBRANCH   1   2
BRANCH   1  21
ATOM     21  C   UNL A   1      31.883  29.554  26.033  1.00  0.00     0.275 C 
BRANCH  21  22
ATOM     22  O   UNL A   1      33.134  30.251  25.979  1.00  0.00    -0.458 OA
BRANCH  22  23
ATOM     23  C   UNL A   1      33.301  31.211  26.917  1.00  0.00     0.338 C 
ATOM     24  O   UNL A   1      32.555  32.128  27.189  1.00  0.00    -0.246 OA
BRANCH  23  25
ATOM     25  C   UNL A   1      34.563  30.917  27.608  1.00  0.00     0.060 A 
ATOM     26  C   UNL A   1      34.872  29.598  27.949  1.00  0.00     0.016 A 
ATOM     27  C   UNL A   1      35.432  31.962  27.918  1.00  0.00     0.016 A 
ATOM     28  C   UNL A   1      36.061  29.316  28.615  1.00  0.00     0.010 A 
ATOM     29  C   UNL A   1      36.625  31.679  28.581  1.00  0.00     0.010 A 
ATOM     30  C   UNL A   1      36.939  30.357  28.944  1.00  0.00    -0.014 A 
BRANCH  30  31
ATOM     31  C   UNL A   1      38.152  30.084  29.746  1.00  0.00     0.031 A 
ATOM     32  C   UNL A   1      39.200  29.163  29.196  1.00  0.00     0.074 A 
ATOM     33  C   UNL A   1      38.304  30.649  30.956  1.00  0.00     0.049 A 
ATOM     34  N   UNL A   1      40.283  28.702  29.768  1.00  0.00    -0.248 NA
ATOM     35  C   UNL A   1      38.996  28.691  27.818  1.00  0.00     0.031 C 
ATOM     36  C   UNL A   1      37.368  31.587  31.573  1.00  0.00     0.029 A 
ATOM     37  N   UNL A   1      39.301  30.504  31.888  1.00  0.00    -0.354 N 
ATOM     38  C   UNL A   1      40.879  27.872  28.828  1.00  0.00     0.074 A 
ATOM     39  C   UNL A   1      40.029  27.876  27.657  1.00  0.00     0.031 C 
ATOM     40  C   UNL A   1      37.831  31.930  32.787  1.00  0.00     0.029 A 
ATOM     41  C   UNL A   1      39.073  31.206  33.045  1.00  0.00     0.049 A 
ATOM     42  H   UNL A   1      40.102  29.951  31.740  1.00  0.00     0.167 HD
ATOM     43  C   UNL A   1      42.036  27.176  28.935  1.00  0.00     0.037 A 
ATOM     44  C   UNL A   1      39.778  31.237  34.192  1.00  0.00     0.037 A 
ATOM     45  C   UNL A   1      42.881  27.188  30.099  1.00  0.00     0.049 A 
ATOM     46  C   UNL A   1      41.035  30.415  34.301  1.00  0.00     0.074 A 
ATOM     47  C   UNL A   1      44.079  26.527  30.305  1.00  0.00     0.029 A 
ATOM     48  N   UNL A   1      42.613  27.900  31.260  1.00  0.00    -0.354 N 
ATOM     49  N   UNL A   1      41.596  29.634  33.410  1.00  0.00    -0.248 NA
ATOM     50  C   UNL A   1      41.757  30.479  35.580  1.00  0.00     0.031 C 
ATOM     51  C   UNL A   1      44.516  26.808  31.605  1.00  0.00     0.029 A 
ATOM     52  C   UNL A   1      43.615  27.681  32.192  1.00  0.00     0.049 A 
ATOM     53  H   UNL A   1      41.828  28.477  31.400  1.00  0.00     0.167 HD
ATOM     54  C   UNL A   1      42.744  29.133  34.008  1.00  0.00     0.074 A 
ATOM     55  C   UNL A   1      42.809  29.711  35.334  1.00  0.00     0.031 C 
ATOM     56  C   UNL A   1      43.661  28.270  33.506  1.00  0.00     0.037 A 
BRANCH  43  57
ATOM     57  C   UNL A   1      42.436  26.322  27.769  1.00  0.00     0.064 A 
ATOM     58  C   UNL A   1      41.883  25.050  27.561  1.00  0.00     0.173 A 
ATOM     59  C   UNL A   1      43.371  26.793  26.834  1.00  0.00     0.173 A 
ATOM     60  F   UNL A   1      40.997  24.548  28.434  1.00  0.00    -0.203 F 
ATOM     61  C   UNL A   1      42.270  24.270  26.474  1.00  0.00     0.198 A 
ATOM     62  C   UNL A   1      43.735  26.021  25.733  1.00  0.00     0.198 A 
ATOM     63  F   UNL A   1      43.928  28.004  26.984  1.00  0.00    -0.203 F 
ATOM     64  F   UNL A   1      41.763  23.039  26.320  1.00  0.00    -0.200 F 
ATOM     65  C   UNL A   1      43.190  24.759  25.558  1.00  0.00     0.200 A 
ATOM     66  F   UNL A   1      44.617  26.500  24.844  1.00  0.00    -0.200 F 
ATOM     67  F   UNL A   1      43.558  24.008  24.510  1.00  0.00    -0.200 F 
ENDBRANCH  43  57
BRANCH  44  68
ATOM     68  C   UNL A   1      39.307  32.064  35.331  1.00  0.00     0.064 A 
ATOM     69  C   UNL A   1      38.485  31.520  36.328  1.00  0.00     0.173 A 
ATOM     70  C   UNL A   1      39.660  33.418  35.443  1.00  0.00     0.173 A 
ATOM     71  F   UNL A   1      38.099  30.239  36.251  1.00  0.00    -0.203 F 
ATOM     72  C   UNL A   1      38.020  32.302  37.383  1.00  0.00     0.198 A 
ATOM     73  C   UNL A   1      39.218  34.192  36.513  1.00  0.00     0.198 A 
ATOM     74  F   UNL A   1      40.442  33.988  34.514  1.00  0.00    -0.203 F 
ATOM     75  F   UNL A   1      37.199  31.770  38.298  1.00  0.00    -0.200 F 
ATOM     76  C   UNL A   1      38.392  33.635  37.479  1.00  0.00     0.200 A 
ATOM     77  F   UNL A   1      39.587  35.476  36.607  1.00  0.00    -0.200 F 
ATOM     78  F   UNL A   1      37.947  34.386  38.496  1.00  0.00    -0.200 F 
ENDBRANCH  44  68
BRANCH  56  79
ATOM     79  C   UNL A   1      44.828  27.926  34.386  1.00  0.00     0.064 A 
ATOM     80  C   UNL A   1      45.996  28.703  34.395  1.00  0.00     0.173 A 
ATOM     81  C   UNL A   1      44.764  26.823  35.250  1.00  0.00     0.173 A 
ATOM     82  F   UNL A   1      46.111  29.759  33.576  1.00  0.00    -0.203 F 
ATOM     83  C   UNL A   1      47.069  28.370  35.217  1.00  0.00     0.198 A 
ATOM     84  C   UNL A   1      45.827  26.511  36.092  1.00  0.00     0.198 A 
ATOM     85  F   UNL A   1      43.666  26.053  35.284  1.00  0.00    -0.203 F 
ATOM     86  F   UNL A   1      48.194  29.096  35.173  1.00  0.00    -0.200 F 
ATOM     87  C   UNL A   1      46.982  27.278  36.068  1.00  0.00     0.200 A 
ATOM     88  F   UNL A   1      45.737  25.462  36.923  1.00  0.00    -0.200 F 
ATOM     89  F   UNL A   1      48.015  26.962  36.861  1.00  0.00    -0.200 F 
ENDBRANCH  56  79
ENDBRANCH  30  31
ENDBRANCH  23  25
ENDBRANCH  22  23
ENDBRANCH  21  22
ENDBRANCH   1  21
TORSDOF 14
ENDMDL
MODEL 3
REMARK VINA RESULT:     -11.3      1.352      2.271
REMARK SMILES C[C@@H]1CN(S(=O)(=O)[C@@H](C)C(=O)OCCOC(=O)c2ccc(-c3c4nc(c(-c5c(F)c(F)c(F)c(F)c5F)c5ccc([nH]5)c(-c5c(F)c(F)c(F)c(F)c5F)c5nc(c(-c6c(F)c(F)c(F)c(F)c6F)c6ccc3[nH]6)C=C5)C=C4)cc2)CC[C@@H]1[NH3+]
REMARK SMILES IDX 13 1 12 2 10 3 11 4 8 5 9 6 5 7 6 8 7 9 4 10 1 11 2 12 3 13
REMARK SMILES IDX 83 14 82 15 81 16 84 17 14 21 15 22 16 23 17 24 18 25 19 26
REMARK SMILES IDX 80 27 20 28 79 29 21 30 22 31 23 32 73 33 24 34 78 35 72 36
REMARK SMILES IDX 74 37 25 38 77 39 71 40 70 41 26 43 58 44 38 45 57 46 39 47
REMARK SMILES IDX 42 48 56 49 75 50 40 51 41 52 55 54 76 55 43 56 27 57 28 58
REMARK SMILES IDX 36 59 29 60 30 61 34 62 37 63 31 64 32 65 35 66 33 67 59 68
REMARK SMILES IDX 60 69 68 70 61 71 62 72 66 73 69 74 63 75 64 76 67 77 65 78
REMARK SMILES IDX 44 79 45 80 53 81 46 82 47 83 51 84 54 85 48 86 49 87 52 88
REMARK SMILES IDX 50 89
REMARK H PARENT 84 18 84 19 84 20 74 42 42 53
REMARK Flexibility Score: inf
ROOT
ATOM      1  C   UNL A   1      31.742  28.896  27.203  1.00  0.00     0.274 C 
ENDROOT
BRANCH   1   2
ATOM      2  O   UNL A   1      31.290  27.586  26.791  1.00  0.00    -0.461 OA
BRANCH   2   3
ATOM      3  C   UNL A   1      32.160  26.749  26.193  1.00  0.00     0.325 C 
ATOM      4  O   UNL A   1      33.379  26.878  26.274  1.00  0.00    -0.251 OA
BRANCH   3   5
ATOM      5  C   UNL A   1      31.541  25.725  25.286  1.00  0.00     0.230 C 
ATOM      6  C   UNL A   1      30.172  26.136  24.789  1.00  0.00     0.039 C 
BRANCH   5   7
ATOM      7  S   UNL A   1      31.658  24.028  25.798  1.00  0.00     0.227 S 
ATOM      8  O   UNL A   1      30.639  23.263  25.113  1.00  0.00    -0.211 OA
ATOM      9  O   UNL A   1      31.644  24.052  27.250  1.00  0.00    -0.211 OA
BRANCH   7  10
ATOM     10  N   UNL A   1      33.196  23.367  25.363  1.00  0.00    -0.200 NA
ATOM     11  C   UNL A   1      35.718  21.449  25.908  1.00  0.00     0.015 C 
ATOM     12  C   UNL A   1      35.634  22.979  26.017  1.00  0.00     0.059 C 
ATOM     13  C   UNL A   1      34.230  23.425  26.436  1.00  0.00     0.111 C 
ATOM     14  C   UNL A   1      36.071  23.731  24.756  1.00  0.00     0.186 C 
ATOM     15  C   UNL A   1      35.044  23.540  23.645  1.00  0.00     0.082 C 
ATOM     16  C   UNL A   1      33.677  24.038  24.097  1.00  0.00     0.108 C 
BRANCH  14  17
ATOM     17  N   UNL A   1      37.403  23.318  24.316  1.00  0.00    -0.355 N 
ATOM     18  H   UNL A   1      37.989  23.132  25.130  1.00  0.00     0.344 HD
ATOM     19  H   UNL A   1      37.824  24.062  23.759  1.00  0.00     0.344 HD
ATOM     20  H   UNL A   1      37.328  22.472  23.752  1.00  0.00     0.344 HD
ENDBRANCH  14  17
ENDBRANCH   7  10
ENDBRANCH   5   7
ENDBRANCH   3   5
ENDBRANCH   2   3
ENDBRANCH   1   2
BRANCH   1  21
ATOM     21  C   UNL A   1      31.948  29.799  25.993  1.00  0.00     0.275 C 
BRANCH  21  22
ATOM     22  O   UNL A   1      33.269  30.350  26.054  1.00  0.00    -0.458 OA
BRANCH  22  23
ATOM     23  C   UNL A   1      33.453  31.307  26.991  1.00  0.00     0.338 C 
ATOM     24  O   UNL A   1      32.731  32.247  27.251  1.00  0.00    -0.246 OA
BRANCH  23  25
ATOM     25  C   UNL A   1      34.697  30.978  27.699  1.00  0.00     0.060 A 
ATOM     26  C   UNL A   1      34.968  29.650  28.037  1.00  0.00     0.016 A 
ATOM     27  C   UNL A   1      35.588  31.999  28.026  1.00  0.00     0.016 A 
ATOM     28  C   UNL A   1      36.140  29.334  28.717  1.00  0.00     0.010 A 
ATOM     29  C   UNL A   1      36.764  31.682  28.705  1.00  0.00     0.010 A 
ATOM     30  C   UNL A   1      37.039  30.351  29.065  1.00  0.00    -0.014 A 
BRANCH  30  31
ATOM     31  C   UNL A   1      38.234  30.043  29.882  1.00  0.00     0.031 A 
ATOM     32  C   UNL A   1      39.283  29.127  29.327  1.00  0.00     0.074 A 
ATOM     33  C   UNL A   1      38.367  30.573  31.110  1.00  0.00     0.049 A 
ATOM     34  N   UNL A   1      40.350  28.639  29.907  1.00  0.00    -0.248 NA
ATOM     35  C   UNL A   1      39.102  28.695  27.933  1.00  0.00     0.031 C 
ATOM     36  C   UNL A   1      37.428  31.504  31.735  1.00  0.00     0.029 A 
ATOM     37  N   UNL A   1      39.344  30.393  32.057  1.00  0.00    -0.354 N 
ATOM     38  C   UNL A   1      40.956  27.830  28.956  1.00  0.00     0.074 A 
ATOM     39  C   UNL A   1      40.129  27.874  27.769  1.00  0.00     0.031 C 
ATOM     40  C   UNL A   1      37.871  31.809  32.966  1.00  0.00     0.029 A 
ATOM     41  C   UNL A   1      39.100  31.065  33.228  1.00  0.00     0.049 A 
ATOM     42  H   UNL A   1      40.142  29.836  31.910  1.00  0.00     0.167 HD
ATOM     43  C   UNL A   1      42.104  27.119  29.066  1.00  0.00     0.037 A 
ATOM     44  C   UNL A   1      39.782  31.056  34.389  1.00  0.00     0.037 A 
ATOM     45  C   UNL A   1      42.926  27.090  30.247  1.00  0.00     0.049 A 
ATOM     46  C   UNL A   1      41.029  30.219  34.500  1.00  0.00     0.074 A 
ATOM     47  C   UNL A   1      44.113  26.411  30.457  1.00  0.00     0.029 A 
ATOM     48  N   UNL A   1      42.642  27.772  31.421  1.00  0.00    -0.354 N 
ATOM     49  N   UNL A   1      41.600  29.457  33.598  1.00  0.00    -0.248 NA
ATOM     50  C   UNL A   1      41.726  30.240  35.794  1.00  0.00     0.031 C 
ATOM     51  C   UNL A   1      44.527  26.651  31.772  1.00  0.00     0.029 A 
ATOM     52  C   UNL A   1      43.623  27.517  32.366  1.00  0.00     0.049 A 
ATOM     53  H   UNL A   1      41.860  28.353  31.562  1.00  0.00     0.167 HD
ATOM     54  C   UNL A   1      42.731  28.928  34.205  1.00  0.00     0.074 A 
ATOM     55  C   UNL A   1      42.776  29.469  35.547  1.00  0.00     0.031 C 
ATOM     56  C   UNL A   1      43.649  28.069  33.697  1.00  0.00     0.037 A 
BRANCH  43  57
ATOM     57  C   UNL A   1      42.518  26.293  27.885  1.00  0.00     0.064 A 
ATOM     58  C   UNL A   1      43.427  26.774  26.930  1.00  0.00     0.173 A 
ATOM     59  C   UNL A   1      42.017  24.994  27.718  1.00  0.00     0.173 A 
ATOM     60  F   UNL A   1      43.924  28.015  27.036  1.00  0.00    -0.203 F 
ATOM     61  C   UNL A   1      43.797  25.994  25.838  1.00  0.00     0.198 A 
ATOM     62  C   UNL A   1      42.411  24.206  26.639  1.00  0.00     0.198 A 
ATOM     63  F   UNL A   1      41.148  24.485  28.604  1.00  0.00    -0.203 F 
ATOM     64  F   UNL A   1      44.631  26.491  24.913  1.00  0.00    -0.200 F 
ATOM     65  C   UNL A   1      43.294  24.709  25.697  1.00  0.00     0.200 A 
ATOM     66  F   UNL A   1      41.931  22.961  26.510  1.00  0.00    -0.200 F 
ATOM     67  F   UNL A   1      43.656  23.958  24.647  1.00  0.00    -0.200 F 
ENDBRANCH  43  57
BRANCH  44  68
ATOM     68  C   UNL A   1      39.297  31.857  35.541  1.00  0.00     0.064 A 
ATOM     69  C   UNL A   1      39.751  33.167  35.753  1.00  0.00     0.173 A 
ATOM     70  C   UNL A   1      38.377  31.329  36.460  1.00  0.00     0.173 A 
ATOM     71  F   UNL A   1      40.650  33.706  34.917  1.00  0.00    -0.203 F 
ATOM     72  C   UNL A   1      39.317  33.910  36.848  1.00  0.00     0.198 A 
ATOM     73  C   UNL A   1      37.923  32.082  37.539  1.00  0.00     0.198 A 
ATOM     74  F   UNL A   1      37.915  30.080  36.305  1.00  0.00    -0.203 F 
ATOM     75  F   UNL A   1      39.801  35.142  37.053  1.00  0.00    -0.200 F 
ATOM     76  C   UNL A   1      38.399  33.370  37.737  1.00  0.00     0.200 A 
ATOM     77  F   UNL A   1      37.028  31.562  38.389  1.00  0.00    -0.200 F 
ATOM     78  F   UNL A   1      37.980  34.088  38.788  1.00  0.00    -0.200 F 
ENDBRANCH  44  68
BRANCH  56  79
ATOM     79  C   UNL A   1      44.795  27.689  34.589  1.00  0.00     0.064 A 
ATOM     80  C   UNL A   1      45.963  28.462  34.655  1.00  0.00     0.173 A 
ATOM     81  C   UNL A   1      44.710  26.553  35.408  1.00  0.00     0.173 A 
ATOM     82  F   UNL A   1      46.099  29.550  33.880  1.00  0.00    -0.203 F 
ATOM     83  C   UNL A   1      47.017  28.096  35.489  1.00  0.00     0.198 A 
ATOM     84  C   UNL A   1      45.753  26.206  36.261  1.00  0.00     0.198 A 
ATOM     85  F   UNL A   1      43.611  25.785  35.387  1.00  0.00    -0.203 F 
ATOM     86  F   UNL A   1      48.143  28.821  35.499  1.00  0.00    -0.200 F 
ATOM     87  C   UNL A   1      46.909  26.972  36.294  1.00  0.00     0.200 A 
ATOM     88  F   UNL A   1      45.643  25.127  37.048  1.00  0.00    -0.200 F 
ATOM     89  F   UNL A   1      47.923  26.623  37.098  1.00  0.00    -0.200 F 
ENDBRANCH  56  79
ENDBRANCH  30  31
ENDBRANCH  23  25
ENDBRANCH  22  23
ENDBRANCH  21  22
ENDBRANCH   1  21
TORSDOF 14
ENDMDL
