MODEL 1
REMARK VINA RESULT:     -13.7      0.000      0.000
REMARK SMILES Cc1ccc([N+](=O)[O-])c(N2CCC[C@H](CC(=O)OCCOC(=O)c3ccc(-c4c5nc(c(-c6c(F)c(F)c(F)c(F)c6F)c6ccc([nH]6)c(-c6c(F)c(F)c(F)c(F)c6F)c6nc(c(-c7c(F)c(F)c(F)c(F)c7F)c7ccc4[nH]7)C=C6)C=C5)cc3)C2)c1
REMARK SMILES IDX 19 1 18 2 16 3 17 4 15 5 14 6 10 7 11 8 87 9 12 10 13 11
REMARK SMILES IDX 9 12 1 13 2 14 3 15 88 16 4 17 5 18 6 19 7 20 8 21 20 22
REMARK SMILES IDX 21 23 22 24 23 25 24 26 25 27 86 28 26 29 85 30 27 31 28 32
REMARK SMILES IDX 29 33 79 34 30 35 84 36 78 37 80 38 31 39 83 40 77 41 76 42
REMARK SMILES IDX 32 44 64 45 44 46 63 47 45 48 48 49 62 50 81 51 46 52 47 53
REMARK SMILES IDX 61 55 82 56 49 57 33 58 34 59 42 60 35 61 36 62 40 63 43 64
REMARK SMILES IDX 37 65 38 66 41 67 39 68 65 69 66 70 74 71 67 72 68 73 72 74
REMARK SMILES IDX 75 75 69 76 70 77 73 78 71 79 50 80 51 81 59 82 52 83 53 84
REMARK SMILES IDX 57 85 60 86 54 87 55 88 58 89 56 90
REMARK H PARENT 80 43 48 54
REMARK Flexibility Score: inf
ROOT
ATOM      1  C   UNL A   1      33.303  28.921  25.607  1.00  0.00     0.274 C 
ENDROOT
BRANCH   1   2
ATOM      2  O   UNL A   1      31.970  28.904  26.112  1.00  0.00    -0.462 OA
BRANCH   2   3
ATOM      3  C   UNL A   1      31.689  27.809  26.872  1.00  0.00     0.306 C 
ATOM      4  O   UNL A   1      31.351  27.828  28.038  1.00  0.00    -0.252 OA
BRANCH   3   5
ATOM      5  C   UNL A   1      31.836  26.559  26.051  1.00  0.00     0.128 C 
BRANCH   5   6
ATOM      6  C   UNL A   1      30.584  25.681  26.073  1.00  0.00     0.019 C 
ATOM      7  N   UNL A   1      31.610  23.902  24.757  1.00  0.00    -0.366 N 
ATOM      8  C   UNL A   1      30.730  24.093  23.596  1.00  0.00     0.117 C 
ATOM      9  C   UNL A   1      31.018  24.208  26.064  1.00  0.00     0.121 C 
ATOM     10  C   UNL A   1      30.248  25.543  23.559  1.00  0.00     0.022 C 
ATOM     11  C   UNL A   1      29.632  25.952  24.897  1.00  0.00     0.008 C 
BRANCH   7  12
ATOM     12  C   UNL A   1      32.540  22.871  24.678  1.00  0.00     0.116 A 
ATOM     13  C   UNL A   1      32.700  19.129  25.470  1.00  0.00     0.044 C 
ATOM     14  C   UNL A   1      33.108  20.505  25.031  1.00  0.00    -0.049 A 
ATOM     15  C   UNL A   1      34.422  20.744  24.613  1.00  0.00     0.010 A 
ATOM     16  C   UNL A   1      32.185  21.564  25.051  1.00  0.00     0.036 A 
ATOM     17  C   UNL A   1      34.811  22.025  24.230  1.00  0.00     0.088 A 
ATOM     18  C   UNL A   1      33.870  23.066  24.266  1.00  0.00     0.292 A 
BRANCH  18  19
ATOM     19  N   UNL A   1      34.355  24.398  23.954  1.00  0.00     0.064 N 
ATOM     20  O   UNL A   1      34.828  25.056  24.894  1.00  0.00    -0.258 OA
ATOM     21  O   UNL A   1      34.324  24.763  22.770  1.00  0.00    -0.258 OA
ENDBRANCH  18  19
ENDBRANCH   7  12
ENDBRANCH   5   6
ENDBRANCH   3   5
ENDBRANCH   2   3
ENDBRANCH   1   2
BRANCH   1  22
ATOM     22  C   UNL A   1      34.316  28.954  26.753  1.00  0.00     0.275 C 
BRANCH  22  23
ATOM     23  O   UNL A   1      34.334  30.102  27.659  1.00  0.00    -0.458 OA
BRANCH  23  24
ATOM     24  C   UNL A   1      35.352  30.764  28.263  1.00  0.00     0.338 C 
ATOM     25  O   UNL A   1      35.236  31.935  28.601  1.00  0.00    -0.246 OA
BRANCH  24  26
ATOM     26  C   UNL A   1      36.617  30.050  28.532  1.00  0.00     0.060 A 
ATOM     27  C   UNL A   1      36.763  29.300  29.716  1.00  0.00     0.016 A 
ATOM     28  C   UNL A   1      37.632  30.064  27.591  1.00  0.00     0.016 A 
ATOM     29  C   UNL A   1      37.856  28.440  29.883  1.00  0.00     0.010 A 
ATOM     30  C   UNL A   1      38.654  29.146  27.705  1.00  0.00     0.010 A 
ATOM     31  C   UNL A   1      38.787  28.339  28.852  1.00  0.00    -0.014 A 
BRANCH  31  32
ATOM     32  C   UNL A   1      40.060  27.625  28.931  1.00  0.00     0.031 A 
ATOM     33  C   UNL A   1      40.305  26.221  28.534  1.00  0.00     0.074 A 
ATOM     34  C   UNL A   1      41.096  28.426  29.264  1.00  0.00     0.049 A 
ATOM     35  N   UNL A   1      41.403  25.598  28.818  1.00  0.00    -0.248 NA
ATOM     36  C   UNL A   1      39.368  25.390  27.794  1.00  0.00     0.031 C 
ATOM     37  C   UNL A   1      42.525  28.219  29.102  1.00  0.00     0.029 A 
ATOM     38  N   UNL A   1      41.000  29.628  29.987  1.00  0.00    -0.354 N 
ATOM     39  C   UNL A   1      41.439  24.420  28.107  1.00  0.00     0.074 A 
ATOM     40  C   UNL A   1      40.117  24.306  27.532  1.00  0.00     0.031 C 
ATOM     41  C   UNL A   1      43.171  29.062  29.927  1.00  0.00     0.029 A 
ATOM     42  C   UNL A   1      42.162  29.685  30.772  1.00  0.00     0.049 A 
ATOM     43  H   UNL A   1      40.273  30.289  29.951  1.00  0.00     0.167 HD
ATOM     44  C   UNL A   1      42.629  23.750  28.008  1.00  0.00     0.037 A 
ATOM     45  C   UNL A   1      42.051  29.539  32.127  1.00  0.00     0.037 A 
ATOM     46  C   UNL A   1      43.667  24.395  28.811  1.00  0.00     0.049 A 
ATOM     47  C   UNL A   1      42.811  28.357  32.677  1.00  0.00     0.074 A 
ATOM     48  C   UNL A   1      44.710  25.262  28.526  1.00  0.00     0.029 A 
ATOM     49  N   UNL A   1      43.538  24.391  30.188  1.00  0.00    -0.354 N 
ATOM     50  N   UNL A   1      43.297  27.400  31.938  1.00  0.00    -0.248 NA
ATOM     51  C   UNL A   1      43.011  28.116  34.104  1.00  0.00     0.031 C 
ATOM     52  C   UNL A   1      45.216  25.768  29.754  1.00  0.00     0.029 A 
ATOM     53  C   UNL A   1      44.477  25.210  30.781  1.00  0.00     0.049 A 
ATOM     54  H   UNL A   1      42.864  23.870  30.681  1.00  0.00     0.167 HD
ATOM     55  C   UNL A   1      43.869  26.455  32.737  1.00  0.00     0.074 A 
ATOM     56  C   UNL A   1      43.645  26.930  34.088  1.00  0.00     0.031 C 
ATOM     57  C   UNL A   1      44.473  25.349  32.223  1.00  0.00     0.037 A 
BRANCH  44  58
ATOM     58  C   UNL A   1      42.953  22.626  27.041  1.00  0.00     0.064 A 
ATOM     59  C   UNL A   1      42.322  21.363  27.172  1.00  0.00     0.173 A 
ATOM     60  C   UNL A   1      43.878  22.706  25.986  1.00  0.00     0.173 A 
ATOM     61  F   UNL A   1      41.344  21.150  28.061  1.00  0.00    -0.203 F 
ATOM     62  C   UNL A   1      42.668  20.256  26.391  1.00  0.00     0.198 A 
ATOM     63  C   UNL A   1      44.250  21.587  25.226  1.00  0.00     0.198 A 
ATOM     64  F   UNL A   1      44.410  23.875  25.615  1.00  0.00    -0.203 F 
ATOM     65  F   UNL A   1      42.040  19.087  26.581  1.00  0.00    -0.200 F 
ATOM     66  C   UNL A   1      43.656  20.359  25.439  1.00  0.00     0.200 A 
ATOM     67  F   UNL A   1      45.189  21.710  24.276  1.00  0.00    -0.200 F 
ATOM     68  F   UNL A   1      44.014  19.290  24.715  1.00  0.00    -0.200 F 
ENDBRANCH  44  58
BRANCH  45  69
ATOM     69  C   UNL A   1      40.741  30.022  32.664  1.00  0.00     0.064 A 
ATOM     70  C   UNL A   1      40.444  31.399  32.603  1.00  0.00     0.173 A 
ATOM     71  C   UNL A   1      39.673  29.145  32.901  1.00  0.00     0.173 A 
ATOM     72  F   UNL A   1      41.422  32.289  32.364  1.00  0.00    -0.203 F 
ATOM     73  C   UNL A   1      39.131  31.865  32.668  1.00  0.00     0.198 A 
ATOM     74  C   UNL A   1      38.362  29.618  32.987  1.00  0.00     0.198 A 
ATOM     75  F   UNL A   1      39.881  27.823  32.971  1.00  0.00    -0.203 F 
ATOM     76  F   UNL A   1      38.875  33.170  32.501  1.00  0.00    -0.200 F 
ATOM     77  C   UNL A   1      38.089  30.970  32.842  1.00  0.00     0.200 A 
ATOM     78  F   UNL A   1      37.351  28.752  33.153  1.00  0.00    -0.200 F 
ATOM     79  F   UNL A   1      36.822  31.407  32.848  1.00  0.00    -0.200 F 
ENDBRANCH  45  69
BRANCH  57  80
ATOM     80  C   UNL A   1      45.140  24.307  33.060  1.00  0.00     0.064 A 
ATOM     81  C   UNL A   1      44.478  23.143  33.473  1.00  0.00     0.173 A 
ATOM     82  C   UNL A   1      46.433  24.519  33.579  1.00  0.00     0.173 A 
ATOM     83  F   UNL A   1      43.220  22.893  33.080  1.00  0.00    -0.203 F 
ATOM     84  C   UNL A   1      45.092  22.221  34.320  1.00  0.00     0.198 A 
ATOM     85  C   UNL A   1      47.024  23.622  34.464  1.00  0.00     0.198 A 
ATOM     86  F   UNL A   1      47.161  25.587  33.225  1.00  0.00    -0.203 F 
ATOM     87  F   UNL A   1      44.448  21.095  34.653  1.00  0.00    -0.200 F 
ATOM     88  C   UNL A   1      46.358  22.466  34.824  1.00  0.00     0.200 A 
ATOM     89  F   UNL A   1      48.240  23.883  34.962  1.00  0.00    -0.200 F 
ATOM     90  F   UNL A   1      46.937  21.589  35.653  1.00  0.00    -0.200 F 
ENDBRANCH  57  80
ENDBRANCH  31  32
ENDBRANCH  24  26
ENDBRANCH  23  24
ENDBRANCH  22  23
ENDBRANCH   1  22
TORSDOF 14
ENDMDL
MODEL 2
REMARK VINA RESULT:     -13.6      1.280      1.614
REMARK SMILES Cc1ccc([N+](=O)[O-])c(N2CCC[C@H](CC(=O)OCCOC(=O)c3ccc(-c4c5nc(c(-c6c(F)c(F)c(F)c(F)c6F)c6ccc([nH]6)c(-c6c(F)c(F)c(F)c(F)c6F)c6nc(c(-c7c(F)c(F)c(F)c(F)c7F)c7ccc4[nH]7)C=C6)C=C5)cc3)C2)c1
REMARK SMILES IDX 19 1 18 2 16 3 17 4 15 5 14 6 10 7 11 8 87 9 12 10 13 11
REMARK SMILES IDX 9 12 1 13 2 14 3 15 88 16 4 17 5 18 6 19 7 20 8 21 20 22
REMARK SMILES IDX 21 23 22 24 23 25 24 26 25 27 86 28 26 29 85 30 27 31 28 32
REMARK SMILES IDX 29 33 79 34 30 35 84 36 78 37 80 38 31 39 83 40 77 41 76 42
REMARK SMILES IDX 32 44 64 45 44 46 63 47 45 48 48 49 62 50 81 51 46 52 47 53
REMARK SMILES IDX 61 55 82 56 49 57 33 58 34 59 42 60 35 61 36 62 40 63 43 64
REMARK SMILES IDX 37 65 38 66 41 67 39 68 65 69 66 70 74 71 67 72 68 73 72 74
REMARK SMILES IDX 75 75 69 76 70 77 73 78 71 79 50 80 51 81 59 82 52 83 53 84
REMARK SMILES IDX 57 85 60 86 54 87 55 88 58 89 56 90
REMARK H PARENT 80 43 48 54
REMARK Flexibility Score: inf
ROOT
ATOM      1  C   UNL A   1      33.517  29.314  25.695  1.00  0.00     0.274 C 
ENDROOT
BRANCH   1   2
ATOM      2  O   UNL A   1      32.228  29.920  25.647  1.00  0.00    -0.462 OA
BRANCH   2   3
ATOM      3  C   UNL A   1      31.371  29.310  24.782  1.00  0.00     0.306 C 
ATOM      4  O   UNL A   1      30.486  29.862  24.160  1.00  0.00    -0.252 OA
BRANCH   3   5
ATOM      5  C   UNL A   1      31.691  27.845  24.684  1.00  0.00     0.128 C 
BRANCH   5   6
ATOM      6  C   UNL A   1      30.474  26.952  24.932  1.00  0.00     0.019 C 
ATOM      7  N   UNL A   1      31.790  24.899  24.996  1.00  0.00    -0.366 N 
ATOM      8  C   UNL A   1      31.201  24.344  23.770  1.00  0.00     0.117 C 
ATOM      9  C   UNL A   1      30.909  25.759  25.795  1.00  0.00     0.121 C 
ATOM     10  C   UNL A   1      30.730  25.487  22.872  1.00  0.00     0.022 C 
ATOM     11  C   UNL A   1      29.818  26.448  23.636  1.00  0.00     0.008 C 
BRANCH   7  12
ATOM     12  C   UNL A   1      32.720  24.107  25.661  1.00  0.00     0.116 A 
ATOM     13  C   UNL A   1      36.528  23.774  25.872  1.00  0.00     0.044 C 
ATOM     14  C   UNL A   1      35.067  23.524  26.106  1.00  0.00    -0.049 A 
ATOM     15  C   UNL A   1      34.662  22.469  26.931  1.00  0.00     0.010 A 
ATOM     16  C   UNL A   1      34.097  24.332  25.490  1.00  0.00     0.036 A 
ATOM     17  C   UNL A   1      33.307  22.217  27.130  1.00  0.00     0.088 A 
ATOM     18  C   UNL A   1      32.359  23.036  26.498  1.00  0.00     0.292 A 
BRANCH  18  19
ATOM     19  N   UNL A   1      30.964  22.667  26.658  1.00  0.00     0.064 N 
ATOM     20  O   UNL A   1      30.523  21.797  25.891  1.00  0.00    -0.258 OA
ATOM     21  O   UNL A   1      30.329  23.193  27.583  1.00  0.00    -0.258 OA
ENDBRANCH  18  19
ENDBRANCH   7  12
ENDBRANCH   5   6
ENDBRANCH   3   5
ENDBRANCH   2   3
ENDBRANCH   1   2
BRANCH   1  22
ATOM     22  C   UNL A   1      33.933  29.038  27.142  1.00  0.00     0.275 C 
BRANCH  22  23
ATOM     23  O   UNL A   1      34.383  30.147  27.981  1.00  0.00    -0.458 OA
BRANCH  23  24
ATOM     24  C   UNL A   1      35.560  30.819  28.041  1.00  0.00     0.338 C 
ATOM     25  O   UNL A   1      35.610  32.030  27.867  1.00  0.00    -0.246 OA
BRANCH  24  26
ATOM     26  C   UNL A   1      36.800  30.074  28.339  1.00  0.00     0.060 A 
ATOM     27  C   UNL A   1      36.905  29.329  29.530  1.00  0.00     0.016 A 
ATOM     28  C   UNL A   1      37.832  30.054  27.416  1.00  0.00     0.016 A 
ATOM     29  C   UNL A   1      37.973  28.443  29.724  1.00  0.00     0.010 A 
ATOM     30  C   UNL A   1      38.828  29.111  27.555  1.00  0.00     0.010 A 
ATOM     31  C   UNL A   1      38.919  28.310  28.711  1.00  0.00    -0.014 A 
BRANCH  31  32
ATOM     32  C   UNL A   1      40.171  27.563  28.819  1.00  0.00     0.031 A 
ATOM     33  C   UNL A   1      40.383  26.147  28.448  1.00  0.00     0.074 A 
ATOM     34  C   UNL A   1      41.224  28.342  29.152  1.00  0.00     0.049 A 
ATOM     35  N   UNL A   1      41.460  25.500  28.756  1.00  0.00    -0.248 NA
ATOM     36  C   UNL A   1      39.434  25.329  27.709  1.00  0.00     0.031 C 
ATOM     37  C   UNL A   1      42.649  28.094  29.013  1.00  0.00     0.029 A 
ATOM     38  N   UNL A   1      41.151  29.558  29.854  1.00  0.00    -0.354 N 
ATOM     39  C   UNL A   1      41.474  24.309  28.066  1.00  0.00     0.074 A 
ATOM     40  C   UNL A   1      40.157  24.221  27.475  1.00  0.00     0.031 C 
ATOM     41  C   UNL A   1      43.306  28.933  29.832  1.00  0.00     0.029 A 
ATOM     42  C   UNL A   1      42.304  29.597  30.654  1.00  0.00     0.049 A 
ATOM     43  H   UNL A   1      40.443  30.237  29.797  1.00  0.00     0.167 HD
ATOM     44  C   UNL A   1      42.646  23.606  27.993  1.00  0.00     0.037 A 
ATOM     45  C   UNL A   1      42.172  29.477  32.009  1.00  0.00     0.037 A 
ATOM     46  C   UNL A   1      43.690  24.237  28.800  1.00  0.00     0.049 A 
ATOM     47  C   UNL A   1      42.893  28.284  32.588  1.00  0.00     0.074 A 
ATOM     48  C   UNL A   1      44.760  25.070  28.514  1.00  0.00     0.029 A 
ATOM     49  N   UNL A   1      43.544  24.259  30.174  1.00  0.00    -0.354 N 
ATOM     50  N   UNL A   1      43.361  27.302  31.872  1.00  0.00    -0.248 NA
ATOM     51  C   UNL A   1      43.068  28.061  34.022  1.00  0.00     0.031 C 
ATOM     52  C   UNL A   1      45.264  25.582  29.741  1.00  0.00     0.029 A 
ATOM     53  C   UNL A   1      44.497  25.062  30.767  1.00  0.00     0.049 A 
ATOM     54  H   UNL A   1      42.850  23.765  30.667  1.00  0.00     0.167 HD
ATOM     55  C   UNL A   1      43.898  26.356  32.693  1.00  0.00     0.074 A 
ATOM     56  C   UNL A   1      43.670  26.859  34.034  1.00  0.00     0.031 C 
ATOM     57  C   UNL A   1      44.478  25.225  32.206  1.00  0.00     0.037 A 
BRANCH  44  58
ATOM     58  C   UNL A   1      42.952  22.457  27.050  1.00  0.00     0.064 A 
ATOM     59  C   UNL A   1      42.275  21.219  27.184  1.00  0.00     0.173 A 
ATOM     60  C   UNL A   1      43.902  22.491  26.014  1.00  0.00     0.173 A 
ATOM     61  F   UNL A   1      41.271  21.052  28.054  1.00  0.00    -0.203 F 
ATOM     62  C   UNL A   1      42.599  20.090  26.426  1.00  0.00     0.198 A 
ATOM     63  C   UNL A   1      44.251  21.349  25.278  1.00  0.00     0.198 A 
ATOM     64  F   UNL A   1      44.482  23.635  25.639  1.00  0.00    -0.203 F 
ATOM     65  F   UNL A   1      41.927  18.945  26.618  1.00  0.00    -0.200 F 
ATOM     66  C   UNL A   1      43.611  20.145  25.494  1.00  0.00     0.200 A 
ATOM     67  F   UNL A   1      45.215  21.426  24.348  1.00  0.00    -0.200 F 
ATOM     68  F   UNL A   1      43.947  19.054  24.793  1.00  0.00    -0.200 F 
ENDBRANCH  44  58
BRANCH  45  69
ATOM     69  C   UNL A   1      40.869  30.003  32.521  1.00  0.00     0.064 A 
ATOM     70  C   UNL A   1      40.612  31.387  32.438  1.00  0.00     0.173 A 
ATOM     71  C   UNL A   1      39.773  29.160  32.752  1.00  0.00     0.173 A 
ATOM     72  F   UNL A   1      41.619  32.246  32.203  1.00  0.00    -0.203 F 
ATOM     73  C   UNL A   1      39.312  31.891  32.479  1.00  0.00     0.198 A 
ATOM     74  C   UNL A   1      38.474  29.671  32.813  1.00  0.00     0.198 A 
ATOM     75  F   UNL A   1      39.941  27.834  32.841  1.00  0.00    -0.203 F 
ATOM     76  F   UNL A   1      39.096  33.201  32.292  1.00  0.00    -0.200 F 
ATOM     77  C   UNL A   1      38.242  31.029  32.647  1.00  0.00     0.200 A 
ATOM     78  F   UNL A   1      37.436  28.837  32.973  1.00  0.00    -0.200 F 
ATOM     79  F   UNL A   1      36.988  31.502  32.629  1.00  0.00    -0.200 F 
ENDBRANCH  45  69
BRANCH  57  80
ATOM     80  C   UNL A   1      45.106  24.180  33.068  1.00  0.00     0.064 A 
ATOM     81  C   UNL A   1      44.400  23.055  33.514  1.00  0.00     0.173 A 
ATOM     82  C   UNL A   1      46.409  24.353  33.578  1.00  0.00     0.173 A 
ATOM     83  F   UNL A   1      43.131  22.845  33.131  1.00  0.00    -0.203 F 
ATOM     84  C   UNL A   1      44.979  22.132  34.383  1.00  0.00     0.198 A 
ATOM     85  C   UNL A   1      46.966  23.457  34.486  1.00  0.00     0.198 A 
ATOM     86  F   UNL A   1      47.177  25.383  33.194  1.00  0.00    -0.203 F 
ATOM     87  F   UNL A   1      44.292  21.041  34.748  1.00  0.00    -0.200 F 
ATOM     88  C   UNL A   1      46.256  22.339  34.878  1.00  0.00     0.200 A 
ATOM     89  F   UNL A   1      48.193  23.682  34.973  1.00  0.00    -0.200 F 
ATOM     90  F   UNL A   1      46.802  21.462  35.729  1.00  0.00    -0.200 F 
ENDBRANCH  57  80
ENDBRANCH  31  32
ENDBRANCH  24  26
ENDBRANCH  23  24
ENDBRANCH  22  23
ENDBRANCH   1  22
TORSDOF 14
ENDMDL
MODEL 3
REMARK VINA RESULT:     -13.4      4.059     10.105
REMARK SMILES Cc1ccc([N+](=O)[O-])c(N2CCC[C@H](CC(=O)OCCOC(=O)c3ccc(-c4c5nc(c(-c6c(F)c(F)c(F)c(F)c6F)c6ccc([nH]6)c(-c6c(F)c(F)c(F)c(F)c6F)c6nc(c(-c7c(F)c(F)c(F)c(F)c7F)c7ccc4[nH]7)C=C6)C=C5)cc3)C2)c1
REMARK SMILES IDX 19 1 18 2 16 3 17 4 15 5 14 6 10 7 11 8 87 9 12 10 13 11
REMARK SMILES IDX 9 12 1 13 2 14 3 15 88 16 4 17 5 18 6 19 7 20 8 21 20 22
REMARK SMILES IDX 21 23 22 24 23 25 24 26 25 27 86 28 26 29 85 30 27 31 28 32
REMARK SMILES IDX 29 33 79 34 30 35 84 36 78 37 80 38 31 39 83 40 77 41 76 42
REMARK SMILES IDX 32 44 64 45 44 46 63 47 45 48 48 49 62 50 81 51 46 52 47 53
REMARK SMILES IDX 61 55 82 56 49 57 33 58 34 59 42 60 35 61 36 62 40 63 43 64
REMARK SMILES IDX 37 65 38 66 41 67 39 68 65 69 66 70 74 71 67 72 68 73 72 74
REMARK SMILES IDX 75 75 69 76 70 77 73 78 71 79 50 80 51 81 59 82 52 83 53 84
REMARK SMILES IDX 57 85 60 86 54 87 55 88 58 89 56 90
REMARK H PARENT 80 43 48 54
REMARK Flexibility Score: inf
ROOT
ATOM      1  C   UNL A   1      36.017  23.332  26.100  1.00  0.00     0.274 C 
ENDROOT
BRANCH   1   2
ATOM      2  O   UNL A   1      36.000  21.910  26.204  1.00  0.00    -0.462 OA
BRANCH   2   3
ATOM      3  C   UNL A   1      35.083  21.315  25.393  1.00  0.00     0.306 C 
ATOM      4  O   UNL A   1      35.180  20.200  24.919  1.00  0.00    -0.252 OA
BRANCH   3   5
ATOM      5  C   UNL A   1      33.911  22.229  25.179  1.00  0.00     0.128 C 
BRANCH   5   6
ATOM      6  C   UNL A   1      33.397  22.213  23.738  1.00  0.00     0.019 C 
ATOM      7  N   UNL A   1      32.689  24.546  23.792  1.00  0.00    -0.366 N 
ATOM      8  C   UNL A   1      31.258  24.237  23.675  1.00  0.00     0.117 C 
ATOM      9  C   UNL A   1      33.601  23.607  23.129  1.00  0.00     0.121 C 
ATOM     10  C   UNL A   1      30.991  22.847  24.251  1.00  0.00     0.022 C 
ATOM     11  C   UNL A   1      31.919  21.805  23.626  1.00  0.00     0.008 C 
BRANCH   7  12
ATOM     12  C   UNL A   1      33.041  25.892  23.832  1.00  0.00     0.116 A 
ATOM     13  C   UNL A   1      34.133  28.461  26.450  1.00  0.00     0.044 C 
ATOM     14  C   UNL A   1      33.749  27.853  25.133  1.00  0.00    -0.049 A 
ATOM     15  C   UNL A   1      33.690  28.653  23.986  1.00  0.00     0.010 A 
ATOM     16  C   UNL A   1      33.434  26.487  25.042  1.00  0.00     0.036 A 
ATOM     17  C   UNL A   1      33.310  28.098  22.767  1.00  0.00     0.088 A 
ATOM     18  C   UNL A   1      32.993  26.732  22.705  1.00  0.00     0.292 A 
BRANCH  18  19
ATOM     19  N   UNL A   1      32.507  26.229  21.434  1.00  0.00     0.064 N 
ATOM     20  O   UNL A   1      31.296  26.371  21.202  1.00  0.00    -0.258 OA
ATOM     21  O   UNL A   1      33.335  25.753  20.644  1.00  0.00    -0.258 OA
ENDBRANCH  18  19
ENDBRANCH   7  12
ENDBRANCH   5   6
ENDBRANCH   3   5
ENDBRANCH   2   3
ENDBRANCH   1   2
BRANCH   1  22
ATOM     22  C   UNL A   1      37.423  23.835  25.767  1.00  0.00     0.275 C 
BRANCH  22  23
ATOM     23  O   UNL A   1      38.581  23.155  26.345  1.00  0.00    -0.458 OA
BRANCH  23  24
ATOM     24  C   UNL A   1      39.807  23.605  26.710  1.00  0.00     0.338 C 
ATOM     25  O   UNL A   1      40.805  22.908  26.579  1.00  0.00    -0.246 OA
BRANCH  24  26
ATOM     26  C   UNL A   1      39.939  24.969  27.261  1.00  0.00     0.060 A 
ATOM     27  C   UNL A   1      40.435  26.010  26.451  1.00  0.00     0.016 A 
ATOM     28  C   UNL A   1      39.512  25.238  28.550  1.00  0.00     0.016 A 
ATOM     29  C   UNL A   1      40.357  27.342  26.877  1.00  0.00     0.010 A 
ATOM     30  C   UNL A   1      39.340  26.552  28.931  1.00  0.00     0.010 A 
ATOM     31  C   UNL A   1      39.772  27.613  28.111  1.00  0.00    -0.014 A 
BRANCH  31  32
ATOM     32  C   UNL A   1      39.761  28.917  28.773  1.00  0.00     0.031 A 
ATOM     33  C   UNL A   1      38.700  29.942  28.675  1.00  0.00     0.074 A 
ATOM     34  C   UNL A   1      40.772  29.069  29.656  1.00  0.00     0.049 A 
ATOM     35  N   UNL A   1      38.850  31.146  29.124  1.00  0.00    -0.248 NA
ATOM     36  C   UNL A   1      37.389  29.730  28.079  1.00  0.00     0.031 C 
ATOM     37  C   UNL A   1      40.920  30.014  30.750  1.00  0.00     0.029 A 
ATOM     38  N   UNL A   1      42.003  28.391  29.615  1.00  0.00    -0.354 N 
ATOM     39  C   UNL A   1      37.626  31.775  29.123  1.00  0.00     0.074 A 
ATOM     40  C   UNL A   1      36.758  30.871  28.401  1.00  0.00     0.031 C 
ATOM     41  C   UNL A   1      42.221  30.074  31.083  1.00  0.00     0.029 A 
ATOM     42  C   UNL A   1      42.953  29.314  30.079  1.00  0.00     0.049 A 
ATOM     43  H   UNL A   1      42.165  27.466  29.323  1.00  0.00     0.167 HD
ATOM     44  C   UNL A   1      37.483  32.935  29.836  1.00  0.00     0.037 A 
ATOM     45  C   UNL A   1      43.865  29.823  29.197  1.00  0.00     0.037 A 
ATOM     46  C   UNL A   1      38.760  33.364  30.406  1.00  0.00     0.049 A 
ATOM     47  C   UNL A   1      43.795  31.323  29.046  1.00  0.00     0.074 A 
ATOM     48  C   UNL A   1      39.341  33.259  31.659  1.00  0.00     0.029 A 
ATOM     49  N   UNL A   1      39.767  33.768  29.549  1.00  0.00    -0.354 N 
ATOM     50  N   UNL A   1      42.804  32.049  29.477  1.00  0.00    -0.248 NA
ATOM     51  C   UNL A   1      44.791  32.111  28.324  1.00  0.00     0.031 C 
ATOM     52  C   UNL A   1      40.712  33.620  31.545  1.00  0.00     0.029 A 
ATOM     53  C   UNL A   1      40.959  33.939  30.223  1.00  0.00     0.049 A 
ATOM     54  H   UNL A   1      39.649  33.914  28.583  1.00  0.00     0.167 HD
ATOM     55  C   UNL A   1      43.011  33.352  29.131  1.00  0.00     0.074 A 
ATOM     56  C   UNL A   1      44.255  33.342  28.388  1.00  0.00     0.031 C 
ATOM     57  C   UNL A   1      42.135  34.336  29.475  1.00  0.00     0.037 A 
BRANCH  44  58
ATOM     58  C   UNL A   1      36.176  33.608  30.211  1.00  0.00     0.064 A 
ATOM     59  C   UNL A   1      35.341  34.163  29.208  1.00  0.00     0.173 A 
ATOM     60  C   UNL A   1      35.692  33.763  31.521  1.00  0.00     0.173 A 
ATOM     61  F   UNL A   1      35.606  34.014  27.904  1.00  0.00    -0.203 F 
ATOM     62  C   UNL A   1      34.189  34.900  29.501  1.00  0.00     0.198 A 
ATOM     63  C   UNL A   1      34.555  34.532  31.817  1.00  0.00     0.198 A 
ATOM     64  F   UNL A   1      36.262  33.133  32.553  1.00  0.00    -0.203 F 
ATOM     65  F   UNL A   1      33.456  35.410  28.501  1.00  0.00    -0.200 F 
ATOM     66  C   UNL A   1      33.814  35.112  30.808  1.00  0.00     0.200 A 
ATOM     67  F   UNL A   1      34.180  34.700  33.093  1.00  0.00    -0.200 F 
ATOM     68  F   UNL A   1      32.731  35.849  31.091  1.00  0.00    -0.200 F 
ENDBRANCH  44  58
BRANCH  45  69
ATOM     69  C   UNL A   1      44.196  28.879  28.086  1.00  0.00     0.064 A 
ATOM     70  C   UNL A   1      44.922  27.706  28.380  1.00  0.00     0.173 A 
ATOM     71  C   UNL A   1      43.532  28.929  26.852  1.00  0.00     0.173 A 
ATOM     72  F   UNL A   1      45.568  27.591  29.552  1.00  0.00    -0.203 F 
ATOM     73  C   UNL A   1      44.896  26.600  27.530  1.00  0.00     0.198 A 
ATOM     74  C   UNL A   1      43.525  27.827  25.994  1.00  0.00     0.198 A 
ATOM     75  F   UNL A   1      42.822  30.012  26.506  1.00  0.00    -0.203 F 
ATOM     76  F   UNL A   1      45.511  25.464  27.890  1.00  0.00    -0.200 F 
ATOM     77  C   UNL A   1      44.181  26.656  26.346  1.00  0.00     0.200 A 
ATOM     78  F   UNL A   1      42.832  27.878  24.848  1.00  0.00    -0.200 F 
ATOM     79  F   UNL A   1      44.106  25.577  25.555  1.00  0.00    -0.200 F 
ENDBRANCH  45  69
BRANCH  57  80
ATOM     80  C   UNL A   1      42.340  35.777  29.145  1.00  0.00     0.064 A 
ATOM     81  C   UNL A   1      41.826  36.358  27.977  1.00  0.00     0.173 A 
ATOM     82  C   UNL A   1      43.175  36.587  29.940  1.00  0.00     0.173 A 
ATOM     83  F   UNL A   1      41.074  35.641  27.128  1.00  0.00    -0.203 F 
ATOM     84  C   UNL A   1      42.096  37.685  27.648  1.00  0.00     0.198 A 
ATOM     85  C   UNL A   1      43.484  37.896  29.582  1.00  0.00     0.198 A 
ATOM     86  F   UNL A   1      43.695  36.135  31.090  1.00  0.00    -0.203 F 
ATOM     87  F   UNL A   1      41.546  38.221  26.550  1.00  0.00    -0.200 F 
ATOM     88  C   UNL A   1      42.933  38.450  28.443  1.00  0.00     0.200 A 
ATOM     89  F   UNL A   1      44.314  38.617  30.349  1.00  0.00    -0.200 F 
ATOM     90  F   UNL A   1      43.207  39.718  28.113  1.00  0.00    -0.200 F 
ENDBRANCH  57  80
ENDBRANCH  31  32
ENDBRANCH  24  26
ENDBRANCH  23  24
ENDBRANCH  22  23
ENDBRANCH   1  22
TORSDOF 14
ENDMDL
