MODEL 1
REMARK VINA RESULT:     -13.0      0.000      0.000
REMARK SMILES O=C(OCCOC(=O)c1ccc(-c2c3nc(c(-c4c(F)c(F)c(F)c(F)c4F)c4ccc([nH]4)c(-c4c(F)c(F)c(F)c(F)c4F)c4nc(c(-c5c(F)c(F)c(F)c(F)c5F)c5ccc2[nH]5)C=C4)C=C3)cc1)C1=NN(c2ccc(S(=O)(=O)[O-])cc2)C(=O)/C1=C/Nc1ccccc1
REMARK SMILES IDX 4 1 3 2 2 3 1 4 72 5 73 6 87 7 74 8 85 9 88 10 86 11 75 12
REMARK SMILES IDX 76 13 84 14 77 15 83 16 78 17 79 18 80 19 81 20 82 21 89 22
REMARK SMILES IDX 90 24 91 25 95 26 92 27 94 28 93 29 5 30 6 31 7 32 8 33 9 34
REMARK SMILES IDX 10 35 71 36 11 37 70 38 12 39 13 40 14 41 64 42 15 43 69 44
REMARK SMILES IDX 63 45 65 46 16 47 68 48 62 49 61 50 17 52 49 53 29 54 48 55
REMARK SMILES IDX 30 56 33 57 47 58 66 59 31 60 32 61 46 63 67 64 34 65 18 66
REMARK SMILES IDX 19 67 27 68 20 69 21 70 25 71 28 72 22 73 23 74 26 75 24 76
REMARK SMILES IDX 50 77 51 78 59 79 52 80 53 81 57 82 60 83 54 84 55 85 58 86
REMARK SMILES IDX 56 87 35 88 36 89 44 90 37 91 38 92 42 93 45 94 39 95 40 96
REMARK SMILES IDX 43 97 41 98
REMARK H PARENT 89 23 65 51 33 62
REMARK Flexibility Score: inf
ROOT
ATOM      1  C   UNL A   1      33.962  28.104  24.471  1.00  0.00     0.275 C 
ENDROOT
BRANCH   1   2
ATOM      2  O   UNL A   1      33.340  28.093  23.186  1.00  0.00    -0.457 OA
BRANCH   2   3
ATOM      3  C   UNL A   1      33.253  26.881  22.636  1.00  0.00     0.359 C 
ATOM      4  O   UNL A   1      33.778  26.590  21.570  1.00  0.00    -0.244 OA
BRANCH   3   5
ATOM      5  C   UNL A   1      32.603  25.807  23.481  1.00  0.00     0.183 C 
ATOM      6  N   UNL A   1      33.325  24.728  23.601  1.00  0.00    -0.157 NA
ATOM      7  C   UNL A   1      31.284  25.684  24.197  1.00  0.00     0.093 C 
ATOM      8  N   UNL A   1      32.568  23.853  24.300  1.00  0.00    -0.196 N 
ATOM      9  C   UNL A   1      31.410  24.365  24.867  1.00  0.00     0.282 C 
ATOM     10  C   UNL A   1      30.008  26.120  24.258  1.00  0.00     0.099 C 
ATOM     11  O   UNL A   1      30.596  23.837  25.605  1.00  0.00    -0.267 OA
BRANCH   8  12
ATOM     12  C   UNL A   1      32.857  22.511  24.109  1.00  0.00     0.069 A 
ATOM     13  C   UNL A   1      33.902  21.920  24.828  1.00  0.00     0.030 A 
ATOM     14  C   UNL A   1      32.120  21.787  23.168  1.00  0.00     0.030 A 
ATOM     15  C   UNL A   1      34.047  20.551  24.784  1.00  0.00     0.021 A 
ATOM     16  C   UNL A   1      32.290  20.430  23.082  1.00  0.00     0.021 A 
ATOM     17  C   UNL A   1      33.169  19.829  23.975  1.00  0.00     0.054 A 
BRANCH  17  18
ATOM     18  S   UNL A   1      33.128  18.098  24.098  1.00  0.00     0.124 S 
ATOM     19  O   UNL A   1      34.451  17.668  24.481  1.00  0.00    -0.237 OA
ATOM     20  O   UNL A   1      31.954  17.725  24.858  1.00  0.00    -0.237 OA
ATOM     21  O   UNL A   1      32.847  17.636  22.581  1.00  0.00    -0.744 OA
ENDBRANCH  17  18
ENDBRANCH   8  12
BRANCH  10  22
ATOM     22  N   UNL A   1      29.264  26.854  23.375  1.00  0.00    -0.361 N 
ATOM     23  H   UNL A   1      28.815  26.312  22.687  1.00  0.00     0.166 HD
BRANCH  22  24
ATOM     24  C   UNL A   1      29.018  28.230  23.263  1.00  0.00     0.038 A 
ATOM     25  C   UNL A   1      30.055  29.116  23.620  1.00  0.00     0.026 A 
ATOM     26  C   UNL A   1      27.781  28.763  22.914  1.00  0.00     0.026 A 
ATOM     27  C   UNL A   1      29.825  30.484  23.745  1.00  0.00     0.002 A 
ATOM     28  C   UNL A   1      27.549  30.138  23.036  1.00  0.00     0.002 A 
ATOM     29  C   UNL A   1      28.561  30.993  23.476  1.00  0.00     0.000 A 
ENDBRANCH  22  24
ENDBRANCH  10  22
ENDBRANCH   3   5
ENDBRANCH   2   3
ENDBRANCH   1   2
BRANCH   1  30
ATOM     30  C   UNL A   1      33.358  29.159  25.438  1.00  0.00     0.275 C 
BRANCH  30  31
ATOM     31  O   UNL A   1      33.944  29.012  26.784  1.00  0.00    -0.458 OA
BRANCH  31  32
ATOM     32  C   UNL A   1      34.288  30.080  27.547  1.00  0.00     0.338 C 
ATOM     33  O   UNL A   1      33.557  31.018  27.799  1.00  0.00    -0.246 OA
BRANCH  32  34
ATOM     34  C   UNL A   1      35.705  29.926  28.055  1.00  0.00     0.060 A 
ATOM     35  C   UNL A   1      36.773  30.155  27.179  1.00  0.00     0.016 A 
ATOM     36  C   UNL A   1      36.015  29.487  29.348  1.00  0.00     0.016 A 
ATOM     37  C   UNL A   1      38.119  29.887  27.558  1.00  0.00     0.010 A 
ATOM     38  C   UNL A   1      37.366  29.257  29.732  1.00  0.00     0.010 A 
ATOM     39  C   UNL A   1      38.450  29.397  28.831  1.00  0.00    -0.014 A 
BRANCH  39  40
ATOM     40  C   UNL A   1      39.842  28.861  29.187  1.00  0.00     0.031 A 
ATOM     41  C   UNL A   1      40.791  29.767  29.973  1.00  0.00     0.074 A 
ATOM     42  C   UNL A   1      40.313  27.617  28.901  1.00  0.00     0.049 A 
ATOM     43  N   UNL A   1      42.050  29.589  30.305  1.00  0.00    -0.248 NA
ATOM     44  C   UNL A   1      40.231  31.036  30.466  1.00  0.00     0.031 C 
ATOM     45  C   UNL A   1      39.554  26.528  28.294  1.00  0.00     0.029 A 
ATOM     46  N   UNL A   1      41.581  27.058  29.063  1.00  0.00    -0.354 N 
ATOM     47  C   UNL A   1      42.413  30.698  31.066  1.00  0.00     0.074 A 
ATOM     48  C   UNL A   1      41.277  31.594  31.056  1.00  0.00     0.031 C 
ATOM     49  C   UNL A   1      40.371  25.478  28.070  1.00  0.00     0.029 A 
ATOM     50  C   UNL A   1      41.735  25.806  28.484  1.00  0.00     0.049 A 
ATOM     51  H   UNL A   1      42.305  27.514  29.550  1.00  0.00     0.167 HD
ATOM     52  C   UNL A   1      43.553  30.937  31.765  1.00  0.00     0.037 A 
ATOM     53  C   UNL A   1      42.841  25.043  28.259  1.00  0.00     0.037 A 
ATOM     54  C   UNL A   1      44.696  30.062  31.810  1.00  0.00     0.049 A 
ATOM     55  C   UNL A   1      44.178  25.478  28.803  1.00  0.00     0.074 A 
ATOM     56  C   UNL A   1      45.845  30.177  32.577  1.00  0.00     0.029 A 
ATOM     57  N   UNL A   1      44.853  28.927  31.034  1.00  0.00    -0.354 N 
ATOM     58  N   UNL A   1      44.500  26.560  29.461  1.00  0.00    -0.248 NA
ATOM     59  C   UNL A   1      45.304  24.547  28.598  1.00  0.00     0.031 C 
ATOM     60  C   UNL A   1      46.732  29.163  32.202  1.00  0.00     0.029 A 
ATOM     61  C   UNL A   1      46.102  28.369  31.263  1.00  0.00     0.049 A 
ATOM     62  H   UNL A   1      44.177  28.567  30.414  1.00  0.00     0.167 HD
ATOM     63  C   UNL A   1      45.838  26.408  29.802  1.00  0.00     0.074 A 
ATOM     64  C   UNL A   1      46.298  25.179  29.201  1.00  0.00     0.031 C 
ATOM     65  C   UNL A   1      46.589  27.181  30.618  1.00  0.00     0.037 A 
BRANCH  52  66
ATOM     66  C   UNL A   1      43.627  32.212  32.567  1.00  0.00     0.064 A 
ATOM     67  C   UNL A   1      43.167  32.280  33.891  1.00  0.00     0.173 A 
ATOM     68  C   UNL A   1      44.208  33.366  32.019  1.00  0.00     0.173 A 
ATOM     69  F   UNL A   1      42.611  31.205  34.470  1.00  0.00    -0.203 F 
ATOM     70  C   UNL A   1      43.233  33.468  34.615  1.00  0.00     0.198 A 
ATOM     71  C   UNL A   1      44.310  34.541  32.759  1.00  0.00     0.198 A 
ATOM     72  F   UNL A   1      44.691  33.353  30.766  1.00  0.00    -0.203 F 
ATOM     73  F   UNL A   1      42.725  33.525  35.854  1.00  0.00    -0.200 F 
ATOM     74  C   UNL A   1      43.808  34.596  34.050  1.00  0.00     0.200 A 
ATOM     75  F   UNL A   1      44.888  35.623  32.220  1.00  0.00    -0.200 F 
ATOM     76  F   UNL A   1      43.872  35.738  34.748  1.00  0.00    -0.200 F 
ENDBRANCH  52  66
BRANCH  53  77
ATOM     77  C   UNL A   1      42.831  23.811  27.397  1.00  0.00     0.064 A 
ATOM     78  C   UNL A   1      43.165  23.817  26.041  1.00  0.00     0.173 A 
ATOM     79  C   UNL A   1      42.419  22.569  27.934  1.00  0.00     0.173 A 
ATOM     80  F   UNL A   1      43.419  24.978  25.420  1.00  0.00    -0.203 F 
ATOM     81  C   UNL A   1      43.204  22.629  25.298  1.00  0.00     0.198 A 
ATOM     82  C   UNL A   1      42.500  21.380  27.210  1.00  0.00     0.198 A 
ATOM     83  F   UNL A   1      41.962  22.496  29.197  1.00  0.00    -0.203 F 
ATOM     84  F   UNL A   1      43.507  22.668  23.993  1.00  0.00    -0.200 F 
ATOM     85  C   UNL A   1      42.915  21.408  25.894  1.00  0.00     0.200 A 
ATOM     86  F   UNL A   1      42.213  20.217  27.811  1.00  0.00    -0.200 F 
ATOM     87  F   UNL A   1      43.010  20.269  25.195  1.00  0.00    -0.200 F 
ENDBRANCH  53  77
BRANCH  65  88
ATOM     88  C   UNL A   1      47.954  26.671  30.976  1.00  0.00     0.064 A 
ATOM     89  C   UNL A   1      49.108  27.048  30.275  1.00  0.00     0.173 A 
ATOM     90  C   UNL A   1      48.097  25.763  32.037  1.00  0.00     0.173 A 
ATOM     91  F   UNL A   1      49.019  27.880  29.227  1.00  0.00    -0.203 F 
ATOM     92  C   UNL A   1      50.352  26.520  30.614  1.00  0.00     0.198 A 
ATOM     93  C   UNL A   1      49.345  25.263  32.393  1.00  0.00     0.198 A 
ATOM     94  F   UNL A   1      47.021  25.355  32.728  1.00  0.00    -0.203 F 
ATOM     95  F   UNL A   1      51.436  26.848  29.896  1.00  0.00    -0.200 F 
ATOM     96  C   UNL A   1      50.470  25.636  31.678  1.00  0.00     0.200 A 
ATOM     97  F   UNL A   1      49.455  24.411  33.422  1.00  0.00    -0.200 F 
ATOM     98  F   UNL A   1      51.669  25.131  32.002  1.00  0.00    -0.200 F 
ENDBRANCH  65  88
ENDBRANCH  39  40
ENDBRANCH  32  34
ENDBRANCH  31  32
ENDBRANCH  30  31
ENDBRANCH   1  30
TORSDOF 15
ENDMDL
MODEL 2
REMARK VINA RESULT:     -12.6      3.418      8.043
REMARK SMILES O=C(OCCOC(=O)c1ccc(-c2c3nc(c(-c4c(F)c(F)c(F)c(F)c4F)c4ccc([nH]4)c(-c4c(F)c(F)c(F)c(F)c4F)c4nc(c(-c5c(F)c(F)c(F)c(F)c5F)c5ccc2[nH]5)C=C4)C=C3)cc1)C1=NN(c2ccc(S(=O)(=O)[O-])cc2)C(=O)/C1=C/Nc1ccccc1
REMARK SMILES IDX 4 1 3 2 2 3 1 4 72 5 73 6 87 7 74 8 85 9 88 10 86 11 75 12
REMARK SMILES IDX 76 13 84 14 77 15 83 16 78 17 79 18 80 19 81 20 82 21 89 22
REMARK SMILES IDX 90 24 91 25 95 26 92 27 94 28 93 29 5 30 6 31 7 32 8 33 9 34
REMARK SMILES IDX 10 35 71 36 11 37 70 38 12 39 13 40 14 41 64 42 15 43 69 44
REMARK SMILES IDX 63 45 65 46 16 47 68 48 62 49 61 50 17 52 49 53 29 54 48 55
REMARK SMILES IDX 30 56 33 57 47 58 66 59 31 60 32 61 46 63 67 64 34 65 18 66
REMARK SMILES IDX 19 67 27 68 20 69 21 70 25 71 28 72 22 73 23 74 26 75 24 76
REMARK SMILES IDX 50 77 51 78 59 79 52 80 53 81 57 82 60 83 54 84 55 85 58 86
REMARK SMILES IDX 56 87 35 88 36 89 44 90 37 91 38 92 42 93 45 94 39 95 40 96
REMARK SMILES IDX 43 97 41 98
REMARK H PARENT 89 23 65 51 33 62
REMARK Flexibility Score: inf
ROOT
ATOM      1  C   UNL A   1      31.504  27.327  26.721  1.00  0.00     0.275 C 
ENDROOT
BRANCH   1   2
ATOM      2  O   UNL A   1      32.703  26.682  26.293  1.00  0.00    -0.457 OA
BRANCH   2   3
ATOM      3  C   UNL A   1      32.619  25.353  26.253  1.00  0.00     0.359 C 
ATOM      4  O   UNL A   1      31.768  24.716  26.860  1.00  0.00    -0.244 OA
BRANCH   3   5
ATOM      5  C   UNL A   1      33.536  24.652  25.275  1.00  0.00     0.183 C 
ATOM      6  N   UNL A   1      34.468  23.942  25.847  1.00  0.00    -0.157 NA
ATOM      7  C   UNL A   1      33.641  24.612  23.773  1.00  0.00     0.093 C 
ATOM      8  N   UNL A   1      35.238  23.466  24.844  1.00  0.00    -0.196 N 
ATOM      9  C   UNL A   1      34.746  23.643  23.559  1.00  0.00     0.282 C 
ATOM     10  C   UNL A   1      33.352  25.254  22.621  1.00  0.00     0.099 C 
ATOM     11  O   UNL A   1      35.178  23.249  22.490  1.00  0.00    -0.267 OA
BRANCH   8  12
ATOM     12  C   UNL A   1      36.546  23.150  25.178  1.00  0.00     0.069 A 
ATOM     13  C   UNL A   1      37.340  24.098  25.832  1.00  0.00     0.030 A 
ATOM     14  C   UNL A   1      37.055  21.900  24.814  1.00  0.00     0.030 A 
ATOM     15  C   UNL A   1      38.560  23.707  26.338  1.00  0.00     0.021 A 
ATOM     16  C   UNL A   1      38.288  21.519  25.272  1.00  0.00     0.021 A 
ATOM     17  C   UNL A   1      38.963  22.390  26.120  1.00  0.00     0.054 A 
BRANCH  17  18
ATOM     18  S   UNL A   1      40.348  21.773  26.966  1.00  0.00     0.124 S 
ATOM     19  O   UNL A   1      40.634  22.692  28.040  1.00  0.00    -0.237 OA
ATOM     20  O   UNL A   1      40.142  20.360  27.204  1.00  0.00    -0.237 OA
ATOM     21  O   UNL A   1      41.518  21.877  25.864  1.00  0.00    -0.744 OA
ENDBRANCH  17  18
ENDBRANCH   8  12
BRANCH  10  22
ATOM     22  N   UNL A   1      32.933  26.535  22.385  1.00  0.00    -0.361 N 
ATOM     23  H   UNL A   1      33.499  27.028  21.747  1.00  0.00     0.166 HD
BRANCH  22  24
ATOM     24  C   UNL A   1      31.852  27.280  22.876  1.00  0.00     0.038 A 
ATOM     25  C   UNL A   1      30.633  26.608  23.095  1.00  0.00     0.026 A 
ATOM     26  C   UNL A   1      31.891  28.659  23.065  1.00  0.00     0.026 A 
ATOM     27  C   UNL A   1      29.460  27.308  23.371  1.00  0.00     0.002 A 
ATOM     28  C   UNL A   1      30.715  29.363  23.345  1.00  0.00     0.002 A 
ATOM     29  C   UNL A   1      29.498  28.692  23.472  1.00  0.00     0.000 A 
ENDBRANCH  22  24
ENDBRANCH  10  22
ENDBRANCH   3   5
ENDBRANCH   2   3
ENDBRANCH   1   2
BRANCH   1  30
ATOM     30  C   UNL A   1      31.754  28.700  27.405  1.00  0.00     0.275 C 
BRANCH  30  31
ATOM     31  O   UNL A   1      32.668  29.519  26.586  1.00  0.00    -0.458 OA
BRANCH  31  32
ATOM     32  C   UNL A   1      33.063  30.762  26.961  1.00  0.00     0.338 C 
ATOM     33  O   UNL A   1      32.377  31.762  26.886  1.00  0.00    -0.246 OA
BRANCH  32  34
ATOM     34  C   UNL A   1      34.476  30.720  27.504  1.00  0.00     0.060 A 
ATOM     35  C   UNL A   1      35.103  29.481  27.681  1.00  0.00     0.016 A 
ATOM     36  C   UNL A   1      35.175  31.861  27.915  1.00  0.00     0.016 A 
ATOM     37  C   UNL A   1      36.371  29.371  28.319  1.00  0.00     0.010 A 
ATOM     38  C   UNL A   1      36.459  31.747  28.519  1.00  0.00     0.010 A 
ATOM     39  C   UNL A   1      37.067  30.496  28.788  1.00  0.00    -0.014 A 
BRANCH  39  40
ATOM     40  C   UNL A   1      38.300  30.401  29.696  1.00  0.00     0.031 A 
ATOM     41  C   UNL A   1      39.461  29.509  29.255  1.00  0.00     0.074 A 
ATOM     42  C   UNL A   1      38.482  31.077  30.863  1.00  0.00     0.049 A 
ATOM     43  N   UNL A   1      40.564  29.180  29.890  1.00  0.00    -0.248 NA
ATOM     44  C   UNL A   1      39.370  28.930  27.905  1.00  0.00     0.031 C 
ATOM     45  C   UNL A   1      37.591  32.091  31.418  1.00  0.00     0.029 A 
ATOM     46  N   UNL A   1      39.489  30.989  31.824  1.00  0.00    -0.354 N 
ATOM     47  C   UNL A   1      41.301  28.393  29.009  1.00  0.00     0.074 A 
ATOM     48  C   UNL A   1      40.474  28.203  27.836  1.00  0.00     0.031 C 
ATOM     49  C   UNL A   1      38.041  32.471  32.633  1.00  0.00     0.029 A 
ATOM     50  C   UNL A   1      39.243  31.714  32.983  1.00  0.00     0.049 A 
ATOM     51  H   UNL A   1      40.306  30.458  31.691  1.00  0.00     0.167 HD
ATOM     52  C   UNL A   1      42.568  27.917  29.119  1.00  0.00     0.037 A 
ATOM     53  C   UNL A   1      39.868  31.726  34.192  1.00  0.00     0.037 A 
ATOM     54  C   UNL A   1      43.424  28.099  30.264  1.00  0.00     0.049 A 
ATOM     55  C   UNL A   1      41.141  30.944  34.389  1.00  0.00     0.074 A 
ATOM     56  C   UNL A   1      44.755  27.744  30.414  1.00  0.00     0.029 A 
ATOM     57  N   UNL A   1      43.028  28.659  31.466  1.00  0.00    -0.354 N 
ATOM     58  N   UNL A   1      41.776  30.160  33.558  1.00  0.00    -0.248 NA
ATOM     59  C   UNL A   1      41.805  31.089  35.699  1.00  0.00     0.031 C 
ATOM     60  C   UNL A   1      45.138  28.006  31.733  1.00  0.00     0.029 A 
ATOM     61  C   UNL A   1      44.071  28.602  32.379  1.00  0.00     0.049 A 
ATOM     62  H   UNL A   1      42.138  29.041  31.646  1.00  0.00     0.167 HD
ATOM     63  C   UNL A   1      42.936  29.776  34.218  1.00  0.00     0.074 A 
ATOM     64  C   UNL A   1      42.879  30.331  35.550  1.00  0.00     0.031 C 
ATOM     65  C   UNL A   1      43.996  29.096  33.725  1.00  0.00     0.037 A 
BRANCH  52  66
ATOM     66  C   UNL A   1      43.131  27.146  27.952  1.00  0.00     0.064 A 
ATOM     67  C   UNL A   1      43.769  27.790  26.880  1.00  0.00     0.173 A 
ATOM     68  C   UNL A   1      43.072  25.744  27.928  1.00  0.00     0.173 A 
ATOM     69  F   UNL A   1      43.862  29.128  26.854  1.00  0.00    -0.203 F 
ATOM     70  C   UNL A   1      44.274  27.064  25.804  1.00  0.00     0.198 A 
ATOM     71  C   UNL A   1      43.614  25.019  26.870  1.00  0.00     0.198 A 
ATOM     72  F   UNL A   1      42.498  25.072  28.940  1.00  0.00    -0.203 F 
ATOM     73  F   UNL A   1      44.817  27.706  24.761  1.00  0.00    -0.200 F 
ATOM     74  C   UNL A   1      44.200  25.680  25.802  1.00  0.00     0.200 A 
ATOM     75  F   UNL A   1      43.564  23.680  26.882  1.00  0.00    -0.200 F 
ATOM     76  F   UNL A   1      44.687  24.983  24.767  1.00  0.00    -0.200 F 
ENDBRANCH  52  66
BRANCH  53  77
ATOM     77  C   UNL A   1      39.301  32.411  35.406  1.00  0.00     0.064 A 
ATOM     78  C   UNL A   1      38.499  31.766  36.349  1.00  0.00     0.173 A 
ATOM     79  C   UNL A   1      39.525  33.791  35.614  1.00  0.00     0.173 A 
ATOM     80  F   UNL A   1      38.114  30.498  36.145  1.00  0.00    -0.203 F 
ATOM     81  C   UNL A   1      38.050  32.433  37.498  1.00  0.00     0.198 A 
ATOM     82  C   UNL A   1      39.119  34.445  36.778  1.00  0.00     0.198 A 
ATOM     83  F   UNL A   1      40.182  34.518  34.692  1.00  0.00    -0.203 F 
ATOM     84  F   UNL A   1      37.264  31.795  38.376  1.00  0.00    -0.200 F 
ATOM     85  C   UNL A   1      38.398  33.757  37.732  1.00  0.00     0.200 A 
ATOM     86  F   UNL A   1      39.468  35.724  36.975  1.00  0.00    -0.200 F 
ATOM     87  F   UNL A   1      38.017  34.373  38.860  1.00  0.00    -0.200 F 
ENDBRANCH  53  77
BRANCH  65  88
ATOM     88  C   UNL A   1      45.209  28.993  34.602  1.00  0.00     0.064 A 
ATOM     89  C   UNL A   1      45.435  27.903  35.453  1.00  0.00     0.173 A 
ATOM     90  C   UNL A   1      46.156  30.031  34.598  1.00  0.00     0.173 A 
ATOM     91  F   UNL A   1      44.541  26.906  35.525  1.00  0.00    -0.203 F 
ATOM     92  C   UNL A   1      46.555  27.866  36.282  1.00  0.00     0.198 A 
ATOM     93  C   UNL A   1      47.288  29.975  35.402  1.00  0.00     0.198 A 
ATOM     94  F   UNL A   1      45.977  31.106  33.815  1.00  0.00    -0.203 F 
ATOM     95  F   UNL A   1      46.724  26.842  37.131  1.00  0.00    -0.200 F 
ATOM     96  C   UNL A   1      47.484  28.896  36.249  1.00  0.00     0.200 A 
ATOM     97  F   UNL A   1      48.185  30.971  35.365  1.00  0.00    -0.200 F 
ATOM     98  F   UNL A   1      48.561  28.856  37.045  1.00  0.00    -0.200 F 
ENDBRANCH  65  88
ENDBRANCH  39  40
ENDBRANCH  32  34
ENDBRANCH  31  32
ENDBRANCH  30  31
ENDBRANCH   1  30
TORSDOF 15
ENDMDL
MODEL 3
REMARK VINA RESULT:     -12.5      3.563      9.289
REMARK SMILES O=C(OCCOC(=O)c1ccc(-c2c3nc(c(-c4c(F)c(F)c(F)c(F)c4F)c4ccc([nH]4)c(-c4c(F)c(F)c(F)c(F)c4F)c4nc(c(-c5c(F)c(F)c(F)c(F)c5F)c5ccc2[nH]5)C=C4)C=C3)cc1)C1=NN(c2ccc(S(=O)(=O)[O-])cc2)C(=O)/C1=C/Nc1ccccc1
REMARK SMILES IDX 4 1 3 2 2 3 1 4 72 5 73 6 87 7 74 8 85 9 88 10 86 11 75 12
REMARK SMILES IDX 76 13 84 14 77 15 83 16 78 17 79 18 80 19 81 20 82 21 89 22
REMARK SMILES IDX 90 24 91 25 95 26 92 27 94 28 93 29 5 30 6 31 7 32 8 33 9 34
REMARK SMILES IDX 10 35 71 36 11 37 70 38 12 39 13 40 14 41 64 42 15 43 69 44
REMARK SMILES IDX 63 45 65 46 16 47 68 48 62 49 61 50 17 52 49 53 29 54 48 55
REMARK SMILES IDX 30 56 33 57 47 58 66 59 31 60 32 61 46 63 67 64 34 65 18 66
REMARK SMILES IDX 19 67 27 68 20 69 21 70 25 71 28 72 22 73 23 74 26 75 24 76
REMARK SMILES IDX 50 77 51 78 59 79 52 80 53 81 57 82 60 83 54 84 55 85 58 86
REMARK SMILES IDX 56 87 35 88 36 89 44 90 37 91 38 92 42 93 45 94 39 95 40 96
REMARK SMILES IDX 43 97 41 98
REMARK H PARENT 89 23 65 51 33 62
REMARK Flexibility Score: inf
ROOT
ATOM      1  C   UNL A   1      36.187  20.755  25.343  1.00  0.00     0.275 C 
ENDROOT
BRANCH   1   2
ATOM      2  O   UNL A   1      36.052  21.979  26.064  1.00  0.00    -0.457 OA
BRANCH   2   3
ATOM      3  C   UNL A   1      34.790  22.359  26.259  1.00  0.00     0.359 C 
ATOM      4  O   UNL A   1      34.297  22.506  27.370  1.00  0.00    -0.244 OA
BRANCH   3   5
ATOM      5  C   UNL A   1      34.016  22.771  25.025  1.00  0.00     0.183 C 
ATOM      6  N   UNL A   1      33.912  24.062  24.880  1.00  0.00    -0.157 NA
ATOM      7  C   UNL A   1      33.302  22.022  23.931  1.00  0.00     0.093 C 
ATOM      8  N   UNL A   1      33.129  24.250  23.795  1.00  0.00    -0.196 N 
ATOM      9  C   UNL A   1      32.853  23.121  23.038  1.00  0.00     0.282 C 
ATOM     10  C   UNL A   1      32.702  20.864  23.586  1.00  0.00     0.099 C 
ATOM     11  O   UNL A   1      32.255  23.008  21.982  1.00  0.00    -0.267 OA
BRANCH   8  12
ATOM     12  C   UNL A   1      32.444  25.454  23.740  1.00  0.00     0.069 A 
ATOM     13  C   UNL A   1      32.971  26.516  22.996  1.00  0.00     0.030 A 
ATOM     14  C   UNL A   1      31.258  25.592  24.467  1.00  0.00     0.030 A 
ATOM     15  C   UNL A   1      32.190  27.629  22.782  1.00  0.00     0.021 A 
ATOM     16  C   UNL A   1      30.495  26.718  24.298  1.00  0.00     0.021 A 
ATOM     17  C   UNL A   1      30.925  27.659  23.369  1.00  0.00     0.054 A 
BRANCH  17  18
ATOM     18  S   UNL A   1      29.802  28.901  22.908  1.00  0.00     0.124 S 
ATOM     19  O   UNL A   1      30.229  29.405  21.626  1.00  0.00    -0.237 OA
ATOM     20  O   UNL A   1      28.461  28.401  23.124  1.00  0.00    -0.237 OA
ATOM     21  O   UNL A   1      30.043  30.037  24.024  1.00  0.00    -0.744 OA
ENDBRANCH  17  18
ENDBRANCH   8  12
BRANCH  10  22
ATOM     22  N   UNL A   1      32.286  19.804  24.345  1.00  0.00    -0.361 N 
ATOM     23  H   UNL A   1      31.444  19.969  24.829  1.00  0.00     0.166 HD
BRANCH  22  24
ATOM     24  C   UNL A   1      32.827  18.530  24.565  1.00  0.00     0.038 A 
ATOM     25  C   UNL A   1      33.543  17.927  23.512  1.00  0.00     0.026 A 
ATOM     26  C   UNL A   1      32.611  17.794  25.727  1.00  0.00     0.026 A 
ATOM     27  C   UNL A   1      33.923  16.588  23.570  1.00  0.00     0.002 A 
ATOM     28  C   UNL A   1      32.995  16.449  25.788  1.00  0.00     0.002 A 
ATOM     29  C   UNL A   1      33.625  15.841  24.702  1.00  0.00     0.000 A 
ENDBRANCH  22  24
ENDBRANCH  10  22
ENDBRANCH   3   5
ENDBRANCH   2   3
ENDBRANCH   1   2
BRANCH   1  30
ATOM     30  C   UNL A   1      37.659  20.409  24.985  1.00  0.00     0.275 C 
BRANCH  30  31
ATOM     31  O   UNL A   1      38.543  21.542  25.317  1.00  0.00    -0.458 OA
BRANCH  31  32
ATOM     32  C   UNL A   1      39.579  21.423  26.187  1.00  0.00     0.338 C 
ATOM     33  O   UNL A   1      40.186  20.394  26.408  1.00  0.00    -0.246 OA
BRANCH  32  34
ATOM     34  C   UNL A   1      39.880  22.761  26.828  1.00  0.00     0.060 A 
ATOM     35  C   UNL A   1      39.109  23.876  26.477  1.00  0.00     0.016 A 
ATOM     36  C   UNL A   1      40.950  22.968  27.707  1.00  0.00     0.016 A 
ATOM     37  C   UNL A   1      39.436  25.183  26.936  1.00  0.00     0.010 A 
ATOM     38  C   UNL A   1      41.249  24.272  28.192  1.00  0.00     0.010 A 
ATOM     39  C   UNL A   1      40.535  25.423  27.776  1.00  0.00    -0.014 A 
BRANCH  39  40
ATOM     40  C   UNL A   1      41.065  26.830  28.082  1.00  0.00     0.031 A 
ATOM     41  C   UNL A   1      42.564  27.091  27.930  1.00  0.00     0.074 A 
ATOM     42  C   UNL A   1      40.310  27.902  28.445  1.00  0.00     0.049 A 
ATOM     43  N   UNL A   1      43.271  28.159  28.227  1.00  0.00    -0.248 NA
ATOM     44  C   UNL A   1      43.365  26.004  27.346  1.00  0.00     0.031 C 
ATOM     45  C   UNL A   1      38.853  27.945  28.515  1.00  0.00     0.029 A 
ATOM     46  N   UNL A   1      40.678  29.182  28.859  1.00  0.00    -0.354 N 
ATOM     47  C   UNL A   1      44.578  27.882  27.834  1.00  0.00     0.074 A 
ATOM     48  C   UNL A   1      44.589  26.508  27.380  1.00  0.00     0.031 C 
ATOM     49  C   UNL A   1      38.460  29.139  29.007  1.00  0.00     0.029 A 
ATOM     50  C   UNL A   1      39.627  29.960  29.328  1.00  0.00     0.049 A 
ATOM     51  H   UNL A   1      41.606  29.507  28.822  1.00  0.00     0.167 HD
ATOM     52  C   UNL A   1      45.664  28.696  27.790  1.00  0.00     0.037 A 
ATOM     53  C   UNL A   1      39.607  31.152  29.984  1.00  0.00     0.037 A 
ATOM     54  C   UNL A   1      45.685  30.071  28.219  1.00  0.00     0.049 A 
ATOM     55  C   UNL A   1      40.887  31.922  30.187  1.00  0.00     0.074 A 
ATOM     56  C   UNL A   1      46.711  30.996  28.109  1.00  0.00     0.029 A 
ATOM     57  N   UNL A   1      44.646  30.712  28.870  1.00  0.00    -0.354 N 
ATOM     58  N   UNL A   1      42.113  31.604  29.863  1.00  0.00    -0.248 NA
ATOM     59  C   UNL A   1      40.762  33.248  30.821  1.00  0.00     0.031 C 
ATOM     60  C   UNL A   1      46.327  32.167  28.770  1.00  0.00     0.029 A 
ATOM     61  C   UNL A   1      45.030  31.999  29.218  1.00  0.00     0.049 A 
ATOM     62  H   UNL A   1      43.764  30.315  29.056  1.00  0.00     0.167 HD
ATOM     63  C   UNL A   1      42.886  32.709  30.192  1.00  0.00     0.074 A 
ATOM     64  C   UNL A   1      42.016  33.671  30.827  1.00  0.00     0.031 C 
ATOM     65  C   UNL A   1      44.189  32.937  29.907  1.00  0.00     0.037 A 
BRANCH  52  66
ATOM     66  C   UNL A   1      46.946  28.124  27.240  1.00  0.00     0.064 A 
ATOM     67  C   UNL A   1      47.250  28.176  25.870  1.00  0.00     0.173 A 
ATOM     68  C   UNL A   1      47.902  27.560  28.099  1.00  0.00     0.173 A 
ATOM     69  F   UNL A   1      46.378  28.713  25.004  1.00  0.00    -0.203 F 
ATOM     70  C   UNL A   1      48.434  27.634  25.376  1.00  0.00     0.198 A 
ATOM     71  C   UNL A   1      49.103  27.055  27.606  1.00  0.00     0.198 A 
ATOM     72  F   UNL A   1      47.678  27.508  29.421  1.00  0.00    -0.203 F 
ATOM     73  F   UNL A   1      48.670  27.635  24.057  1.00  0.00    -0.200 F 
ATOM     74  C   UNL A   1      49.361  27.078  26.245  1.00  0.00     0.200 A 
ATOM     75  F   UNL A   1      50.008  26.540  28.450  1.00  0.00    -0.200 F 
ATOM     76  F   UNL A   1      50.500  26.558  25.768  1.00  0.00    -0.200 F 
ENDBRANCH  52  66
BRANCH  53  77
ATOM     77  C   UNL A   1      38.369  31.721  30.622  1.00  0.00     0.064 A 
ATOM     78  C   UNL A   1      37.966  31.419  31.925  1.00  0.00     0.173 A 
ATOM     79  C   UNL A   1      37.512  32.569  29.883  1.00  0.00     0.173 A 
ATOM     80  F   UNL A   1      38.640  30.506  32.639  1.00  0.00    -0.203 F 
ATOM     81  C   UNL A   1      36.839  32.028  32.495  1.00  0.00     0.198 A 
ATOM     82  C   UNL A   1      36.417  33.210  30.462  1.00  0.00     0.198 A 
ATOM     83  F   UNL A   1      37.756  32.812  28.583  1.00  0.00    -0.203 F 
ATOM     84  F   UNL A   1      36.464  31.703  33.740  1.00  0.00    -0.200 F 
ATOM     85  C   UNL A   1      36.093  32.955  31.778  1.00  0.00     0.200 A 
ATOM     86  F   UNL A   1      35.714  34.099  29.745  1.00  0.00    -0.200 F 
ATOM     87  F   UNL A   1      35.052  33.578  32.347  1.00  0.00    -0.200 F 
ENDBRANCH  53  77
BRANCH  65  88
ATOM     88  C   UNL A   1      44.722  34.308  30.202  1.00  0.00     0.064 A 
ATOM     89  C   UNL A   1      44.606  35.373  29.297  1.00  0.00     0.173 A 
ATOM     90  C   UNL A   1      45.384  34.547  31.417  1.00  0.00     0.173 A 
ATOM     91  F   UNL A   1      44.020  35.185  28.106  1.00  0.00    -0.203 F 
ATOM     92  C   UNL A   1      45.151  36.621  29.593  1.00  0.00     0.198 A 
ATOM     93  C   UNL A   1      45.897  35.802  31.722  1.00  0.00     0.198 A 
ATOM     94  F   UNL A   1      45.538  33.556  32.309  1.00  0.00    -0.203 F 
ATOM     95  F   UNL A   1      45.081  37.611  28.691  1.00  0.00    -0.200 F 
ATOM     96  C   UNL A   1      45.787  36.837  30.807  1.00  0.00     0.200 A 
ATOM     97  F   UNL A   1      46.509  36.007  32.897  1.00  0.00    -0.200 F 
ATOM     98  F   UNL A   1      46.308  38.039  31.089  1.00  0.00    -0.200 F 
ENDBRANCH  65  88
ENDBRANCH  39  40
ENDBRANCH  32  34
ENDBRANCH  31  32
ENDBRANCH  30  31
ENDBRANCH   1  30
TORSDOF 15
ENDMDL
