MODEL 1
REMARK VINA RESULT:     -12.8      0.000      0.000
REMARK SMILES C[C@@H](C(=O)OCCOC(=O)c1ccc(-c2c3nc(c(-c4c(F)c(F)c(F)c(F)c4F)c4ccc([nH]4)c(-c4c(F)c(F)c(F)c(F)c4F)c4nc(c(-c5c(F)c(F)c(F)c(F)c5F)c5ccc2[nH]5)C=C4)C=C3)cc1)c1ccc2c(c1)[nH]c1ccc(Cl)cc12
REMARK SMILES IDX 7 1 6 2 5 3 3 4 4 5 2 6 1 7 74 8 75 9 79 10 76 11 78 12
REMARK SMILES IDX 77 13 80 14 87 15 81 16 86 18 82 19 84 20 83 21 85 22 8 23
REMARK SMILES IDX 9 24 10 25 11 26 12 27 73 28 13 29 72 30 14 31 15 32 16 33
REMARK SMILES IDX 66 34 17 35 71 36 65 37 67 38 18 39 70 40 64 41 63 42 19 44
REMARK SMILES IDX 51 45 31 46 50 47 32 48 35 49 49 50 68 51 33 52 34 53 48 55
REMARK SMILES IDX 69 56 36 57 20 58 21 59 29 60 22 61 23 62 27 63 30 64 24 65
REMARK SMILES IDX 25 66 28 67 26 68 52 69 53 70 61 71 54 72 55 73 59 74 62 75
REMARK SMILES IDX 56 76 57 77 60 78 58 79 37 80 38 81 46 82 39 83 40 84 44 85
REMARK SMILES IDX 47 86 41 87 42 88 45 89 43 90
REMARK H PARENT 80 17 67 43 35 54
REMARK Flexibility Score: inf
ROOT
ATOM      1  C   UNL A   1      34.318  33.440  32.842  1.00  0.00     0.275 C 
ENDROOT
BRANCH   1   2
ATOM      2  C   UNL A   1      34.388  34.523  31.770  1.00  0.00     0.274 C 
BRANCH   2   3
ATOM      3  O   UNL A   1      33.085  34.736  31.189  1.00  0.00    -0.462 OA
BRANCH   3   4
ATOM      4  C   UNL A   1      33.044  35.423  30.014  1.00  0.00     0.313 C 
ATOM      5  O   UNL A   1      32.270  36.345  29.784  1.00  0.00    -0.252 OA
BRANCH   4   6
ATOM      6  C   UNL A   1      34.047  34.885  28.984  1.00  0.00     0.126 C 
ATOM      7  C   UNL A   1      34.492  35.924  27.950  1.00  0.00     0.025 C 
BRANCH   6   8
ATOM      8  C   UNL A   1      33.544  33.588  28.351  1.00  0.00    -0.032 A 
ATOM      9  C   UNL A   1      32.367  33.623  27.585  1.00  0.00     0.005 A 
ATOM     10  C   UNL A   1      34.256  32.380  28.463  1.00  0.00     0.031 A 
ATOM     11  C   UNL A   1      31.892  32.487  26.915  1.00  0.00     0.011 A 
ATOM     12  C   UNL A   1      33.760  31.251  27.793  1.00  0.00     0.047 A 
ATOM     13  C   UNL A   1      32.608  31.279  27.011  1.00  0.00     0.007 A 
ATOM     14  N   UNL A   1      34.260  29.971  27.725  1.00  0.00    -0.355 N 
ATOM     15  C   UNL A   1      32.454  29.985  26.420  1.00  0.00     0.009 A 
ATOM     16  C   UNL A   1      33.484  29.181  26.908  1.00  0.00     0.047 A 
ATOM     17  H   UNL A   1      35.066  29.661  28.198  1.00  0.00     0.167 HD
ATOM     18  C   UNL A   1      31.542  29.430  25.499  1.00  0.00     0.031 A 
ATOM     19  C   UNL A   1      33.622  27.834  26.560  1.00  0.00     0.028 A 
ATOM     20  C   UNL A   1      31.692  28.095  25.113  1.00  0.00     0.041 A 
ATOM     21  C   UNL A   1      32.704  27.305  25.646  1.00  0.00     0.022 A 
ATOM     22  Cl  UNL A   1      30.606  27.419  23.960  1.00  0.00    -0.084 Cl
ENDBRANCH   6   8
ENDBRANCH   4   6
ENDBRANCH   3   4
ENDBRANCH   2   3
ENDBRANCH   1   2
BRANCH   1  23
ATOM     23  O   UNL A   1      35.123  32.317  32.443  1.00  0.00    -0.458 OA
BRANCH  23  24
ATOM     24  C   UNL A   1      36.229  32.084  33.179  1.00  0.00     0.338 C 
ATOM     25  O   UNL A   1      36.435  32.397  34.344  1.00  0.00    -0.246 OA
BRANCH  24  26
ATOM     26  C   UNL A   1      37.221  31.364  32.367  1.00  0.00     0.060 A 
ATOM     27  C   UNL A   1      38.235  30.651  32.997  1.00  0.00     0.016 A 
ATOM     28  C   UNL A   1      37.226  31.510  30.978  1.00  0.00     0.016 A 
ATOM     29  C   UNL A   1      39.311  30.181  32.248  1.00  0.00     0.010 A 
ATOM     30  C   UNL A   1      38.265  30.953  30.221  1.00  0.00     0.010 A 
ATOM     31  C   UNL A   1      39.355  30.332  30.851  1.00  0.00    -0.014 A 
BRANCH  31  32
ATOM     32  C   UNL A   1      40.572  29.895  30.098  1.00  0.00     0.031 A 
ATOM     33  C   UNL A   1      40.675  28.499  29.527  1.00  0.00     0.074 A 
ATOM     34  C   UNL A   1      41.558  30.778  29.837  1.00  0.00     0.049 A 
ATOM     35  N   UNL A   1      41.649  27.955  28.835  1.00  0.00    -0.248 NA
ATOM     36  C   UNL A   1      39.540  27.590  29.758  1.00  0.00     0.031 C 
ATOM     37  C   UNL A   1      41.593  32.165  30.301  1.00  0.00     0.029 A 
ATOM     38  N   UNL A   1      42.707  30.652  29.092  1.00  0.00    -0.354 N 
ATOM     39  C   UNL A   1      41.228  26.669  28.522  1.00  0.00     0.074 A 
ATOM     40  C   UNL A   1      39.950  26.474  29.171  1.00  0.00     0.031 C 
ATOM     41  C   UNL A   1      42.666  32.778  29.782  1.00  0.00     0.029 A 
ATOM     42  C   UNL A   1      43.441  31.811  29.012  1.00  0.00     0.049 A 
ATOM     43  H   UNL A   1      42.978  29.812  28.656  1.00  0.00     0.167 HD
ATOM     44  C   UNL A   1      41.815  25.752  27.715  1.00  0.00     0.037 A 
ATOM     45  C   UNL A   1      44.618  32.071  28.410  1.00  0.00     0.037 A 
ATOM     46  C   UNL A   1      43.071  25.933  27.039  1.00  0.00     0.049 A 
ATOM     47  C   UNL A   1      45.337  30.972  27.682  1.00  0.00     0.074 A 
ATOM     48  C   UNL A   1      43.732  25.054  26.197  1.00  0.00     0.029 A 
ATOM     49  N   UNL A   1      43.856  27.072  27.122  1.00  0.00    -0.354 N 
ATOM     50  N   UNL A   1      44.942  29.749  27.434  1.00  0.00    -0.248 NA
ATOM     51  C   UNL A   1      46.684  31.283  27.180  1.00  0.00     0.031 C 
ATOM     52  C   UNL A   1      44.936  25.646  25.800  1.00  0.00     0.029 A 
ATOM     53  C   UNL A   1      45.013  26.903  26.375  1.00  0.00     0.049 A 
ATOM     54  H   UNL A   1      43.627  27.881  27.635  1.00  0.00     0.167 HD
ATOM     55  C   UNL A   1      45.982  29.147  26.742  1.00  0.00     0.074 A 
ATOM     56  C   UNL A   1      47.025  30.141  26.597  1.00  0.00     0.031 C 
ATOM     57  C   UNL A   1      46.061  27.880  26.268  1.00  0.00     0.037 A 
BRANCH  44  58
ATOM     58  C   UNL A   1      41.078  24.470  27.471  1.00  0.00     0.064 A 
ATOM     59  C   UNL A   1      39.965  24.432  26.617  1.00  0.00     0.173 A 
ATOM     60  C   UNL A   1      41.521  23.264  28.027  1.00  0.00     0.173 A 
ATOM     61  F   UNL A   1      39.500  25.561  26.063  1.00  0.00    -0.203 F 
ATOM     62  C   UNL A   1      39.316  23.233  26.337  1.00  0.00     0.198 A 
ATOM     63  C   UNL A   1      40.879  22.062  27.732  1.00  0.00     0.198 A 
ATOM     64  F   UNL A   1      42.585  23.247  28.844  1.00  0.00    -0.203 F 
ATOM     65  F   UNL A   1      38.241  23.227  25.536  1.00  0.00    -0.200 F 
ATOM     66  C   UNL A   1      39.778  22.049  26.889  1.00  0.00     0.200 A 
ATOM     67  F   UNL A   1      41.330  20.916  28.259  1.00  0.00    -0.200 F 
ATOM     68  F   UNL A   1      39.158  20.893  26.610  1.00  0.00    -0.200 F 
ENDBRANCH  44  58
BRANCH  45  69
ATOM     69  C   UNL A   1      45.215  33.427  28.515  1.00  0.00     0.064 A 
ATOM     70  C   UNL A   1      46.060  33.767  29.580  1.00  0.00     0.173 A 
ATOM     71  C   UNL A   1      44.955  34.410  27.547  1.00  0.00     0.173 A 
ATOM     72  F   UNL A   1      46.313  32.873  30.546  1.00  0.00    -0.203 F 
ATOM     73  C   UNL A   1      46.625  35.038  29.671  1.00  0.00     0.198 A 
ATOM     74  C   UNL A   1      45.542  35.670  27.624  1.00  0.00     0.198 A 
ATOM     75  F   UNL A   1      44.143  34.137  26.515  1.00  0.00    -0.203 F 
ATOM     76  F   UNL A   1      47.403  35.350  30.715  1.00  0.00    -0.200 F 
ATOM     77  C   UNL A   1      46.374  35.984  28.687  1.00  0.00     0.200 A 
ATOM     78  F   UNL A   1      45.304  36.576  26.667  1.00  0.00    -0.200 F 
ATOM     79  F   UNL A   1      46.926  37.202  28.770  1.00  0.00    -0.200 F 
ENDBRANCH  45  69
BRANCH  57  80
ATOM     80  C   UNL A   1      47.329  27.490  25.572  1.00  0.00     0.064 A 
ATOM     81  C   UNL A   1      48.395  26.916  26.281  1.00  0.00     0.173 A 
ATOM     82  C   UNL A   1      47.478  27.669  24.190  1.00  0.00     0.173 A 
ATOM     83  F   UNL A   1      48.306  26.741  27.608  1.00  0.00    -0.203 F 
ATOM     84  C   UNL A   1      49.571  26.551  25.631  1.00  0.00     0.198 A 
ATOM     85  C   UNL A   1      48.647  27.285  23.541  1.00  0.00     0.198 A 
ATOM     86  F   UNL A   1      46.486  28.211  23.468  1.00  0.00    -0.203 F 
ATOM     87  F   UNL A   1      50.592  26.038  26.333  1.00  0.00    -0.200 F 
ATOM     88  C   UNL A   1      49.695  26.731  24.262  1.00  0.00     0.200 A 
ATOM     89  F   UNL A   1      48.764  27.452  22.215  1.00  0.00    -0.200 F 
ATOM     90  F   UNL A   1      50.828  26.379  23.638  1.00  0.00    -0.200 F 
ENDBRANCH  57  80
ENDBRANCH  31  32
ENDBRANCH  24  26
ENDBRANCH  23  24
ENDBRANCH   1  23
TORSDOF 12
ENDMDL
MODEL 2
REMARK VINA RESULT:     -12.7      6.016     11.500
REMARK SMILES C[C@@H](C(=O)OCCOC(=O)c1ccc(-c2c3nc(c(-c4c(F)c(F)c(F)c(F)c4F)c4ccc([nH]4)c(-c4c(F)c(F)c(F)c(F)c4F)c4nc(c(-c5c(F)c(F)c(F)c(F)c5F)c5ccc2[nH]5)C=C4)C=C3)cc1)c1ccc2c(c1)[nH]c1ccc(Cl)cc12
REMARK SMILES IDX 7 1 6 2 5 3 3 4 4 5 2 6 1 7 74 8 75 9 79 10 76 11 78 12
REMARK SMILES IDX 77 13 80 14 87 15 81 16 86 18 82 19 84 20 83 21 85 22 8 23
REMARK SMILES IDX 9 24 10 25 11 26 12 27 73 28 13 29 72 30 14 31 15 32 16 33
REMARK SMILES IDX 66 34 17 35 71 36 65 37 67 38 18 39 70 40 64 41 63 42 19 44
REMARK SMILES IDX 51 45 31 46 50 47 32 48 35 49 49 50 68 51 33 52 34 53 48 55
REMARK SMILES IDX 69 56 36 57 20 58 21 59 29 60 22 61 23 62 27 63 30 64 24 65
REMARK SMILES IDX 25 66 28 67 26 68 52 69 53 70 61 71 54 72 55 73 59 74 62 75
REMARK SMILES IDX 56 76 57 77 60 78 58 79 37 80 38 81 46 82 39 83 40 84 44 85
REMARK SMILES IDX 47 86 41 87 42 88 45 89 43 90
REMARK H PARENT 80 17 67 43 35 54
REMARK Flexibility Score: inf
ROOT
ATOM      1  C   UNL A   1      44.230  22.487  24.465  1.00  0.00     0.275 C 
ENDROOT
BRANCH   1   2
ATOM      2  C   UNL A   1      43.844  21.549  25.603  1.00  0.00     0.274 C 
BRANCH   2   3
ATOM      3  O   UNL A   1      42.669  20.790  25.249  1.00  0.00    -0.462 OA
BRANCH   3   4
ATOM      4  C   UNL A   1      41.728  20.630  26.220  1.00  0.00     0.313 C 
ATOM      5  O   UNL A   1      41.220  19.554  26.514  1.00  0.00    -0.252 OA
BRANCH   4   6
ATOM      6  C   UNL A   1      41.335  21.959  26.880  1.00  0.00     0.126 C 
ATOM      7  C   UNL A   1      41.603  22.006  28.387  1.00  0.00     0.025 C 
BRANCH   6   8
ATOM      8  C   UNL A   1      39.903  22.352  26.515  1.00  0.00    -0.032 A 
ATOM      9  C   UNL A   1      39.442  23.630  26.871  1.00  0.00     0.005 A 
ATOM     10  C   UNL A   1      39.060  21.495  25.783  1.00  0.00     0.031 A 
ATOM     11  C   UNL A   1      38.168  24.081  26.500  1.00  0.00     0.011 A 
ATOM     12  C   UNL A   1      37.784  21.961  25.430  1.00  0.00     0.047 A 
ATOM     13  C   UNL A   1      37.325  23.235  25.756  1.00  0.00     0.007 A 
ATOM     14  N   UNL A   1      36.782  21.344  24.717  1.00  0.00    -0.355 N 
ATOM     15  C   UNL A   1      36.030  23.392  25.167  1.00  0.00     0.009 A 
ATOM     16  C   UNL A   1      35.706  22.184  24.551  1.00  0.00     0.047 A 
ATOM     17  H   UNL A   1      36.830  20.423  24.371  1.00  0.00     0.167 HD
ATOM     18  C   UNL A   1      35.112  24.459  25.089  1.00  0.00     0.031 A 
ATOM     19  C   UNL A   1      34.487  21.971  23.898  1.00  0.00     0.028 A 
ATOM     20  C   UNL A   1      33.906  24.271  24.406  1.00  0.00     0.041 A 
ATOM     21  C   UNL A   1      33.592  23.044  23.835  1.00  0.00     0.022 A 
ATOM     22  Cl  UNL A   1      32.796  25.580  24.271  1.00  0.00    -0.084 Cl
ENDBRANCH   6   8
ENDBRANCH   4   6
ENDBRANCH   3   4
ENDBRANCH   2   3
ENDBRANCH   1   2
BRANCH   1  23
ATOM     23  O   UNL A   1      43.558  23.748  24.634  1.00  0.00    -0.458 OA
BRANCH  23  24
ATOM     24  C   UNL A   1      44.329  24.791  25.002  1.00  0.00     0.338 C 
ATOM     25  O   UNL A   1      45.475  25.037  24.650  1.00  0.00    -0.246 OA
BRANCH  24  26
ATOM     26  C   UNL A   1      43.586  25.652  25.932  1.00  0.00     0.060 A 
ATOM     27  C   UNL A   1      44.057  26.930  26.210  1.00  0.00     0.016 A 
ATOM     28  C   UNL A   1      42.494  25.140  26.637  1.00  0.00     0.016 A 
ATOM     29  C   UNL A   1      43.507  27.651  27.267  1.00  0.00     0.010 A 
ATOM     30  C   UNL A   1      41.885  25.910  27.638  1.00  0.00     0.010 A 
ATOM     31  C   UNL A   1      42.423  27.153  28.009  1.00  0.00    -0.014 A 
BRANCH  31  32
ATOM     32  C   UNL A   1      41.923  27.919  29.195  1.00  0.00     0.031 A 
ATOM     33  C   UNL A   1      40.685  28.779  29.100  1.00  0.00     0.074 A 
ATOM     34  C   UNL A   1      42.524  27.773  30.393  1.00  0.00     0.049 A 
ATOM     35  N   UNL A   1      40.102  29.499  30.031  1.00  0.00    -0.248 NA
ATOM     36  C   UNL A   1      40.006  28.845  27.796  1.00  0.00     0.031 C 
ATOM     37  C   UNL A   1      43.715  26.961  30.648  1.00  0.00     0.029 A 
ATOM     38  N   UNL A   1      42.200  28.277  31.632  1.00  0.00    -0.354 N 
ATOM     39  C   UNL A   1      38.981  30.063  29.435  1.00  0.00     0.074 A 
ATOM     40  C   UNL A   1      39.006  29.681  28.041  1.00  0.00     0.031 C 
ATOM     41  C   UNL A   1      43.983  26.968  31.961  1.00  0.00     0.029 A 
ATOM     42  C   UNL A   1      43.034  27.847  32.636  1.00  0.00     0.049 A 
ATOM     43  H   UNL A   1      41.442  28.885  31.784  1.00  0.00     0.167 HD
ATOM     44  C   UNL A   1      37.983  30.782  30.006  1.00  0.00     0.037 A 
ATOM     45  C   UNL A   1      43.056  28.141  33.951  1.00  0.00     0.037 A 
ATOM     46  C   UNL A   1      37.924  31.152  31.394  1.00  0.00     0.049 A 
ATOM     47  C   UNL A   1      42.045  29.097  34.514  1.00  0.00     0.074 A 
ATOM     48  C   UNL A   1      36.943  31.875  32.053  1.00  0.00     0.029 A 
ATOM     49  N   UNL A   1      38.882  30.828  32.340  1.00  0.00    -0.354 N 
ATOM     50  N   UNL A   1      41.018  29.655  33.925  1.00  0.00    -0.248 NA
ATOM     51  C   UNL A   1      42.219  29.491  35.920  1.00  0.00     0.031 C 
ATOM     52  C   UNL A   1      37.326  32.019  33.390  1.00  0.00     0.029 A 
ATOM     53  C   UNL A   1      38.532  31.366  33.570  1.00  0.00     0.049 A 
ATOM     54  H   UNL A   1      39.691  30.294  32.166  1.00  0.00     0.167 HD
ATOM     55  C   UNL A   1      40.417  30.455  34.885  1.00  0.00     0.074 A 
ATOM     56  C   UNL A   1      41.187  30.306  36.102  1.00  0.00     0.031 C 
ATOM     57  C   UNL A   1      39.323  31.245  34.764  1.00  0.00     0.037 A 
BRANCH  44  58
ATOM     58  C   UNL A   1      36.831  31.180  29.134  1.00  0.00     0.064 A 
ATOM     59  C   UNL A   1      35.857  30.243  28.756  1.00  0.00     0.173 A 
ATOM     60  C   UNL A   1      36.652  32.511  28.735  1.00  0.00     0.173 A 
ATOM     61  F   UNL A   1      35.985  28.957  29.111  1.00  0.00    -0.203 F 
ATOM     62  C   UNL A   1      34.751  30.622  28.001  1.00  0.00     0.198 A 
ATOM     63  C   UNL A   1      35.536  32.891  27.992  1.00  0.00     0.198 A 
ATOM     64  F   UNL A   1      37.551  33.446  29.078  1.00  0.00    -0.203 F 
ATOM     65  F   UNL A   1      33.848  29.703  27.634  1.00  0.00    -0.200 F 
ATOM     66  C   UNL A   1      34.588  31.946  27.626  1.00  0.00     0.200 A 
ATOM     67  F   UNL A   1      35.373  34.172  27.636  1.00  0.00    -0.200 F 
ATOM     68  F   UNL A   1      33.518  32.311  26.906  1.00  0.00    -0.200 F 
ENDBRANCH  44  58
BRANCH  45  69
ATOM     69  C   UNL A   1      44.110  27.556  34.818  1.00  0.00     0.064 A 
ATOM     70  C   UNL A   1      43.918  26.327  35.465  1.00  0.00     0.173 A 
ATOM     71  C   UNL A   1      45.335  28.213  35.014  1.00  0.00     0.173 A 
ATOM     72  F   UNL A   1      42.753  25.677  35.335  1.00  0.00    -0.203 F 
ATOM     73  C   UNL A   1      44.912  25.778  36.272  1.00  0.00     0.198 A 
ATOM     74  C   UNL A   1      46.337  27.650  35.798  1.00  0.00     0.198 A 
ATOM     75  F   UNL A   1      45.562  29.398  34.427  1.00  0.00    -0.203 F 
ATOM     76  F   UNL A   1      44.693  24.618  36.906  1.00  0.00    -0.200 F 
ATOM     77  C   UNL A   1      46.124  26.434  36.429  1.00  0.00     0.200 A 
ATOM     78  F   UNL A   1      47.510  28.283  35.939  1.00  0.00    -0.200 F 
ATOM     79  F   UNL A   1      47.084  25.900  37.196  1.00  0.00    -0.200 F 
ENDBRANCH  45  69
BRANCH  57  80
ATOM     80  C   UNL A   1      38.909  32.027  35.973  1.00  0.00     0.064 A 
ATOM     81  C   UNL A   1      38.152  31.433  36.994  1.00  0.00     0.173 A 
ATOM     82  C   UNL A   1      39.284  33.369  36.127  1.00  0.00     0.173 A 
ATOM     83  F   UNL A   1      37.755  30.157  36.884  1.00  0.00    -0.203 F 
ATOM     84  C   UNL A   1      37.772  32.162  38.118  1.00  0.00     0.198 A 
ATOM     85  C   UNL A   1      38.920  34.088  37.261  1.00  0.00     0.198 A 
ATOM     86  F   UNL A   1      40.012  33.981  35.180  1.00  0.00    -0.203 F 
ATOM     87  F   UNL A   1      37.017  31.586  39.065  1.00  0.00    -0.200 F 
ATOM     88  C   UNL A   1      38.160  33.486  38.253  1.00  0.00     0.200 A 
ATOM     89  F   UNL A   1      39.301  35.367  37.395  1.00  0.00    -0.200 F 
ATOM     90  F   UNL A   1      37.793  34.186  39.336  1.00  0.00    -0.200 F 
ENDBRANCH  57  80
ENDBRANCH  31  32
ENDBRANCH  24  26
ENDBRANCH  23  24
ENDBRANCH   1  23
TORSDOF 12
ENDMDL
MODEL 3
REMARK VINA RESULT:     -12.5      4.932      9.264
REMARK SMILES C[C@@H](C(=O)OCCOC(=O)c1ccc(-c2c3nc(c(-c4c(F)c(F)c(F)c(F)c4F)c4ccc([nH]4)c(-c4c(F)c(F)c(F)c(F)c4F)c4nc(c(-c5c(F)c(F)c(F)c(F)c5F)c5ccc2[nH]5)C=C4)C=C3)cc1)c1ccc2c(c1)[nH]c1ccc(Cl)cc12
REMARK SMILES IDX 7 1 6 2 5 3 3 4 4 5 2 6 1 7 74 8 75 9 79 10 76 11 78 12
REMARK SMILES IDX 77 13 80 14 87 15 81 16 86 18 82 19 84 20 83 21 85 22 8 23
REMARK SMILES IDX 9 24 10 25 11 26 12 27 73 28 13 29 72 30 14 31 15 32 16 33
REMARK SMILES IDX 66 34 17 35 71 36 65 37 67 38 18 39 70 40 64 41 63 42 19 44
REMARK SMILES IDX 51 45 31 46 50 47 32 48 35 49 49 50 68 51 33 52 34 53 48 55
REMARK SMILES IDX 69 56 36 57 20 58 21 59 29 60 22 61 23 62 27 63 30 64 24 65
REMARK SMILES IDX 25 66 28 67 26 68 52 69 53 70 61 71 54 72 55 73 59 74 62 75
REMARK SMILES IDX 56 76 57 77 60 78 58 79 37 80 38 81 46 82 39 83 40 84 44 85
REMARK SMILES IDX 47 86 41 87 42 88 45 89 43 90
REMARK H PARENT 80 17 67 43 35 54
REMARK Flexibility Score: inf
ROOT
ATOM      1  C   UNL A   1      31.304  31.955  26.506  1.00  0.00     0.275 C 
ENDROOT
BRANCH   1   2
ATOM      2  C   UNL A   1      31.012  30.927  25.417  1.00  0.00     0.274 C 
BRANCH   2   3
ATOM      3  O   UNL A   1      31.902  29.799  25.542  1.00  0.00    -0.462 OA
BRANCH   3   4
ATOM      4  C   UNL A   1      31.417  28.590  25.146  1.00  0.00     0.313 C 
ATOM      5  O   UNL A   1      31.006  28.351  24.016  1.00  0.00    -0.252 OA
BRANCH   4   6
ATOM      6  C   UNL A   1      31.395  27.565  26.288  1.00  0.00     0.126 C 
ATOM      7  C   UNL A   1      31.762  28.150  27.655  1.00  0.00     0.025 C 
BRANCH   6   8
ATOM      8  C   UNL A   1      32.215  26.324  25.929  1.00  0.00    -0.032 A 
ATOM      9  C   UNL A   1      33.606  26.454  25.782  1.00  0.00     0.005 A 
ATOM     10  C   UNL A   1      31.625  25.054  25.802  1.00  0.00     0.031 A 
ATOM     11  C   UNL A   1      34.424  25.344  25.529  1.00  0.00     0.011 A 
ATOM     12  C   UNL A   1      32.459  23.956  25.538  1.00  0.00     0.047 A 
ATOM     13  C   UNL A   1      33.842  24.069  25.416  1.00  0.00     0.007 A 
ATOM     14  N   UNL A   1      32.149  22.625  25.385  1.00  0.00    -0.355 N 
ATOM     15  C   UNL A   1      34.368  22.749  25.237  1.00  0.00     0.009 A 
ATOM     16  C   UNL A   1      33.285  21.874  25.191  1.00  0.00     0.047 A 
ATOM     17  H   UNL A   1      31.235  22.259  25.410  1.00  0.00     0.167 HD
ATOM     18  C   UNL A   1      35.671  22.220  25.126  1.00  0.00     0.031 A 
ATOM     19  C   UNL A   1      33.432  20.497  24.993  1.00  0.00     0.028 A 
ATOM     20  C   UNL A   1      35.834  20.842  24.966  1.00  0.00     0.041 A 
ATOM     21  C   UNL A   1      34.734  19.995  24.885  1.00  0.00     0.022 A 
ATOM     22  Cl  UNL A   1      37.422  20.182  24.870  1.00  0.00    -0.084 Cl
ENDBRANCH   6   8
ENDBRANCH   4   6
ENDBRANCH   3   4
ENDBRANCH   2   3
ENDBRANCH   1   2
BRANCH   1  23
ATOM     23  O   UNL A   1      32.521  31.599  27.186  1.00  0.00    -0.458 OA
BRANCH  23  24
ATOM     24  C   UNL A   1      33.312  32.622  27.569  1.00  0.00     0.338 C 
ATOM     25  O   UNL A   1      33.029  33.812  27.614  1.00  0.00    -0.246 OA
BRANCH  24  26
ATOM     26  C   UNL A   1      34.635  32.109  27.949  1.00  0.00     0.060 A 
ATOM     27  C   UNL A   1      34.780  30.766  28.283  1.00  0.00     0.016 A 
ATOM     28  C   UNL A   1      35.707  32.990  28.109  1.00  0.00     0.016 A 
ATOM     29  C   UNL A   1      35.960  30.331  28.881  1.00  0.00     0.010 A 
ATOM     30  C   UNL A   1      36.924  32.523  28.625  1.00  0.00     0.010 A 
ATOM     31  C   UNL A   1      37.049  31.199  29.075  1.00  0.00    -0.014 A 
BRANCH  31  32
ATOM     32  C   UNL A   1      38.262  30.712  29.804  1.00  0.00     0.031 A 
ATOM     33  C   UNL A   1      38.551  31.158  31.219  1.00  0.00     0.074 A 
ATOM     34  C   UNL A   1      39.066  29.790  29.235  1.00  0.00     0.049 A 
ATOM     35  N   UNL A   1      39.548  30.826  32.006  1.00  0.00    -0.248 NA
ATOM     36  C   UNL A   1      37.603  32.099  31.838  1.00  0.00     0.031 C 
ATOM     37  C   UNL A   1      38.905  29.247  27.886  1.00  0.00     0.029 A 
ATOM     38  N   UNL A   1      40.162  29.122  29.730  1.00  0.00    -0.354 N 
ATOM     39  C   UNL A   1      39.323  31.482  33.209  1.00  0.00     0.074 A 
ATOM     40  C   UNL A   1      38.147  32.304  33.029  1.00  0.00     0.031 C 
ATOM     41  C   UNL A   1      39.820  28.289  27.683  1.00  0.00     0.029 A 
ATOM     42  C   UNL A   1      40.685  28.200  28.855  1.00  0.00     0.049 A 
ATOM     43  H   UNL A   1      40.535  29.287  30.626  1.00  0.00     0.167 HD
ATOM     44  C   UNL A   1      39.993  31.365  34.382  1.00  0.00     0.037 A 
ATOM     45  C   UNL A   1      41.755  27.389  28.964  1.00  0.00     0.037 A 
ATOM     46  C   UNL A   1      41.148  30.535  34.592  1.00  0.00     0.049 A 
ATOM     47  C   UNL A   1      42.591  27.426  30.211  1.00  0.00     0.074 A 
ATOM     48  C   UNL A   1      41.882  30.356  35.753  1.00  0.00     0.029 A 
ATOM     49  N   UNL A   1      41.738  29.741  33.623  1.00  0.00    -0.354 N 
ATOM     50  N   UNL A   1      42.386  28.086  31.322  1.00  0.00    -0.248 NA
ATOM     51  C   UNL A   1      43.827  26.630  30.203  1.00  0.00     0.031 C 
ATOM     52  C   UNL A   1      42.938  29.482  35.476  1.00  0.00     0.029 A 
ATOM     53  C   UNL A   1      42.848  29.098  34.150  1.00  0.00     0.049 A 
ATOM     54  H   UNL A   1      41.417  29.647  32.696  1.00  0.00     0.167 HD
ATOM     55  C   UNL A   1      43.457  27.780  32.149  1.00  0.00     0.074 A 
ATOM     56  C   UNL A   1      44.307  26.865  31.417  1.00  0.00     0.031 C 
ATOM     57  C   UNL A   1      43.710  28.221  33.405  1.00  0.00     0.037 A 
BRANCH  44  58
ATOM     58  C   UNL A   1      39.462  32.122  35.562  1.00  0.00     0.064 A 
ATOM     59  C   UNL A   1      38.522  31.540  36.426  1.00  0.00     0.173 A 
ATOM     60  C   UNL A   1      39.942  33.399  35.877  1.00  0.00     0.173 A 
ATOM     61  F   UNL A   1      38.030  30.320  36.165  1.00  0.00    -0.203 F 
ATOM     62  C   UNL A   1      38.074  32.214  37.558  1.00  0.00     0.198 A 
ATOM     63  C   UNL A   1      39.504  34.065  37.021  1.00  0.00     0.198 A 
ATOM     64  F   UNL A   1      40.847  33.995  35.087  1.00  0.00    -0.203 F 
ATOM     65  F   UNL A   1      37.158  31.645  38.354  1.00  0.00    -0.200 F 
ATOM     66  C   UNL A   1      38.570  33.472  37.858  1.00  0.00     0.200 A 
ATOM     67  F   UNL A   1      39.990  35.278  37.315  1.00  0.00    -0.200 F 
ATOM     68  F   UNL A   1      38.145  34.116  38.954  1.00  0.00    -0.200 F 
ENDBRANCH  44  58
BRANCH  45  69
ATOM     69  C   UNL A   1      42.126  26.503  27.831  1.00  0.00     0.064 A 
ATOM     70  C   UNL A   1      43.066  26.906  26.873  1.00  0.00     0.173 A 
ATOM     71  C   UNL A   1      41.548  25.232  27.686  1.00  0.00     0.173 A 
ATOM     72  F   UNL A   1      43.621  28.124  26.950  1.00  0.00    -0.203 F 
ATOM     73  C   UNL A   1      43.417  26.069  25.815  1.00  0.00     0.198 A 
ATOM     74  C   UNL A   1      41.921  24.386  26.645  1.00  0.00     0.198 A 
ATOM     75  F   UNL A   1      40.634  24.806  28.570  1.00  0.00    -0.203 F 
ATOM     76  F   UNL A   1      44.294  26.489  24.893  1.00  0.00    -0.200 F 
ATOM     77  C   UNL A   1      42.852  24.807  25.709  1.00  0.00     0.200 A 
ATOM     78  F   UNL A   1      41.379  23.164  26.552  1.00  0.00    -0.200 F 
ATOM     79  F   UNL A   1      43.198  23.998  24.698  1.00  0.00    -0.200 F 
ENDBRANCH  45  69
BRANCH  57  80
ATOM     80  C   UNL A   1      44.970  27.739  34.056  1.00  0.00     0.064 A 
ATOM     81  C   UNL A   1      46.158  28.480  33.968  1.00  0.00     0.173 A 
ATOM     82  C   UNL A   1      44.992  26.545  34.789  1.00  0.00     0.173 A 
ATOM     83  F   UNL A   1      46.191  29.620  33.263  1.00  0.00    -0.203 F 
ATOM     84  C   UNL A   1      47.326  28.032  34.577  1.00  0.00     0.198 A 
ATOM     85  C   UNL A   1      46.157  26.110  35.414  1.00  0.00     0.198 A 
ATOM     86  F   UNL A   1      43.880  25.802  34.906  1.00  0.00    -0.203 F 
ATOM     87  F   UNL A   1      48.460  28.736  34.449  1.00  0.00    -0.200 F 
ATOM     88  C   UNL A   1      47.324  26.851  35.303  1.00  0.00     0.200 A 
ATOM     89  F   UNL A   1      46.152  24.972  36.123  1.00  0.00    -0.200 F 
ATOM     90  F   UNL A   1      48.451  26.421  35.889  1.00  0.00    -0.200 F 
ENDBRANCH  57  80
ENDBRANCH  31  32
ENDBRANCH  24  26
ENDBRANCH  23  24
ENDBRANCH   1  23
TORSDOF 12
ENDMDL
