MODEL 1
REMARK VINA RESULT:     -11.7      0.000      0.000
REMARK SMILES O=C(OCCOC(=O)[C@H]1C[C@H](O)CN1C(=O)CS[C@H]1CCS(=O)(=O)C1)c1ccc(-c2c3nc(c(-c4c(F)c(F)c(F)c(F)c4F)c4ccc([nH]4)c(-c4c(F)c(F)c(F)c(F)c4F)c4nc(c(-c5c(F)c(F)c(F)c(F)c5F)c5ccc2[nH]5)C=C4)C=C3)cc1
REMARK SMILES IDX 5 1 4 2 3 3 2 4 1 5 26 6 27 7 88 8 28 9 87 10 29 11 30 12
REMARK SMILES IDX 31 13 81 14 32 15 86 16 80 17 82 18 33 19 85 20 79 21 78 22
REMARK SMILES IDX 34 24 66 25 46 26 65 27 47 28 50 29 64 30 83 31 48 32 49 33
REMARK SMILES IDX 63 35 84 36 51 37 35 38 36 39 44 40 37 41 38 42 42 43 45 44
REMARK SMILES IDX 39 45 40 46 43 47 41 48 67 49 68 50 76 51 69 52 70 53 74 54
REMARK SMILES IDX 77 55 71 56 72 57 75 58 73 59 52 60 53 61 61 62 54 63 55 64
REMARK SMILES IDX 59 65 62 66 56 67 57 68 60 69 58 70 6 71 7 72 8 73 9 74
REMARK SMILES IDX 10 75 14 76 11 77 13 78 15 79 16 80 17 81 18 82 19 83 20 84
REMARK SMILES IDX 25 85 21 86 22 87 23 88 24 89 12 90
REMARK H PARENT 82 23 50 34 12 91
REMARK Flexibility Score: inf
ROOT
ATOM      1  C   UNL A   1      32.052  30.767  26.743  1.00  0.00     0.274 C 
ENDROOT
BRANCH   1   2
ATOM      2  C   UNL A   1      31.806  32.278  26.680  1.00  0.00     0.275 C 
BRANCH   2   3
ATOM      3  O   UNL A   1      32.463  33.013  27.724  1.00  0.00    -0.458 OA
BRANCH   3   4
ATOM      4  C   UNL A   1      33.726  33.487  27.810  1.00  0.00     0.338 C 
ATOM      5  O   UNL A   1      33.958  34.574  27.282  1.00  0.00    -0.246 OA
BRANCH   4   6
ATOM      6  C   UNL A   1      34.874  32.757  28.457  1.00  0.00     0.060 A 
ATOM      7  C   UNL A   1      34.896  31.433  28.904  1.00  0.00     0.016 A 
ATOM      8  C   UNL A   1      36.083  33.468  28.530  1.00  0.00     0.016 A 
ATOM      9  C   UNL A   1      36.086  30.814  29.304  1.00  0.00     0.010 A 
ATOM     10  C   UNL A   1      37.290  32.842  28.859  1.00  0.00     0.010 A 
ATOM     11  C   UNL A   1      37.296  31.509  29.274  1.00  0.00    -0.014 A 
BRANCH  11  12
ATOM     12  C   UNL A   1      38.490  30.911  29.912  1.00  0.00     0.031 A 
ATOM     13  C   UNL A   1      38.743  31.268  31.349  1.00  0.00     0.074 A 
ATOM     14  C   UNL A   1      39.263  30.012  29.274  1.00  0.00     0.049 A 
ATOM     15  N   UNL A   1      39.626  30.785  32.181  1.00  0.00    -0.248 NA
ATOM     16  C   UNL A   1      37.873  32.304  31.935  1.00  0.00     0.031 C 
ATOM     17  C   UNL A   1      39.087  29.573  27.891  1.00  0.00     0.029 A 
ATOM     18  N   UNL A   1      40.346  29.288  29.709  1.00  0.00    -0.354 N 
ATOM     19  C   UNL A   1      39.394  31.440  33.382  1.00  0.00     0.074 A 
ATOM     20  C   UNL A   1      38.363  32.421  33.152  1.00  0.00     0.031 C 
ATOM     21  C   UNL A   1      40.028  28.661  27.587  1.00  0.00     0.029 A 
ATOM     22  C   UNL A   1      40.869  28.440  28.759  1.00  0.00     0.049 A 
ATOM     23  H   UNL A   1      40.715  29.368  30.618  1.00  0.00     0.167 HD
ATOM     24  C   UNL A   1      39.956  31.210  34.588  1.00  0.00     0.037 A 
ATOM     25  C   UNL A   1      41.896  27.572  28.846  1.00  0.00     0.037 A 
ATOM     26  C   UNL A   1      40.987  30.240  34.804  1.00  0.00     0.049 A 
ATOM     27  C   UNL A   1      42.572  27.398  30.184  1.00  0.00     0.074 A 
ATOM     28  C   UNL A   1      41.644  29.925  35.976  1.00  0.00     0.029 A 
ATOM     29  N   UNL A   1      41.522  29.437  33.806  1.00  0.00    -0.354 N 
ATOM     30  N   UNL A   1      42.297  27.973  31.332  1.00  0.00    -0.248 NA
ATOM     31  C   UNL A   1      43.681  26.435  30.251  1.00  0.00     0.031 C 
ATOM     32  C   UNL A   1      42.621  28.971  35.675  1.00  0.00     0.029 A 
ATOM     33  C   UNL A   1      42.524  28.643  34.331  1.00  0.00     0.049 A 
ATOM     34  H   UNL A   1      41.230  29.433  32.866  1.00  0.00     0.167 HD
ATOM     35  C   UNL A   1      43.165  27.415  32.261  1.00  0.00     0.074 A 
ATOM     36  C   UNL A   1      43.969  26.445  31.544  1.00  0.00     0.031 C 
ATOM     37  C   UNL A   1      43.291  27.675  33.587  1.00  0.00     0.037 A 
BRANCH  24  38
ATOM     38  C   UNL A   1      39.462  32.046  35.731  1.00  0.00     0.064 A 
ATOM     39  C   UNL A   1      40.030  33.297  36.029  1.00  0.00     0.173 A 
ATOM     40  C   UNL A   1      38.452  31.567  36.575  1.00  0.00     0.173 A 
ATOM     41  F   UNL A   1      41.025  33.784  35.272  1.00  0.00    -0.203 F 
ATOM     42  C   UNL A   1      39.633  34.014  37.154  1.00  0.00     0.198 A 
ATOM     43  C   UNL A   1      38.033  32.303  37.680  1.00  0.00     0.198 A 
ATOM     44  F   UNL A   1      37.884  30.373  36.341  1.00  0.00    -0.203 F 
ATOM     45  F   UNL A   1      40.245  35.166  37.462  1.00  0.00    -0.200 F 
ATOM     46  C   UNL A   1      38.633  33.518  37.975  1.00  0.00     0.200 A 
ATOM     47  F   UNL A   1      37.062  31.826  38.470  1.00  0.00    -0.200 F 
ATOM     48  F   UNL A   1      38.257  34.205  39.062  1.00  0.00    -0.200 F 
ENDBRANCH  24  38
BRANCH  25  49
ATOM     49  C   UNL A   1      42.331  26.777  27.660  1.00  0.00     0.064 A 
ATOM     50  C   UNL A   1      41.810  25.501  27.400  1.00  0.00     0.173 A 
ATOM     51  C   UNL A   1      43.314  27.262  26.782  1.00  0.00     0.173 A 
ATOM     52  F   UNL A   1      40.880  24.980  28.213  1.00  0.00    -0.203 F 
ATOM     53  C   UNL A   1      42.278  24.728  26.335  1.00  0.00     0.198 A 
ATOM     54  C   UNL A   1      43.761  26.501  25.702  1.00  0.00     0.198 A 
ATOM     55  F   UNL A   1      43.842  28.480  26.973  1.00  0.00    -0.203 F 
ATOM     56  F   UNL A   1      41.800  23.491  26.148  1.00  0.00    -0.200 F 
ATOM     57  C   UNL A   1      43.252  25.230  25.486  1.00  0.00     0.200 A 
ATOM     58  F   UNL A   1      44.691  26.997  24.875  1.00  0.00    -0.200 F 
ATOM     59  F   UNL A   1      43.704  24.487  24.467  1.00  0.00    -0.200 F 
ENDBRANCH  25  49
BRANCH  37  60
ATOM     60  C   UNL A   1      44.299  26.872  34.355  1.00  0.00     0.064 A 
ATOM     61  C   UNL A   1      43.966  25.653  34.960  1.00  0.00     0.173 A 
ATOM     62  C   UNL A   1      45.634  27.300  34.423  1.00  0.00     0.173 A 
ATOM     63  F   UNL A   1      42.701  25.207  34.930  1.00  0.00    -0.203 F 
ATOM     64  C   UNL A   1      44.928  24.902  35.628  1.00  0.00     0.198 A 
ATOM     65  C   UNL A   1      46.601  26.527  35.059  1.00  0.00     0.198 A 
ATOM     66  F   UNL A   1      46.005  28.454  33.849  1.00  0.00    -0.203 F 
ATOM     67  F   UNL A   1      44.578  23.763  36.241  1.00  0.00    -0.200 F 
ATOM     68  C   UNL A   1      46.245  25.335  35.668  1.00  0.00     0.200 A 
ATOM     69  F   UNL A   1      47.877  26.937  35.075  1.00  0.00    -0.200 F 
ATOM     70  F   UNL A   1      47.173  24.601  36.296  1.00  0.00    -0.200 F 
ENDBRANCH  37  60
ENDBRANCH  11  12
ENDBRANCH   4   6
ENDBRANCH   3   4
ENDBRANCH   2   3
ENDBRANCH   1   2
BRANCH   1  71
ATOM     71  O   UNL A   1      32.308  30.204  25.442  1.00  0.00    -0.461 OA
BRANCH  71  72
ATOM     72  C   UNL A   1      32.161  28.851  25.283  1.00  0.00     0.329 C 
ATOM     73  O   UNL A   1      33.038  28.023  25.482  1.00  0.00    -0.250 OA
BRANCH  72  74
ATOM     74  C   UNL A   1      30.773  28.541  24.686  1.00  0.00     0.197 C 
ATOM     75  C   UNL A   1      30.371  29.655  23.728  1.00  0.00     0.070 C 
ATOM     76  N   UNL A   1      30.705  27.325  23.857  1.00  0.00    -0.325 N 
ATOM     77  C   UNL A   1      30.935  29.188  22.393  1.00  0.00     0.136 C 
ATOM     78  C   UNL A   1      30.762  27.677  22.461  1.00  0.00     0.152 C 
BRANCH  76  79
ATOM     79  C   UNL A   1      30.306  26.088  24.329  1.00  0.00     0.233 C 
ATOM     80  O   UNL A   1      29.305  25.969  25.030  1.00  0.00    -0.274 OA
BRANCH  79  81
ATOM     81  C   UNL A   1      31.142  24.858  23.986  1.00  0.00     0.169 C 
BRANCH  81  82
ATOM     82  S   UNL A   1      31.823  23.978  25.442  1.00  0.00    -0.148 SA
BRANCH  82  83
ATOM     83  C   UNL A   1      31.858  22.244  24.894  1.00  0.00     0.063 C 
ATOM     84  C   UNL A   1      32.404  22.018  23.477  1.00  0.00     0.031 C 
ATOM     85  C   UNL A   1      32.790  21.395  25.772  1.00  0.00     0.151 C 
ATOM     86  C   UNL A   1      32.338  20.504  23.303  1.00  0.00     0.138 C 
ATOM     87  S   UNL A   1      32.993  19.874  24.838  1.00  0.00     0.151 S 
ATOM     88  O   UNL A   1      32.081  18.879  25.347  1.00  0.00    -0.229 OA
ATOM     89  O   UNL A   1      34.408  19.617  24.649  1.00  0.00    -0.229 OA
ENDBRANCH  82  83
ENDBRANCH  81  82
ENDBRANCH  79  81
ENDBRANCH  76  79
BRANCH  77  90
ATOM     90  O   UNL A   1      30.202  29.746  21.314  1.00  0.00    -0.391 OA
ATOM     91  H   UNL A   1      29.637  29.063  20.919  1.00  0.00     0.211 HD
ENDBRANCH  77  90
ENDBRANCH  72  74
ENDBRANCH  71  72
ENDBRANCH   1  71
TORSDOF 16
ENDMDL
MODEL 2
REMARK VINA RESULT:     -11.6      1.101      1.665
REMARK SMILES O=C(OCCOC(=O)[C@H]1C[C@H](O)CN1C(=O)CS[C@H]1CCS(=O)(=O)C1)c1ccc(-c2c3nc(c(-c4c(F)c(F)c(F)c(F)c4F)c4ccc([nH]4)c(-c4c(F)c(F)c(F)c(F)c4F)c4nc(c(-c5c(F)c(F)c(F)c(F)c5F)c5ccc2[nH]5)C=C4)C=C3)cc1
REMARK SMILES IDX 5 1 4 2 3 3 2 4 1 5 26 6 27 7 88 8 28 9 87 10 29 11 30 12
REMARK SMILES IDX 31 13 81 14 32 15 86 16 80 17 82 18 33 19 85 20 79 21 78 22
REMARK SMILES IDX 34 24 66 25 46 26 65 27 47 28 50 29 64 30 83 31 48 32 49 33
REMARK SMILES IDX 63 35 84 36 51 37 35 38 36 39 44 40 37 41 38 42 42 43 45 44
REMARK SMILES IDX 39 45 40 46 43 47 41 48 67 49 68 50 76 51 69 52 70 53 74 54
REMARK SMILES IDX 77 55 71 56 72 57 75 58 73 59 52 60 53 61 61 62 54 63 55 64
REMARK SMILES IDX 59 65 62 66 56 67 57 68 60 69 58 70 6 71 7 72 8 73 9 74
REMARK SMILES IDX 10 75 14 76 11 77 13 78 15 79 16 80 17 81 18 82 19 83 20 84
REMARK SMILES IDX 25 85 21 86 22 87 23 88 24 89 12 90
REMARK H PARENT 82 23 50 34 12 91
REMARK Flexibility Score: inf
ROOT
ATOM      1  C   UNL A   1      32.219  31.174  26.818  1.00  0.00     0.274 C 
ENDROOT
BRANCH   1   2
ATOM      2  C   UNL A   1      32.023  32.691  26.897  1.00  0.00     0.275 C 
BRANCH   2   3
ATOM      3  O   UNL A   1      32.802  33.320  27.927  1.00  0.00    -0.458 OA
BRANCH   3   4
ATOM      4  C   UNL A   1      34.100  33.698  27.945  1.00  0.00     0.338 C 
ATOM      5  O   UNL A   1      34.394  34.736  27.353  1.00  0.00    -0.246 OA
BRANCH   4   6
ATOM      6  C   UNL A   1      35.213  32.914  28.591  1.00  0.00     0.060 A 
ATOM      7  C   UNL A   1      35.162  31.601  29.068  1.00  0.00     0.016 A 
ATOM      8  C   UNL A   1      36.464  33.552  28.630  1.00  0.00     0.016 A 
ATOM      9  C   UNL A   1      36.320  30.920  29.465  1.00  0.00     0.010 A 
ATOM     10  C   UNL A   1      37.636  32.861  28.954  1.00  0.00     0.010 A 
ATOM     11  C   UNL A   1      37.568  31.540  29.400  1.00  0.00    -0.014 A 
BRANCH  11  12
ATOM     12  C   UNL A   1      38.735  30.885  30.034  1.00  0.00     0.031 A 
ATOM     13  C   UNL A   1      38.999  31.216  31.474  1.00  0.00     0.074 A 
ATOM     14  C   UNL A   1      39.471  29.961  29.387  1.00  0.00     0.049 A 
ATOM     15  N   UNL A   1      39.859  30.687  32.303  1.00  0.00    -0.248 NA
ATOM     16  C   UNL A   1      38.172  32.281  32.070  1.00  0.00     0.031 C 
ATOM     17  C   UNL A   1      39.279  29.545  27.999  1.00  0.00     0.029 A 
ATOM     18  N   UNL A   1      40.521  29.188  29.816  1.00  0.00    -0.354 N 
ATOM     19  C   UNL A   1      39.653  31.338  33.510  1.00  0.00     0.074 A 
ATOM     20  C   UNL A   1      38.665  32.364  33.290  1.00  0.00     0.031 C 
ATOM     21  C   UNL A   1      40.181  28.598  27.686  1.00  0.00     0.029 A 
ATOM     22  C   UNL A   1      41.010  28.329  28.857  1.00  0.00     0.049 A 
ATOM     23  H   UNL A   1      40.891  29.242  30.726  1.00  0.00     0.167 HD
ATOM     24  C   UNL A   1      40.202  31.071  34.715  1.00  0.00     0.037 A 
ATOM     25  C   UNL A   1      41.999  27.417  28.936  1.00  0.00     0.037 A 
ATOM     26  C   UNL A   1      41.191  30.056  34.922  1.00  0.00     0.049 A 
ATOM     27  C   UNL A   1      42.665  27.200  30.274  1.00  0.00     0.074 A 
ATOM     28  C   UNL A   1      41.832  29.701  36.091  1.00  0.00     0.029 A 
ATOM     29  N   UNL A   1      41.694  29.242  33.916  1.00  0.00    -0.354 N 
ATOM     30  N   UNL A   1      42.411  27.774  31.427  1.00  0.00    -0.248 NA
ATOM     31  C   UNL A   1      43.731  26.190  30.331  1.00  0.00     0.031 C 
ATOM     32  C   UNL A   1      42.768  28.710  35.782  1.00  0.00     0.029 A 
ATOM     33  C   UNL A   1      42.660  28.400  34.433  1.00  0.00     0.049 A 
ATOM     34  H   UNL A   1      41.404  29.260  32.976  1.00  0.00     0.167 HD
ATOM     35  C   UNL A   1      43.253  27.170  32.351  1.00  0.00     0.074 A 
ATOM     36  C   UNL A   1      44.016  26.174  31.625  1.00  0.00     0.031 C 
ATOM     37  C   UNL A   1      43.387  27.409  33.680  1.00  0.00     0.037 A 
BRANCH  24  38
ATOM     38  C   UNL A   1      39.741  31.914  35.866  1.00  0.00     0.064 A 
ATOM     39  C   UNL A   1      38.612  31.567  36.629  1.00  0.00     0.173 A 
ATOM     40  C   UNL A   1      40.398  33.113  36.174  1.00  0.00     0.173 A 
ATOM     41  F   UNL A   1      37.928  30.447  36.351  1.00  0.00    -0.203 F 
ATOM     42  C   UNL A   1      38.135  32.412  37.626  1.00  0.00     0.198 A 
ATOM     43  C   UNL A   1      39.938  33.939  37.196  1.00  0.00     0.198 A 
ATOM     44  F   UNL A   1      41.474  33.495  35.469  1.00  0.00    -0.203 F 
ATOM     45  F   UNL A   1      37.011  32.100  38.285  1.00  0.00    -0.200 F 
ATOM     46  C   UNL A   1      38.801  33.595  37.912  1.00  0.00     0.200 A 
ATOM     47  F   UNL A   1      40.585  35.079  37.474  1.00  0.00    -0.200 F 
ATOM     48  F   UNL A   1      38.336  34.411  38.867  1.00  0.00    -0.200 F 
ENDBRANCH  24  38
BRANCH  25  49
ATOM     49  C   UNL A   1      42.403  26.618  27.742  1.00  0.00     0.064 A 
ATOM     50  C   UNL A   1      41.810  25.379  27.453  1.00  0.00     0.173 A 
ATOM     51  C   UNL A   1      43.425  27.057  26.886  1.00  0.00     0.173 A 
ATOM     52  F   UNL A   1      40.839  24.901  28.244  1.00  0.00    -0.203 F 
ATOM     53  C   UNL A   1      42.246  24.598  26.381  1.00  0.00     0.198 A 
ATOM     54  C   UNL A   1      43.841  26.289  25.799  1.00  0.00     0.198 A 
ATOM     55  F   UNL A   1      44.022  28.238  27.105  1.00  0.00    -0.203 F 
ATOM     56  F   UNL A   1      41.698  23.395  26.166  1.00  0.00    -0.200 F 
ATOM     57  C   UNL A   1      43.260  25.055  25.554  1.00  0.00     0.200 A 
ATOM     58  F   UNL A   1      44.810  26.743  24.993  1.00  0.00    -0.200 F 
ATOM     59  F   UNL A   1      43.682  24.304  24.528  1.00  0.00    -0.200 F 
ENDBRANCH  25  49
BRANCH  37  60
ATOM     60  C   UNL A   1      44.358  26.556  34.441  1.00  0.00     0.064 A 
ATOM     61  C   UNL A   1      43.987  25.318  34.983  1.00  0.00     0.173 A 
ATOM     62  C   UNL A   1      45.698  26.956  34.566  1.00  0.00     0.173 A 
ATOM     63  F   UNL A   1      42.716  24.896  34.897  1.00  0.00    -0.203 F 
ATOM     64  C   UNL A   1      44.917  24.522  35.644  1.00  0.00     0.198 A 
ATOM     65  C   UNL A   1      46.632  26.140  35.195  1.00  0.00     0.198 A 
ATOM     66  F   UNL A   1      46.105  28.128  34.054  1.00  0.00    -0.203 F 
ATOM     67  F   UNL A   1      44.531  23.364  36.197  1.00  0.00    -0.200 F 
ATOM     68  C   UNL A   1      46.240  24.929  35.741  1.00  0.00     0.200 A 
ATOM     69  F   UNL A   1      47.914  26.526  35.266  1.00  0.00    -0.200 F 
ATOM     70  F   UNL A   1      47.136  24.153  36.363  1.00  0.00    -0.200 F 
ENDBRANCH  37  60
ENDBRANCH  11  12
ENDBRANCH   4   6
ENDBRANCH   3   4
ENDBRANCH   2   3
ENDBRANCH   1   2
BRANCH   1  71
ATOM     71  O   UNL A   1      31.572  30.602  25.665  1.00  0.00    -0.461 OA
BRANCH  71  72
ATOM     72  C   UNL A   1      31.869  29.307  25.332  1.00  0.00     0.329 C 
ATOM     73  O   UNL A   1      32.963  28.779  25.477  1.00  0.00    -0.250 OA
BRANCH  72  74
ATOM     74  C   UNL A   1      30.663  28.657  24.624  1.00  0.00     0.197 C 
ATOM     75  C   UNL A   1      30.033  29.662  23.669  1.00  0.00     0.070 C 
ATOM     76  N   UNL A   1      30.987  27.509  23.761  1.00  0.00    -0.325 N 
ATOM     77  C   UNL A   1      30.790  29.428  22.369  1.00  0.00     0.136 C 
ATOM     78  C   UNL A   1      31.036  27.926  22.384  1.00  0.00     0.152 C 
BRANCH  76  79
ATOM     79  C   UNL A   1      30.915  26.190  24.170  1.00  0.00     0.233 C 
ATOM     80  O   UNL A   1      30.054  25.817  24.963  1.00  0.00    -0.274 OA
BRANCH  79  81
ATOM     81  C   UNL A   1      31.938  25.191  23.637  1.00  0.00     0.169 C 
BRANCH  81  82
ATOM     82  S   UNL A   1      31.808  23.514  24.367  1.00  0.00    -0.148 SA
BRANCH  82  83
ATOM     83  C   UNL A   1      33.542  23.077  24.702  1.00  0.00     0.063 C 
ATOM     84  C   UNL A   1      33.958  21.669  24.253  1.00  0.00     0.031 C 
ATOM     85  C   UNL A   1      34.510  23.992  23.936  1.00  0.00     0.151 C 
ATOM     86  C   UNL A   1      35.433  21.591  24.632  1.00  0.00     0.138 C 
ATOM     87  S   UNL A   1      36.093  23.152  24.074  1.00  0.00     0.151 S 
ATOM     88  O   UNL A   1      36.849  23.739  25.155  1.00  0.00    -0.229 OA
ATOM     89  O   UNL A   1      36.645  22.958  22.748  1.00  0.00    -0.229 OA
ENDBRANCH  82  83
ENDBRANCH  81  82
ENDBRANCH  79  81
ENDBRANCH  76  79
BRANCH  77  90
ATOM     90  O   UNL A   1      30.004  29.814  21.252  1.00  0.00    -0.391 OA
ATOM     91  H   UNL A   1      29.681  29.022  20.794  1.00  0.00     0.211 HD
ENDBRANCH  77  90
ENDBRANCH  72  74
ENDBRANCH  71  72
ENDBRANCH   1  71
TORSDOF 16
ENDMDL
MODEL 3
REMARK VINA RESULT:     -11.6      4.855      7.573
REMARK SMILES O=C(OCCOC(=O)[C@H]1C[C@H](O)CN1C(=O)CS[C@H]1CCS(=O)(=O)C1)c1ccc(-c2c3nc(c(-c4c(F)c(F)c(F)c(F)c4F)c4ccc([nH]4)c(-c4c(F)c(F)c(F)c(F)c4F)c4nc(c(-c5c(F)c(F)c(F)c(F)c5F)c5ccc2[nH]5)C=C4)C=C3)cc1
REMARK SMILES IDX 5 1 4 2 3 3 2 4 1 5 26 6 27 7 88 8 28 9 87 10 29 11 30 12
REMARK SMILES IDX 31 13 81 14 32 15 86 16 80 17 82 18 33 19 85 20 79 21 78 22
REMARK SMILES IDX 34 24 66 25 46 26 65 27 47 28 50 29 64 30 83 31 48 32 49 33
REMARK SMILES IDX 63 35 84 36 51 37 35 38 36 39 44 40 37 41 38 42 42 43 45 44
REMARK SMILES IDX 39 45 40 46 43 47 41 48 67 49 68 50 76 51 69 52 70 53 74 54
REMARK SMILES IDX 77 55 71 56 72 57 75 58 73 59 52 60 53 61 61 62 54 63 55 64
REMARK SMILES IDX 59 65 62 66 56 67 57 68 60 69 58 70 6 71 7 72 8 73 9 74
REMARK SMILES IDX 10 75 14 76 11 77 13 78 15 79 16 80 17 81 18 82 19 83 20 84
REMARK SMILES IDX 25 85 21 86 22 87 23 88 24 89 12 90
REMARK H PARENT 82 23 50 34 12 91
REMARK Flexibility Score: inf
ROOT
ATOM      1  C   UNL A   1      33.337  34.018  28.000  1.00  0.00     0.274 C 
ENDROOT
BRANCH   1   2
ATOM      2  C   UNL A   1      34.453  33.009  28.289  1.00  0.00     0.275 C 
BRANCH   2   3
ATOM      3  O   UNL A   1      33.991  31.653  28.395  1.00  0.00    -0.458 OA
BRANCH   3   4
ATOM      4  C   UNL A   1      34.579  30.490  28.038  1.00  0.00     0.338 C 
ATOM      5  O   UNL A   1      33.887  29.668  27.439  1.00  0.00    -0.246 OA
BRANCH   4   6
ATOM      6  C   UNL A   1      36.000  30.111  28.368  1.00  0.00     0.060 A 
ATOM      7  C   UNL A   1      36.474  29.539  29.552  1.00  0.00     0.016 A 
ATOM      8  C   UNL A   1      36.929  30.268  27.326  1.00  0.00     0.016 A 
ATOM      9  C   UNL A   1      37.782  29.050  29.657  1.00  0.00     0.010 A 
ATOM     10  C   UNL A   1      38.214  29.720  27.393  1.00  0.00     0.010 A 
ATOM     11  C   UNL A   1      38.660  29.126  28.574  1.00  0.00    -0.014 A 
BRANCH  11  12
ATOM     12  C   UNL A   1      40.092  28.814  28.781  1.00  0.00     0.031 A 
ATOM     13  C   UNL A   1      40.902  29.818  29.550  1.00  0.00     0.074 A 
ATOM     14  C   UNL A   1      40.630  27.643  28.389  1.00  0.00     0.049 A 
ATOM     15  N   UNL A   1      42.129  29.734  29.990  1.00  0.00    -0.248 NA
ATOM     16  C   UNL A   1      40.234  31.089  29.883  1.00  0.00     0.031 C 
ATOM     17  C   UNL A   1      39.924  26.588  27.664  1.00  0.00     0.029 A 
ATOM     18  N   UNL A   1      41.893  27.132  28.559  1.00  0.00    -0.354 N 
ATOM     19  C   UNL A   1      42.359  30.924  30.664  1.00  0.00     0.074 A 
ATOM     20  C   UNL A   1      41.192  31.753  30.497  1.00  0.00     0.031 C 
ATOM     21  C   UNL A   1      40.761  25.558  27.446  1.00  0.00     0.029 A 
ATOM     22  C   UNL A   1      42.062  25.874  28.027  1.00  0.00     0.049 A 
ATOM     23  H   UNL A   1      42.612  27.621  29.020  1.00  0.00     0.167 HD
ATOM     24  C   UNL A   1      43.431  31.277  31.406  1.00  0.00     0.037 A 
ATOM     25  C   UNL A   1      43.143  25.069  28.037  1.00  0.00     0.037 A 
ATOM     26  C   UNL A   1      44.590  30.450  31.558  1.00  0.00     0.049 A 
ATOM     27  C   UNL A   1      44.366  25.525  28.795  1.00  0.00     0.074 A 
ATOM     28  C   UNL A   1      45.744  30.703  32.272  1.00  0.00     0.029 A 
ATOM     29  N   UNL A   1      44.741  29.204  30.964  1.00  0.00    -0.354 N 
ATOM     30  N   UNL A   1      44.547  26.625  29.490  1.00  0.00    -0.248 NA
ATOM     31  C   UNL A   1      45.525  24.621  28.798  1.00  0.00     0.031 C 
ATOM     32  C   UNL A   1      46.620  29.635  32.060  1.00  0.00     0.029 A 
ATOM     33  C   UNL A   1      45.985  28.686  31.272  1.00  0.00     0.049 A 
ATOM     34  H   UNL A   1      44.063  28.757  30.408  1.00  0.00     0.167 HD
ATOM     35  C   UNL A   1      45.816  26.526  30.044  1.00  0.00     0.074 A 
ATOM     36  C   UNL A   1      46.356  25.252  29.614  1.00  0.00     0.031 C 
ATOM     37  C   UNL A   1      46.480  27.404  30.838  1.00  0.00     0.037 A 
BRANCH  24  38
ATOM     38  C   UNL A   1      43.375  32.619  32.072  1.00  0.00     0.064 A 
ATOM     39  C   UNL A   1      42.911  32.769  33.391  1.00  0.00     0.173 A 
ATOM     40  C   UNL A   1      43.732  33.776  31.367  1.00  0.00     0.173 A 
ATOM     41  F   UNL A   1      42.524  31.696  34.097  1.00  0.00    -0.203 F 
ATOM     42  C   UNL A   1      42.767  34.031  33.960  1.00  0.00     0.198 A 
ATOM     43  C   UNL A   1      43.619  35.034  31.952  1.00  0.00     0.198 A 
ATOM     44  F   UNL A   1      44.171  33.688  30.102  1.00  0.00    -0.203 F 
ATOM     45  F   UNL A   1      42.247  34.154  35.189  1.00  0.00    -0.200 F 
ATOM     46  C   UNL A   1      43.125  35.161  33.241  1.00  0.00     0.200 A 
ATOM     47  F   UNL A   1      43.971  36.126  31.259  1.00  0.00    -0.200 F 
ATOM     48  F   UNL A   1      42.978  36.376  33.787  1.00  0.00    -0.200 F 
ENDBRANCH  24  38
BRANCH  25  49
ATOM     49  C   UNL A   1      43.121  23.746  27.346  1.00  0.00     0.064 A 
ATOM     50  C   UNL A   1      43.635  23.585  26.051  1.00  0.00     0.173 A 
ATOM     51  C   UNL A   1      42.543  22.620  27.953  1.00  0.00     0.173 A 
ATOM     52  F   UNL A   1      44.186  24.629  25.415  1.00  0.00    -0.203 F 
ATOM     53  C   UNL A   1      43.540  22.365  25.378  1.00  0.00     0.198 A 
ATOM     54  C   UNL A   1      42.474  21.394  27.292  1.00  0.00     0.198 A 
ATOM     55  F   UNL A   1      42.044  22.710  29.195  1.00  0.00    -0.203 F 
ATOM     56  F   UNL A   1      43.990  22.260  24.121  1.00  0.00    -0.200 F 
ATOM     57  C   UNL A   1      42.961  21.270  26.000  1.00  0.00     0.200 A 
ATOM     58  F   UNL A   1      41.928  20.335  27.904  1.00  0.00    -0.200 F 
ATOM     59  F   UNL A   1      42.866  20.101  25.353  1.00  0.00    -0.200 F 
ENDBRANCH  25  49
BRANCH  37  60
ATOM     60  C   UNL A   1      47.839  27.000  31.328  1.00  0.00     0.064 A 
ATOM     61  C   UNL A   1      49.011  27.418  30.683  1.00  0.00     0.173 A 
ATOM     62  C   UNL A   1      47.967  26.242  32.502  1.00  0.00     0.173 A 
ATOM     63  F   UNL A   1      48.941  28.137  29.552  1.00  0.00    -0.203 F 
ATOM     64  C   UNL A   1      50.262  27.071  31.182  1.00  0.00     0.198 A 
ATOM     65  C   UNL A   1      49.220  25.929  33.019  1.00  0.00     0.198 A 
ATOM     66  F   UNL A   1      46.875  25.828  33.162  1.00  0.00    -0.203 F 
ATOM     67  F   UNL A   1      51.370  27.440  30.523  1.00  0.00    -0.200 F 
ATOM     68  C   UNL A   1      50.366  26.336  32.354  1.00  0.00     0.200 A 
ATOM     69  F   UNL A   1      49.316  25.239  34.164  1.00  0.00    -0.200 F 
ATOM     70  F   UNL A   1      51.572  26.018  32.842  1.00  0.00    -0.200 F 
ENDBRANCH  37  60
ENDBRANCH  11  12
ENDBRANCH   4   6
ENDBRANCH   3   4
ENDBRANCH   2   3
ENDBRANCH   1   2
BRANCH   1  71
ATOM     71  O   UNL A   1      32.783  34.574  29.208  1.00  0.00    -0.461 OA
BRANCH  71  72
ATOM     72  C   UNL A   1      33.060  35.883  29.504  1.00  0.00     0.329 C 
ATOM     73  O   UNL A   1      32.911  36.822  28.736  1.00  0.00    -0.250 OA
BRANCH  72  74
ATOM     74  C   UNL A   1      33.713  35.978  30.899  1.00  0.00     0.197 C 
ATOM     75  C   UNL A   1      33.001  37.044  31.722  1.00  0.00     0.070 C 
ATOM     76  N   UNL A   1      33.602  34.764  31.726  1.00  0.00    -0.325 N 
ATOM     77  C   UNL A   1      31.887  36.266  32.410  1.00  0.00     0.136 C 
ATOM     78  C   UNL A   1      32.532  34.914  32.679  1.00  0.00     0.152 C 
BRANCH  76  79
ATOM     79  C   UNL A   1      34.579  33.789  31.804  1.00  0.00     0.233 C 
ATOM     80  O   UNL A   1      34.285  32.598  31.850  1.00  0.00    -0.274 OA
BRANCH  79  81
ATOM     81  C   UNL A   1      36.045  34.211  31.855  1.00  0.00     0.169 C 
BRANCH  81  82
ATOM     82  S   UNL A   1      37.208  32.988  31.139  1.00  0.00    -0.148 SA
BRANCH  82  83
ATOM     83  C   UNL A   1      38.084  32.350  32.600  1.00  0.00     0.063 C 
ATOM     84  C   UNL A   1      38.743  33.419  33.483  1.00  0.00     0.031 C 
ATOM     85  C   UNL A   1      37.124  31.638  33.565  1.00  0.00     0.151 C 
ATOM     86  C   UNL A   1      39.368  32.614  34.618  1.00  0.00     0.138 C 
ATOM     87  S   UNL A   1      38.083  31.463  35.074  1.00  0.00     0.151 S 
ATOM     88  O   UNL A   1      38.655  30.138  35.122  1.00  0.00    -0.229 OA
ATOM     89  O   UNL A   1      37.340  32.036  36.180  1.00  0.00    -0.229 OA
ENDBRANCH  82  83
ENDBRANCH  81  82
ENDBRANCH  79  81
ENDBRANCH  76  79
BRANCH  77  90
ATOM     90  O   UNL A   1      31.499  36.905  33.616  1.00  0.00    -0.391 OA
ATOM     91  H   UNL A   1      32.288  37.121  34.137  1.00  0.00     0.211 HD
ENDBRANCH  77  90
ENDBRANCH  72  74
ENDBRANCH  71  72
ENDBRANCH   1  71
TORSDOF 16
ENDMDL
