MODEL 1
REMARK VINA RESULT:     -12.2      0.000      0.000
REMARK SMILES CC1(C)OC(=O)C(=CNc2ccccc2C(=O)OCCOC(=O)c2ccc(-c3c4nc(c(-c5c(F)c(F)c(F)c(F)c5F)c5ccc([nH]5)c(-c5c(F)c(F)c(F)c(F)c5F)c5nc(c(-c6c(F)c(F)c(F)c(F)c6F)c6ccc3[nH]6)C=C5)C=C4)cc2)C(=O)O1
REMARK SMILES IDX 19 1 18 2 16 3 17 4 15 5 10 6 11 7 12 8 14 9 13 10 9 11 8 13
REMARK SMILES IDX 1 14 2 15 3 16 4 17 89 18 5 19 87 20 6 21 7 22 88 23 20 24
REMARK SMILES IDX 21 25 22 26 23 27 24 28 25 29 86 30 26 31 85 32 27 33 28 34
REMARK SMILES IDX 29 35 79 36 30 37 84 38 78 39 80 40 31 41 83 42 77 43 76 44
REMARK SMILES IDX 32 46 64 47 44 48 63 49 45 50 48 51 62 52 81 53 46 54 47 55
REMARK SMILES IDX 61 57 82 58 49 59 33 60 34 61 42 62 35 63 36 64 40 65 43 66
REMARK SMILES IDX 37 67 38 68 41 69 39 70 65 71 66 72 74 73 67 74 68 75 72 76
REMARK SMILES IDX 75 77 69 78 70 79 73 80 71 81 50 82 51 83 59 84 52 85 53 86
REMARK SMILES IDX 57 87 60 88 54 89 55 90 58 91 56 92
REMARK H PARENT 9 12 80 45 48 56
REMARK Flexibility Score: inf
ROOT
ATOM      1  C   UNL A   1      33.992  35.500  28.861  1.00  0.00     0.275 C 
ENDROOT
BRANCH   1   2
ATOM      2  O   UNL A   1      33.953  34.097  29.204  1.00  0.00    -0.458 OA
BRANCH   2   3
ATOM      3  C   UNL A   1      33.518  33.249  28.237  1.00  0.00     0.340 C 
ATOM      4  O   UNL A   1      32.520  33.399  27.548  1.00  0.00    -0.246 OA
BRANCH   3   5
ATOM      5  C   UNL A   1      34.474  32.137  28.012  1.00  0.00     0.083 A 
ATOM      6  C   UNL A   1      34.119  30.790  27.799  1.00  0.00     0.053 A 
ATOM      7  C   UNL A   1      35.172  29.857  27.662  1.00  0.00     0.027 A 
ATOM      8  C   UNL A   1      36.515  30.233  27.740  1.00  0.00     0.002 A 
ATOM      9  C   UNL A   1      35.834  32.512  28.044  1.00  0.00     0.018 A 
ATOM     10  C   UNL A   1      36.848  31.566  27.927  1.00  0.00     0.001 A 
BRANCH   6  11
ATOM     11  N   UNL A   1      32.820  30.277  27.612  1.00  0.00    -0.360 N 
ATOM     12  H   UNL A   1      32.090  30.921  27.761  1.00  0.00     0.166 HD
BRANCH  11  13
ATOM     13  C   UNL A   1      32.421  29.014  27.252  1.00  0.00     0.106 C 
ATOM     14  C   UNL A   1      33.051  27.844  23.214  1.00  0.00     0.106 C 
ATOM     15  C   UNL A   1      31.565  27.822  23.589  1.00  0.00     0.252 C 
ATOM     16  C   UNL A   1      30.746  27.364  22.382  1.00  0.00     0.106 C 
ATOM     17  O   UNL A   1      31.323  26.866  24.621  1.00  0.00    -0.419 OA
ATOM     18  O   UNL A   1      31.113  29.137  23.908  1.00  0.00    -0.419 OA
ATOM     19  C   UNL A   1      31.568  27.208  25.901  1.00  0.00     0.350 C 
ATOM     20  C   UNL A   1      31.390  29.632  25.130  1.00  0.00     0.350 C 
ATOM     21  O   UNL A   1      31.638  26.365  26.785  1.00  0.00    -0.246 OA
ATOM     22  C   UNL A   1      31.777  28.637  26.132  1.00  0.00     0.161 C 
ATOM     23  O   UNL A   1      31.304  30.830  25.375  1.00  0.00    -0.246 OA
ENDBRANCH  11  13
ENDBRANCH   6  11
ENDBRANCH   3   5
ENDBRANCH   2   3
ENDBRANCH   1   2
BRANCH   1  24
ATOM     24  C   UNL A   1      32.902  36.260  29.609  1.00  0.00     0.275 C 
BRANCH  24  25
ATOM     25  O   UNL A   1      32.384  35.411  30.643  1.00  0.00    -0.458 OA
BRANCH  25  26
ATOM     26  C   UNL A   1      32.553  35.850  31.904  1.00  0.00     0.338 C 
ATOM     27  O   UNL A   1      31.889  36.673  32.517  1.00  0.00    -0.246 OA
BRANCH  26  28
ATOM     28  C   UNL A   1      33.660  35.098  32.499  1.00  0.00     0.060 A 
ATOM     29  C   UNL A   1      34.913  35.707  32.559  1.00  0.00     0.016 A 
ATOM     30  C   UNL A   1      33.488  33.781  32.912  1.00  0.00     0.016 A 
ATOM     31  C   UNL A   1      36.022  34.980  32.977  1.00  0.00     0.010 A 
ATOM     32  C   UNL A   1      34.591  33.070  33.394  1.00  0.00     0.010 A 
ATOM     33  C   UNL A   1      35.875  33.653  33.402  1.00  0.00    -0.014 A 
BRANCH  33  34
ATOM     34  C   UNL A   1      37.065  32.843  33.777  1.00  0.00     0.031 A 
ATOM     35  C   UNL A   1      37.702  33.045  35.125  1.00  0.00     0.074 A 
ATOM     36  C   UNL A   1      37.568  31.920  32.935  1.00  0.00     0.049 A 
ATOM     37  N   UNL A   1      38.852  32.611  35.575  1.00  0.00    -0.248 NA
ATOM     38  C   UNL A   1      36.944  33.852  36.095  1.00  0.00     0.031 C 
ATOM     39  C   UNL A   1      37.013  31.570  31.628  1.00  0.00     0.029 A 
ATOM     40  N   UNL A   1      38.664  31.101  33.059  1.00  0.00    -0.354 N 
ATOM     41  C   UNL A   1      38.978  33.135  36.855  1.00  0.00     0.074 A 
ATOM     42  C   UNL A   1      37.790  33.920  37.113  1.00  0.00     0.031 C 
ATOM     43  C   UNL A   1      37.753  30.592  31.082  1.00  0.00     0.029 A 
ATOM     44  C   UNL A   1      38.881  30.303  31.962  1.00  0.00     0.049 A 
ATOM     45  H   UNL A   1      39.238  31.086  33.859  1.00  0.00     0.167 HD
ATOM     46  C   UNL A   1      39.996  32.974  37.735  1.00  0.00     0.037 A 
ATOM     47  C   UNL A   1      39.899  29.467  31.677  1.00  0.00     0.037 A 
ATOM     48  C   UNL A   1      41.155  32.154  37.493  1.00  0.00     0.049 A 
ATOM     49  C   UNL A   1      41.034  29.333  32.656  1.00  0.00     0.074 A 
ATOM     50  C   UNL A   1      42.257  31.953  38.304  1.00  0.00     0.029 A 
ATOM     51  N   UNL A   1      41.342  31.376  36.362  1.00  0.00    -0.354 N 
ATOM     52  N   UNL A   1      41.192  29.907  33.824  1.00  0.00    -0.248 NA
ATOM     53  C   UNL A   1      42.143  28.450  32.266  1.00  0.00     0.031 C 
ATOM     54  C   UNL A   1      43.122  31.064  37.655  1.00  0.00     0.029 A 
ATOM     55  C   UNL A   1      42.540  30.687  36.456  1.00  0.00     0.049 A 
ATOM     56  H   UNL A   1      40.717  31.320  35.603  1.00  0.00     0.167 HD
ATOM     57  C   UNL A   1      42.408  29.448  34.312  1.00  0.00     0.074 A 
ATOM     58  C   UNL A   1      42.937  28.530  33.325  1.00  0.00     0.031 C 
ATOM     59  C   UNL A   1      43.038  29.767  35.468  1.00  0.00     0.037 A 
BRANCH  46  60
ATOM     60  C   UNL A   1      39.917  33.721  39.033  1.00  0.00     0.064 A 
ATOM     61  C   UNL A   1      40.550  34.960  39.211  1.00  0.00     0.173 A 
ATOM     62  C   UNL A   1      39.163  33.208  40.100  1.00  0.00     0.173 A 
ATOM     63  F   UNL A   1      41.296  35.483  38.227  1.00  0.00    -0.203 F 
ATOM     64  C   UNL A   1      40.443  35.649  40.416  1.00  0.00     0.198 A 
ATOM     65  C   UNL A   1      39.039  33.912  41.293  1.00  0.00     0.198 A 
ATOM     66  F   UNL A   1      38.536  32.028  39.979  1.00  0.00    -0.203 F 
ATOM     67  F   UNL A   1      41.087  36.815  40.577  1.00  0.00    -0.200 F 
ATOM     68  C   UNL A   1      39.683  35.130  41.453  1.00  0.00     0.200 A 
ATOM     69  F   UNL A   1      38.295  33.414  42.290  1.00  0.00    -0.200 F 
ATOM     70  F   UNL A   1      39.575  35.800  42.608  1.00  0.00    -0.200 F 
ENDBRANCH  46  60
BRANCH  47  71
ATOM     71  C   UNL A   1      39.917  28.726  30.389  1.00  0.00     0.064 A 
ATOM     72  C   UNL A   1      39.346  27.452  30.282  1.00  0.00     0.173 A 
ATOM     73  C   UNL A   1      40.525  29.268  29.245  1.00  0.00     0.173 A 
ATOM     74  F   UNL A   1      38.780  26.879  31.355  1.00  0.00    -0.203 F 
ATOM     75  C   UNL A   1      39.392  26.740  29.084  1.00  0.00     0.198 A 
ATOM     76  C   UNL A   1      40.544  28.569  28.042  1.00  0.00     0.198 A 
ATOM     77  F   UNL A   1      41.092  30.481  29.297  1.00  0.00    -0.203 F 
ATOM     78  F   UNL A   1      38.882  25.504  29.022  1.00  0.00    -0.200 F 
ATOM     79  C   UNL A   1      39.985  27.303  27.963  1.00  0.00     0.200 A 
ATOM     80  F   UNL A   1      41.108  29.120  26.958  1.00  0.00    -0.200 F 
ATOM     81  F   UNL A   1      40.029  26.619  26.812  1.00  0.00    -0.200 F 
ENDBRANCH  47  71
BRANCH  59  82
ATOM     82  C   UNL A   1      44.347  29.090  35.741  1.00  0.00     0.064 A 
ATOM     83  C   UNL A   1      45.563  29.657  35.332  1.00  0.00     0.173 A 
ATOM     84  C   UNL A   1      44.386  27.877  36.443  1.00  0.00     0.173 A 
ATOM     85  F   UNL A   1      45.573  30.807  34.643  1.00  0.00    -0.203 F 
ATOM     86  C   UNL A   1      46.772  29.018  35.597  1.00  0.00     0.198 A 
ATOM     87  C   UNL A   1      45.597  27.253  36.726  1.00  0.00     0.198 A 
ATOM     88  F   UNL A   1      43.249  27.300  36.858  1.00  0.00    -0.203 F 
ATOM     89  F   UNL A   1      47.919  29.555  35.161  1.00  0.00    -0.200 F 
ATOM     90  C   UNL A   1      46.788  27.821  36.297  1.00  0.00     0.200 A 
ATOM     91  F   UNL A   1      45.613  26.101  37.409  1.00  0.00    -0.200 F 
ATOM     92  F   UNL A   1      47.953  27.210  36.552  1.00  0.00    -0.200 F 
ENDBRANCH  59  82
ENDBRANCH  33  34
ENDBRANCH  26  28
ENDBRANCH  25  26
ENDBRANCH  24  25
ENDBRANCH   1  24
TORSDOF 13
ENDMDL
MODEL 2
REMARK VINA RESULT:     -12.2      0.183      1.602
REMARK SMILES CC1(C)OC(=O)C(=CNc2ccccc2C(=O)OCCOC(=O)c2ccc(-c3c4nc(c(-c5c(F)c(F)c(F)c(F)c5F)c5ccc([nH]5)c(-c5c(F)c(F)c(F)c(F)c5F)c5nc(c(-c6c(F)c(F)c(F)c(F)c6F)c6ccc3[nH]6)C=C5)C=C4)cc2)C(=O)O1
REMARK SMILES IDX 19 1 18 2 16 3 17 4 15 5 10 6 11 7 12 8 14 9 13 10 9 11 8 13
REMARK SMILES IDX 1 14 2 15 3 16 4 17 89 18 5 19 87 20 6 21 7 22 88 23 20 24
REMARK SMILES IDX 21 25 22 26 23 27 24 28 25 29 86 30 26 31 85 32 27 33 28 34
REMARK SMILES IDX 29 35 79 36 30 37 84 38 78 39 80 40 31 41 83 42 77 43 76 44
REMARK SMILES IDX 32 46 64 47 44 48 63 49 45 50 48 51 62 52 81 53 46 54 47 55
REMARK SMILES IDX 61 57 82 58 49 59 33 60 34 61 42 62 35 63 36 64 40 65 43 66
REMARK SMILES IDX 37 67 38 68 41 69 39 70 65 71 66 72 74 73 67 74 68 75 72 76
REMARK SMILES IDX 75 77 69 78 70 79 73 80 71 81 50 82 51 83 59 84 52 85 53 86
REMARK SMILES IDX 57 87 60 88 54 89 55 90 58 91 56 92
REMARK H PARENT 9 12 80 45 48 56
REMARK Flexibility Score: inf
ROOT
ATOM      1  C   UNL A   1      34.007  35.314  28.913  1.00  0.00     0.275 C 
ENDROOT
BRANCH   1   2
ATOM      2  O   UNL A   1      33.879  33.908  29.219  1.00  0.00    -0.458 OA
BRANCH   2   3
ATOM      3  C   UNL A   1      33.458  33.104  28.208  1.00  0.00     0.340 C 
ATOM      4  O   UNL A   1      32.486  33.298  27.494  1.00  0.00    -0.246 OA
BRANCH   3   5
ATOM      5  C   UNL A   1      34.401  31.983  27.971  1.00  0.00     0.083 A 
ATOM      6  C   UNL A   1      34.031  30.638  27.770  1.00  0.00     0.053 A 
ATOM      7  C   UNL A   1      35.073  29.695  27.620  1.00  0.00     0.027 A 
ATOM      8  C   UNL A   1      36.421  30.060  27.673  1.00  0.00     0.002 A 
ATOM      9  C   UNL A   1      35.765  32.346  27.979  1.00  0.00     0.018 A 
ATOM     10  C   UNL A   1      36.769  31.391  27.848  1.00  0.00     0.001 A 
BRANCH   6  11
ATOM     11  N   UNL A   1      32.724  30.135  27.608  1.00  0.00    -0.360 N 
ATOM     12  H   UNL A   1      32.003  30.787  27.764  1.00  0.00     0.166 HD
BRANCH  11  13
ATOM     13  C   UNL A   1      32.308  28.873  27.264  1.00  0.00     0.106 C 
ATOM     14  C   UNL A   1      33.113  27.565  23.300  1.00  0.00     0.106 C 
ATOM     15  C   UNL A   1      31.609  27.595  23.597  1.00  0.00     0.252 C 
ATOM     16  C   UNL A   1      30.841  27.124  22.362  1.00  0.00     0.106 C 
ATOM     17  O   UNL A   1      31.286  26.678  24.642  1.00  0.00    -0.419 OA
ATOM     18  O   UNL A   1      31.179  28.931  23.854  1.00  0.00    -0.419 OA
ATOM     19  C   UNL A   1      31.475  27.052  25.923  1.00  0.00     0.350 C 
ATOM     20  C   UNL A   1      31.407  29.455  25.074  1.00  0.00     0.350 C 
ATOM     21  O   UNL A   1      31.474  26.234  26.833  1.00  0.00    -0.246 OA
ATOM     22  C   UNL A   1      31.713  28.481  26.123  1.00  0.00     0.161 C 
ATOM     23  O   UNL A   1      31.343  30.661  25.280  1.00  0.00    -0.246 OA
ENDBRANCH  11  13
ENDBRANCH   6  11
ENDBRANCH   3   5
ENDBRANCH   2   3
ENDBRANCH   1   2
BRANCH   1  24
ATOM     24  C   UNL A   1      32.906  36.111  29.603  1.00  0.00     0.275 C 
BRANCH  24  25
ATOM     25  O   UNL A   1      32.393  35.328  30.690  1.00  0.00    -0.458 OA
BRANCH  25  26
ATOM     26  C   UNL A   1      32.609  35.823  31.924  1.00  0.00     0.338 C 
ATOM     27  O   UNL A   1      31.971  36.677  32.522  1.00  0.00    -0.246 OA
BRANCH  26  28
ATOM     28  C   UNL A   1      33.731  35.091  32.513  1.00  0.00     0.060 A 
ATOM     29  C   UNL A   1      34.986  35.699  32.514  1.00  0.00     0.016 A 
ATOM     30  C   UNL A   1      33.570  33.790  32.979  1.00  0.00     0.016 A 
ATOM     31  C   UNL A   1      36.107  34.986  32.927  1.00  0.00     0.010 A 
ATOM     32  C   UNL A   1      34.686  33.095  33.455  1.00  0.00     0.010 A 
ATOM     33  C   UNL A   1      35.970  33.675  33.404  1.00  0.00    -0.014 A 
BRANCH  33  34
ATOM     34  C   UNL A   1      37.170  32.877  33.773  1.00  0.00     0.031 A 
ATOM     35  C   UNL A   1      37.814  33.088  35.117  1.00  0.00     0.074 A 
ATOM     36  C   UNL A   1      37.676  31.956  32.931  1.00  0.00     0.049 A 
ATOM     37  N   UNL A   1      38.970  32.666  35.561  1.00  0.00    -0.248 NA
ATOM     38  C   UNL A   1      37.054  33.891  36.090  1.00  0.00     0.031 C 
ATOM     39  C   UNL A   1      37.116  31.598  31.628  1.00  0.00     0.029 A 
ATOM     40  N   UNL A   1      38.780  31.147  33.050  1.00  0.00    -0.354 N 
ATOM     41  C   UNL A   1      39.099  33.194  36.839  1.00  0.00     0.074 A 
ATOM     42  C   UNL A   1      37.906  33.969  37.102  1.00  0.00     0.031 C 
ATOM     43  C   UNL A   1      37.862  30.626  31.080  1.00  0.00     0.029 A 
ATOM     44  C   UNL A   1      38.998  30.349  31.954  1.00  0.00     0.049 A 
ATOM     45  H   UNL A   1      39.359  31.140  33.847  1.00  0.00     0.167 HD
ATOM     46  C   UNL A   1      40.124  33.045  37.713  1.00  0.00     0.037 A 
ATOM     47  C   UNL A   1      40.021  29.522  31.665  1.00  0.00     0.037 A 
ATOM     48  C   UNL A   1      41.288  32.235  37.466  1.00  0.00     0.049 A 
ATOM     49  C   UNL A   1      41.163  29.400  32.637  1.00  0.00     0.074 A 
ATOM     50  C   UNL A   1      42.398  32.046  38.271  1.00  0.00     0.029 A 
ATOM     51  N   UNL A   1      41.475  31.455  36.335  1.00  0.00    -0.354 N 
ATOM     52  N   UNL A   1      41.324  29.978  33.802  1.00  0.00    -0.248 NA
ATOM     53  C   UNL A   1      42.278  28.526  32.243  1.00  0.00     0.031 C 
ATOM     54  C   UNL A   1      43.266  31.163  37.619  1.00  0.00     0.029 A 
ATOM     55  C   UNL A   1      42.680  30.777  36.424  1.00  0.00     0.049 A 
ATOM     56  H   UNL A   1      40.846  31.392  35.580  1.00  0.00     0.167 HD
ATOM     57  C   UNL A   1      42.546  29.532  34.284  1.00  0.00     0.074 A 
ATOM     58  C   UNL A   1      43.077  28.616  33.296  1.00  0.00     0.031 C 
ATOM     59  C   UNL A   1      43.181  29.860  35.436  1.00  0.00     0.037 A 
BRANCH  46  60
ATOM     60  C   UNL A   1      40.047  33.795  39.009  1.00  0.00     0.064 A 
ATOM     61  C   UNL A   1      39.411  33.256  40.137  1.00  0.00     0.173 A 
ATOM     62  C   UNL A   1      40.653  35.054  39.135  1.00  0.00     0.173 A 
ATOM     63  F   UNL A   1      38.803  32.063  40.062  1.00  0.00    -0.203 F 
ATOM     64  C   UNL A   1      39.373  33.957  41.339  1.00  0.00     0.198 A 
ATOM     65  C   UNL A   1      40.633  35.741  40.345  1.00  0.00     0.198 A 
ATOM     66  F   UNL A   1      41.276  35.613  38.086  1.00  0.00    -0.203 F 
ATOM     67  F   UNL A   1      38.728  33.439  42.395  1.00  0.00    -0.200 F 
ATOM     68  C   UNL A   1      39.989  35.195  41.444  1.00  0.00     0.200 A 
ATOM     69  F   UNL A   1      41.239  36.933  40.448  1.00  0.00    -0.200 F 
ATOM     70  F   UNL A   1      39.958  35.865  42.605  1.00  0.00    -0.200 F 
ENDBRANCH  46  60
BRANCH  47  71
ATOM     71  C   UNL A   1      40.038  28.777  30.378  1.00  0.00     0.064 A 
ATOM     72  C   UNL A   1      40.626  29.330  29.234  1.00  0.00     0.173 A 
ATOM     73  C   UNL A   1      39.450  27.508  30.263  1.00  0.00     0.173 A 
ATOM     74  F   UNL A   1      41.173  30.553  29.286  1.00  0.00    -0.203 F 
ATOM     75  C   UNL A   1      40.612  28.649  28.017  1.00  0.00     0.198 A 
ATOM     76  C   UNL A   1      39.465  26.816  29.056  1.00  0.00     0.198 A 
ATOM     77  F   UNL A   1      38.870  26.938  31.328  1.00  0.00    -0.203 F 
ATOM     78  F   UNL A   1      41.137  29.221  26.926  1.00  0.00    -0.200 F 
ATOM     79  C   UNL A   1      40.039  27.389  27.932  1.00  0.00     0.200 A 
ATOM     80  F   UNL A   1      38.919  25.594  28.980  1.00  0.00    -0.200 F 
ATOM     81  F   UNL A   1      40.027  26.734  26.763  1.00  0.00    -0.200 F 
ENDBRANCH  47  71
BRANCH  59  82
ATOM     82  C   UNL A   1      44.497  29.195  35.702  1.00  0.00     0.064 A 
ATOM     83  C   UNL A   1      45.707  29.785  35.308  1.00  0.00     0.173 A 
ATOM     84  C   UNL A   1      44.549  27.970  36.383  1.00  0.00     0.173 A 
ATOM     85  F   UNL A   1      45.705  30.947  34.639  1.00  0.00    -0.203 F 
ATOM     86  C   UNL A   1      46.924  29.158  35.567  1.00  0.00     0.198 A 
ATOM     87  C   UNL A   1      45.768  27.358  36.660  1.00  0.00     0.198 A 
ATOM     88  F   UNL A   1      43.418  27.372  36.784  1.00  0.00    -0.203 F 
ATOM     89  F   UNL A   1      48.065  29.717  35.144  1.00  0.00    -0.200 F 
ATOM     90  C   UNL A   1      46.953  27.949  36.246  1.00  0.00     0.200 A 
ATOM     91  F   UNL A   1      45.796  26.194  37.323  1.00  0.00    -0.200 F 
ATOM     92  F   UNL A   1      48.125  27.349  36.495  1.00  0.00    -0.200 F 
ENDBRANCH  59  82
ENDBRANCH  33  34
ENDBRANCH  26  28
ENDBRANCH  25  26
ENDBRANCH  24  25
ENDBRANCH   1  24
TORSDOF 13
ENDMDL
MODEL 3
REMARK VINA RESULT:     -12.0      7.754     13.293
REMARK SMILES CC1(C)OC(=O)C(=CNc2ccccc2C(=O)OCCOC(=O)c2ccc(-c3c4nc(c(-c5c(F)c(F)c(F)c(F)c5F)c5ccc([nH]5)c(-c5c(F)c(F)c(F)c(F)c5F)c5nc(c(-c6c(F)c(F)c(F)c(F)c6F)c6ccc3[nH]6)C=C5)C=C4)cc2)C(=O)O1
REMARK SMILES IDX 19 1 18 2 16 3 17 4 15 5 10 6 11 7 12 8 14 9 13 10 9 11 8 13
REMARK SMILES IDX 1 14 2 15 3 16 4 17 89 18 5 19 87 20 6 21 7 22 88 23 20 24
REMARK SMILES IDX 21 25 22 26 23 27 24 28 25 29 86 30 26 31 85 32 27 33 28 34
REMARK SMILES IDX 29 35 79 36 30 37 84 38 78 39 80 40 31 41 83 42 77 43 76 44
REMARK SMILES IDX 32 46 64 47 44 48 63 49 45 50 48 51 62 52 81 53 46 54 47 55
REMARK SMILES IDX 61 57 82 58 49 59 33 60 34 61 42 62 35 63 36 64 40 65 43 66
REMARK SMILES IDX 37 67 38 68 41 69 39 70 65 71 66 72 74 73 67 74 68 75 72 76
REMARK SMILES IDX 75 77 69 78 70 79 73 80 71 81 50 82 51 83 59 84 52 85 53 86
REMARK SMILES IDX 57 87 60 88 54 89 55 90 58 91 56 92
REMARK H PARENT 9 12 80 45 48 56
REMARK Flexibility Score: inf
ROOT
ATOM      1  C   UNL A   1      42.476  19.190  26.809  1.00  0.00     0.275 C 
ENDROOT
BRANCH   1   2
ATOM      2  O   UNL A   1      41.917  20.395  26.240  1.00  0.00    -0.458 OA
BRANCH   2   3
ATOM      3  C   UNL A   1      40.567  20.429  26.102  1.00  0.00     0.340 C 
ATOM      4  O   UNL A   1      39.856  19.492  25.771  1.00  0.00    -0.246 OA
BRANCH   3   5
ATOM      5  C   UNL A   1      40.005  21.737  26.520  1.00  0.00     0.083 A 
ATOM      6  C   UNL A   1      38.925  22.395  25.899  1.00  0.00     0.053 A 
ATOM      7  C   UNL A   1      38.566  23.667  26.400  1.00  0.00     0.027 A 
ATOM      8  C   UNL A   1      39.247  24.268  27.462  1.00  0.00     0.002 A 
ATOM      9  C   UNL A   1      40.657  22.335  27.620  1.00  0.00     0.018 A 
ATOM     10  C   UNL A   1      40.294  23.598  28.077  1.00  0.00     0.001 A 
BRANCH   6  11
ATOM     11  N   UNL A   1      38.093  21.881  24.884  1.00  0.00    -0.360 N 
ATOM     12  H   UNL A   1      38.308  20.967  24.589  1.00  0.00     0.166 HD
BRANCH  11  13
ATOM     13  C   UNL A   1      37.028  22.466  24.246  1.00  0.00     0.106 C 
ATOM     14  C   UNL A   1      33.404  22.837  26.438  1.00  0.00     0.106 C 
ATOM     15  C   UNL A   1      33.226  21.974  25.184  1.00  0.00     0.252 C 
ATOM     16  C   UNL A   1      31.772  21.512  25.091  1.00  0.00     0.106 C 
ATOM     17  O   UNL A   1      33.477  22.743  24.007  1.00  0.00    -0.419 OA
ATOM     18  O   UNL A   1      34.020  20.792  25.276  1.00  0.00    -0.419 OA
ATOM     19  C   UNL A   1      34.750  22.934  23.609  1.00  0.00     0.350 C 
ATOM     20  C   UNL A   1      35.335  20.879  25.001  1.00  0.00     0.350 C 
ATOM     21  O   UNL A   1      35.039  23.790  22.783  1.00  0.00    -0.246 OA
ATOM     22  C   UNL A   1      35.739  22.077  24.262  1.00  0.00     0.161 C 
ATOM     23  O   UNL A   1      36.124  20.003  25.337  1.00  0.00    -0.246 OA
ENDBRANCH  11  13
ENDBRANCH   6  11
ENDBRANCH   3   5
ENDBRANCH   2   3
ENDBRANCH   1   2
BRANCH   1  24
ATOM     24  C   UNL A   1      43.249  18.412  25.750  1.00  0.00     0.275 C 
BRANCH  24  25
ATOM     25  O   UNL A   1      43.450  19.266  24.616  1.00  0.00    -0.458 OA
BRANCH  25  26
ATOM     26  C   UNL A   1      44.732  19.485  24.265  1.00  0.00     0.338 C 
ATOM     27  O   UNL A   1      45.520  18.711  23.743  1.00  0.00    -0.246 OA
BRANCH  26  28
ATOM     28  C   UNL A   1      45.040  20.890  24.540  1.00  0.00     0.060 A 
ATOM     29  C   UNL A   1      45.657  21.204  25.751  1.00  0.00     0.016 A 
ATOM     30  C   UNL A   1      44.650  21.894  23.659  1.00  0.00     0.016 A 
ATOM     31  C   UNL A   1      45.834  22.534  26.119  1.00  0.00     0.010 A 
ATOM     32  C   UNL A   1      44.886  23.228  24.000  1.00  0.00     0.010 A 
ATOM     33  C   UNL A   1      45.451  23.563  25.247  1.00  0.00    -0.014 A 
BRANCH  33  34
ATOM     34  C   UNL A   1      45.564  24.986  25.664  1.00  0.00     0.031 A 
ATOM     35  C   UNL A   1      46.876  25.704  25.499  1.00  0.00     0.074 A 
ATOM     36  C   UNL A   1      44.504  25.646  26.168  1.00  0.00     0.049 A 
ATOM     37  N   UNL A   1      47.259  26.860  25.979  1.00  0.00    -0.248 NA
ATOM     38  C   UNL A   1      47.900  25.023  24.689  1.00  0.00     0.031 C 
ATOM     39  C   UNL A   1      43.156  25.099  26.320  1.00  0.00     0.029 A 
ATOM     40  N   UNL A   1      44.396  26.931  26.644  1.00  0.00    -0.354 N 
ATOM     41  C   UNL A   1      48.579  27.018  25.576  1.00  0.00     0.074 A 
ATOM     42  C   UNL A   1      48.935  25.841  24.812  1.00  0.00     0.031 C 
ATOM     43  C   UNL A   1      42.351  26.046  26.827  1.00  0.00     0.029 A 
ATOM     44  C   UNL A   1      43.141  27.239  27.112  1.00  0.00     0.049 A 
ATOM     45  H   UNL A   1      45.145  27.570  26.647  1.00  0.00     0.167 HD
ATOM     46  C   UNL A   1      49.417  28.054  25.822  1.00  0.00     0.037 A 
ATOM     47  C   UNL A   1      42.691  28.342  27.742  1.00  0.00     0.037 A 
ATOM     48  C   UNL A   1      49.045  29.244  26.542  1.00  0.00     0.049 A 
ATOM     49  C   UNL A   1      43.651  29.463  28.034  1.00  0.00     0.074 A 
ATOM     50  C   UNL A   1      49.828  30.334  26.876  1.00  0.00     0.029 A 
ATOM     51  N   UNL A   1      47.768  29.508  27.013  1.00  0.00    -0.354 N 
ATOM     52  N   UNL A   1      44.922  29.565  27.734  1.00  0.00    -0.248 NA
ATOM     53  C   UNL A   1      43.115  30.617  28.772  1.00  0.00     0.031 C 
ATOM     54  C   UNL A   1      49.029  31.253  27.565  1.00  0.00     0.029 A 
ATOM     55  C   UNL A   1      47.740  30.749  27.629  1.00  0.00     0.049 A 
ATOM     56  H   UNL A   1      46.995  28.904  26.923  1.00  0.00     0.167 HD
ATOM     57  C   UNL A   1      45.336  30.791  28.235  1.00  0.00     0.074 A 
ATOM     58  C   UNL A   1      44.175  31.410  28.839  1.00  0.00     0.031 C 
ATOM     59  C   UNL A   1      46.570  31.351  28.210  1.00  0.00     0.037 A 
BRANCH  46  60
ATOM     60  C   UNL A   1      50.829  27.936  25.334  1.00  0.00     0.064 A 
ATOM     61  C   UNL A   1      51.174  28.200  24.000  1.00  0.00     0.173 A 
ATOM     62  C   UNL A   1      51.860  27.593  26.224  1.00  0.00     0.173 A 
ATOM     63  F   UNL A   1      50.223  28.514  23.108  1.00  0.00    -0.203 F 
ATOM     64  C   UNL A   1      52.496  28.109  23.572  1.00  0.00     0.198 A 
ATOM     65  C   UNL A   1      53.183  27.528  25.797  1.00  0.00     0.198 A 
ATOM     66  F   UNL A   1      51.583  27.334  27.511  1.00  0.00    -0.203 F 
ATOM     67  F   UNL A   1      52.798  28.330  22.285  1.00  0.00    -0.200 F 
ATOM     68  C   UNL A   1      53.499  27.781  24.471  1.00  0.00     0.200 A 
ATOM     69  F   UNL A   1      54.152  27.222  26.670  1.00  0.00    -0.200 F 
ATOM     70  F   UNL A   1      54.772  27.704  24.059  1.00  0.00    -0.200 F 
ENDBRANCH  46  60
BRANCH  47  71
ATOM     71  C   UNL A   1      41.273  28.423  28.181  1.00  0.00     0.064 A 
ATOM     72  C   UNL A   1      40.287  28.953  27.340  1.00  0.00     0.173 A 
ATOM     73  C   UNL A   1      40.881  27.991  29.458  1.00  0.00     0.173 A 
ATOM     74  F   UNL A   1      40.618  29.407  26.122  1.00  0.00    -0.203 F 
ATOM     75  C   UNL A   1      38.963  29.063  27.763  1.00  0.00     0.198 A 
ATOM     76  C   UNL A   1      39.553  28.073  29.868  1.00  0.00     0.198 A 
ATOM     77  F   UNL A   1      41.788  27.482  30.303  1.00  0.00    -0.203 F 
ATOM     78  F   UNL A   1      38.049  29.619  26.957  1.00  0.00    -0.200 F 
ATOM     79  C   UNL A   1      38.596  28.616  29.024  1.00  0.00     0.200 A 
ATOM     80  F   UNL A   1      39.200  27.631  31.082  1.00  0.00    -0.200 F 
ATOM     81  F   UNL A   1      37.323  28.720  29.429  1.00  0.00    -0.200 F 
ENDBRANCH  47  71
BRANCH  59  82
ATOM     82  C   UNL A   1      46.713  32.712  28.819  1.00  0.00     0.064 A 
ATOM     83  C   UNL A   1      47.058  32.877  30.168  1.00  0.00     0.173 A 
ATOM     84  C   UNL A   1      46.532  33.863  28.037  1.00  0.00     0.173 A 
ATOM     85  F   UNL A   1      47.224  31.806  30.958  1.00  0.00    -0.203 F 
ATOM     86  C   UNL A   1      47.193  34.149  30.720  1.00  0.00     0.198 A 
ATOM     87  C   UNL A   1      46.690  35.132  28.586  1.00  0.00     0.198 A 
ATOM     88  F   UNL A   1      46.207  33.754  26.741  1.00  0.00    -0.203 F 
ATOM     89  F   UNL A   1      47.481  34.284  32.021  1.00  0.00    -0.200 F 
ATOM     90  C   UNL A   1      47.014  35.273  29.928  1.00  0.00     0.200 A 
ATOM     91  F   UNL A   1      46.525  36.217  27.819  1.00  0.00    -0.200 F 
ATOM     92  F   UNL A   1      47.146  36.496  30.461  1.00  0.00    -0.200 F 
ENDBRANCH  59  82
ENDBRANCH  33  34
ENDBRANCH  26  28
ENDBRANCH  25  26
ENDBRANCH  24  25
ENDBRANCH   1  24
TORSDOF 13
ENDMDL
