MODEL 1
REMARK VINA RESULT:     -13.5      0.000      0.000
REMARK SMILES CC[C@H](NC(=O)NC[C@@]1(C)CCCO1)C(=O)OCCOC(=O)c1ccc(-c2c3nc(c(-c4c(F)c(F)c(F)c(F)c4F)c4ccc([nH]4)c(-c4c(F)c(F)c(F)c(F)c4F)c4nc(c(-c5c(F)c(F)c(F)c(F)c5F)c5ccc2[nH]5)C=C4)C=C3)cc1
REMARK SMILES IDX 18 1 17 2 15 3 16 4 3 5 2 6 1 7 4 8 5 9 6 11 7 12 8 14 9 15
REMARK SMILES IDX 10 16 11 17 14 18 12 19 13 20 19 21 20 22 21 23 22 24 23 25
REMARK SMILES IDX 24 26 85 27 25 28 84 29 26 30 27 31 28 32 78 33 29 34 83 35
REMARK SMILES IDX 77 36 79 37 30 38 82 39 76 40 75 41 31 43 63 44 43 45 62 46
REMARK SMILES IDX 44 47 47 48 61 49 80 50 45 51 46 52 60 54 81 55 48 56 32 57
REMARK SMILES IDX 33 58 41 59 34 60 35 61 39 62 42 63 36 64 37 65 40 66 38 67
REMARK SMILES IDX 64 68 65 69 73 70 66 71 67 72 71 73 74 74 68 75 69 76 72 77
REMARK SMILES IDX 70 78 49 79 50 80 58 81 51 82 52 83 56 84 59 85 53 86 54 87
REMARK SMILES IDX 57 88 55 89
REMARK H PARENT 4 10 7 13 79 42 47 53
REMARK Flexibility Score: inf
ROOT
ATOM      1  C   UNL A   1      33.731  27.204  24.731  1.00  0.00     0.274 C 
ENDROOT
BRANCH   1   2
ATOM      2  O   UNL A   1      33.202  26.391  25.967  1.00  0.00    -0.461 OA
BRANCH   2   3
ATOM      3  C   UNL A   1      31.879  26.354  26.493  1.00  0.00     0.328 C 
ATOM      4  O   UNL A   1      31.431  27.259  27.198  1.00  0.00    -0.250 OA
BRANCH   3   5
ATOM      5  C   UNL A   1      30.863  25.190  25.789  1.00  0.00     0.193 C 
BRANCH   5   6
ATOM      6  C   UNL A   1      30.347  25.341  24.331  1.00  0.00     0.033 C 
ATOM      7  C   UNL A   1      29.060  26.122  24.174  1.00  0.00     0.007 C 
ENDBRANCH   5   6
BRANCH   5   8
ATOM      8  N   UNL A   1      29.958  24.395  26.592  1.00  0.00    -0.325 N 
ATOM      9  C   UNL A   1      30.010  23.097  26.909  1.00  0.00     0.315 C 
ATOM     10  H   UNL A   1      29.187  24.884  26.960  1.00  0.00     0.166 HD
ATOM     11  O   UNL A   1      29.092  22.629  27.605  1.00  0.00    -0.249 OA
ATOM     12  N   UNL A   1      31.031  22.281  26.597  1.00  0.00    -0.335 N 
ATOM     13  H   UNL A   1      30.835  21.363  26.898  1.00  0.00     0.165 HD
BRANCH  12  14
ATOM     14  C   UNL A   1      32.390  22.332  25.925  1.00  0.00     0.152 C 
BRANCH  14  15
ATOM     15  C   UNL A   1      32.799  21.217  24.819  1.00  0.00     0.083 C 
ATOM     16  C   UNL A   1      32.355  22.182  23.600  1.00  0.00     0.044 C 
ATOM     17  C   UNL A   1      34.183  20.412  24.984  1.00  0.00     0.039 C 
ATOM     18  O   UNL A   1      32.021  20.018  25.055  1.00  0.00    -0.373 OA
ATOM     19  C   UNL A   1      34.032  18.987  24.533  1.00  0.00     0.031 C 
ATOM     20  C   UNL A   1      32.710  18.762  25.155  1.00  0.00     0.161 C 
ENDBRANCH  14  15
ENDBRANCH  12  14
ENDBRANCH   5   8
ENDBRANCH   3   5
ENDBRANCH   2   3
ENDBRANCH   1   2
BRANCH   1  21
ATOM     21  C   UNL A   1      33.060  28.814  24.180  1.00  0.00     0.275 C 
BRANCH  21  22
ATOM     22  O   UNL A   1      32.298  29.887  25.170  1.00  0.00    -0.458 OA
BRANCH  22  23
ATOM     23  C   UNL A   1      32.568  30.496  26.433  1.00  0.00     0.338 C 
ATOM     24  O   UNL A   1      31.653  30.981  27.092  1.00  0.00    -0.246 OA
BRANCH  23  25
ATOM     25  C   UNL A   1      34.105  30.478  27.140  1.00  0.00     0.060 A 
ATOM     26  C   UNL A   1      34.847  29.371  27.572  1.00  0.00     0.016 A 
ATOM     27  C   UNL A   1      34.793  31.630  27.549  1.00  0.00     0.016 A 
ATOM     28  C   UNL A   1      36.027  29.292  28.368  1.00  0.00     0.010 A 
ATOM     29  C   UNL A   1      36.082  31.596  28.280  1.00  0.00     0.010 A 
ATOM     30  C   UNL A   1      36.729  30.410  28.712  1.00  0.00    -0.014 A 
BRANCH  30  31
ATOM     31  C   UNL A   1      38.023  30.283  29.514  1.00  0.00     0.031 A 
ATOM     32  C   UNL A   1      39.161  29.444  28.974  1.00  0.00     0.074 A 
ATOM     33  C   UNL A   1      38.285  30.929  30.686  1.00  0.00     0.049 A 
ATOM     34  N   UNL A   1      40.178  28.898  29.599  1.00  0.00    -0.248 NA
ATOM     35  C   UNL A   1      39.155  29.205  27.525  1.00  0.00     0.031 C 
ATOM     36  C   UNL A   1      37.464  31.961  31.328  1.00  0.00     0.029 A 
ATOM     37  N   UNL A   1      39.336  30.777  31.586  1.00  0.00    -0.354 N 
ATOM     38  C   UNL A   1      40.873  28.168  28.640  1.00  0.00     0.074 A 
ATOM     39  C   UNL A   1      40.180  28.376  27.384  1.00  0.00     0.031 C 
ATOM     40  C   UNL A   1      38.004  32.307  32.508  1.00  0.00     0.029 A 
ATOM     41  C   UNL A   1      39.156  31.455  32.777  1.00  0.00     0.049 A 
ATOM     42  H   UNL A   1      40.135  30.235  31.392  1.00  0.00     0.167 HD
ATOM     43  C   UNL A   1      41.968  27.380  28.795  1.00  0.00     0.037 A 
ATOM     44  C   UNL A   1      39.767  31.359  33.981  1.00  0.00     0.037 A 
ATOM     45  C   UNL A   1      42.704  27.215  30.025  1.00  0.00     0.049 A 
ATOM     46  C   UNL A   1      40.888  30.370  34.188  1.00  0.00     0.074 A 
ATOM     47  C   UNL A   1      43.814  26.420  30.266  1.00  0.00     0.029 A 
ATOM     48  N   UNL A   1      42.422  27.865  31.216  1.00  0.00    -0.354 N 
ATOM     49  N   UNL A   1      41.455  29.572  33.320  1.00  0.00    -0.248 NA
ATOM     50  C   UNL A   1      41.441  30.255  35.549  1.00  0.00     0.031 C 
ATOM     51  C   UNL A   1      44.161  26.538  31.617  1.00  0.00     0.029 A 
ATOM     52  C   UNL A   1      43.314  27.464  32.200  1.00  0.00     0.049 A 
ATOM     53  H   UNL A   1      41.695  28.517  31.345  1.00  0.00     0.167 HD
ATOM     54  C   UNL A   1      42.448  28.891  34.016  1.00  0.00     0.074 A 
ATOM     55  C   UNL A   1      42.417  29.374  35.378  1.00  0.00     0.031 C 
ATOM     56  C   UNL A   1      43.308  27.949  33.557  1.00  0.00     0.037 A 
BRANCH  43  57
ATOM     57  C   UNL A   1      42.402  26.551  27.616  1.00  0.00     0.064 A 
ATOM     58  C   UNL A   1      43.424  26.950  26.746  1.00  0.00     0.173 A 
ATOM     59  C   UNL A   1      41.804  25.298  27.392  1.00  0.00     0.173 A 
ATOM     60  F   UNL A   1      44.024  28.139  26.908  1.00  0.00    -0.203 F 
ATOM     61  C   UNL A   1      43.810  26.142  25.677  1.00  0.00     0.198 A 
ATOM     62  C   UNL A   1      42.216  24.478  26.347  1.00  0.00     0.198 A 
ATOM     63  F   UNL A   1      40.830  24.858  28.205  1.00  0.00    -0.203 F 
ATOM     64  F   UNL A   1      44.754  26.566  24.826  1.00  0.00    -0.200 F 
ATOM     65  C   UNL A   1      43.212  24.905  25.483  1.00  0.00     0.200 A 
ATOM     66  F   UNL A   1      41.652  23.274  26.178  1.00  0.00    -0.200 F 
ATOM     67  F   UNL A   1      43.593  24.126  24.462  1.00  0.00    -0.200 F 
ENDBRANCH  43  57
BRANCH  44  68
ATOM     68  C   UNL A   1      39.273  32.156  35.148  1.00  0.00     0.064 A 
ATOM     69  C   UNL A   1      39.662  33.490  35.342  1.00  0.00     0.173 A 
ATOM     70  C   UNL A   1      38.443  31.581  36.126  1.00  0.00     0.173 A 
ATOM     71  F   UNL A   1      40.494  34.076  34.468  1.00  0.00    -0.203 F 
ATOM     72  C   UNL A   1      39.249  34.212  36.462  1.00  0.00     0.198 A 
ATOM     73  C   UNL A   1      38.001  32.314  37.227  1.00  0.00     0.198 A 
ATOM     74  F   UNL A   1      38.056  30.302  36.011  1.00  0.00    -0.203 F 
ATOM     75  F   UNL A   1      39.682  35.467  36.646  1.00  0.00    -0.200 F 
ATOM     76  C   UNL A   1      38.410  33.627  37.399  1.00  0.00     0.200 A 
ATOM     77  F   UNL A   1      37.184  31.745  38.124  1.00  0.00    -0.200 F 
ATOM     78  F   UNL A   1      38.007  34.323  38.470  1.00  0.00    -0.200 F 
ENDBRANCH  44  68
BRANCH  56  79
ATOM     79  C   UNL A   1      44.340  27.413  34.512  1.00  0.00     0.064 A 
ATOM     80  C   UNL A   1      45.572  28.053  34.714  1.00  0.00     0.173 A 
ATOM     81  C   UNL A   1      44.077  26.256  35.262  1.00  0.00     0.173 A 
ATOM     82  F   UNL A   1      45.885  29.154  34.013  1.00  0.00    -0.203 F 
ATOM     83  C   UNL A   1      46.511  27.540  35.608  1.00  0.00     0.198 A 
ATOM     84  C   UNL A   1      45.004  25.764  36.179  1.00  0.00     0.198 A 
ATOM     85  F   UNL A   1      42.914  25.603  35.114  1.00  0.00    -0.203 F 
ATOM     86  F   UNL A   1      47.702  28.141  35.745  1.00  0.00    -0.200 F 
ATOM     87  C   UNL A   1      46.223  26.402  36.345  1.00  0.00     0.200 A 
ATOM     88  F   UNL A   1      44.716  24.671  36.900  1.00  0.00    -0.200 F 
ATOM     89  F   UNL A   1      47.124  25.914  37.210  1.00  0.00    -0.200 F 
ENDBRANCH  56  79
ENDBRANCH  30  31
ENDBRANCH  23  25
ENDBRANCH  22  23
ENDBRANCH  21  22
ENDBRANCH   1  21
TORSDOF 15
ENDMDL
MODEL 2
REMARK VINA RESULT:     -13.3      1.580      2.304
REMARK SMILES CC[C@H](NC(=O)NC[C@@]1(C)CCCO1)C(=O)OCCOC(=O)c1ccc(-c2c3nc(c(-c4c(F)c(F)c(F)c(F)c4F)c4ccc([nH]4)c(-c4c(F)c(F)c(F)c(F)c4F)c4nc(c(-c5c(F)c(F)c(F)c(F)c5F)c5ccc2[nH]5)C=C4)C=C3)cc1
REMARK SMILES IDX 18 1 17 2 15 3 16 4 3 5 2 6 1 7 4 8 5 9 6 11 7 12 8 14 9 15
REMARK SMILES IDX 10 16 11 17 14 18 12 19 13 20 19 21 20 22 21 23 22 24 23 25
REMARK SMILES IDX 24 26 85 27 25 28 84 29 26 30 27 31 28 32 78 33 29 34 83 35
REMARK SMILES IDX 77 36 79 37 30 38 82 39 76 40 75 41 31 43 63 44 43 45 62 46
REMARK SMILES IDX 44 47 47 48 61 49 80 50 45 51 46 52 60 54 81 55 48 56 32 57
REMARK SMILES IDX 33 58 41 59 34 60 35 61 39 62 42 63 36 64 37 65 40 66 38 67
REMARK SMILES IDX 64 68 65 69 73 70 66 71 67 72 71 73 74 74 68 75 69 76 72 77
REMARK SMILES IDX 70 78 49 79 50 80 58 81 51 82 52 83 56 84 59 85 53 86 54 87
REMARK SMILES IDX 57 88 55 89
REMARK H PARENT 4 10 7 13 79 42 47 53
REMARK Flexibility Score: inf
ROOT
ATOM      1  C   UNL A   1      30.733  26.515  25.907  1.00  0.00     0.274 C 
ENDROOT
BRANCH   1   2
ATOM      2  O   UNL A   1      30.111  26.631  24.469  1.00  0.00    -0.461 OA
BRANCH   2   3
ATOM      3  C   UNL A   1      30.599  27.377  23.358  1.00  0.00     0.328 C 
ATOM      4  O   UNL A   1      30.040  28.400  22.962  1.00  0.00    -0.250 OA
BRANCH   3   5
ATOM      5  C   UNL A   1      32.174  26.977  22.867  1.00  0.00     0.193 C 
BRANCH   5   6
ATOM      6  C   UNL A   1      33.420  27.524  23.618  1.00  0.00     0.033 C 
ATOM      7  C   UNL A   1      33.796  28.954  23.296  1.00  0.00     0.007 C 
ENDBRANCH   5   6
BRANCH   5   8
ATOM      8  N   UNL A   1      32.479  26.675  21.484  1.00  0.00    -0.325 N 
ATOM      9  C   UNL A   1      32.718  25.497  20.898  1.00  0.00     0.315 C 
ATOM     10  H   UNL A   1      32.516  27.455  20.885  1.00  0.00     0.166 HD
ATOM     11  O   UNL A   1      32.981  25.493  19.683  1.00  0.00    -0.249 OA
ATOM     12  N   UNL A   1      32.611  24.308  21.514  1.00  0.00    -0.335 N 
ATOM     13  H   UNL A   1      32.871  23.583  20.899  1.00  0.00     0.165 HD
BRANCH  12  14
ATOM     14  C   UNL A   1      32.217  23.734  22.862  1.00  0.00     0.152 C 
BRANCH  14  15
ATOM     15  C   UNL A   1      33.356  23.320  23.941  1.00  0.00     0.083 C 
ATOM     16  C   UNL A   1      33.036  21.745  23.757  1.00  0.00     0.044 C 
ATOM     17  C   UNL A   1      34.791  24.045  23.893  1.00  0.00     0.039 C 
ATOM     18  O   UNL A   1      33.037  23.933  25.214  1.00  0.00    -0.373 OA
ATOM     19  C   UNL A   1      35.334  24.254  25.277  1.00  0.00     0.031 C 
ATOM     20  C   UNL A   1      34.058  24.689  25.885  1.00  0.00     0.161 C 
ENDBRANCH  14  15
ENDBRANCH  12  14
ENDBRANCH   5   8
ENDBRANCH   3   5
ENDBRANCH   2   3
ENDBRANCH   1   2
BRANCH   1  21
ATOM     21  C   UNL A   1      31.409  27.920  26.865  1.00  0.00     0.275 C 
BRANCH  21  22
ATOM     22  O   UNL A   1      31.811  29.377  26.211  1.00  0.00    -0.458 OA
BRANCH  22  23
ATOM     23  C   UNL A   1      32.477  30.559  26.657  1.00  0.00     0.338 C 
ATOM     24  O   UNL A   1      31.893  31.639  26.643  1.00  0.00    -0.246 OA
BRANCH  23  25
ATOM     25  C   UNL A   1      34.029  30.527  27.330  1.00  0.00     0.060 A 
ATOM     26  C   UNL A   1      34.752  29.420  27.789  1.00  0.00     0.016 A 
ATOM     27  C   UNL A   1      34.755  31.676  27.679  1.00  0.00     0.016 A 
ATOM     28  C   UNL A   1      35.947  29.340  28.562  1.00  0.00     0.010 A 
ATOM     29  C   UNL A   1      36.060  31.636  28.382  1.00  0.00     0.010 A 
ATOM     30  C   UNL A   1      36.685  30.452  28.846  1.00  0.00    -0.014 A 
BRANCH  30  31
ATOM     31  C   UNL A   1      37.994  30.321  29.624  1.00  0.00     0.031 A 
ATOM     32  C   UNL A   1      39.120  29.479  29.064  1.00  0.00     0.074 A 
ATOM     33  C   UNL A   1      38.278  30.967  30.791  1.00  0.00     0.049 A 
ATOM     34  N   UNL A   1      40.147  28.931  29.670  1.00  0.00    -0.248 NA
ATOM     35  C   UNL A   1      39.086  29.241  27.615  1.00  0.00     0.031 C 
ATOM     36  C   UNL A   1      37.473  32.001  31.448  1.00  0.00     0.029 A 
ATOM     37  N   UNL A   1      39.346  30.812  31.672  1.00  0.00    -0.354 N 
ATOM     38  C   UNL A   1      40.822  28.199  28.698  1.00  0.00     0.074 A 
ATOM     39  C   UNL A   1      40.106  28.408  27.455  1.00  0.00     0.031 C 
ATOM     40  C   UNL A   1      38.035  32.346  32.618  1.00  0.00     0.029 A 
ATOM     41  C   UNL A   1      39.190  31.491  32.865  1.00  0.00     0.049 A 
ATOM     42  H   UNL A   1      40.140  30.269  31.463  1.00  0.00     0.167 HD
ATOM     43  C   UNL A   1      41.917  27.409  28.833  1.00  0.00     0.037 A 
ATOM     44  C   UNL A   1      39.823  31.394  34.058  1.00  0.00     0.037 A 
ATOM     45  C   UNL A   1      42.676  27.242  30.050  1.00  0.00     0.049 A 
ATOM     46  C   UNL A   1      40.945  30.402  34.244  1.00  0.00     0.074 A 
ATOM     47  C   UNL A   1      43.788  26.444  30.270  1.00  0.00     0.029 A 
ATOM     48  N   UNL A   1      42.417  27.893  31.245  1.00  0.00    -0.354 N 
ATOM     49  N   UNL A   1      41.494  29.602  33.366  1.00  0.00    -0.248 NA
ATOM     50  C   UNL A   1      41.523  30.286  35.595  1.00  0.00     0.031 C 
ATOM     51  C   UNL A   1      44.161  26.561  31.614  1.00  0.00     0.029 A 
ATOM     52  C   UNL A   1      43.327  27.490  32.213  1.00  0.00     0.049 A 
ATOM     53  H   UNL A   1      41.694  28.547  31.387  1.00  0.00     0.167 HD
ATOM     54  C   UNL A   1      42.498  28.919  34.044  1.00  0.00     0.074 A 
ATOM     55  C   UNL A   1      42.493  29.402  35.406  1.00  0.00     0.031 C 
ATOM     56  C   UNL A   1      43.347  27.974  33.569  1.00  0.00     0.037 A 
BRANCH  43  57
ATOM     57  C   UNL A   1      42.327  26.578  27.646  1.00  0.00     0.064 A 
ATOM     58  C   UNL A   1      43.341  26.970  26.763  1.00  0.00     0.173 A 
ATOM     59  C   UNL A   1      41.714  25.332  27.428  1.00  0.00     0.173 A 
ATOM     60  F   UNL A   1      43.955  28.152  26.921  1.00  0.00    -0.203 F 
ATOM     61  C   UNL A   1      43.706  26.160  25.688  1.00  0.00     0.198 A 
ATOM     62  C   UNL A   1      42.105  24.510  26.375  1.00  0.00     0.198 A 
ATOM     63  F   UNL A   1      40.748  24.899  28.252  1.00  0.00    -0.203 F 
ATOM     64  F   UNL A   1      44.642  26.577  24.825  1.00  0.00    -0.200 F 
ATOM     65  C   UNL A   1      43.093  24.929  25.499  1.00  0.00     0.200 A 
ATOM     66  F   UNL A   1      41.526  23.312  26.211  1.00  0.00    -0.200 F 
ATOM     67  F   UNL A   1      43.453  24.149  24.471  1.00  0.00    -0.200 F 
ENDBRANCH  43  57
BRANCH  44  68
ATOM     68  C   UNL A   1      39.352  32.192  35.234  1.00  0.00     0.064 A 
ATOM     69  C   UNL A   1      39.801  33.503  35.457  1.00  0.00     0.173 A 
ATOM     70  C   UNL A   1      38.485  31.639  36.191  1.00  0.00     0.173 A 
ATOM     71  F   UNL A   1      40.670  34.065  34.603  1.00  0.00    -0.203 F 
ATOM     72  C   UNL A   1      39.408  34.223  36.585  1.00  0.00     0.198 A 
ATOM     73  C   UNL A   1      38.064  32.373  37.301  1.00  0.00     0.198 A 
ATOM     74  F   UNL A   1      38.040  30.382  36.049  1.00  0.00    -0.203 F 
ATOM     75  F   UNL A   1      39.897  35.452  36.798  1.00  0.00    -0.200 F 
ATOM     76  C   UNL A   1      38.531  33.661  37.501  1.00  0.00     0.200 A 
ATOM     77  F   UNL A   1      37.210  31.827  38.177  1.00  0.00    -0.200 F 
ATOM     78  F   UNL A   1      38.148  34.356  38.580  1.00  0.00    -0.200 F 
ENDBRANCH  44  68
BRANCH  56  79
ATOM     79  C   UNL A   1      44.395  27.436  34.505  1.00  0.00     0.064 A 
ATOM     80  C   UNL A   1      45.613  28.099  34.721  1.00  0.00     0.173 A 
ATOM     81  C   UNL A   1      44.162  26.252  35.223  1.00  0.00     0.173 A 
ATOM     82  F   UNL A   1      45.896  29.227  34.050  1.00  0.00    -0.203 F 
ATOM     83  C   UNL A   1      46.567  27.583  35.597  1.00  0.00     0.198 A 
ATOM     84  C   UNL A   1      45.104  25.757  36.123  1.00  0.00     0.198 A 
ATOM     85  F   UNL A   1      43.014  25.578  35.061  1.00  0.00    -0.203 F 
ATOM     86  F   UNL A   1      47.744  28.208  35.746  1.00  0.00    -0.200 F 
ATOM     87  C   UNL A   1      46.309  26.418  36.302  1.00  0.00     0.200 A 
ATOM     88  F   UNL A   1      44.845  24.638  36.813  1.00  0.00    -0.200 F 
ATOM     89  F   UNL A   1      47.224  25.927  37.149  1.00  0.00    -0.200 F 
ENDBRANCH  56  79
ENDBRANCH  30  31
ENDBRANCH  23  25
ENDBRANCH  22  23
ENDBRANCH  21  22
ENDBRANCH   1  21
TORSDOF 15
ENDMDL
MODEL 3
REMARK VINA RESULT:     -12.8      1.563      2.998
REMARK SMILES CC[C@H](NC(=O)NC[C@@]1(C)CCCO1)C(=O)OCCOC(=O)c1ccc(-c2c3nc(c(-c4c(F)c(F)c(F)c(F)c4F)c4ccc([nH]4)c(-c4c(F)c(F)c(F)c(F)c4F)c4nc(c(-c5c(F)c(F)c(F)c(F)c5F)c5ccc2[nH]5)C=C4)C=C3)cc1
REMARK SMILES IDX 18 1 17 2 15 3 16 4 3 5 2 6 1 7 4 8 5 9 6 11 7 12 8 14 9 15
REMARK SMILES IDX 10 16 11 17 14 18 12 19 13 20 19 21 20 22 21 23 22 24 23 25
REMARK SMILES IDX 24 26 85 27 25 28 84 29 26 30 27 31 28 32 78 33 29 34 83 35
REMARK SMILES IDX 77 36 79 37 30 38 82 39 76 40 75 41 31 43 63 44 43 45 62 46
REMARK SMILES IDX 44 47 47 48 61 49 80 50 45 51 46 52 60 54 81 55 48 56 32 57
REMARK SMILES IDX 33 58 41 59 34 60 35 61 39 62 42 63 36 64 37 65 40 66 38 67
REMARK SMILES IDX 64 68 65 69 73 70 66 71 67 72 71 73 74 74 68 75 69 76 72 77
REMARK SMILES IDX 70 78 49 79 50 80 58 81 51 82 52 83 56 84 59 85 53 86 54 87
REMARK SMILES IDX 57 88 55 89
REMARK H PARENT 4 10 7 13 79 42 47 53
REMARK Flexibility Score: inf
ROOT
ATOM      1  C   UNL A   1      31.118  26.392  26.099  1.00  0.00     0.274 C 
ENDROOT
BRANCH   1   2
ATOM      2  O   UNL A   1      30.375  26.345  24.715  1.00  0.00    -0.461 OA
BRANCH   2   3
ATOM      3  C   UNL A   1      30.633  27.125  23.552  1.00  0.00     0.328 C 
ATOM      4  O   UNL A   1      29.855  27.997  23.164  1.00  0.00    -0.250 OA
BRANCH   3   5
ATOM      5  C   UNL A   1      32.225  27.030  22.968  1.00  0.00     0.193 C 
BRANCH   5   6
ATOM      6  C   UNL A   1      33.370  27.871  23.598  1.00  0.00     0.033 C 
ATOM      7  C   UNL A   1      34.213  28.658  22.619  1.00  0.00     0.007 C 
ENDBRANCH   5   6
BRANCH   5   8
ATOM      8  N   UNL A   1      32.502  26.710  21.583  1.00  0.00    -0.325 N 
ATOM      9  C   UNL A   1      32.685  25.521  21.000  1.00  0.00     0.315 C 
ATOM     10  H   UNL A   1      32.566  27.485  20.981  1.00  0.00     0.166 HD
ATOM     11  O   UNL A   1      32.935  25.501  19.783  1.00  0.00    -0.249 OA
ATOM     12  N   UNL A   1      32.534  24.340  21.622  1.00  0.00    -0.335 N 
ATOM     13  H   UNL A   1      32.756  23.602  21.008  1.00  0.00     0.165 HD
BRANCH  12  14
ATOM     14  C   UNL A   1      32.129  23.789  22.976  1.00  0.00     0.152 C 
BRANCH  14  15
ATOM     15  C   UNL A   1      33.250  23.181  23.981  1.00  0.00     0.083 C 
ATOM     16  C   UNL A   1      33.204  21.740  23.249  1.00  0.00     0.044 C 
ATOM     17  C   UNL A   1      34.547  24.060  24.343  1.00  0.00     0.039 C 
ATOM     18  O   UNL A   1      32.754  23.268  25.339  1.00  0.00    -0.373 OA
ATOM     19  C   UNL A   1      34.959  23.848  25.772  1.00  0.00     0.031 C 
ATOM     20  C   UNL A   1      33.592  23.873  26.338  1.00  0.00     0.161 C 
ENDBRANCH  14  15
ENDBRANCH  12  14
ENDBRANCH   5   8
ENDBRANCH   3   5
ENDBRANCH   2   3
ENDBRANCH   1   2
BRANCH   1  21
ATOM     21  C   UNL A   1      31.462  27.921  27.044  1.00  0.00     0.275 C 
BRANCH  21  22
ATOM     22  O   UNL A   1      31.832  29.370  26.355  1.00  0.00    -0.458 OA
BRANCH  22  23
ATOM     23  C   UNL A   1      32.516  30.557  26.756  1.00  0.00     0.338 C 
ATOM     24  O   UNL A   1      31.949  31.645  26.702  1.00  0.00    -0.246 OA
BRANCH  23  25
ATOM     25  C   UNL A   1      34.067  30.527  27.431  1.00  0.00     0.060 A 
ATOM     26  C   UNL A   1      34.806  29.416  27.857  1.00  0.00     0.016 A 
ATOM     27  C   UNL A   1      34.777  31.675  27.816  1.00  0.00     0.016 A 
ATOM     28  C   UNL A   1      36.001  29.330  28.629  1.00  0.00     0.010 A 
ATOM     29  C   UNL A   1      36.081  31.631  28.519  1.00  0.00     0.010 A 
ATOM     30  C   UNL A   1      36.723  30.442  28.948  1.00  0.00    -0.014 A 
BRANCH  30  31
ATOM     31  C   UNL A   1      38.032  30.306  29.723  1.00  0.00     0.031 A 
ATOM     32  C   UNL A   1      39.153  29.459  29.162  1.00  0.00     0.074 A 
ATOM     33  C   UNL A   1      38.322  30.952  30.890  1.00  0.00     0.049 A 
ATOM     34  N   UNL A   1      40.179  28.907  29.766  1.00  0.00    -0.248 NA
ATOM     35  C   UNL A   1      39.116  29.220  27.713  1.00  0.00     0.031 C 
ATOM     36  C   UNL A   1      37.522  31.990  31.547  1.00  0.00     0.029 A 
ATOM     37  N   UNL A   1      39.390  30.793  31.769  1.00  0.00    -0.354 N 
ATOM     38  C   UNL A   1      40.849  28.171  28.794  1.00  0.00     0.074 A 
ATOM     39  C   UNL A   1      40.132  28.383  27.552  1.00  0.00     0.031 C 
ATOM     40  C   UNL A   1      38.088  32.333  32.716  1.00  0.00     0.029 A 
ATOM     41  C   UNL A   1      39.239  31.473  32.962  1.00  0.00     0.049 A 
ATOM     42  H   UNL A   1      40.181  30.246  31.559  1.00  0.00     0.167 HD
ATOM     43  C   UNL A   1      41.941  27.376  28.927  1.00  0.00     0.037 A 
ATOM     44  C   UNL A   1      39.874  31.374  34.154  1.00  0.00     0.037 A 
ATOM     45  C   UNL A   1      42.701  27.206  30.143  1.00  0.00     0.049 A 
ATOM     46  C   UNL A   1      40.992  30.377  34.338  1.00  0.00     0.074 A 
ATOM     47  C   UNL A   1      43.810  26.404  30.362  1.00  0.00     0.029 A 
ATOM     48  N   UNL A   1      42.447  27.860  31.338  1.00  0.00    -0.354 N 
ATOM     49  N   UNL A   1      41.536  29.574  33.460  1.00  0.00    -0.248 NA
ATOM     50  C   UNL A   1      41.572  30.259  35.688  1.00  0.00     0.031 C 
ATOM     51  C   UNL A   1      44.186  26.520  31.705  1.00  0.00     0.029 A 
ATOM     52  C   UNL A   1      43.357  27.453  32.305  1.00  0.00     0.049 A 
ATOM     53  H   UNL A   1      41.728  28.516  31.481  1.00  0.00     0.167 HD
ATOM     54  C   UNL A   1      42.538  28.887  34.137  1.00  0.00     0.074 A 
ATOM     55  C   UNL A   1      42.537  29.371  35.498  1.00  0.00     0.031 C 
ATOM     56  C   UNL A   1      43.382  27.938  33.661  1.00  0.00     0.037 A 
BRANCH  43  57
ATOM     57  C   UNL A   1      42.345  26.543  27.741  1.00  0.00     0.064 A 
ATOM     58  C   UNL A   1      41.777  25.292  27.466  1.00  0.00     0.173 A 
ATOM     59  C   UNL A   1      43.293  27.045  26.832  1.00  0.00     0.173 A 
ATOM     60  F   UNL A   1      40.874  24.762  28.303  1.00  0.00    -0.203 F 
ATOM     61  C   UNL A   1      42.165  24.561  26.343  1.00  0.00     0.198 A 
ATOM     62  C   UNL A   1      43.651  26.330  25.693  1.00  0.00     0.198 A 
ATOM     63  F   UNL A   1      43.858  28.245  27.037  1.00  0.00    -0.203 F 
ATOM     64  F   UNL A   1      41.647  23.344  26.127  1.00  0.00    -0.200 F 
ATOM     65  C   UNL A   1      43.095  25.083  25.455  1.00  0.00     0.200 A 
ATOM     66  F   UNL A   1      44.532  26.849  24.827  1.00  0.00    -0.200 F 
ATOM     67  F   UNL A   1      43.457  24.384  24.372  1.00  0.00    -0.200 F 
ENDBRANCH  43  57
BRANCH  44  68
ATOM     68  C   UNL A   1      39.409  32.175  35.330  1.00  0.00     0.064 A 
ATOM     69  C   UNL A   1      38.543  31.631  36.291  1.00  0.00     0.173 A 
ATOM     70  C   UNL A   1      39.776  33.522  35.486  1.00  0.00     0.173 A 
ATOM     71  F   UNL A   1      38.118  30.365  36.166  1.00  0.00    -0.203 F 
ATOM     72  C   UNL A   1      38.063  32.398  37.353  1.00  0.00     0.198 A 
ATOM     73  C   UNL A   1      39.324  34.278  36.567  1.00  0.00     0.198 A 
ATOM     74  F   UNL A   1      40.581  34.108  34.587  1.00  0.00    -0.203 F 
ATOM     75  F   UNL A   1      37.196  31.865  38.224  1.00  0.00    -0.200 F 
ATOM     76  C   UNL A   1      38.462  33.718  37.497  1.00  0.00     0.200 A 
ATOM     77  F   UNL A   1      39.720  35.551  36.705  1.00  0.00    -0.200 F 
ATOM     78  F   UNL A   1      38.007  34.452  38.520  1.00  0.00    -0.200 F 
ENDBRANCH  44  68
BRANCH  56  79
ATOM     79  C   UNL A   1      44.429  27.396  34.595  1.00  0.00     0.064 A 
ATOM     80  C   UNL A   1      44.161  26.349  35.489  1.00  0.00     0.173 A 
ATOM     81  C   UNL A   1      45.735  27.913  34.571  1.00  0.00     0.173 A 
ATOM     82  F   UNL A   1      42.927  25.826  35.567  1.00  0.00    -0.203 F 
ATOM     83  C   UNL A   1      45.150  25.860  36.341  1.00  0.00     0.198 A 
ATOM     84  C   UNL A   1      46.729  27.400  35.400  1.00  0.00     0.198 A 
ATOM     85  F   UNL A   1      46.051  28.913  33.733  1.00  0.00    -0.203 F 
ATOM     86  F   UNL A   1      44.855  24.894  37.223  1.00  0.00    -0.200 F 
ATOM     87  C   UNL A   1      46.434  26.380  36.291  1.00  0.00     0.200 A 
ATOM     88  F   UNL A   1      47.973  27.896  35.339  1.00  0.00    -0.200 F 
ATOM     89  F   UNL A   1      47.386  25.904  37.106  1.00  0.00    -0.200 F 
ENDBRANCH  56  79
ENDBRANCH  30  31
ENDBRANCH  23  25
ENDBRANCH  22  23
ENDBRANCH  21  22
ENDBRANCH   1  21
TORSDOF 15
ENDMDL
