MODEL 1
REMARK VINA RESULT:     -12.0      0.000      0.000
REMARK SMILES COc1ccc(Cc2ncc(C(=O)OCCOC(=O)c3ccc(-c4c5nc(c(-c6c(F)c(F)c(F)c(F)c6F)c6ccc([nH]6)c(-c6c(F)c(F)c(F)c(F)c6F)c6nc(c(-c7c(F)c(F)c(F)c(F)c7F)c7ccc4[nH]7)C=C6)C=C5)cc3)c(C)n2)cn1
REMARK SMILES IDX 15 1 14 2 12 3 13 4 11 5 8 6 9 7 85 8 10 9 83 10 84 11 7 12
REMARK SMILES IDX 6 13 3 14 4 15 87 16 5 17 86 18 2 19 1 20 16 21 17 22 18 23
REMARK SMILES IDX 19 24 20 25 21 26 82 27 22 28 81 29 23 30 24 31 25 32 75 33
REMARK SMILES IDX 26 34 80 35 74 36 76 37 27 38 79 39 73 40 72 41 28 43 60 44
REMARK SMILES IDX 40 45 59 46 41 47 44 48 58 49 77 50 42 51 43 52 57 54 78 55
REMARK SMILES IDX 45 56 29 57 30 58 38 59 31 60 32 61 36 62 39 63 33 64 34 65
REMARK SMILES IDX 37 66 35 67 61 68 62 69 70 70 63 71 64 72 68 73 71 74 65 75
REMARK SMILES IDX 66 76 69 77 67 78 46 79 47 80 55 81 48 82 49 83 53 84 56 85
REMARK SMILES IDX 50 86 51 87 54 88 52 89
REMARK H PARENT 76 42 44 53
REMARK Flexibility Score: inf
ROOT
ATOM      1  C   UNL A   1      42.743  20.804  25.956  1.00  0.00     0.275 C 
ENDROOT
BRANCH   1   2
ATOM      2  O   UNL A   1      41.401  21.190  25.591  1.00  0.00    -0.458 OA
BRANCH   2   3
ATOM      3  C   UNL A   1      40.449  21.086  26.549  1.00  0.00     0.341 C 
ATOM      4  O   UNL A   1      40.600  20.622  27.664  1.00  0.00    -0.246 OA
BRANCH   3   5
ATOM      5  C   UNL A   1      39.202  21.760  26.144  1.00  0.00     0.099 A 
ATOM      6  C   UNL A   1      37.047  23.292  25.471  1.00  0.00     0.133 A 
ATOM      7  N   UNL A   1      37.955  23.830  26.303  1.00  0.00    -0.240 NA
ATOM      8  N   UNL A   1      37.110  22.026  25.004  1.00  0.00    -0.237 NA
ATOM      9  C   UNL A   1      38.999  23.039  26.628  1.00  0.00     0.130 A 
ATOM     10  C   UNL A   1      38.188  21.263  25.345  1.00  0.00     0.056 A 
ATOM     11  C   UNL A   1      38.076  19.823  24.939  1.00  0.00     0.068 C 
BRANCH   6  12
ATOM     12  C   UNL A   1      35.876  24.154  25.064  1.00  0.00     0.114 C 
BRANCH  12  13
ATOM     13  C   UNL A   1      34.595  23.845  25.796  1.00  0.00    -0.022 A 
ATOM     14  C   UNL A   1      32.218  23.345  27.080  1.00  0.00     0.212 A 
ATOM     15  C   UNL A   1      33.371  22.743  27.560  1.00  0.00     0.069 A 
ATOM     16  N   UNL A   1      32.196  24.156  26.006  1.00  0.00    -0.222 NA
ATOM     17  C   UNL A   1      34.576  23.004  26.910  1.00  0.00     0.011 A 
ATOM     18  C   UNL A   1      33.378  24.390  25.391  1.00  0.00     0.119 A 
BRANCH  14  19
ATOM     19  O   UNL A   1      30.991  23.075  27.626  1.00  0.00    -0.481 OA
ATOM     20  C   UNL A   1      30.020  22.794  26.624  1.00  0.00     0.280 C 
ENDBRANCH  14  19
ENDBRANCH  12  13
ENDBRANCH   6  12
ENDBRANCH   3   5
ENDBRANCH   2   3
ENDBRANCH   1   2
BRANCH   1  21
ATOM     21  C   UNL A   1      43.773  21.716  25.285  1.00  0.00     0.275 C 
BRANCH  21  22
ATOM     22  O   UNL A   1      43.137  22.912  24.793  1.00  0.00    -0.458 OA
BRANCH  22  23
ATOM     23  C   UNL A   1      43.858  24.045  24.945  1.00  0.00     0.338 C 
ATOM     24  O   UNL A   1      44.849  24.388  24.325  1.00  0.00    -0.246 OA
BRANCH  23  25
ATOM     25  C   UNL A   1      43.189  24.918  25.917  1.00  0.00     0.060 A 
ATOM     26  C   UNL A   1      43.541  26.266  25.921  1.00  0.00     0.016 A 
ATOM     27  C   UNL A   1      42.343  24.406  26.898  1.00  0.00     0.016 A 
ATOM     28  C   UNL A   1      43.098  27.105  26.938  1.00  0.00     0.010 A 
ATOM     29  C   UNL A   1      41.852  25.264  27.892  1.00  0.00     0.010 A 
ATOM     30  C   UNL A   1      42.248  26.615  27.939  1.00  0.00    -0.014 A 
BRANCH  30  31
ATOM     31  C   UNL A   1      41.837  27.499  29.065  1.00  0.00     0.031 A 
ATOM     32  C   UNL A   1      42.659  27.541  30.327  1.00  0.00     0.074 A 
ATOM     33  C   UNL A   1      40.756  28.295  28.953  1.00  0.00     0.049 A 
ATOM     34  N   UNL A   1      42.391  28.115  31.475  1.00  0.00    -0.248 NA
ATOM     35  C   UNL A   1      43.946  26.831  30.298  1.00  0.00     0.031 C 
ATOM     36  C   UNL A   1      39.903  28.404  27.769  1.00  0.00     0.029 A 
ATOM     37  N   UNL A   1      40.193  29.173  29.848  1.00  0.00    -0.354 N 
ATOM     38  C   UNL A   1      43.451  27.794  32.314  1.00  0.00     0.074 A 
ATOM     39  C   UNL A   1      44.361  26.970  31.548  1.00  0.00     0.031 C 
ATOM     40  C   UNL A   1      38.948  29.319  27.999  1.00  0.00     0.029 A 
ATOM     41  C   UNL A   1      39.072  29.804  29.369  1.00  0.00     0.049 A 
ATOM     42  H   UNL A   1      40.559  29.334  30.748  1.00  0.00     0.167 HD
ATOM     43  C   UNL A   1      43.646  28.158  33.605  1.00  0.00     0.037 A 
ATOM     44  C   UNL A   1      38.217  30.651  29.975  1.00  0.00     0.037 A 
ATOM     45  C   UNL A   1      42.771  29.030  34.346  1.00  0.00     0.049 A 
ATOM     46  C   UNL A   1      38.441  31.018  31.417  1.00  0.00     0.074 A 
ATOM     47  C   UNL A   1      42.884  29.455  35.659  1.00  0.00     0.029 A 
ATOM     48  N   UNL A   1      41.634  29.630  33.829  1.00  0.00    -0.354 N 
ATOM     49  N   UNL A   1      39.408  30.654  32.223  1.00  0.00    -0.248 NA
ATOM     50  C   UNL A   1      37.444  31.904  32.037  1.00  0.00     0.031 C 
ATOM     51  C   UNL A   1      41.798  30.290  35.945  1.00  0.00     0.029 A 
ATOM     52  C   UNL A   1      41.031  30.417  34.799  1.00  0.00     0.049 A 
ATOM     53  H   UNL A   1      41.301  29.514  32.910  1.00  0.00     0.167 HD
ATOM     54  C   UNL A   1      39.146  31.275  33.437  1.00  0.00     0.074 A 
ATOM     55  C   UNL A   1      37.940  32.056  33.255  1.00  0.00     0.031 C 
ATOM     56  C   UNL A   1      39.839  31.199  34.599  1.00  0.00     0.037 A 
BRANCH  43  57
ATOM     57  C   UNL A   1      44.839  27.586  34.315  1.00  0.00     0.064 A 
ATOM     58  C   UNL A   1      46.059  28.272  34.391  1.00  0.00     0.173 A 
ATOM     59  C   UNL A   1      44.743  26.344  34.964  1.00  0.00     0.173 A 
ATOM     60  F   UNL A   1      46.205  29.459  33.783  1.00  0.00    -0.203 F 
ATOM     61  C   UNL A   1      47.148  27.724  35.067  1.00  0.00     0.198 A 
ATOM     62  C   UNL A   1      45.824  25.813  35.662  1.00  0.00     0.198 A 
ATOM     63  F   UNL A   1      43.595  25.651  34.931  1.00  0.00    -0.203 F 
ATOM     64  F   UNL A   1      48.317  28.378  35.093  1.00  0.00    -0.200 F 
ATOM     65  C   UNL A   1      47.027  26.500  35.707  1.00  0.00     0.200 A 
ATOM     66  F   UNL A   1      45.699  24.637  36.295  1.00  0.00    -0.200 F 
ATOM     67  F   UNL A   1      48.072  25.979  36.366  1.00  0.00    -0.200 F 
ENDBRANCH  43  57
BRANCH  44  68
ATOM     68  C   UNL A   1      37.048  31.186  29.228  1.00  0.00     0.064 A 
ATOM     69  C   UNL A   1      37.012  32.520  28.802  1.00  0.00     0.173 A 
ATOM     70  C   UNL A   1      35.939  30.376  28.935  1.00  0.00     0.173 A 
ATOM     71  F   UNL A   1      38.033  33.342  29.085  1.00  0.00    -0.203 F 
ATOM     72  C   UNL A   1      35.906  33.028  28.121  1.00  0.00     0.198 A 
ATOM     73  C   UNL A   1      34.849  30.878  28.227  1.00  0.00     0.198 A 
ATOM     74  F   UNL A   1      35.922  29.094  29.325  1.00  0.00    -0.203 F 
ATOM     75  F   UNL A   1      35.878  34.319  27.766  1.00  0.00    -0.200 F 
ATOM     76  C   UNL A   1      34.831  32.204  27.827  1.00  0.00     0.200 A 
ATOM     77  F   UNL A   1      33.818  30.075  27.934  1.00  0.00    -0.200 F 
ATOM     78  F   UNL A   1      33.771  32.692  27.167  1.00  0.00    -0.200 F 
ENDBRANCH  44  68
BRANCH  56  79
ATOM     79  C   UNL A   1      39.331  32.011  35.752  1.00  0.00     0.064 A 
ATOM     80  C   UNL A   1      39.739  33.338  35.954  1.00  0.00     0.173 A 
ATOM     81  C   UNL A   1      38.403  31.463  36.652  1.00  0.00     0.173 A 
ATOM     82  F   UNL A   1      40.637  33.899  35.131  1.00  0.00    -0.203 F 
ATOM     83  C   UNL A   1      39.257  34.078  37.029  1.00  0.00     0.198 A 
ATOM     84  C   UNL A   1      37.903  32.217  37.710  1.00  0.00     0.198 A 
ATOM     85  F   UNL A   1      37.978  30.201  36.500  1.00  0.00    -0.203 F 
ATOM     86  F   UNL A   1      39.695  35.329  37.230  1.00  0.00    -0.200 F 
ATOM     87  C   UNL A   1      38.335  33.520  37.903  1.00  0.00     0.200 A 
ATOM     88  F   UNL A   1      37.006  31.679  38.548  1.00  0.00    -0.200 F 
ATOM     89  F   UNL A   1      37.871  34.235  38.936  1.00  0.00    -0.200 F 
ENDBRANCH  56  79
ENDBRANCH  30  31
ENDBRANCH  23  25
ENDBRANCH  22  23
ENDBRANCH  21  22
ENDBRANCH   1  21
TORSDOF 14
ENDMDL
MODEL 2
REMARK VINA RESULT:     -11.7      4.764      8.908
REMARK SMILES COc1ccc(Cc2ncc(C(=O)OCCOC(=O)c3ccc(-c4c5nc(c(-c6c(F)c(F)c(F)c(F)c6F)c6ccc([nH]6)c(-c6c(F)c(F)c(F)c(F)c6F)c6nc(c(-c7c(F)c(F)c(F)c(F)c7F)c7ccc4[nH]7)C=C6)C=C5)cc3)c(C)n2)cn1
REMARK SMILES IDX 15 1 14 2 12 3 13 4 11 5 8 6 9 7 85 8 10 9 83 10 84 11 7 12
REMARK SMILES IDX 6 13 3 14 4 15 87 16 5 17 86 18 2 19 1 20 16 21 17 22 18 23
REMARK SMILES IDX 19 24 20 25 21 26 82 27 22 28 81 29 23 30 24 31 25 32 75 33
REMARK SMILES IDX 26 34 80 35 74 36 76 37 27 38 79 39 73 40 72 41 28 43 60 44
REMARK SMILES IDX 40 45 59 46 41 47 44 48 58 49 77 50 42 51 43 52 57 54 78 55
REMARK SMILES IDX 45 56 29 57 30 58 38 59 31 60 32 61 36 62 39 63 33 64 34 65
REMARK SMILES IDX 37 66 35 67 61 68 62 69 70 70 63 71 64 72 68 73 71 74 65 75
REMARK SMILES IDX 66 76 69 77 67 78 46 79 47 80 55 81 48 82 49 83 53 84 56 85
REMARK SMILES IDX 50 86 51 87 54 88 52 89
REMARK H PARENT 76 42 44 53
REMARK Flexibility Score: inf
ROOT
ATOM      1  C   UNL A   1      35.449  20.502  25.042  1.00  0.00     0.275 C 
ENDROOT
BRANCH   1   2
ATOM      2  O   UNL A   1      34.427  21.520  25.118  1.00  0.00    -0.458 OA
BRANCH   2   3
ATOM      3  C   UNL A   1      34.071  21.941  26.355  1.00  0.00     0.341 C 
ATOM      4  O   UNL A   1      34.352  21.399  27.408  1.00  0.00    -0.246 OA
BRANCH   3   5
ATOM      5  C   UNL A   1      33.417  23.262  26.305  1.00  0.00     0.099 A 
ATOM      6  C   UNL A   1      31.994  25.586  26.438  1.00  0.00     0.133 A 
ATOM      7  N   UNL A   1      31.380  24.459  26.838  1.00  0.00    -0.240 NA
ATOM      8  N   UNL A   1      33.241  25.621  25.920  1.00  0.00    -0.237 NA
ATOM      9  C   UNL A   1      32.107  23.326  26.744  1.00  0.00     0.130 A 
ATOM     10  C   UNL A   1      33.947  24.457  25.853  1.00  0.00     0.056 A 
ATOM     11  C   UNL A   1      35.238  24.562  25.096  1.00  0.00     0.068 C 
BRANCH   6  12
ATOM     12  C   UNL A   1      31.221  26.879  26.551  1.00  0.00     0.114 C 
BRANCH  12  13
ATOM     13  C   UNL A   1      30.870  27.509  25.227  1.00  0.00    -0.022 A 
ATOM     14  C   UNL A   1      30.269  28.733  22.841  1.00  0.00     0.212 A 
ATOM     15  C   UNL A   1      29.716  27.489  23.107  1.00  0.00     0.069 A 
ATOM     16  N   UNL A   1      31.099  29.372  23.687  1.00  0.00    -0.222 NA
ATOM     17  C   UNL A   1      30.017  26.874  24.321  1.00  0.00     0.011 A 
ATOM     18  C   UNL A   1      31.378  28.751  24.857  1.00  0.00     0.119 A 
BRANCH  14  19
ATOM     19  O   UNL A   1      30.073  29.359  21.639  1.00  0.00    -0.481 OA
ATOM     20  C   UNL A   1      28.991  30.282  21.698  1.00  0.00     0.280 C 
ENDBRANCH  14  19
ENDBRANCH  12  13
ENDBRANCH   6  12
ENDBRANCH   3   5
ENDBRANCH   2   3
ENDBRANCH   1   2
BRANCH   1  21
ATOM     21  C   UNL A   1      36.800  21.116  24.669  1.00  0.00     0.275 C 
BRANCH  21  22
ATOM     22  O   UNL A   1      37.378  21.784  25.808  1.00  0.00    -0.458 OA
BRANCH  22  23
ATOM     23  C   UNL A   1      38.691  21.535  26.009  1.00  0.00     0.338 C 
ATOM     24  O   UNL A   1      39.326  20.553  25.667  1.00  0.00    -0.246 OA
BRANCH  23  25
ATOM     25  C   UNL A   1      39.320  22.715  26.614  1.00  0.00     0.060 A 
ATOM     26  C   UNL A   1      38.872  23.967  26.197  1.00  0.00     0.016 A 
ATOM     27  C   UNL A   1      40.419  22.605  27.463  1.00  0.00     0.016 A 
ATOM     28  C   UNL A   1      39.553  25.119  26.578  1.00  0.00     0.010 A 
ATOM     29  C   UNL A   1      41.072  23.769  27.890  1.00  0.00     0.010 A 
ATOM     30  C   UNL A   1      40.664  25.036  27.429  1.00  0.00    -0.014 A 
BRANCH  30  31
ATOM     31  C   UNL A   1      41.433  26.264  27.771  1.00  0.00     0.031 A 
ATOM     32  C   UNL A   1      40.806  27.329  28.633  1.00  0.00     0.074 A 
ATOM     33  C   UNL A   1      42.703  26.418  27.349  1.00  0.00     0.049 A 
ATOM     34  N   UNL A   1      41.240  28.534  28.914  1.00  0.00    -0.248 NA
ATOM     35  C   UNL A   1      39.514  26.999  29.251  1.00  0.00     0.031 C 
ATOM     36  C   UNL A   1      43.458  25.444  26.561  1.00  0.00     0.029 A 
ATOM     37  N   UNL A   1      43.590  27.452  27.534  1.00  0.00    -0.354 N 
ATOM     38  C   UNL A   1      40.253  29.118  29.697  1.00  0.00     0.074 A 
ATOM     39  C   UNL A   1      39.195  28.141  29.841  1.00  0.00     0.031 C 
ATOM     40  C   UNL A   1      44.700  25.910  26.357  1.00  0.00     0.029 A 
ATOM     41  C   UNL A   1      44.807  27.247  26.932  1.00  0.00     0.049 A 
ATOM     42  H   UNL A   1      43.373  28.262  28.048  1.00  0.00     0.167 HD
ATOM     43  C   UNL A   1      40.234  30.357  30.247  1.00  0.00     0.037 A 
ATOM     44  C   UNL A   1      45.878  28.058  26.823  1.00  0.00     0.037 A 
ATOM     45  C   UNL A   1      41.314  31.305  30.155  1.00  0.00     0.049 A 
ATOM     46  C   UNL A   1      45.822  29.437  27.419  1.00  0.00     0.074 A 
ATOM     47  C   UNL A   1      41.388  32.584  30.678  1.00  0.00     0.029 A 
ATOM     48  N   UNL A   1      42.521  31.065  29.518  1.00  0.00    -0.354 N 
ATOM     49  N   UNL A   1      44.856  30.007  28.098  1.00  0.00    -0.248 NA
ATOM     50  C   UNL A   1      47.001  30.293  27.221  1.00  0.00     0.031 C 
ATOM     51  C   UNL A   1      42.630  33.129  30.332  1.00  0.00     0.029 A 
ATOM     52  C   UNL A   1      43.344  32.175  29.628  1.00  0.00     0.049 A 
ATOM     53  H   UNL A   1      42.759  30.230  29.054  1.00  0.00     0.167 HD
ATOM     54  C   UNL A   1      45.314  31.277  28.420  1.00  0.00     0.074 A 
ATOM     55  C   UNL A   1      46.653  31.388  27.880  1.00  0.00     0.031 C 
ATOM     56  C   UNL A   1      44.679  32.265  29.096  1.00  0.00     0.037 A 
BRANCH  43  57
ATOM     57  C   UNL A   1      38.988  30.775  30.973  1.00  0.00     0.064 A 
ATOM     58  C   UNL A   1      38.852  30.630  32.361  1.00  0.00     0.173 A 
ATOM     59  C   UNL A   1      37.928  31.368  30.267  1.00  0.00     0.173 A 
ATOM     60  F   UNL A   1      39.832  30.065  33.080  1.00  0.00    -0.203 F 
ATOM     61  C   UNL A   1      37.689  31.038  33.013  1.00  0.00     0.198 A 
ATOM     62  C   UNL A   1      36.780  31.800  30.926  1.00  0.00     0.198 A 
ATOM     63  F   UNL A   1      38.011  31.539  28.940  1.00  0.00    -0.203 F 
ATOM     64  F   UNL A   1      37.563  30.854  34.334  1.00  0.00    -0.200 F 
ATOM     65  C   UNL A   1      36.659  31.629  32.296  1.00  0.00     0.200 A 
ATOM     66  F   UNL A   1      35.792  32.386  30.234  1.00  0.00    -0.200 F 
ATOM     67  F   UNL A   1      35.545  32.030  32.926  1.00  0.00    -0.200 F 
ENDBRANCH  43  57
BRANCH  44  68
ATOM     68  C   UNL A   1      47.086  27.596  26.089  1.00  0.00     0.064 A 
ATOM     69  C   UNL A   1      47.177  27.720  24.696  1.00  0.00     0.173 A 
ATOM     70  C   UNL A   1      48.169  27.013  26.765  1.00  0.00     0.173 A 
ATOM     71  F   UNL A   1      46.155  28.243  24.002  1.00  0.00    -0.203 F 
ATOM     72  C   UNL A   1      48.300  27.267  24.006  1.00  0.00     0.198 A 
ATOM     73  C   UNL A   1      49.304  26.589  26.076  1.00  0.00     0.198 A 
ATOM     74  F   UNL A   1      48.129  26.866  28.097  1.00  0.00    -0.203 F 
ATOM     75  F   UNL A   1      48.342  27.356  22.670  1.00  0.00    -0.200 F 
ATOM     76  C   UNL A   1      49.365  26.710  24.697  1.00  0.00     0.200 A 
ATOM     77  F   UNL A   1      50.336  26.064  26.750  1.00  0.00    -0.200 F 
ATOM     78  F   UNL A   1      50.447  26.281  24.033  1.00  0.00    -0.200 F 
ENDBRANCH  44  68
BRANCH  56  79
ATOM     79  C   UNL A   1      45.440  33.537  29.323  1.00  0.00     0.064 A 
ATOM     80  C   UNL A   1      45.382  34.601  28.411  1.00  0.00     0.173 A 
ATOM     81  C   UNL A   1      46.216  33.703  30.481  1.00  0.00     0.173 A 
ATOM     82  F   UNL A   1      44.669  34.483  27.282  1.00  0.00    -0.203 F 
ATOM     83  C   UNL A   1      46.094  35.776  28.638  1.00  0.00     0.198 A 
ATOM     84  C   UNL A   1      46.904  34.890  30.717  1.00  0.00     0.198 A 
ATOM     85  F   UNL A   1      46.300  32.717  31.386  1.00  0.00    -0.203 F 
ATOM     86  F   UNL A   1      46.062  36.763  27.731  1.00  0.00    -0.200 F 
ATOM     87  C   UNL A   1      46.849  35.921  29.792  1.00  0.00     0.200 A 
ATOM     88  F   UNL A   1      47.626  35.033  31.837  1.00  0.00    -0.200 F 
ATOM     89  F   UNL A   1      47.532  37.054  30.009  1.00  0.00    -0.200 F 
ENDBRANCH  56  79
ENDBRANCH  30  31
ENDBRANCH  23  25
ENDBRANCH  22  23
ENDBRANCH  21  22
ENDBRANCH   1  21
TORSDOF 14
ENDMDL
MODEL 3
REMARK VINA RESULT:     -11.7      3.145      8.397
REMARK SMILES COc1ccc(Cc2ncc(C(=O)OCCOC(=O)c3ccc(-c4c5nc(c(-c6c(F)c(F)c(F)c(F)c6F)c6ccc([nH]6)c(-c6c(F)c(F)c(F)c(F)c6F)c6nc(c(-c7c(F)c(F)c(F)c(F)c7F)c7ccc4[nH]7)C=C6)C=C5)cc3)c(C)n2)cn1
REMARK SMILES IDX 15 1 14 2 12 3 13 4 11 5 8 6 9 7 85 8 10 9 83 10 84 11 7 12
REMARK SMILES IDX 6 13 3 14 4 15 87 16 5 17 86 18 2 19 1 20 16 21 17 22 18 23
REMARK SMILES IDX 19 24 20 25 21 26 82 27 22 28 81 29 23 30 24 31 25 32 75 33
REMARK SMILES IDX 26 34 80 35 74 36 76 37 27 38 79 39 73 40 72 41 28 43 60 44
REMARK SMILES IDX 40 45 59 46 41 47 44 48 58 49 77 50 42 51 43 52 57 54 78 55
REMARK SMILES IDX 45 56 29 57 30 58 38 59 31 60 32 61 36 62 39 63 33 64 34 65
REMARK SMILES IDX 37 66 35 67 61 68 62 69 70 70 63 71 64 72 68 73 71 74 65 75
REMARK SMILES IDX 66 76 69 77 67 78 46 79 47 80 55 81 48 82 49 83 53 84 56 85
REMARK SMILES IDX 50 86 51 87 54 88 52 89
REMARK H PARENT 76 42 44 53
REMARK Flexibility Score: inf
ROOT
ATOM      1  C   UNL A   1      31.636  29.285  24.619  1.00  0.00     0.275 C 
ENDROOT
BRANCH   1   2
ATOM      2  O   UNL A   1      31.854  29.103  23.204  1.00  0.00    -0.458 OA
BRANCH   2   3
ATOM      3  C   UNL A   1      31.099  28.166  22.582  1.00  0.00     0.341 C 
ATOM      4  O   UNL A   1      30.073  28.367  21.959  1.00  0.00    -0.246 OA
BRANCH   3   5
ATOM      5  C   UNL A   1      31.756  26.846  22.602  1.00  0.00     0.099 A 
ATOM      6  C   UNL A   1      33.248  24.563  22.551  1.00  0.00     0.133 A 
ATOM      7  N   UNL A   1      33.699  25.615  21.846  1.00  0.00    -0.240 NA
ATOM      8  N   UNL A   1      32.078  24.554  23.225  1.00  0.00    -0.237 NA
ATOM      9  C   UNL A   1      32.928  26.722  21.880  1.00  0.00     0.130 A 
ATOM     10  C   UNL A   1      31.334  25.697  23.246  1.00  0.00     0.056 A 
ATOM     11  C   UNL A   1      29.972  25.535  23.855  1.00  0.00     0.068 C 
BRANCH   6  12
ATOM     12  C   UNL A   1      34.095  23.313  22.557  1.00  0.00     0.114 C 
BRANCH  12  13
ATOM     13  C   UNL A   1      35.170  23.297  23.614  1.00  0.00    -0.022 A 
ATOM     14  C   UNL A   1      37.169  23.200  25.496  1.00  0.00     0.212 A 
ATOM     15  C   UNL A   1      36.071  24.011  25.737  1.00  0.00     0.069 A 
ATOM     16  N   UNL A   1      37.318  22.463  24.380  1.00  0.00    -0.222 NA
ATOM     17  C   UNL A   1      35.055  24.053  24.783  1.00  0.00     0.011 A 
ATOM     18  C   UNL A   1      36.319  22.524  23.468  1.00  0.00     0.119 A 
BRANCH  14  19
ATOM     19  O   UNL A   1      38.235  23.168  26.357  1.00  0.00    -0.481 OA
ATOM     20  C   UNL A   1      38.746  24.473  26.608  1.00  0.00     0.280 C 
ENDBRANCH  14  19
ENDBRANCH  12  13
ENDBRANCH   6  12
ENDBRANCH   3   5
ENDBRANCH   2   3
ENDBRANCH   1   2
BRANCH   1  21
ATOM     21  C   UNL A   1      32.937  29.679  25.323  1.00  0.00     0.275 C 
BRANCH  21  22
ATOM     22  O   UNL A   1      32.679  30.021  26.698  1.00  0.00    -0.458 OA
BRANCH  22  23
ATOM     23  C   UNL A   1      33.215  31.193  27.105  1.00  0.00     0.338 C 
ATOM     24  O   UNL A   1      32.677  32.286  27.144  1.00  0.00    -0.246 OA
BRANCH  23  25
ATOM     25  C   UNL A   1      34.559  30.951  27.642  1.00  0.00     0.060 A 
ATOM     26  C   UNL A   1      34.866  29.654  28.047  1.00  0.00     0.016 A 
ATOM     27  C   UNL A   1      35.452  31.994  27.878  1.00  0.00     0.016 A 
ATOM     28  C   UNL A   1      36.042  29.395  28.743  1.00  0.00     0.010 A 
ATOM     29  C   UNL A   1      36.662  31.723  28.530  1.00  0.00     0.010 A 
ATOM     30  C   UNL A   1      36.956  30.426  28.996  1.00  0.00    -0.014 A 
BRANCH  30  31
ATOM     31  C   UNL A   1      38.177  30.158  29.807  1.00  0.00     0.031 A 
ATOM     32  C   UNL A   1      39.301  29.342  29.226  1.00  0.00     0.074 A 
ATOM     33  C   UNL A   1      38.303  30.671  31.046  1.00  0.00     0.049 A 
ATOM     34  N   UNL A   1      40.371  28.862  29.813  1.00  0.00    -0.248 NA
ATOM     35  C   UNL A   1      39.204  29.010  27.797  1.00  0.00     0.031 C 
ATOM     36  C   UNL A   1      37.323  31.528  31.712  1.00  0.00     0.029 A 
ATOM     37  N   UNL A   1      39.319  30.553  31.965  1.00  0.00    -0.354 N 
ATOM     38  C   UNL A   1      41.043  28.136  28.839  1.00  0.00     0.074 A 
ATOM     39  C   UNL A   1      40.260  28.229  27.626  1.00  0.00     0.031 C 
ATOM     40  C   UNL A   1      37.797  31.884  32.917  1.00  0.00     0.029 A 
ATOM     41  C   UNL A   1      39.077  31.220  33.140  1.00  0.00     0.049 A 
ATOM     42  H   UNL A   1      40.141  30.039  31.797  1.00  0.00     0.167 HD
ATOM     43  C   UNL A   1      42.210  27.454  28.949  1.00  0.00     0.037 A 
ATOM     44  C   UNL A   1      39.787  31.264  34.285  1.00  0.00     0.037 A 
ATOM     45  C   UNL A   1      43.021  27.414  30.138  1.00  0.00     0.049 A 
ATOM     46  C   UNL A   1      41.065  30.478  34.390  1.00  0.00     0.074 A 
ATOM     47  C   UNL A   1      44.218  26.751  30.347  1.00  0.00     0.029 A 
ATOM     48  N   UNL A   1      42.728  28.086  31.315  1.00  0.00    -0.354 N 
ATOM     49  N   UNL A   1      41.657  29.736  33.486  1.00  0.00    -0.248 NA
ATOM     50  C   UNL A   1      41.766  30.524  35.682  1.00  0.00     0.031 C 
ATOM     51  C   UNL A   1      44.635  26.999  31.659  1.00  0.00     0.029 A 
ATOM     52  C   UNL A   1      43.718  27.849  32.255  1.00  0.00     0.049 A 
ATOM     53  H   UNL A   1      41.934  28.649  31.461  1.00  0.00     0.167 HD
ATOM     54  C   UNL A   1      42.804  29.241  34.091  1.00  0.00     0.074 A 
ATOM     55  C   UNL A   1      42.836  29.783  35.434  1.00  0.00     0.031 C 
ATOM     56  C   UNL A   1      43.742  28.406  33.582  1.00  0.00     0.037 A 
BRANCH  43  57
ATOM     57  C   UNL A   1      42.668  26.665  27.756  1.00  0.00     0.064 A 
ATOM     58  C   UNL A   1      43.546  27.200  26.802  1.00  0.00     0.173 A 
ATOM     59  C   UNL A   1      42.248  25.335  27.590  1.00  0.00     0.173 A 
ATOM     60  F   UNL A   1      43.971  28.467  26.912  1.00  0.00    -0.203 F 
ATOM     61  C   UNL A   1      43.965  26.441  25.711  1.00  0.00     0.198 A 
ATOM     62  C   UNL A   1      42.692  24.572  26.513  1.00  0.00     0.198 A 
ATOM     63  F   UNL A   1      41.418  24.771  28.479  1.00  0.00    -0.203 F 
ATOM     64  F   UNL A   1      44.772  26.985  24.789  1.00  0.00    -0.200 F 
ATOM     65  C   UNL A   1      43.544  25.127  25.572  1.00  0.00     0.200 A 
ATOM     66  F   UNL A   1      42.298  23.296  26.390  1.00  0.00    -0.200 F 
ATOM     67  F   UNL A   1      43.957  24.396  24.526  1.00  0.00    -0.200 F 
ENDBRANCH  43  57
BRANCH  44  68
ATOM     68  C   UNL A   1      39.287  32.058  35.438  1.00  0.00     0.064 A 
ATOM     69  C   UNL A   1      39.646  33.403  35.600  1.00  0.00     0.173 A 
ATOM     70  C   UNL A   1      38.449  31.485  36.408  1.00  0.00     0.173 A 
ATOM     71  F   UNL A   1      40.470  33.987  34.718  1.00  0.00    -0.203 F 
ATOM     72  C   UNL A   1      39.195  34.141  36.693  1.00  0.00     0.198 A 
ATOM     73  C   UNL A   1      37.974  32.233  37.483  1.00  0.00     0.198 A 
ATOM     74  F   UNL A   1      38.080  30.200  36.302  1.00  0.00    -0.203 F 
ATOM     75  F   UNL A   1      39.591  35.411  36.849  1.00  0.00    -0.200 F 
ATOM     76  C   UNL A   1      38.354  33.558  37.628  1.00  0.00     0.200 A 
ATOM     77  F   UNL A   1      37.150  31.669  38.376  1.00  0.00    -0.200 F 
ATOM     78  F   UNL A   1      37.916  34.270  38.676  1.00  0.00    -0.200 F 
ENDBRANCH  44  68
BRANCH  56  79
ATOM     79  C   UNL A   1      44.902  28.060  34.468  1.00  0.00     0.064 A 
ATOM     80  C   UNL A   1      44.879  26.932  35.301  1.00  0.00     0.173 A 
ATOM     81  C   UNL A   1      46.061  28.851  34.461  1.00  0.00     0.173 A 
ATOM     82  F   UNL A   1      43.788  26.155  35.355  1.00  0.00    -0.203 F 
ATOM     83  C   UNL A   1      45.965  26.624  36.116  1.00  0.00     0.198 A 
ATOM     84  C   UNL A   1      47.155  28.524  35.258  1.00  0.00     0.198 A 
ATOM     85  F   UNL A   1      46.134  29.937  33.678  1.00  0.00    -0.203 F 
ATOM     86  F   UNL A   1      45.905  25.568  36.940  1.00  0.00    -0.200 F 
ATOM     87  C   UNL A   1      47.104  27.416  36.090  1.00  0.00     0.200 A 
ATOM     88  F   UNL A   1      48.257  29.285  35.225  1.00  0.00    -0.200 F 
ATOM     89  F   UNL A   1      48.148  27.117  36.873  1.00  0.00    -0.200 F 
ENDBRANCH  56  79
ENDBRANCH  30  31
ENDBRANCH  23  25
ENDBRANCH  22  23
ENDBRANCH  21  22
ENDBRANCH   1  21
TORSDOF 14
ENDMDL
