MODEL 1
REMARK VINA RESULT:     -11.7      0.000      0.000
REMARK SMILES CCC[C@H](CNC(=O)N1CCN2C(=O)NC[C@H]2C1)C(=O)OCCOC(=O)c1ccc(-c2c3nc(c(-c4c(F)c(F)c(F)c(F)c4F)c4ccc([nH]4)c(-c4c(F)c(F)c(F)c(F)c4F)c4nc(c(-c5c(F)c(F)c(F)c(F)c5F)c5ccc2[nH]5)C=C4)C=C3)cc1
REMARK SMILES IDX 22 1 21 2 19 3 20 4 4 5 3 6 2 7 1 8 5 9 6 10 7 11 8 13 9 14
REMARK SMILES IDX 10 15 18 16 11 17 17 18 12 19 16 20 13 21 15 22 14 23 23 25
REMARK SMILES IDX 24 26 25 27 26 28 27 29 28 30 89 31 29 32 88 33 30 34 31 35
REMARK SMILES IDX 32 36 82 37 33 38 87 39 81 40 83 41 34 42 86 43 80 44 79 45
REMARK SMILES IDX 35 47 67 48 47 49 66 50 48 51 51 52 65 53 84 54 49 55 50 56
REMARK SMILES IDX 64 58 85 59 52 60 36 61 37 62 45 63 38 64 39 65 43 66 46 67
REMARK SMILES IDX 40 68 41 69 44 70 42 71 68 72 69 73 77 74 70 75 71 76 75 77
REMARK SMILES IDX 78 78 72 79 73 80 76 81 74 82 53 83 54 84 62 85 55 86 56 87
REMARK SMILES IDX 60 88 63 89 57 90 58 91 61 92 59 93
REMARK H PARENT 6 12 15 24 83 46 51 57
REMARK Flexibility Score: inf
ROOT
ATOM      1  C   UNL A   1      36.568  19.808  25.001  1.00  0.00     0.274 C 
ENDROOT
BRANCH   1   2
ATOM      2  O   UNL A   1      35.968  20.939  25.662  1.00  0.00    -0.462 OA
BRANCH   2   3
ATOM      3  C   UNL A   1      34.816  21.398  25.131  1.00  0.00     0.310 C 
ATOM      4  O   UNL A   1      34.729  21.923  24.023  1.00  0.00    -0.252 OA
BRANCH   3   5
ATOM      5  C   UNL A   1      33.593  21.238  26.017  1.00  0.00     0.118 C 
BRANCH   5   6
ATOM      6  C   UNL A   1      32.486  20.475  25.254  1.00  0.00     0.017 C 
BRANCH   6   7
ATOM      7  C   UNL A   1      32.731  18.956  25.223  1.00  0.00    -0.002 C 
ATOM      8  C   UNL A   1      33.002  18.407  23.827  1.00  0.00     0.004 C 
ENDBRANCH   6   7
ENDBRANCH   5   6
BRANCH   5   9
ATOM      9  C   UNL A   1      33.053  22.400  26.874  1.00  0.00     0.133 C 
BRANCH   9  10
ATOM     10  N   UNL A   1      31.624  22.514  27.068  1.00  0.00    -0.337 N 
ATOM     11  C   UNL A   1      30.766  23.456  26.603  1.00  0.00     0.317 C 
ATOM     12  H   UNL A   1      31.214  21.806  27.616  1.00  0.00     0.165 HD
ATOM     13  O   UNL A   1      29.747  23.700  27.251  1.00  0.00    -0.249 OA
BRANCH  11  14
ATOM     14  N   UNL A   1      31.101  24.168  25.489  1.00  0.00    -0.321 N 
ATOM     15  C   UNL A   1      30.964  23.712  24.092  1.00  0.00     0.143 C 
ATOM     16  C   UNL A   1      31.413  25.592  25.630  1.00  0.00     0.148 C 
ATOM     17  C   UNL A   1      32.227  24.026  23.265  1.00  0.00     0.143 C 
ATOM     18  C   UNL A   1      32.740  25.861  24.923  1.00  0.00     0.125 C 
ATOM     19  N   UNL A   1      32.718  25.362  23.555  1.00  0.00    -0.317 N 
ATOM     20  C   UNL A   1      33.109  27.328  24.744  1.00  0.00     0.144 C 
ATOM     21  C   UNL A   1      33.377  26.217  22.699  1.00  0.00     0.317 C 
ATOM     22  N   UNL A   1      33.671  27.368  23.415  1.00  0.00    -0.336 N 
ATOM     23  O   UNL A   1      33.651  26.025  21.528  1.00  0.00    -0.249 OA
ATOM     24  H   UNL A   1      34.199  28.120  23.061  1.00  0.00     0.165 HD
ENDBRANCH  11  14
ENDBRANCH   9  10
ENDBRANCH   5   9
ENDBRANCH   3   5
ENDBRANCH   2   3
ENDBRANCH   1   2
BRANCH   1  25
ATOM     25  C   UNL A   1      38.094  19.939  24.893  1.00  0.00     0.275 C 
BRANCH  25  26
ATOM     26  O   UNL A   1      38.591  21.162  25.481  1.00  0.00    -0.458 OA
BRANCH  26  27
ATOM     27  C   UNL A   1      39.634  21.005  26.326  1.00  0.00     0.338 C 
ATOM     28  O   UNL A   1      40.301  19.996  26.503  1.00  0.00    -0.246 OA
BRANCH  27  29
ATOM     29  C   UNL A   1      40.039  22.275  26.941  1.00  0.00     0.060 A 
ATOM     30  C   UNL A   1      39.512  23.433  26.373  1.00  0.00     0.016 A 
ATOM     31  C   UNL A   1      41.065  22.362  27.879  1.00  0.00     0.016 A 
ATOM     32  C   UNL A   1      40.030  24.679  26.682  1.00  0.00     0.010 A 
ATOM     33  C   UNL A   1      41.562  23.627  28.230  1.00  0.00     0.010 A 
ATOM     34  C   UNL A   1      41.068  24.791  27.612  1.00  0.00    -0.014 A 
BRANCH  34  35
ATOM     35  C   UNL A   1      41.639  26.137  27.868  1.00  0.00     0.031 A 
ATOM     36  C   UNL A   1      43.003  26.494  27.349  1.00  0.00     0.074 A 
ATOM     37  C   UNL A   1      40.889  27.065  28.492  1.00  0.00     0.049 A 
ATOM     38  N   UNL A   1      43.680  27.606  27.495  1.00  0.00    -0.248 NA
ATOM     39  C   UNL A   1      43.702  25.466  26.565  1.00  0.00     0.031 C 
ATOM     40  C   UNL A   1      39.526  26.853  28.986  1.00  0.00     0.029 A 
ATOM     41  N   UNL A   1      41.154  28.375  28.798  1.00  0.00    -0.354 N 
ATOM     42  C   UNL A   1      44.893  27.401  26.850  1.00  0.00     0.074 A 
ATOM     43  C   UNL A   1      44.867  26.052  26.324  1.00  0.00     0.031 C 
ATOM     44  C   UNL A   1      39.067  27.999  29.511  1.00  0.00     0.029 A 
ATOM     45  C   UNL A   1      40.120  29.005  29.448  1.00  0.00     0.049 A 
ATOM     46  H   UNL A   1      42.003  28.821  28.574  1.00  0.00     0.167 HD
ATOM     47  C   UNL A   1      45.929  28.261  26.709  1.00  0.00     0.037 A 
ATOM     48  C   UNL A   1      40.042  30.246  29.961  1.00  0.00     0.037 A 
ATOM     49  C   UNL A   1      45.936  29.612  27.214  1.00  0.00     0.049 A 
ATOM     50  C   UNL A   1      41.224  31.166  29.827  1.00  0.00     0.074 A 
ATOM     51  C   UNL A   1      46.935  30.565  27.120  1.00  0.00     0.029 A 
ATOM     52  N   UNL A   1      44.886  30.202  27.904  1.00  0.00    -0.354 N 
ATOM     53  N   UNL A   1      42.375  30.954  29.236  1.00  0.00    -0.248 NA
ATOM     54  C   UNL A   1      41.094  32.497  30.434  1.00  0.00     0.031 C 
ATOM     55  C   UNL A   1      46.508  31.716  27.792  1.00  0.00     0.029 A 
ATOM     56  C   UNL A   1      45.221  31.501  28.257  1.00  0.00     0.049 A 
ATOM     57  H   UNL A   1      44.029  29.764  28.112  1.00  0.00     0.167 HD
ATOM     58  C   UNL A   1      43.100  32.129  29.383  1.00  0.00     0.074 A 
ATOM     59  C   UNL A   1      42.247  33.057  30.096  1.00  0.00     0.031 C 
ATOM     60  C   UNL A   1      44.359  32.411  28.968  1.00  0.00     0.037 A 
BRANCH  47  61
ATOM     61  C   UNL A   1      47.161  27.759  26.012  1.00  0.00     0.064 A 
ATOM     62  C   UNL A   1      48.266  27.262  26.719  1.00  0.00     0.173 A 
ATOM     63  C   UNL A   1      47.223  27.745  24.609  1.00  0.00     0.173 A 
ATOM     64  F   UNL A   1      48.266  27.266  28.061  1.00  0.00    -0.203 F 
ATOM     65  C   UNL A   1      49.395  26.796  26.050  1.00  0.00     0.198 A 
ATOM     66  C   UNL A   1      48.341  27.250  23.943  1.00  0.00     0.198 A 
ATOM     67  F   UNL A   1      46.192  28.203  23.882  1.00  0.00    -0.203 F 
ATOM     68  F   UNL A   1      50.458  26.370  26.747  1.00  0.00    -0.200 F 
ATOM     69  C   UNL A   1      49.429  26.784  24.663  1.00  0.00     0.200 A 
ATOM     70  F   UNL A   1      48.366  27.227  22.603  1.00  0.00    -0.200 F 
ATOM     71  F   UNL A   1      50.514  26.327  24.021  1.00  0.00    -0.200 F 
ENDBRANCH  47  61
BRANCH  48  72
ATOM     72  C   UNL A   1      38.808  30.681  30.665  1.00  0.00     0.064 A 
ATOM     73  C   UNL A   1      38.690  30.571  32.057  1.00  0.00     0.173 A 
ATOM     74  C   UNL A   1      37.719  31.216  29.958  1.00  0.00     0.173 A 
ATOM     75  F   UNL A   1      39.693  30.045  32.774  1.00  0.00    -0.203 F 
ATOM     76  C   UNL A   1      37.525  30.964  32.712  1.00  0.00     0.198 A 
ATOM     77  C   UNL A   1      36.568  31.639  30.618  1.00  0.00     0.198 A 
ATOM     78  F   UNL A   1      37.781  31.343  28.624  1.00  0.00    -0.203 F 
ATOM     79  F   UNL A   1      37.420  30.805  34.039  1.00  0.00    -0.200 F 
ATOM     80  C   UNL A   1      36.468  31.505  31.994  1.00  0.00     0.200 A 
ATOM     81  F   UNL A   1      35.557  32.175  29.921  1.00  0.00    -0.200 F 
ATOM     82  F   UNL A   1      35.352  31.889  32.628  1.00  0.00    -0.200 F 
ENDBRANCH  48  72
BRANCH  60  83
ATOM     83  C   UNL A   1      44.870  33.795  29.249  1.00  0.00     0.064 A 
ATOM     84  C   UNL A   1      44.661  34.855  28.354  1.00  0.00     0.173 A 
ATOM     85  C   UNL A   1      45.578  34.063  30.432  1.00  0.00     0.173 A 
ATOM     86  F   UNL A   1      44.005  34.647  27.203  1.00  0.00    -0.203 F 
ATOM     87  C   UNL A   1      45.175  36.123  28.614  1.00  0.00     0.198 A 
ATOM     88  C   UNL A   1      46.062  35.339  30.703  1.00  0.00     0.198 A 
ATOM     89  F   UNL A   1      45.799  33.086  31.324  1.00  0.00    -0.203 F 
ATOM     90  F   UNL A   1      45.019  37.104  27.715  1.00  0.00    -0.200 F 
ATOM     91  C   UNL A   1      45.871  36.365  29.789  1.00  0.00     0.200 A 
ATOM     92  F   UNL A   1      46.723  35.575  31.846  1.00  0.00    -0.200 F 
ATOM     93  F   UNL A   1      46.369  37.584  30.036  1.00  0.00    -0.200 F 
ENDBRANCH  60  83
ENDBRANCH  34  35
ENDBRANCH  27  29
ENDBRANCH  26  27
ENDBRANCH  25  26
ENDBRANCH   1  25
TORSDOF 16
ENDMDL
MODEL 2
REMARK VINA RESULT:     -11.6      4.446      9.902
REMARK SMILES CCC[C@H](CNC(=O)N1CCN2C(=O)NC[C@H]2C1)C(=O)OCCOC(=O)c1ccc(-c2c3nc(c(-c4c(F)c(F)c(F)c(F)c4F)c4ccc([nH]4)c(-c4c(F)c(F)c(F)c(F)c4F)c4nc(c(-c5c(F)c(F)c(F)c(F)c5F)c5ccc2[nH]5)C=C4)C=C3)cc1
REMARK SMILES IDX 22 1 21 2 19 3 20 4 4 5 3 6 2 7 1 8 5 9 6 10 7 11 8 13 9 14
REMARK SMILES IDX 10 15 18 16 11 17 17 18 12 19 16 20 13 21 15 22 14 23 23 25
REMARK SMILES IDX 24 26 25 27 26 28 27 29 28 30 89 31 29 32 88 33 30 34 31 35
REMARK SMILES IDX 32 36 82 37 33 38 87 39 81 40 83 41 34 42 86 43 80 44 79 45
REMARK SMILES IDX 35 47 67 48 47 49 66 50 48 51 51 52 65 53 84 54 49 55 50 56
REMARK SMILES IDX 64 58 85 59 52 60 36 61 37 62 45 63 38 64 39 65 43 66 46 67
REMARK SMILES IDX 40 68 41 69 44 70 42 71 68 72 69 73 77 74 70 75 71 76 75 77
REMARK SMILES IDX 78 78 72 79 73 80 76 81 74 82 53 83 54 84 62 85 55 86 56 87
REMARK SMILES IDX 60 88 63 89 57 90 58 91 61 92 59 93
REMARK H PARENT 6 12 15 24 83 46 51 57
REMARK Flexibility Score: inf
ROOT
ATOM      1  C   UNL A   1      30.784  30.926  25.137  1.00  0.00     0.274 C 
ENDROOT
BRANCH   1   2
ATOM      2  O   UNL A   1      31.375  29.614  25.201  1.00  0.00    -0.462 OA
BRANCH   2   3
ATOM      3  C   UNL A   1      31.829  29.105  24.037  1.00  0.00     0.310 C 
ATOM      4  O   UNL A   1      31.308  29.314  22.944  1.00  0.00    -0.252 OA
BRANCH   3   5
ATOM      5  C   UNL A   1      33.055  28.217  24.161  1.00  0.00     0.118 C 
BRANCH   5   6
ATOM      6  C   UNL A   1      33.834  28.570  25.447  1.00  0.00     0.017 C 
BRANCH   6   7
ATOM      7  C   UNL A   1      33.632  27.531  26.564  1.00  0.00    -0.002 C 
ATOM      8  C   UNL A   1      32.444  27.831  27.471  1.00  0.00     0.004 C 
ENDBRANCH   6   7
ENDBRANCH   5   6
BRANCH   5   9
ATOM      9  C   UNL A   1      33.970  27.923  22.954  1.00  0.00     0.133 C 
BRANCH   9  10
ATOM     10  N   UNL A   1      33.386  27.339  21.766  1.00  0.00    -0.337 N 
ATOM     11  C   UNL A   1      32.952  26.072  21.557  1.00  0.00     0.317 C 
ATOM     12  H   UNL A   1      33.290  27.949  21.000  1.00  0.00     0.165 HD
ATOM     13  O   UNL A   1      32.978  25.619  20.412  1.00  0.00    -0.249 OA
BRANCH  11  14
ATOM     14  N   UNL A   1      32.589  25.307  22.627  1.00  0.00    -0.321 N 
ATOM     15  C   UNL A   1      31.223  25.154  23.163  1.00  0.00     0.143 C 
ATOM     16  C   UNL A   1      33.564  24.364  23.182  1.00  0.00     0.148 C 
ATOM     17  C   UNL A   1      31.201  25.266  24.701  1.00  0.00     0.143 C 
ATOM     18  C   UNL A   1      33.632  24.584  24.691  1.00  0.00     0.125 C 
ATOM     19  N   UNL A   1      32.306  24.533  25.291  1.00  0.00    -0.317 N 
ATOM     20  C   UNL A   1      34.403  23.532  25.479  1.00  0.00     0.144 C 
ATOM     21  C   UNL A   1      32.333  23.898  26.515  1.00  0.00     0.317 C 
ATOM     22  N   UNL A   1      33.600  23.353  26.664  1.00  0.00    -0.336 N 
ATOM     23  O   UNL A   1      31.427  23.811  27.323  1.00  0.00    -0.249 OA
ATOM     24  H   UNL A   1      33.913  22.898  27.480  1.00  0.00     0.165 HD
ENDBRANCH  11  14
ENDBRANCH   9  10
ENDBRANCH   5   9
ENDBRANCH   3   5
ENDBRANCH   2   3
ENDBRANCH   1   2
BRANCH   1  25
ATOM     25  C   UNL A   1      31.270  31.840  26.271  1.00  0.00     0.275 C 
BRANCH  25  26
ATOM     26  O   UNL A   1      32.541  31.422  26.818  1.00  0.00    -0.458 OA
BRANCH  26  27
ATOM     27  C   UNL A   1      33.243  32.397  27.436  1.00  0.00     0.338 C 
ATOM     28  O   UNL A   1      32.838  33.494  27.788  1.00  0.00    -0.246 OA
BRANCH  27  29
ATOM     29  C   UNL A   1      34.584  31.944  27.828  1.00  0.00     0.060 A 
ATOM     30  C   UNL A   1      34.694  30.616  28.234  1.00  0.00     0.016 A 
ATOM     31  C   UNL A   1      35.648  32.822  28.017  1.00  0.00     0.016 A 
ATOM     32  C   UNL A   1      35.830  30.158  28.880  1.00  0.00     0.010 A 
ATOM     33  C   UNL A   1      36.820  32.351  28.630  1.00  0.00     0.010 A 
ATOM     34  C   UNL A   1      36.907  31.024  29.092  1.00  0.00    -0.014 A 
BRANCH  34  35
ATOM     35  C   UNL A   1      38.080  30.515  29.845  1.00  0.00     0.031 A 
ATOM     36  C   UNL A   1      38.285  30.899  31.282  1.00  0.00     0.074 A 
ATOM     37  C   UNL A   1      38.911  29.634  29.255  1.00  0.00     0.049 A 
ATOM     38  N   UNL A   1      39.261  30.577  32.095  1.00  0.00    -0.248 NA
ATOM     39  C   UNL A   1      37.260  31.760  31.889  1.00  0.00     0.031 C 
ATOM     40  C   UNL A   1      38.778  29.140  27.883  1.00  0.00     0.029 A 
ATOM     41  N   UNL A   1      40.017  28.983  29.738  1.00  0.00    -0.354 N 
ATOM     42  C   UNL A   1      38.985  31.220  33.295  1.00  0.00     0.074 A 
ATOM     43  C   UNL A   1      37.757  31.964  33.101  1.00  0.00     0.031 C 
ATOM     44  C   UNL A   1      39.749  28.245  27.643  1.00  0.00     0.029 A 
ATOM     45  C   UNL A   1      40.607  28.151  28.817  1.00  0.00     0.049 A 
ATOM     46  H   UNL A   1      40.356  29.100  30.655  1.00  0.00     0.167 HD
ATOM     47  C   UNL A   1      39.690  31.189  34.450  1.00  0.00     0.037 A 
ATOM     48  C   UNL A   1      41.731  27.415  28.903  1.00  0.00     0.037 A 
ATOM     49  C   UNL A   1      40.898  30.426  34.642  1.00  0.00     0.049 A 
ATOM     50  C   UNL A   1      42.518  27.433  30.184  1.00  0.00     0.074 A 
ATOM     51  C   UNL A   1      41.686  30.324  35.775  1.00  0.00     0.029 A 
ATOM     52  N   UNL A   1      41.489  29.626  33.673  1.00  0.00    -0.354 N 
ATOM     53  N   UNL A   1      42.261  28.063  31.305  1.00  0.00    -0.248 NA
ATOM     54  C   UNL A   1      43.752  26.638  30.209  1.00  0.00     0.031 C 
ATOM     55  C   UNL A   1      42.778  29.500  35.479  1.00  0.00     0.029 A 
ATOM     56  C   UNL A   1      42.642  29.042  34.177  1.00  0.00     0.049 A 
ATOM     57  H   UNL A   1      41.142  29.493  32.761  1.00  0.00     0.167 HD
ATOM     58  C   UNL A   1      43.289  27.728  32.174  1.00  0.00     0.074 A 
ATOM     59  C   UNL A   1      44.159  26.817  31.458  1.00  0.00     0.031 C 
ATOM     60  C   UNL A   1      43.496  28.139  33.450  1.00  0.00     0.037 A 
BRANCH  47  61
ATOM     61  C   UNL A   1      39.198  32.034  35.590  1.00  0.00     0.064 A 
ATOM     62  C   UNL A   1      38.381  31.512  36.605  1.00  0.00     0.173 A 
ATOM     63  C   UNL A   1      39.576  33.383  35.684  1.00  0.00     0.173 A 
ATOM     64  F   UNL A   1      37.978  30.233  36.556  1.00  0.00    -0.203 F 
ATOM     65  C   UNL A   1      37.942  32.314  37.655  1.00  0.00     0.198 A 
ATOM     66  C   UNL A   1      39.159  34.174  36.752  1.00  0.00     0.198 A 
ATOM     67  F   UNL A   1      40.359  33.933  34.745  1.00  0.00    -0.203 F 
ATOM     68  F   UNL A   1      37.124  31.806  38.588  1.00  0.00    -0.200 F 
ATOM     69  C   UNL A   1      38.337  33.642  37.732  1.00  0.00     0.200 A 
ATOM     70  F   UNL A   1      39.553  35.453  36.830  1.00  0.00    -0.200 F 
ATOM     71  F   UNL A   1      37.918  34.410  38.748  1.00  0.00    -0.200 F 
ENDBRANCH  47  61
BRANCH  48  72
ATOM     72  C   UNL A   1      42.186  26.619  27.734  1.00  0.00     0.064 A 
ATOM     73  C   UNL A   1      41.689  25.331  27.496  1.00  0.00     0.173 A 
ATOM     74  C   UNL A   1      43.130  27.132  26.830  1.00  0.00     0.173 A 
ATOM     75  F   UNL A   1      40.803  24.788  28.344  1.00  0.00    -0.203 F 
ATOM     76  C   UNL A   1      42.129  24.580  26.409  1.00  0.00     0.198 A 
ATOM     77  C   UNL A   1      43.545  26.392  25.725  1.00  0.00     0.198 A 
ATOM     78  F   UNL A   1      43.636  28.360  27.012  1.00  0.00    -0.203 F 
ATOM     79  F   UNL A   1      41.673  23.333  26.230  1.00  0.00    -0.200 F 
ATOM     80  C   UNL A   1      43.051  25.114  25.520  1.00  0.00     0.200 A 
ATOM     81  F   UNL A   1      44.423  26.919  24.861  1.00  0.00    -0.200 F 
ATOM     82  F   UNL A   1      43.469  24.392  24.470  1.00  0.00    -0.200 F 
ENDBRANCH  48  72
BRANCH  60  83
ATOM     83  C   UNL A   1      44.695  27.575  34.156  1.00  0.00     0.064 A 
ATOM     84  C   UNL A   1      45.938  28.226  34.136  1.00  0.00     0.173 A 
ATOM     85  C   UNL A   1      44.597  26.367  34.864  1.00  0.00     0.173 A 
ATOM     86  F   UNL A   1      46.086  29.375  33.460  1.00  0.00    -0.203 F 
ATOM     87  C   UNL A   1      47.048  27.669  34.766  1.00  0.00     0.198 A 
ATOM     88  C   UNL A   1      45.702  25.830  35.519  1.00  0.00     0.198 A 
ATOM     89  F   UNL A   1      43.431  25.707  34.920  1.00  0.00    -0.203 F 
ATOM     90  F   UNL A   1      48.239  28.276  34.678  1.00  0.00    -0.200 F 
ATOM     91  C   UNL A   1      46.928  26.474  35.460  1.00  0.00     0.200 A 
ATOM     92  F   UNL A   1      45.581  24.681  36.201  1.00  0.00    -0.200 F 
ATOM     93  F   UNL A   1      47.998  25.937  36.061  1.00  0.00    -0.200 F 
ENDBRANCH  60  83
ENDBRANCH  34  35
ENDBRANCH  27  29
ENDBRANCH  26  27
ENDBRANCH  25  26
ENDBRANCH   1  25
TORSDOF 16
ENDMDL
MODEL 3
REMARK VINA RESULT:     -11.5      4.501     10.072
REMARK SMILES CCC[C@H](CNC(=O)N1CCN2C(=O)NC[C@H]2C1)C(=O)OCCOC(=O)c1ccc(-c2c3nc(c(-c4c(F)c(F)c(F)c(F)c4F)c4ccc([nH]4)c(-c4c(F)c(F)c(F)c(F)c4F)c4nc(c(-c5c(F)c(F)c(F)c(F)c5F)c5ccc2[nH]5)C=C4)C=C3)cc1
REMARK SMILES IDX 22 1 21 2 19 3 20 4 4 5 3 6 2 7 1 8 5 9 6 10 7 11 8 13 9 14
REMARK SMILES IDX 10 15 18 16 11 17 17 18 12 19 16 20 13 21 15 22 14 23 23 25
REMARK SMILES IDX 24 26 25 27 26 28 27 29 28 30 89 31 29 32 88 33 30 34 31 35
REMARK SMILES IDX 32 36 82 37 33 38 87 39 81 40 83 41 34 42 86 43 80 44 79 45
REMARK SMILES IDX 35 47 67 48 47 49 66 50 48 51 51 52 65 53 84 54 49 55 50 56
REMARK SMILES IDX 64 58 85 59 52 60 36 61 37 62 45 63 38 64 39 65 43 66 46 67
REMARK SMILES IDX 40 68 41 69 44 70 42 71 68 72 69 73 77 74 70 75 71 76 75 77
REMARK SMILES IDX 78 78 72 79 73 80 76 81 74 82 53 83 54 84 62 85 55 86 56 87
REMARK SMILES IDX 60 88 63 89 57 90 58 91 61 92 59 93
REMARK H PARENT 6 12 15 24 83 46 51 57
REMARK Flexibility Score: inf
ROOT
ATOM      1  C   UNL A   1      30.737  31.391  25.502  1.00  0.00     0.274 C 
ENDROOT
BRANCH   1   2
ATOM      2  O   UNL A   1      31.284  30.062  25.607  1.00  0.00    -0.462 OA
BRANCH   2   3
ATOM      3  C   UNL A   1      31.405  29.374  24.453  1.00  0.00     0.310 C 
ATOM      4  O   UNL A   1      30.625  29.470  23.508  1.00  0.00    -0.252 OA
BRANCH   3   5
ATOM      5  C   UNL A   1      32.592  28.428  24.392  1.00  0.00     0.118 C 
BRANCH   5   6
ATOM      6  C   UNL A   1      33.642  28.832  25.452  1.00  0.00     0.017 C 
BRANCH   6   7
ATOM      7  C   UNL A   1      33.719  27.829  26.617  1.00  0.00    -0.002 C 
ATOM      8  C   UNL A   1      32.476  27.818  27.499  1.00  0.00     0.004 C 
ENDBRANCH   6   7
ENDBRANCH   5   6
BRANCH   5   9
ATOM      9  C   UNL A   1      33.216  27.993  23.051  1.00  0.00     0.133 C 
BRANCH   9  10
ATOM     10  N   UNL A   1      32.340  27.537  21.994  1.00  0.00    -0.337 N 
ATOM     11  C   UNL A   1      31.780  26.316  21.810  1.00  0.00     0.317 C 
ATOM     12  H   UNL A   1      32.119  28.209  21.309  1.00  0.00     0.165 HD
ATOM     13  O   UNL A   1      31.516  25.952  20.663  1.00  0.00    -0.249 OA
BRANCH  11  14
ATOM     14  N   UNL A   1      31.612  25.492  22.885  1.00  0.00    -0.321 N 
ATOM     15  C   UNL A   1      30.387  25.360  23.696  1.00  0.00     0.143 C 
ATOM     16  C   UNL A   1      32.627  24.470  23.154  1.00  0.00     0.148 C 
ATOM     17  C   UNL A   1      30.703  25.362  25.205  1.00  0.00     0.143 C 
ATOM     18  C   UNL A   1      33.031  24.576  24.622  1.00  0.00     0.125 C 
ATOM     19  N   UNL A   1      31.865  24.540  25.494  1.00  0.00    -0.317 N 
ATOM     20  C   UNL A   1      33.890  23.437  25.157  1.00  0.00     0.144 C 
ATOM     21  C   UNL A   1      32.118  23.818  26.640  1.00  0.00     0.317 C 
ATOM     22  N   UNL A   1      33.352  23.208  26.476  1.00  0.00    -0.336 N 
ATOM     23  O   UNL A   1      31.403  23.713  27.621  1.00  0.00    -0.249 OA
ATOM     24  H   UNL A   1      33.807  22.682  27.174  1.00  0.00     0.165 HD
ENDBRANCH  11  14
ENDBRANCH   9  10
ENDBRANCH   5   9
ENDBRANCH   3   5
ENDBRANCH   2   3
ENDBRANCH   1   2
BRANCH   1  25
ATOM     25  C   UNL A   1      31.381  32.366  26.498  1.00  0.00     0.275 C 
BRANCH  25  26
ATOM     26  O   UNL A   1      32.618  31.862  27.050  1.00  0.00    -0.458 OA
BRANCH  26  27
ATOM     27  C   UNL A   1      33.412  32.798  27.615  1.00  0.00     0.338 C 
ATOM     28  O   UNL A   1      33.108  33.939  27.929  1.00  0.00    -0.246 OA
BRANCH  27  29
ATOM     29  C   UNL A   1      34.718  32.249  28.002  1.00  0.00     0.060 A 
ATOM     30  C   UNL A   1      34.726  30.930  28.451  1.00  0.00     0.016 A 
ATOM     31  C   UNL A   1      35.854  33.042  28.146  1.00  0.00     0.016 A 
ATOM     32  C   UNL A   1      35.832  30.402  29.096  1.00  0.00     0.010 A 
ATOM     33  C   UNL A   1      36.994  32.497  28.757  1.00  0.00     0.010 A 
ATOM     34  C   UNL A   1      36.980  31.183  29.262  1.00  0.00    -0.014 A 
BRANCH  34  35
ATOM     35  C   UNL A   1      38.120  30.603  30.014  1.00  0.00     0.031 A 
ATOM     36  C   UNL A   1      38.316  30.929  31.468  1.00  0.00     0.074 A 
ATOM     37  C   UNL A   1      38.927  29.713  29.406  1.00  0.00     0.049 A 
ATOM     38  N   UNL A   1      39.265  30.542  32.283  1.00  0.00    -0.248 NA
ATOM     39  C   UNL A   1      37.313  31.807  32.088  1.00  0.00     0.031 C 
ATOM     40  C   UNL A   1      38.799  29.272  28.016  1.00  0.00     0.029 A 
ATOM     41  N   UNL A   1      40.000  29.003  29.883  1.00  0.00    -0.354 N 
ATOM     42  C   UNL A   1      38.993  31.153  33.501  1.00  0.00     0.074 A 
ATOM     43  C   UNL A   1      37.798  31.949  33.314  1.00  0.00     0.031 C 
ATOM     44  C   UNL A   1      39.739  28.350  27.759  1.00  0.00     0.029 A 
ATOM     45  C   UNL A   1      40.574  28.182  28.943  1.00  0.00     0.049 A 
ATOM     46  H   UNL A   1      40.328  29.075  30.809  1.00  0.00     0.167 HD
ATOM     47  C   UNL A   1      39.678  31.055  34.665  1.00  0.00     0.037 A 
ATOM     48  C   UNL A   1      41.667  27.402  29.019  1.00  0.00     0.037 A 
ATOM     49  C   UNL A   1      40.853  30.240  34.848  1.00  0.00     0.049 A 
ATOM     50  C   UNL A   1      42.433  27.345  30.312  1.00  0.00     0.074 A 
ATOM     51  C   UNL A   1      41.618  30.069  35.988  1.00  0.00     0.029 A 
ATOM     52  N   UNL A   1      41.430  29.453  33.860  1.00  0.00    -0.354 N 
ATOM     53  N   UNL A   1      42.181  27.945  31.450  1.00  0.00    -0.248 NA
ATOM     54  C   UNL A   1      43.636  26.503  30.328  1.00  0.00     0.031 C 
ATOM     55  C   UNL A   1      42.683  29.215  35.680  1.00  0.00     0.029 A 
ATOM     56  C   UNL A   1      42.552  28.808  34.361  1.00  0.00     0.049 A 
ATOM     57  H   UNL A   1      41.093  29.365  32.939  1.00  0.00     0.167 HD
ATOM     58  C   UNL A   1      43.182  27.540  32.323  1.00  0.00     0.074 A 
ATOM     59  C   UNL A   1      44.029  26.623  31.588  1.00  0.00     0.031 C 
ATOM     60  C   UNL A   1      43.383  27.899  33.615  1.00  0.00     0.037 A 
BRANCH  47  61
ATOM     61  C   UNL A   1      39.199  31.878  35.826  1.00  0.00     0.064 A 
ATOM     62  C   UNL A   1      39.632  33.196  36.033  1.00  0.00     0.173 A 
ATOM     63  C   UNL A   1      38.263  31.348  36.729  1.00  0.00     0.173 A 
ATOM     64  F   UNL A   1      40.536  33.747  35.209  1.00  0.00    -0.203 F 
ATOM     65  C   UNL A   1      39.168  33.942  37.114  1.00  0.00     0.198 A 
ATOM     66  C   UNL A   1      37.779  32.107  37.791  1.00  0.00     0.198 A 
ATOM     67  F   UNL A   1      37.810  30.095  36.575  1.00  0.00    -0.203 F 
ATOM     68  F   UNL A   1      39.632  35.182  37.320  1.00  0.00    -0.200 F 
ATOM     69  C   UNL A   1      38.237  33.399  37.988  1.00  0.00     0.200 A 
ATOM     70  F   UNL A   1      36.869  31.584  38.626  1.00  0.00    -0.200 F 
ATOM     71  F   UNL A   1      37.786  34.122  39.024  1.00  0.00    -0.200 F 
ENDBRANCH  47  61
BRANCH  48  72
ATOM     72  C   UNL A   1      42.112  26.630  27.830  1.00  0.00     0.064 A 
ATOM     73  C   UNL A   1      41.588  25.361  27.551  1.00  0.00     0.173 A 
ATOM     74  C   UNL A   1      43.072  27.148  26.946  1.00  0.00     0.173 A 
ATOM     75  F   UNL A   1      40.685  24.813  28.378  1.00  0.00    -0.203 F 
ATOM     76  C   UNL A   1      42.018  24.632  26.445  1.00  0.00     0.198 A 
ATOM     77  C   UNL A   1      43.478  26.432  25.822  1.00  0.00     0.198 A 
ATOM     78  F   UNL A   1      43.605  28.358  27.167  1.00  0.00    -0.203 F 
ATOM     79  F   UNL A   1      41.535  23.401  26.227  1.00  0.00    -0.200 F 
ATOM     80  C   UNL A   1      42.957  25.171  25.577  1.00  0.00     0.200 A 
ATOM     81  F   UNL A   1      44.373  26.964  24.979  1.00  0.00    -0.200 F 
ATOM     82  F   UNL A   1      43.364  24.471  24.509  1.00  0.00    -0.200 F 
ENDBRANCH  48  72
BRANCH  60  83
ATOM     83  C   UNL A   1      44.548  27.266  34.320  1.00  0.00     0.064 A 
ATOM     84  C   UNL A   1      44.428  26.038  34.989  1.00  0.00     0.173 A 
ATOM     85  C   UNL A   1      45.802  27.896  34.323  1.00  0.00     0.173 A 
ATOM     86  F   UNL A   1      43.246  25.405  35.029  1.00  0.00    -0.203 F 
ATOM     87  C   UNL A   1      45.510  25.485  35.669  1.00  0.00     0.198 A 
ATOM     88  C   UNL A   1      46.889  27.323  34.977  1.00  0.00     0.198 A 
ATOM     89  F   UNL A   1      45.973  29.067  33.692  1.00  0.00    -0.203 F 
ATOM     90  F   UNL A   1      45.354  24.345  36.356  1.00  0.00    -0.200 F 
ATOM     91  C   UNL A   1      46.740  26.125  35.658  1.00  0.00     0.200 A 
ATOM     92  F   UNL A   1      48.082  27.937  34.955  1.00  0.00    -0.200 F 
ATOM     93  F   UNL A   1      47.779  25.594  36.317  1.00  0.00    -0.200 F 
ENDBRANCH  60  83
ENDBRANCH  34  35
ENDBRANCH  27  29
ENDBRANCH  26  27
ENDBRANCH  25  26
ENDBRANCH   1  25
TORSDOF 16
ENDMDL
