MODEL 1
REMARK VINA RESULT:     -12.0      0.000      0.000
REMARK SMILES N#CCCn1cc(C(=O)OCCOC(=O)c2ccc(-c3c4nc(c(-c5c(F)c(F)c(F)c(F)c5F)c5ccc([nH]5)c(-c5c(F)c(F)c(F)c(F)c5F)c5nc(c(-c6c(F)c(F)c(F)c(F)c6F)c6ccc3[nH]6)C=C5)C=C4)cc2)c(-c2cccc([N+](=O)[O-])c2)n1
REMARK SMILES IDX 11 1 10 2 8 3 9 4 7 5 5 6 6 7 89 8 79 9 4 10 3 11 2 12 1 13
REMARK SMILES IDX 80 14 81 15 88 16 82 17 84 18 83 19 85 20 86 21 87 22 12 23
REMARK SMILES IDX 13 24 14 25 15 26 16 27 17 28 78 29 18 30 77 31 19 32 20 33
REMARK SMILES IDX 21 34 71 35 22 36 76 37 70 38 72 39 23 40 75 41 69 42 68 43
REMARK SMILES IDX 24 45 56 46 36 47 55 48 37 49 40 50 54 51 73 52 38 53 39 54
REMARK SMILES IDX 53 56 74 57 41 58 25 59 26 60 34 61 27 62 28 63 32 64 35 65
REMARK SMILES IDX 29 66 30 67 33 68 31 69 57 70 58 71 66 72 59 73 60 74 64 75
REMARK SMILES IDX 67 76 61 77 62 78 65 79 63 80 42 81 43 82 51 83 44 84 45 85
REMARK SMILES IDX 49 86 52 87 46 88 47 89 50 90 48 91
REMARK H PARENT 72 44 40 55
REMARK Flexibility Score: inf
ROOT
ATOM      1  C   UNL A   1      37.297  22.401  25.515  1.00  0.00     0.275 C 
ENDROOT
BRANCH   1   2
ATOM      2  O   UNL A   1      36.205  21.728  24.864  1.00  0.00    -0.458 OA
BRANCH   2   3
ATOM      3  C   UNL A   1      35.129  21.376  25.633  1.00  0.00     0.342 C 
ATOM      4  O   UNL A   1      34.932  21.784  26.776  1.00  0.00    -0.246 OA
BRANCH   3   5
ATOM      5  C   UNL A   1      34.225  20.484  24.931  1.00  0.00     0.106 A 
ATOM      6  N   UNL A   1      33.361  18.689  24.014  1.00  0.00    -0.270 N 
ATOM      7  C   UNL A   1      34.491  19.172  24.593  1.00  0.00     0.125 A 
ATOM      8  N   UNL A   1      32.407  19.616  23.843  1.00  0.00    -0.172 NA
ATOM      9  C   UNL A   1      32.923  20.726  24.397  1.00  0.00     0.107 A 
BRANCH   6  10
ATOM     10  C   UNL A   1      33.104  17.305  23.668  1.00  0.00     0.159 C 
BRANCH  10  11
ATOM     11  C   UNL A   1      34.203  16.375  24.162  1.00  0.00     0.144 C 
BRANCH  11  12
ATOM     12  C   UNL A   1      33.612  15.237  24.979  1.00  0.00     0.064 C 
ATOM     13  N   UNL A   1      33.122  14.294  25.657  1.00  0.00    -0.198 NA
ENDBRANCH  11  12
ENDBRANCH  10  11
ENDBRANCH   6  10
BRANCH   9  14
ATOM     14  C   UNL A   1      32.197  21.986  24.336  1.00  0.00     0.010 A 
ATOM     15  C   UNL A   1      32.045  22.623  23.095  1.00  0.00     0.011 A 
ATOM     16  C   UNL A   1      31.667  22.574  25.487  1.00  0.00     0.096 A 
ATOM     17  C   UNL A   1      31.447  23.880  23.003  1.00  0.00     0.008 A 
ATOM     18  C   UNL A   1      31.043  23.826  25.383  1.00  0.00     0.270 A 
ATOM     19  C   UNL A   1      30.956  24.494  24.153  1.00  0.00     0.085 A 
BRANCH  18  20
ATOM     20  N   UNL A   1      30.461  24.449  26.575  1.00  0.00     0.062 N 
ATOM     21  O   UNL A   1      30.818  25.604  26.852  1.00  0.00    -0.258 OA
ATOM     22  O   UNL A   1      29.639  23.791  27.229  1.00  0.00    -0.258 OA
ENDBRANCH  18  20
ENDBRANCH   9  14
ENDBRANCH   3   5
ENDBRANCH   2   3
ENDBRANCH   1   2
BRANCH   1  23
ATOM     23  C   UNL A   1      38.484  21.475  25.767  1.00  0.00     0.275 C 
BRANCH  23  24
ATOM     24  O   UNL A   1      39.716  22.189  25.726  1.00  0.00    -0.458 OA
BRANCH  24  25
ATOM     25  C   UNL A   1      40.336  22.289  26.921  1.00  0.00     0.338 C 
ATOM     26  O   UNL A   1      40.424  21.428  27.780  1.00  0.00    -0.246 OA
BRANCH  25  27
ATOM     27  C   UNL A   1      40.809  23.658  27.124  1.00  0.00     0.060 A 
ATOM     28  C   UNL A   1      41.843  23.823  28.051  1.00  0.00     0.016 A 
ATOM     29  C   UNL A   1      40.102  24.747  26.597  1.00  0.00     0.016 A 
ATOM     30  C   UNL A   1      42.076  25.072  28.571  1.00  0.00     0.010 A 
ATOM     31  C   UNL A   1      40.320  25.995  27.129  1.00  0.00     0.010 A 
ATOM     32  C   UNL A   1      41.251  26.121  28.159  1.00  0.00    -0.014 A 
BRANCH  32  33
ATOM     33  C   UNL A   1      41.409  27.391  28.834  1.00  0.00     0.031 A 
ATOM     34  C   UNL A   1      42.660  28.090  28.450  1.00  0.00     0.074 A 
ATOM     35  C   UNL A   1      40.432  27.826  29.655  1.00  0.00     0.049 A 
ATOM     36  N   UNL A   1      43.633  28.457  29.217  1.00  0.00    -0.248 NA
ATOM     37  C   UNL A   1      42.951  28.241  27.011  1.00  0.00     0.031 C 
ATOM     38  C   UNL A   1      39.107  27.223  29.857  1.00  0.00     0.029 A 
ATOM     39  N   UNL A   1      40.363  28.964  30.401  1.00  0.00    -0.354 N 
ATOM     40  C   UNL A   1      44.554  29.085  28.380  1.00  0.00     0.074 A 
ATOM     41  C   UNL A   1      44.178  28.757  27.034  1.00  0.00     0.031 C 
ATOM     42  C   UNL A   1      38.292  28.113  30.464  1.00  0.00     0.029 A 
ATOM     43  C   UNL A   1      39.068  29.286  30.810  1.00  0.00     0.049 A 
ATOM     44  H   UNL A   1      41.151  29.506  30.631  1.00  0.00     0.167 HD
ATOM     45  C   UNL A   1      45.350  30.075  28.867  1.00  0.00     0.037 A 
ATOM     46  C   UNL A   1      38.673  30.492  31.289  1.00  0.00     0.037 A 
ATOM     47  C   UNL A   1      45.488  29.947  30.296  1.00  0.00     0.049 A 
ATOM     48  C   UNL A   1      39.898  31.201  31.738  1.00  0.00     0.074 A 
ATOM     49  C   UNL A   1      46.057  29.031  31.155  1.00  0.00     0.029 A 
ATOM     50  N   UNL A   1      44.635  30.708  31.052  1.00  0.00    -0.354 N 
ATOM     51  N   UNL A   1      40.634  30.804  32.739  1.00  0.00    -0.248 NA
ATOM     52  C   UNL A   1      40.561  32.068  30.778  1.00  0.00     0.031 C 
ATOM     53  C   UNL A   1      45.220  29.029  32.312  1.00  0.00     0.029 A 
ATOM     54  C   UNL A   1      44.220  29.988  32.136  1.00  0.00     0.049 A 
ATOM     55  H   UNL A   1      44.362  31.630  30.845  1.00  0.00     0.167 HD
ATOM     56  C   UNL A   1      41.942  31.005  32.317  1.00  0.00     0.074 A 
ATOM     57  C   UNL A   1      41.830  31.873  31.146  1.00  0.00     0.031 C 
ATOM     58  C   UNL A   1      42.951  30.214  32.789  1.00  0.00     0.037 A 
BRANCH  45  59
ATOM     59  C   UNL A   1      45.529  31.412  28.163  1.00  0.00     0.064 A 
ATOM     60  C   UNL A   1      44.374  32.104  27.740  1.00  0.00     0.173 A 
ATOM     61  C   UNL A   1      46.740  31.863  27.590  1.00  0.00     0.173 A 
ATOM     62  F   UNL A   1      43.166  31.772  28.218  1.00  0.00    -0.203 F 
ATOM     63  C   UNL A   1      44.416  33.072  26.732  1.00  0.00     0.198 A 
ATOM     64  C   UNL A   1      46.783  32.859  26.615  1.00  0.00     0.198 A 
ATOM     65  F   UNL A   1      47.924  31.304  27.856  1.00  0.00    -0.203 F 
ATOM     66  F   UNL A   1      43.275  33.592  26.262  1.00  0.00    -0.200 F 
ATOM     67  C   UNL A   1      45.619  33.436  26.158  1.00  0.00     0.200 A 
ATOM     68  F   UNL A   1      47.960  33.188  26.063  1.00  0.00    -0.200 F 
ATOM     69  F   UNL A   1      45.656  34.304  25.140  1.00  0.00    -0.200 F 
ENDBRANCH  45  59
BRANCH  46  70
ATOM     70  C   UNL A   1      37.407  31.199  30.971  1.00  0.00     0.064 A 
ATOM     71  C   UNL A   1      36.476  31.524  31.970  1.00  0.00     0.173 A 
ATOM     72  C   UNL A   1      37.208  31.804  29.713  1.00  0.00     0.173 A 
ATOM     73  F   UNL A   1      36.629  31.044  33.213  1.00  0.00    -0.203 F 
ATOM     74  C   UNL A   1      35.409  32.399  31.723  1.00  0.00     0.198 A 
ATOM     75  C   UNL A   1      36.143  32.671  29.467  1.00  0.00     0.198 A 
ATOM     76  F   UNL A   1      38.098  31.641  28.724  1.00  0.00    -0.203 F 
ATOM     77  F   UNL A   1      34.567  32.724  32.714  1.00  0.00    -0.200 F 
ATOM     78  C   UNL A   1      35.247  32.974  30.473  1.00  0.00     0.200 A 
ATOM     79  F   UNL A   1      36.025  33.254  28.264  1.00  0.00    -0.200 F 
ATOM     80  F   UNL A   1      34.256  33.849  30.250  1.00  0.00    -0.200 F 
ENDBRANCH  46  70
BRANCH  58  81
ATOM     81  C   UNL A   1      42.658  29.363  33.992  1.00  0.00     0.064 A 
ATOM     82  C   UNL A   1      42.028  28.107  33.943  1.00  0.00     0.173 A 
ATOM     83  C   UNL A   1      43.170  29.782  35.227  1.00  0.00     0.173 A 
ATOM     84  F   UNL A   1      41.594  27.600  32.782  1.00  0.00    -0.203 F 
ATOM     85  C   UNL A   1      41.890  27.326  35.091  1.00  0.00     0.198 A 
ATOM     86  C   UNL A   1      43.064  28.986  36.362  1.00  0.00     0.198 A 
ATOM     87  F   UNL A   1      43.826  30.949  35.318  1.00  0.00    -0.203 F 
ATOM     88  F   UNL A   1      41.280  26.133  35.024  1.00  0.00    -0.200 F 
ATOM     89  C   UNL A   1      42.416  27.762  36.296  1.00  0.00     0.200 A 
ATOM     90  F   UNL A   1      43.620  29.390  37.512  1.00  0.00    -0.200 F 
ATOM     91  F   UNL A   1      42.325  26.993  37.390  1.00  0.00    -0.200 F 
ENDBRANCH  58  81
ENDBRANCH  32  33
ENDBRANCH  25  27
ENDBRANCH  24  25
ENDBRANCH  23  24
ENDBRANCH   1  23
TORSDOF 16
ENDMDL
MODEL 2
REMARK VINA RESULT:     -11.9      3.536      9.004
REMARK SMILES N#CCCn1cc(C(=O)OCCOC(=O)c2ccc(-c3c4nc(c(-c5c(F)c(F)c(F)c(F)c5F)c5ccc([nH]5)c(-c5c(F)c(F)c(F)c(F)c5F)c5nc(c(-c6c(F)c(F)c(F)c(F)c6F)c6ccc3[nH]6)C=C5)C=C4)cc2)c(-c2cccc([N+](=O)[O-])c2)n1
REMARK SMILES IDX 11 1 10 2 8 3 9 4 7 5 5 6 6 7 89 8 79 9 4 10 3 11 2 12 1 13
REMARK SMILES IDX 80 14 81 15 88 16 82 17 84 18 83 19 85 20 86 21 87 22 12 23
REMARK SMILES IDX 13 24 14 25 15 26 16 27 17 28 78 29 18 30 77 31 19 32 20 33
REMARK SMILES IDX 21 34 71 35 22 36 76 37 70 38 72 39 23 40 75 41 69 42 68 43
REMARK SMILES IDX 24 45 56 46 36 47 55 48 37 49 40 50 54 51 73 52 38 53 39 54
REMARK SMILES IDX 53 56 74 57 41 58 25 59 26 60 34 61 27 62 28 63 32 64 35 65
REMARK SMILES IDX 29 66 30 67 33 68 31 69 57 70 58 71 66 72 59 73 60 74 64 75
REMARK SMILES IDX 67 76 61 77 62 78 65 79 63 80 42 81 43 82 51 83 44 84 45 85
REMARK SMILES IDX 49 86 52 87 46 88 47 89 50 90 48 91
REMARK H PARENT 72 44 40 55
REMARK Flexibility Score: inf
ROOT
ATOM      1  C   UNL A   1      33.481  29.088  27.361  1.00  0.00     0.275 C 
ENDROOT
BRANCH   1   2
ATOM      2  O   UNL A   1      32.554  28.424  26.485  1.00  0.00    -0.458 OA
BRANCH   2   3
ATOM      3  C   UNL A   1      32.913  28.280  25.172  1.00  0.00     0.342 C 
ATOM      4  O   UNL A   1      34.067  28.103  24.786  1.00  0.00    -0.246 OA
BRANCH   3   5
ATOM      5  C   UNL A   1      31.768  28.331  24.283  1.00  0.00     0.106 A 
ATOM      6  N   UNL A   1      30.188  29.080  22.959  1.00  0.00    -0.270 N 
ATOM      7  C   UNL A   1      31.173  29.482  23.803  1.00  0.00     0.125 A 
ATOM      8  N   UNL A   1      30.014  27.751  22.931  1.00  0.00    -0.172 NA
ATOM      9  C   UNL A   1      30.973  27.276  23.743  1.00  0.00     0.107 A 
BRANCH   6  10
ATOM     10  C   UNL A   1      29.419  29.935  22.076  1.00  0.00     0.159 C 
BRANCH  10  11
ATOM     11  C   UNL A   1      28.256  30.606  22.795  1.00  0.00     0.144 C 
BRANCH  11  12
ATOM     12  C   UNL A   1      28.134  32.060  22.369  1.00  0.00     0.064 C 
ATOM     13  N   UNL A   1      28.032  33.266  22.015  1.00  0.00    -0.198 NA
ENDBRANCH  11  12
ENDBRANCH  10  11
ENDBRANCH   6  10
BRANCH   9  14
ATOM     14  C   UNL A   1      31.055  25.851  24.032  1.00  0.00     0.010 A 
ATOM     15  C   UNL A   1      31.337  24.962  22.984  1.00  0.00     0.011 A 
ATOM     16  C   UNL A   1      30.843  25.359  25.322  1.00  0.00     0.096 A 
ATOM     17  C   UNL A   1      31.324  23.582  23.192  1.00  0.00     0.008 A 
ATOM     18  C   UNL A   1      30.857  23.972  25.529  1.00  0.00     0.270 A 
ATOM     19  C   UNL A   1      31.068  23.081  24.466  1.00  0.00     0.085 A 
BRANCH  18  20
ATOM     20  N   UNL A   1      30.659  23.437  26.879  1.00  0.00     0.062 N 
ATOM     21  O   UNL A   1      31.634  22.912  27.438  1.00  0.00    -0.258 OA
ATOM     22  O   UNL A   1      29.535  23.553  27.389  1.00  0.00    -0.258 OA
ENDBRANCH  18  20
ENDBRANCH   9  14
ENDBRANCH   3   5
ENDBRANCH   2   3
ENDBRANCH   1   2
BRANCH   1  23
ATOM     23  C   UNL A   1      33.490  30.601  27.161  1.00  0.00     0.275 C 
BRANCH  23  24
ATOM     24  O   UNL A   1      34.811  31.127  27.250  1.00  0.00    -0.458 OA
BRANCH  24  25
ATOM     25  C   UNL A   1      35.062  31.799  28.395  1.00  0.00     0.338 C 
ATOM     26  O   UNL A   1      34.518  32.818  28.785  1.00  0.00    -0.246 OA
BRANCH  25  27
ATOM     27  C   UNL A   1      36.202  31.198  29.086  1.00  0.00     0.060 A 
ATOM     28  C   UNL A   1      37.351  31.989  29.186  1.00  0.00     0.016 A 
ATOM     29  C   UNL A   1      36.207  29.834  29.410  1.00  0.00     0.016 A 
ATOM     30  C   UNL A   1      38.550  31.385  29.467  1.00  0.00     0.010 A 
ATOM     31  C   UNL A   1      37.410  29.224  29.673  1.00  0.00     0.010 A 
ATOM     32  C   UNL A   1      38.569  29.998  29.623  1.00  0.00    -0.014 A 
BRANCH  32  33
ATOM     33  C   UNL A   1      39.862  29.364  29.761  1.00  0.00     0.031 A 
ATOM     34  C   UNL A   1      40.354  29.371  31.160  1.00  0.00     0.074 A 
ATOM     35  C   UNL A   1      40.439  28.803  28.679  1.00  0.00     0.049 A 
ATOM     36  N   UNL A   1      41.443  29.896  31.617  1.00  0.00    -0.248 NA
ATOM     37  C   UNL A   1      39.440  28.891  32.215  1.00  0.00     0.031 C 
ATOM     38  C   UNL A   1      39.841  28.619  27.349  1.00  0.00     0.029 A 
ATOM     39  N   UNL A   1      41.641  28.174  28.560  1.00  0.00    -0.354 N 
ATOM     40  C   UNL A   1      41.451  29.614  32.983  1.00  0.00     0.074 A 
ATOM     41  C   UNL A   1      40.128  29.171  33.320  1.00  0.00     0.031 C 
ATOM     42  C   UNL A   1      40.569  27.723  26.647  1.00  0.00     0.029 A 
ATOM     43  C   UNL A   1      41.744  27.378  27.419  1.00  0.00     0.049 A 
ATOM     44  H   UNL A   1      42.368  28.272  29.216  1.00  0.00     0.167 HD
ATOM     45  C   UNL A   1      42.634  29.469  33.639  1.00  0.00     0.037 A 
ATOM     46  C   UNL A   1      42.685  26.422  27.210  1.00  0.00     0.037 A 
ATOM     47  C   UNL A   1      43.684  30.160  32.933  1.00  0.00     0.049 A 
ATOM     48  C   UNL A   1      43.806  26.710  28.139  1.00  0.00     0.074 A 
ATOM     49  C   UNL A   1      43.978  31.474  32.640  1.00  0.00     0.029 A 
ATOM     50  N   UNL A   1      44.438  29.396  32.081  1.00  0.00    -0.354 N 
ATOM     51  N   UNL A   1      44.558  27.772  28.055  1.00  0.00    -0.248 NA
ATOM     52  C   UNL A   1      43.782  26.062  29.440  1.00  0.00     0.031 C 
ATOM     53  C   UNL A   1      44.600  31.443  31.354  1.00  0.00     0.029 A 
ATOM     54  C   UNL A   1      44.717  30.112  30.952  1.00  0.00     0.049 A 
ATOM     55  H   UNL A   1      44.732  28.472  32.256  1.00  0.00     0.167 HD
ATOM     56  C   UNL A   1      44.752  28.173  29.371  1.00  0.00     0.074 A 
ATOM     57  C   UNL A   1      44.332  27.029  30.178  1.00  0.00     0.031 C 
ATOM     58  C   UNL A   1      44.957  29.491  29.669  1.00  0.00     0.037 A 
BRANCH  45  59
ATOM     59  C   UNL A   1      42.929  28.296  34.562  1.00  0.00     0.064 A 
ATOM     60  C   UNL A   1      43.414  28.572  35.858  1.00  0.00     0.173 A 
ATOM     61  C   UNL A   1      43.091  26.958  34.135  1.00  0.00     0.173 A 
ATOM     62  F   UNL A   1      43.313  29.804  36.377  1.00  0.00    -0.203 F 
ATOM     63  C   UNL A   1      44.118  27.622  36.605  1.00  0.00     0.198 A 
ATOM     64  C   UNL A   1      43.756  26.002  34.901  1.00  0.00     0.198 A 
ATOM     65  F   UNL A   1      42.715  26.529  32.927  1.00  0.00    -0.203 F 
ATOM     66  F   UNL A   1      44.686  27.978  37.764  1.00  0.00    -0.200 F 
ATOM     67  C   UNL A   1      44.303  26.343  36.118  1.00  0.00     0.200 A 
ATOM     68  F   UNL A   1      43.936  24.769  34.404  1.00  0.00    -0.200 F 
ATOM     69  F   UNL A   1      45.042  25.455  36.794  1.00  0.00    -0.200 F 
ENDBRANCH  45  59
BRANCH  46  70
ATOM     70  C   UNL A   1      42.469  25.086  26.600  1.00  0.00     0.064 A 
ATOM     71  C   UNL A   1      43.233  24.644  25.509  1.00  0.00     0.173 A 
ATOM     72  C   UNL A   1      41.684  24.110  27.247  1.00  0.00     0.173 A 
ATOM     73  F   UNL A   1      44.057  25.493  24.877  1.00  0.00    -0.203 F 
ATOM     74  C   UNL A   1      43.209  23.307  25.089  1.00  0.00     0.198 A 
ATOM     75  C   UNL A   1      41.657  22.780  26.826  1.00  0.00     0.198 A 
ATOM     76  F   UNL A   1      41.000  24.407  28.361  1.00  0.00    -0.203 F 
ATOM     77  F   UNL A   1      43.988  22.911  24.072  1.00  0.00    -0.200 F 
ATOM     78  C   UNL A   1      42.425  22.377  25.751  1.00  0.00     0.200 A 
ATOM     79  F   UNL A   1      40.927  21.883  27.505  1.00  0.00    -0.200 F 
ATOM     80  F   UNL A   1      42.439  21.089  25.382  1.00  0.00    -0.200 F 
ENDBRANCH  46  70
BRANCH  58  81
ATOM     81  C   UNL A   1      45.288  30.415  28.532  1.00  0.00     0.064 A 
ATOM     82  C   UNL A   1      44.333  31.027  27.702  1.00  0.00     0.173 A 
ATOM     83  C   UNL A   1      46.624  30.803  28.375  1.00  0.00     0.173 A 
ATOM     84  F   UNL A   1      43.026  30.774  27.854  1.00  0.00    -0.203 F 
ATOM     85  C   UNL A   1      44.710  31.961  26.736  1.00  0.00     0.198 A 
ATOM     86  C   UNL A   1      46.994  31.761  27.437  1.00  0.00     0.198 A 
ATOM     87  F   UNL A   1      47.569  30.288  29.177  1.00  0.00    -0.203 F 
ATOM     88  F   UNL A   1      43.784  32.529  25.950  1.00  0.00    -0.200 F 
ATOM     89  C   UNL A   1      46.039  32.333  26.612  1.00  0.00     0.200 A 
ATOM     90  F   UNL A   1      48.273  32.154  27.357  1.00  0.00    -0.200 F 
ATOM     91  F   UNL A   1      46.399  33.263  25.716  1.00  0.00    -0.200 F 
ENDBRANCH  58  81
ENDBRANCH  32  33
ENDBRANCH  25  27
ENDBRANCH  24  25
ENDBRANCH  23  24
ENDBRANCH   1  23
TORSDOF 16
ENDMDL
MODEL 3
REMARK VINA RESULT:     -11.9      3.429      8.489
REMARK SMILES N#CCCn1cc(C(=O)OCCOC(=O)c2ccc(-c3c4nc(c(-c5c(F)c(F)c(F)c(F)c5F)c5ccc([nH]5)c(-c5c(F)c(F)c(F)c(F)c5F)c5nc(c(-c6c(F)c(F)c(F)c(F)c6F)c6ccc3[nH]6)C=C5)C=C4)cc2)c(-c2cccc([N+](=O)[O-])c2)n1
REMARK SMILES IDX 11 1 10 2 8 3 9 4 7 5 5 6 6 7 89 8 79 9 4 10 3 11 2 12 1 13
REMARK SMILES IDX 80 14 81 15 88 16 82 17 84 18 83 19 85 20 86 21 87 22 12 23
REMARK SMILES IDX 13 24 14 25 15 26 16 27 17 28 78 29 18 30 77 31 19 32 20 33
REMARK SMILES IDX 21 34 71 35 22 36 76 37 70 38 72 39 23 40 75 41 69 42 68 43
REMARK SMILES IDX 24 45 56 46 36 47 55 48 37 49 40 50 54 51 73 52 38 53 39 54
REMARK SMILES IDX 53 56 74 57 41 58 25 59 26 60 34 61 27 62 28 63 32 64 35 65
REMARK SMILES IDX 29 66 30 67 33 68 31 69 57 70 58 71 66 72 59 73 60 74 64 75
REMARK SMILES IDX 67 76 61 77 62 78 65 79 63 80 42 81 43 82 51 83 44 84 45 85
REMARK SMILES IDX 49 86 52 87 46 88 47 89 50 90 48 91
REMARK H PARENT 72 44 40 55
REMARK Flexibility Score: inf
ROOT
ATOM      1  C   UNL A   1      32.255  29.900  26.258  1.00  0.00     0.275 C 
ENDROOT
BRANCH   1   2
ATOM      2  O   UNL A   1      32.561  28.496  26.328  1.00  0.00    -0.458 OA
BRANCH   2   3
ATOM      3  C   UNL A   1      31.622  27.670  26.886  1.00  0.00     0.342 C 
ATOM      4  O   UNL A   1      31.048  27.895  27.950  1.00  0.00    -0.246 OA
BRANCH   3   5
ATOM      5  C   UNL A   1      31.358  26.507  26.061  1.00  0.00     0.106 A 
ATOM      6  N   UNL A   1      31.131  24.428  25.399  1.00  0.00    -0.270 N 
ATOM      7  C   UNL A   1      31.571  25.193  26.432  1.00  0.00     0.125 A 
ATOM      8  N   UNL A   1      30.748  25.139  24.329  1.00  0.00    -0.172 NA
ATOM      9  C   UNL A   1      30.886  26.419  24.717  1.00  0.00     0.107 A 
BRANCH   6  10
ATOM     10  C   UNL A   1      30.979  22.987  25.409  1.00  0.00     0.159 C 
BRANCH  10  11
ATOM     11  C   UNL A   1      32.254  22.276  25.841  1.00  0.00     0.144 C 
BRANCH  11  12
ATOM     12  C   UNL A   1      32.259  20.840  25.342  1.00  0.00     0.064 C 
ATOM     13  N   UNL A   1      32.264  19.649  24.929  1.00  0.00    -0.198 NA
ENDBRANCH  11  12
ENDBRANCH  10  11
ENDBRANCH   6  10
BRANCH   9  14
ATOM     14  C   UNL A   1      30.633  27.504  23.780  1.00  0.00     0.010 A 
ATOM     15  C   UNL A   1      31.713  28.063  23.082  1.00  0.00     0.011 A 
ATOM     16  C   UNL A   1      29.344  28.004  23.581  1.00  0.00     0.096 A 
ATOM     17  C   UNL A   1      31.534  29.170  22.252  1.00  0.00     0.008 A 
ATOM     18  C   UNL A   1      29.167  29.101  22.726  1.00  0.00     0.270 A 
ATOM     19  C   UNL A   1      30.259  29.705  22.082  1.00  0.00     0.085 A 
BRANCH  18  20
ATOM     20  N   UNL A   1      27.820  29.626  22.486  1.00  0.00     0.062 N 
ATOM     21  O   UNL A   1      27.660  30.373  21.508  1.00  0.00    -0.258 OA
ATOM     22  O   UNL A   1      26.918  29.284  23.263  1.00  0.00    -0.258 OA
ENDBRANCH  18  20
ENDBRANCH   9  14
ENDBRANCH   3   5
ENDBRANCH   2   3
ENDBRANCH   1   2
BRANCH   1  23
ATOM     23  C   UNL A   1      33.051  30.720  27.270  1.00  0.00     0.275 C 
BRANCH  23  24
ATOM     24  O   UNL A   1      34.451  30.492  27.134  1.00  0.00    -0.458 OA
BRANCH  24  25
ATOM     25  C   UNL A   1      35.223  31.448  27.694  1.00  0.00     0.338 C 
ATOM     26  O   UNL A   1      35.115  32.655  27.558  1.00  0.00    -0.246 OA
BRANCH  25  27
ATOM     27  C   UNL A   1      36.332  30.831  28.420  1.00  0.00     0.060 A 
ATOM     28  C   UNL A   1      37.332  31.699  28.874  1.00  0.00     0.016 A 
ATOM     29  C   UNL A   1      36.489  29.439  28.443  1.00  0.00     0.016 A 
ATOM     30  C   UNL A   1      38.556  31.180  29.214  1.00  0.00     0.010 A 
ATOM     31  C   UNL A   1      37.720  28.919  28.765  1.00  0.00     0.010 A 
ATOM     32  C   UNL A   1      38.752  29.805  29.072  1.00  0.00    -0.014 A 
BRANCH  32  33
ATOM     33  C   UNL A   1      40.091  29.302  29.284  1.00  0.00     0.031 A 
ATOM     34  C   UNL A   1      40.487  29.315  30.713  1.00  0.00     0.074 A 
ATOM     35  C   UNL A   1      40.793  28.835  28.231  1.00  0.00     0.049 A 
ATOM     36  N   UNL A   1      41.483  29.934  31.256  1.00  0.00    -0.248 NA
ATOM     37  C   UNL A   1      39.560  28.714  31.691  1.00  0.00     0.031 C 
ATOM     38  C   UNL A   1      40.306  28.631  26.860  1.00  0.00     0.029 A 
ATOM     39  N   UNL A   1      42.058  28.334  28.180  1.00  0.00    -0.354 N 
ATOM     40  C   UNL A   1      41.431  29.613  32.612  1.00  0.00     0.074 A 
ATOM     41  C   UNL A   1      40.141  29.029  32.847  1.00  0.00     0.031 C 
ATOM     42  C   UNL A   1      41.167  27.835  26.188  1.00  0.00     0.029 A 
ATOM     43  C   UNL A   1      42.318  27.588  27.030  1.00  0.00     0.049 A 
ATOM     44  H   UNL A   1      42.727  28.486  28.887  1.00  0.00     0.167 HD
ATOM     45  C   UNL A   1      42.576  29.569  33.344  1.00  0.00     0.037 A 
ATOM     46  C   UNL A   1      43.364  26.739  26.864  1.00  0.00     0.037 A 
ATOM     47  C   UNL A   1      43.594  30.384  32.728  1.00  0.00     0.049 A 
ATOM     48  C   UNL A   1      44.386  27.110  27.875  1.00  0.00     0.074 A 
ATOM     49  C   UNL A   1      43.770  31.730  32.487  1.00  0.00     0.029 A 
ATOM     50  N   UNL A   1      44.477  29.726  31.912  1.00  0.00    -0.354 N 
ATOM     51  N   UNL A   1      45.029  28.246  27.867  1.00  0.00    -0.248 NA
ATOM     52  C   UNL A   1      44.343  26.424  29.155  1.00  0.00     0.031 C 
ATOM     53  C   UNL A   1      44.474  31.801  31.246  1.00  0.00     0.029 A 
ATOM     54  C   UNL A   1      44.754  30.500  30.822  1.00  0.00     0.049 A 
ATOM     55  H   UNL A   1      44.852  28.832  32.085  1.00  0.00     0.167 HD
ATOM     56  C   UNL A   1      45.093  28.624  29.202  1.00  0.00     0.074 A 
ATOM     57  C   UNL A   1      44.741  27.420  29.952  1.00  0.00     0.031 C 
ATOM     58  C   UNL A   1      45.141  29.946  29.545  1.00  0.00     0.037 A 
BRANCH  45  59
ATOM     59  C   UNL A   1      42.929  28.404  34.257  1.00  0.00     0.064 A 
ATOM     60  C   UNL A   1      43.297  28.689  35.590  1.00  0.00     0.173 A 
ATOM     61  C   UNL A   1      43.256  27.103  33.811  1.00  0.00     0.173 A 
ATOM     62  F   UNL A   1      43.035  29.889  36.130  1.00  0.00    -0.203 F 
ATOM     63  C   UNL A   1      44.044  27.793  36.361  1.00  0.00     0.198 A 
ATOM     64  C   UNL A   1      43.964  26.197  34.599  1.00  0.00     0.198 A 
ATOM     65  F   UNL A   1      43.006  26.675  32.571  1.00  0.00    -0.203 F 
ATOM     66  F   UNL A   1      44.496  28.169  37.565  1.00  0.00    -0.200 F 
ATOM     67  C   UNL A   1      44.392  26.554  35.858  1.00  0.00     0.200 A 
ATOM     68  F   UNL A   1      44.302  25.004  34.086  1.00  0.00    -0.200 F 
ATOM     69  F   UNL A   1      45.173  25.725  36.562  1.00  0.00    -0.200 F 
ENDBRANCH  45  59
BRANCH  46  70
ATOM     70  C   UNL A   1      43.328  25.407  26.210  1.00  0.00     0.064 A 
ATOM     71  C   UNL A   1      44.278  25.035  25.246  1.00  0.00     0.173 A 
ATOM     72  C   UNL A   1      42.511  24.373  26.712  1.00  0.00     0.173 A 
ATOM     73  F   UNL A   1      45.138  25.945  24.765  1.00  0.00    -0.203 F 
ATOM     74  C   UNL A   1      44.401  23.709  24.810  1.00  0.00     0.198 A 
ATOM     75  C   UNL A   1      42.631  23.053  26.274  1.00  0.00     0.198 A 
ATOM     76  F   UNL A   1      41.645  24.604  27.709  1.00  0.00    -0.203 F 
ATOM     77  F   UNL A   1      45.353  23.381  23.924  1.00  0.00    -0.200 F 
ATOM     78  C   UNL A   1      43.581  22.720  25.328  1.00  0.00     0.200 A 
ATOM     79  F   UNL A   1      41.860  22.100  26.817  1.00  0.00    -0.200 F 
ATOM     80  F   UNL A   1      43.731  21.443  24.948  1.00  0.00    -0.200 F 
ENDBRANCH  46  70
BRANCH  58  81
ATOM     81  C   UNL A   1      45.449  30.933  28.454  1.00  0.00     0.064 A 
ATOM     82  C   UNL A   1      44.490  31.485  27.588  1.00  0.00     0.173 A 
ATOM     83  C   UNL A   1      46.751  31.444  28.386  1.00  0.00     0.173 A 
ATOM     84  F   UNL A   1      43.204  31.111  27.656  1.00  0.00    -0.203 F 
ATOM     85  C   UNL A   1      44.833  32.480  26.672  1.00  0.00     0.198 A 
ATOM     86  C   UNL A   1      47.084  32.461  27.499  1.00  0.00     0.198 A 
ATOM     87  F   UNL A   1      47.693  30.989  29.227  1.00  0.00    -0.203 F 
ATOM     88  F   UNL A   1      43.905  32.989  25.849  1.00  0.00    -0.200 F 
ATOM     89  C   UNL A   1      46.128  32.972  26.635  1.00  0.00     0.200 A 
ATOM     90  F   UNL A   1      48.324  32.969  27.504  1.00  0.00    -0.200 F 
ATOM     91  F   UNL A   1      46.451  33.960  25.788  1.00  0.00    -0.200 F 
ENDBRANCH  58  81
ENDBRANCH  32  33
ENDBRANCH  25  27
ENDBRANCH  24  25
ENDBRANCH  23  24
ENDBRANCH   1  23
TORSDOF 16
ENDMDL
