MODEL 1
REMARK VINA RESULT:     -10.4      0.000      0.000
REMARK SMILES C[C@@H](C(=O)[C@H](C)[C@@H](C)C(=O)OCCOC(=O)c1ccc(-c2c3nc(c(-c4c(F)c(F)c(F)c(F)c4F)c4ccc([nH]4)c(-c4c(F)c(F)c(F)c(F)c4F)c4nc(c(-c5c(F)c(F)c(F)c(F)c5F)c5ccc2[nH]5)C=C4)C=C3)cc1)c1ccccc1
REMARK SMILES IDX 12 1 11 2 9 3 10 4 7 5 8 6 5 7 6 8 3 9 4 10 2 11 1 12 80 13
REMARK SMILES IDX 81 14 85 15 82 16 84 17 83 18 13 19 14 20 15 21 16 22 17 23
REMARK SMILES IDX 18 24 79 25 19 26 78 27 20 28 21 29 22 30 72 31 23 32 77 33
REMARK SMILES IDX 71 34 73 35 24 36 76 37 70 38 69 39 25 41 57 42 37 43 56 44
REMARK SMILES IDX 38 45 41 46 55 47 74 48 39 49 40 50 54 52 75 53 42 54 26 55
REMARK SMILES IDX 27 56 35 57 28 58 29 59 33 60 36 61 30 62 31 63 34 64 32 65
REMARK SMILES IDX 58 66 59 67 67 68 60 69 61 70 65 71 68 72 62 73 63 74 66 75
REMARK SMILES IDX 64 76 43 77 44 78 52 79 45 80 46 81 50 82 53 83 47 84 48 85
REMARK SMILES IDX 51 86 49 87
REMARK H PARENT 73 40 41 51
REMARK Flexibility Score: inf
ROOT
ATOM      1  C   UNL A   1      33.539  33.887  28.124  1.00  0.00     0.274 C 
ENDROOT
BRANCH   1   2
ATOM      2  O   UNL A   1      34.072  34.891  29.013  1.00  0.00    -0.462 OA
BRANCH   2   3
ATOM      3  C   UNL A   1      33.146  35.565  29.744  1.00  0.00     0.309 C 
ATOM      4  O   UNL A   1      32.373  36.398  29.282  1.00  0.00    -0.252 OA
BRANCH   3   5
ATOM      5  C   UNL A   1      33.206  35.270  31.239  1.00  0.00     0.106 C 
ATOM      6  C   UNL A   1      32.672  36.525  31.939  1.00  0.00     0.021 C 
BRANCH   5   7
ATOM      7  C   UNL A   1      34.596  34.807  31.765  1.00  0.00     0.067 C 
ATOM      8  C   UNL A   1      34.963  35.496  33.084  1.00  0.00     0.017 C 
BRANCH   7   9
ATOM      9  C   UNL A   1      34.626  33.285  32.040  1.00  0.00     0.143 C 
ATOM     10  O   UNL A   1      33.695  32.816  32.701  1.00  0.00    -0.299 OA
BRANCH   9  11
ATOM     11  C   UNL A   1      35.916  32.462  31.707  1.00  0.00     0.083 C 
ATOM     12  C   UNL A   1      36.401  31.702  32.954  1.00  0.00     0.021 C 
BRANCH  11  13
ATOM     13  C   UNL A   1      37.064  33.217  30.993  1.00  0.00    -0.038 A 
ATOM     14  C   UNL A   1      38.034  33.937  31.724  1.00  0.00     0.004 A 
ATOM     15  C   UNL A   1      37.265  33.159  29.601  1.00  0.00     0.004 A 
ATOM     16  C   UNL A   1      39.093  34.611  31.101  1.00  0.00     0.000 A 
ATOM     17  C   UNL A   1      38.311  33.850  28.971  1.00  0.00     0.000 A 
ATOM     18  C   UNL A   1      39.222  34.581  29.721  1.00  0.00     0.000 A 
ENDBRANCH  11  13
ENDBRANCH   9  11
ENDBRANCH   7   9
ENDBRANCH   5   7
ENDBRANCH   3   5
ENDBRANCH   2   3
ENDBRANCH   1   2
BRANCH   1  19
ATOM     19  C   UNL A   1      33.908  32.472  28.563  1.00  0.00     0.275 C 
BRANCH  19  20
ATOM     20  O   UNL A   1      34.588  31.770  27.509  1.00  0.00    -0.458 OA
BRANCH  20  21
ATOM     21  C   UNL A   1      34.654  30.428  27.679  1.00  0.00     0.338 C 
ATOM     22  O   UNL A   1      33.761  29.625  27.484  1.00  0.00    -0.246 OA
BRANCH  21  23
ATOM     23  C   UNL A   1      35.996  30.059  28.159  1.00  0.00     0.060 A 
ATOM     24  C   UNL A   1      37.094  30.185  27.308  1.00  0.00     0.016 A 
ATOM     25  C   UNL A   1      36.154  29.503  29.427  1.00  0.00     0.016 A 
ATOM     26  C   UNL A   1      38.345  29.721  27.699  1.00  0.00     0.010 A 
ATOM     27  C   UNL A   1      37.427  29.104  29.850  1.00  0.00     0.010 A 
ATOM     28  C   UNL A   1      38.532  29.206  28.986  1.00  0.00    -0.014 A 
BRANCH  28  29
ATOM     29  C   UNL A   1      39.888  28.809  29.437  1.00  0.00     0.031 A 
ATOM     30  C   UNL A   1      40.689  29.708  30.330  1.00  0.00     0.074 A 
ATOM     31  C   UNL A   1      40.402  27.634  29.024  1.00  0.00     0.049 A 
ATOM     32  N   UNL A   1      41.949  29.619  30.674  1.00  0.00    -0.248 NA
ATOM     33  C   UNL A   1      39.985  30.860  30.911  1.00  0.00     0.031 C 
ATOM     34  C   UNL A   1      39.703  26.650  28.195  1.00  0.00     0.029 A 
ATOM     35  N   UNL A   1      41.637  27.073  29.236  1.00  0.00    -0.354 N 
ATOM     36  C   UNL A   1      42.200  30.721  31.479  1.00  0.00     0.074 A 
ATOM     37  C   UNL A   1      40.961  31.464  31.579  1.00  0.00     0.031 C 
ATOM     38  C   UNL A   1      40.518  25.609  27.969  1.00  0.00     0.029 A 
ATOM     39  C   UNL A   1      41.815  25.883  28.574  1.00  0.00     0.049 A 
ATOM     40  H   UNL A   1      42.327  27.484  29.806  1.00  0.00     0.167 HD
ATOM     41  C   UNL A   1      43.364  31.075  32.074  1.00  0.00     0.037 A 
ATOM     42  C   UNL A   1      42.915  25.123  28.428  1.00  0.00     0.037 A 
ATOM     43  C   UNL A   1      44.581  30.310  32.007  1.00  0.00     0.049 A 
ATOM     44  C   UNL A   1      44.204  25.568  29.057  1.00  0.00     0.074 A 
ATOM     45  C   UNL A   1      45.802  30.573  32.604  1.00  0.00     0.029 A 
ATOM     46  N   UNL A   1      44.730  29.125  31.302  1.00  0.00    -0.354 N 
ATOM     47  N   UNL A   1      44.443  26.628  29.788  1.00  0.00    -0.248 NA
ATOM     48  C   UNL A   1      45.382  24.721  28.823  1.00  0.00     0.031 C 
ATOM     49  C   UNL A   1      46.699  29.565  32.233  1.00  0.00     0.029 A 
ATOM     50  C   UNL A   1      46.027  28.656  31.433  1.00  0.00     0.049 A 
ATOM     51  H   UNL A   1      44.018  28.681  30.785  1.00  0.00     0.167 HD
ATOM     52  C   UNL A   1      45.793  26.575  30.105  1.00  0.00     0.074 A 
ATOM     53  C   UNL A   1      46.317  25.366  29.507  1.00  0.00     0.031 C 
ATOM     54  C   UNL A   1      46.532  27.454  30.824  1.00  0.00     0.037 A 
BRANCH  41  55
ATOM     55  C   UNL A   1      43.395  32.366  32.834  1.00  0.00     0.064 A 
ATOM     56  C   UNL A   1      43.127  32.420  34.209  1.00  0.00     0.173 A 
ATOM     57  C   UNL A   1      43.772  33.553  32.188  1.00  0.00     0.173 A 
ATOM     58  F   UNL A   1      42.755  31.313  34.869  1.00  0.00    -0.203 F 
ATOM     59  C   UNL A   1      43.231  33.620  34.909  1.00  0.00     0.198 A 
ATOM     60  C   UNL A   1      43.892  34.746  32.894  1.00  0.00     0.198 A 
ATOM     61  F   UNL A   1      44.044  33.549  30.874  1.00  0.00    -0.203 F 
ATOM     62  F   UNL A   1      42.953  33.656  36.219  1.00  0.00    -0.200 F 
ATOM     63  C   UNL A   1      43.620  34.779  34.253  1.00  0.00     0.200 A 
ATOM     64  F   UNL A   1      44.279  35.862  32.261  1.00  0.00    -0.200 F 
ATOM     65  F   UNL A   1      43.733  35.929  34.932  1.00  0.00    -0.200 F 
ENDBRANCH  41  55
BRANCH  42  66
ATOM     66  C   UNL A   1      42.858  23.893  27.598  1.00  0.00     0.064 A 
ATOM     67  C   UNL A   1      42.503  22.660  28.158  1.00  0.00     0.173 A 
ATOM     68  C   UNL A   1      43.160  23.929  26.229  1.00  0.00     0.173 A 
ATOM     69  F   UNL A   1      42.233  22.572  29.469  1.00  0.00    -0.203 F 
ATOM     70  C   UNL A   1      42.465  21.504  27.381  1.00  0.00     0.198 A 
ATOM     71  C   UNL A   1      43.096  22.778  25.448  1.00  0.00     0.198 A 
ATOM     72  F   UNL A   1      43.510  25.086  25.648  1.00  0.00    -0.203 F 
ATOM     73  F   UNL A   1      42.165  20.328  27.949  1.00  0.00    -0.200 F 
ATOM     74  C   UNL A   1      42.755  21.565  26.026  1.00  0.00     0.200 A 
ATOM     75  F   UNL A   1      43.368  22.844  24.137  1.00  0.00    -0.200 F 
ATOM     76  F   UNL A   1      42.716  20.453  25.279  1.00  0.00    -0.200 F 
ENDBRANCH  42  66
BRANCH  54  77
ATOM     77  C   UNL A   1      47.982  27.129  31.007  1.00  0.00     0.064 A 
ATOM     78  C   UNL A   1      48.960  27.660  30.152  1.00  0.00     0.173 A 
ATOM     79  C   UNL A   1      48.402  26.300  32.057  1.00  0.00     0.173 A 
ATOM     80  F   UNL A   1      48.603  28.442  29.122  1.00  0.00    -0.203 F 
ATOM     81  C   UNL A   1      50.306  27.355  30.333  1.00  0.00     0.198 A 
ATOM     82  C   UNL A   1      49.750  26.015  32.247  1.00  0.00     0.198 A 
ATOM     83  F   UNL A   1      47.502  25.770  32.899  1.00  0.00    -0.203 F 
ATOM     84  F   UNL A   1      51.221  27.840  29.482  1.00  0.00    -0.200 F 
ATOM     85  C   UNL A   1      50.700  26.538  31.382  1.00  0.00     0.200 A 
ATOM     86  F   UNL A   1      50.130  25.231  33.265  1.00  0.00    -0.200 F 
ATOM     87  F   UNL A   1      51.997  26.247  31.555  1.00  0.00    -0.200 F 
ENDBRANCH  54  77
ENDBRANCH  28  29
ENDBRANCH  21  23
ENDBRANCH  20  21
ENDBRANCH  19  20
ENDBRANCH   1  19
TORSDOF 15
ENDMDL
MODEL 2
REMARK VINA RESULT:      -9.9      1.534      7.821
REMARK SMILES C[C@@H](C(=O)[C@H](C)[C@@H](C)C(=O)OCCOC(=O)c1ccc(-c2c3nc(c(-c4c(F)c(F)c(F)c(F)c4F)c4ccc([nH]4)c(-c4c(F)c(F)c(F)c(F)c4F)c4nc(c(-c5c(F)c(F)c(F)c(F)c5F)c5ccc2[nH]5)C=C4)C=C3)cc1)c1ccccc1
REMARK SMILES IDX 12 1 11 2 9 3 10 4 7 5 8 6 5 7 6 8 3 9 4 10 2 11 1 12 80 13
REMARK SMILES IDX 81 14 85 15 82 16 84 17 83 18 13 19 14 20 15 21 16 22 17 23
REMARK SMILES IDX 18 24 79 25 19 26 78 27 20 28 21 29 22 30 72 31 23 32 77 33
REMARK SMILES IDX 71 34 73 35 24 36 76 37 70 38 69 39 25 41 57 42 37 43 56 44
REMARK SMILES IDX 38 45 41 46 55 47 74 48 39 49 40 50 54 52 75 53 42 54 26 55
REMARK SMILES IDX 27 56 35 57 28 58 29 59 33 60 36 61 30 62 31 63 34 64 32 65
REMARK SMILES IDX 58 66 59 67 67 68 60 69 61 70 65 71 68 72 62 73 63 74 66 75
REMARK SMILES IDX 64 76 43 77 44 78 52 79 45 80 46 81 50 82 53 83 47 84 48 85
REMARK SMILES IDX 51 86 49 87
REMARK H PARENT 73 40 41 51
REMARK Flexibility Score: inf
ROOT
ATOM      1  C   UNL A   1      33.857  34.053  27.960  1.00  0.00     0.274 C 
ENDROOT
BRANCH   1   2
ATOM      2  O   UNL A   1      34.221  34.867  29.094  1.00  0.00    -0.462 OA
BRANCH   2   3
ATOM      3  C   UNL A   1      33.188  35.502  29.705  1.00  0.00     0.309 C 
ATOM      4  O   UNL A   1      32.450  36.312  29.152  1.00  0.00    -0.252 OA
BRANCH   3   5
ATOM      5  C   UNL A   1      33.068  35.197  31.194  1.00  0.00     0.106 C 
ATOM      6  C   UNL A   1      32.274  36.360  31.801  1.00  0.00     0.021 C 
BRANCH   5   7
ATOM      7  C   UNL A   1      34.416  34.916  31.920  1.00  0.00     0.067 C 
ATOM      8  C   UNL A   1      34.561  35.756  33.195  1.00  0.00     0.017 C 
BRANCH   7   9
ATOM      9  C   UNL A   1      34.537  33.436  32.353  1.00  0.00     0.143 C 
ATOM     10  O   UNL A   1      33.556  32.933  32.908  1.00  0.00    -0.299 OA
BRANCH   9  11
ATOM     11  C   UNL A   1      35.931  32.726  32.307  1.00  0.00     0.083 C 
ATOM     12  C   UNL A   1      36.479  32.534  33.733  1.00  0.00     0.021 C 
BRANCH  11  13
ATOM     13  C   UNL A   1      36.990  33.321  31.345  1.00  0.00    -0.038 A 
ATOM     14  C   UNL A   1      36.959  33.047  29.961  1.00  0.00     0.004 A 
ATOM     15  C   UNL A   1      37.979  34.229  31.768  1.00  0.00     0.004 A 
ATOM     16  C   UNL A   1      37.894  33.589  29.069  1.00  0.00     0.000 A 
ATOM     17  C   UNL A   1      38.930  34.757  30.883  1.00  0.00     0.000 A 
ATOM     18  C   UNL A   1      38.892  34.432  29.534  1.00  0.00     0.000 A 
ENDBRANCH  11  13
ENDBRANCH   9  11
ENDBRANCH   7   9
ENDBRANCH   5   7
ENDBRANCH   3   5
ENDBRANCH   2   3
ENDBRANCH   1   2
BRANCH   1  19
ATOM     19  C   UNL A   1      33.804  32.567  28.307  1.00  0.00     0.275 C 
BRANCH  19  20
ATOM     20  O   UNL A   1      34.601  31.799  27.390  1.00  0.00    -0.458 OA
BRANCH  20  21
ATOM     21  C   UNL A   1      34.619  30.467  27.640  1.00  0.00     0.338 C 
ATOM     22  O   UNL A   1      33.701  29.686  27.481  1.00  0.00    -0.246 OA
BRANCH  21  23
ATOM     23  C   UNL A   1      35.942  30.082  28.158  1.00  0.00     0.060 A 
ATOM     24  C   UNL A   1      36.052  29.546  29.441  1.00  0.00     0.016 A 
ATOM     25  C   UNL A   1      37.086  30.336  27.404  1.00  0.00     0.016 A 
ATOM     26  C   UNL A   1      37.304  29.298  29.995  1.00  0.00     0.010 A 
ATOM     27  C   UNL A   1      38.342  30.016  27.931  1.00  0.00     0.010 A 
ATOM     28  C   UNL A   1      38.460  29.499  29.234  1.00  0.00    -0.014 A 
BRANCH  28  29
ATOM     29  C   UNL A   1      39.787  29.135  29.789  1.00  0.00     0.031 A 
ATOM     30  C   UNL A   1      40.550  27.967  29.239  1.00  0.00     0.074 A 
ATOM     31  C   UNL A   1      40.296  29.857  30.805  1.00  0.00     0.049 A 
ATOM     32  N   UNL A   1      41.626  27.390  29.710  1.00  0.00    -0.248 NA
ATOM     33  C   UNL A   1      40.038  27.368  27.998  1.00  0.00     0.031 C 
ATOM     34  C   UNL A   1      39.674  31.044  31.395  1.00  0.00     0.029 A 
ATOM     35  N   UNL A   1      41.449  29.692  31.532  1.00  0.00    -0.354 N 
ATOM     36  C   UNL A   1      41.898  26.336  28.849  1.00  0.00     0.074 A 
ATOM     37  C   UNL A   1      40.878  26.356  27.820  1.00  0.00     0.031 C 
ATOM     38  C   UNL A   1      40.449  31.499  32.390  1.00  0.00     0.029 A 
ATOM     39  C   UNL A   1      41.583  30.597  32.556  1.00  0.00     0.049 A 
ATOM     40  H   UNL A   1      42.114  28.992  31.339  1.00  0.00     0.167 HD
ATOM     41  C   UNL A   1      42.908  25.437  28.920  1.00  0.00     0.037 A 
ATOM     42  C   UNL A   1      42.489  30.665  33.548  1.00  0.00     0.037 A 
ATOM     43  C   UNL A   1      43.943  25.448  29.919  1.00  0.00     0.049 A 
ATOM     44  C   UNL A   1      43.567  29.622  33.630  1.00  0.00     0.074 A 
ATOM     45  C   UNL A   1      45.026  24.596  30.053  1.00  0.00     0.029 A 
ATOM     46  N   UNL A   1      44.027  26.365  30.957  1.00  0.00    -0.354 N 
ATOM     47  N   UNL A   1      43.798  28.610  32.832  1.00  0.00    -0.248 NA
ATOM     48  C   UNL A   1      44.498  29.721  34.762  1.00  0.00     0.031 C 
ATOM     49  C   UNL A   1      45.747  24.977  31.190  1.00  0.00     0.029 A 
ATOM     50  C   UNL A   1      45.132  26.086  31.746  1.00  0.00     0.049 A 
ATOM     51  H   UNL A   1      43.396  27.106  31.110  1.00  0.00     0.167 HD
ATOM     52  C   UNL A   1      44.901  27.954  33.360  1.00  0.00     0.074 A 
ATOM     53  C   UNL A   1      45.307  28.696  34.534  1.00  0.00     0.031 C 
ATOM     54  C   UNL A   1      45.516  26.833  32.914  1.00  0.00     0.037 A 
BRANCH  41  55
ATOM     55  C   UNL A   1      42.936  24.338  27.902  1.00  0.00     0.064 A 
ATOM     56  C   UNL A   1      43.450  24.536  26.614  1.00  0.00     0.173 A 
ATOM     57  C   UNL A   1      42.508  23.047  28.251  1.00  0.00     0.173 A 
ATOM     58  F   UNL A   1      43.863  25.754  26.232  1.00  0.00    -0.203 F 
ATOM     59  C   UNL A   1      43.531  23.481  25.708  1.00  0.00     0.198 A 
ATOM     60  C   UNL A   1      42.607  21.992  27.349  1.00  0.00     0.198 A 
ATOM     61  F   UNL A   1      42.014  22.807  29.474  1.00  0.00    -0.203 F 
ATOM     62  F   UNL A   1      44.008  23.694  24.474  1.00  0.00    -0.200 F 
ATOM     63  C   UNL A   1      43.117  22.209  26.078  1.00  0.00     0.200 A 
ATOM     64  F   UNL A   1      42.217  20.762  27.712  1.00  0.00    -0.200 F 
ATOM     65  F   UNL A   1      43.209  21.194  25.209  1.00  0.00    -0.200 F 
ENDBRANCH  41  55
BRANCH  42  66
ATOM     66  C   UNL A   1      42.374  31.725  34.581  1.00  0.00     0.064 A 
ATOM     67  C   UNL A   1      43.081  32.928  34.463  1.00  0.00     0.173 A 
ATOM     68  C   UNL A   1      41.558  31.551  35.709  1.00  0.00     0.173 A 
ATOM     69  F   UNL A   1      43.895  33.126  33.416  1.00  0.00    -0.203 F 
ATOM     70  C   UNL A   1      42.985  33.915  35.441  1.00  0.00     0.198 A 
ATOM     71  C   UNL A   1      41.442  32.549  36.673  1.00  0.00     0.198 A 
ATOM     72  F   UNL A   1      40.865  30.414  35.869  1.00  0.00    -0.203 F 
ATOM     73  F   UNL A   1      43.704  35.040  35.327  1.00  0.00    -0.200 F 
ATOM     74  C   UNL A   1      42.160  33.728  36.541  1.00  0.00     0.200 A 
ATOM     75  F   UNL A   1      40.638  32.368  37.729  1.00  0.00    -0.200 F 
ATOM     76  F   UNL A   1      42.067  34.679  37.481  1.00  0.00    -0.200 F 
ENDBRANCH  42  66
BRANCH  54  77
ATOM     77  C   UNL A   1      46.699  26.352  33.697  1.00  0.00     0.064 A 
ATOM     78  C   UNL A   1      46.555  25.418  34.734  1.00  0.00     0.173 A 
ATOM     79  C   UNL A   1      47.990  26.810  33.395  1.00  0.00     0.173 A 
ATOM     80  F   UNL A   1      45.337  24.968  35.071  1.00  0.00    -0.203 F 
ATOM     81  C   UNL A   1      47.661  24.975  35.453  1.00  0.00     0.198 A 
ATOM     82  C   UNL A   1      49.096  26.348  34.102  1.00  0.00     0.198 A 
ATOM     83  F   UNL A   1      48.176  27.702  32.411  1.00  0.00    -0.203 F 
ATOM     84  F   UNL A   1      47.498  24.113  36.466  1.00  0.00    -0.200 F 
ATOM     85  C   UNL A   1      48.929  25.436  35.133  1.00  0.00     0.200 A 
ATOM     86  F   UNL A   1      50.321  26.789  33.788  1.00  0.00    -0.200 F 
ATOM     87  F   UNL A   1      49.993  25.007  35.827  1.00  0.00    -0.200 F 
ENDBRANCH  54  77
ENDBRANCH  28  29
ENDBRANCH  21  23
ENDBRANCH  20  21
ENDBRANCH  19  20
ENDBRANCH   1  19
TORSDOF 15
ENDMDL
MODEL 3
REMARK VINA RESULT:      -9.8      4.030      9.620
REMARK SMILES C[C@@H](C(=O)[C@H](C)[C@@H](C)C(=O)OCCOC(=O)c1ccc(-c2c3nc(c(-c4c(F)c(F)c(F)c(F)c4F)c4ccc([nH]4)c(-c4c(F)c(F)c(F)c(F)c4F)c4nc(c(-c5c(F)c(F)c(F)c(F)c5F)c5ccc2[nH]5)C=C4)C=C3)cc1)c1ccccc1
REMARK SMILES IDX 12 1 11 2 9 3 10 4 7 5 8 6 5 7 6 8 3 9 4 10 2 11 1 12 80 13
REMARK SMILES IDX 81 14 85 15 82 16 84 17 83 18 13 19 14 20 15 21 16 22 17 23
REMARK SMILES IDX 18 24 79 25 19 26 78 27 20 28 21 29 22 30 72 31 23 32 77 33
REMARK SMILES IDX 71 34 73 35 24 36 76 37 70 38 69 39 25 41 57 42 37 43 56 44
REMARK SMILES IDX 38 45 41 46 55 47 74 48 39 49 40 50 54 52 75 53 42 54 26 55
REMARK SMILES IDX 27 56 35 57 28 58 29 59 33 60 36 61 30 62 31 63 34 64 32 65
REMARK SMILES IDX 58 66 59 67 67 68 60 69 61 70 65 71 68 72 62 73 63 74 66 75
REMARK SMILES IDX 64 76 43 77 44 78 52 79 45 80 46 81 50 82 53 83 47 84 48 85
REMARK SMILES IDX 51 86 49 87
REMARK H PARENT 73 40 41 51
REMARK Flexibility Score: inf
ROOT
ATOM      1  C   UNL A   1      31.423  29.382  24.480  1.00  0.00     0.274 C 
ENDROOT
BRANCH   1   2
ATOM      2  O   UNL A   1      30.623  28.187  24.358  1.00  0.00    -0.462 OA
BRANCH   2   3
ATOM      3  C   UNL A   1      30.520  27.688  23.100  1.00  0.00     0.309 C 
ATOM      4  O   UNL A   1      30.359  28.373  22.095  1.00  0.00    -0.252 OA
BRANCH   3   5
ATOM      5  C   UNL A   1      30.523  26.164  23.037  1.00  0.00     0.106 C 
ATOM      6  C   UNL A   1      30.009  25.684  24.399  1.00  0.00     0.021 C 
BRANCH   5   7
ATOM      7  C   UNL A   1      31.881  25.525  22.623  1.00  0.00     0.067 C 
ATOM      8  C   UNL A   1      32.206  25.786  21.147  1.00  0.00     0.017 C 
BRANCH   7   9
ATOM      9  C   UNL A   1      33.060  26.103  23.442  1.00  0.00     0.143 C 
ATOM     10  O   UNL A   1      33.711  27.014  22.920  1.00  0.00    -0.299 OA
BRANCH   9  11
ATOM     11  C   UNL A   1      33.531  25.373  24.744  1.00  0.00     0.083 C 
ATOM     12  C   UNL A   1      33.650  26.377  25.905  1.00  0.00     0.021 C 
BRANCH  11  13
ATOM     13  C   UNL A   1      34.777  24.461  24.624  1.00  0.00    -0.038 A 
ATOM     14  C   UNL A   1      35.679  24.306  25.699  1.00  0.00     0.004 A 
ATOM     15  C   UNL A   1      35.036  23.670  23.489  1.00  0.00     0.004 A 
ATOM     16  C   UNL A   1      36.802  23.472  25.621  1.00  0.00     0.000 A 
ATOM     17  C   UNL A   1      36.171  22.849  23.398  1.00  0.00     0.000 A 
ATOM     18  C   UNL A   1      37.057  22.755  24.462  1.00  0.00     0.000 A 
ENDBRANCH  11  13
ENDBRANCH   9  11
ENDBRANCH   7   9
ENDBRANCH   5   7
ENDBRANCH   3   5
ENDBRANCH   2   3
ENDBRANCH   1   2
BRANCH   1  19
ATOM     19  C   UNL A   1      31.917  29.604  25.908  1.00  0.00     0.275 C 
BRANCH  19  20
ATOM     20  O   UNL A   1      33.156  30.335  25.913  1.00  0.00    -0.458 OA
BRANCH  20  21
ATOM     21  C   UNL A   1      33.289  31.207  26.940  1.00  0.00     0.338 C 
ATOM     22  O   UNL A   1      32.515  32.094  27.245  1.00  0.00    -0.246 OA
BRANCH  21  23
ATOM     23  C   UNL A   1      34.545  30.934  27.657  1.00  0.00     0.060 A 
ATOM     24  C   UNL A   1      34.802  29.650  28.138  1.00  0.00     0.016 A 
ATOM     25  C   UNL A   1      35.430  31.975  27.932  1.00  0.00     0.016 A 
ATOM     26  C   UNL A   1      35.920  29.405  28.927  1.00  0.00     0.010 A 
ATOM     27  C   UNL A   1      36.594  31.713  28.663  1.00  0.00     0.010 A 
ATOM     28  C   UNL A   1      36.845  30.426  29.171  1.00  0.00    -0.014 A 
BRANCH  28  29
ATOM     29  C   UNL A   1      38.089  30.135  29.925  1.00  0.00     0.031 A 
ATOM     30  C   UNL A   1      39.140  29.236  29.347  1.00  0.00     0.074 A 
ATOM     31  C   UNL A   1      38.261  30.678  31.146  1.00  0.00     0.049 A 
ATOM     32  N   UNL A   1      40.197  28.723  29.925  1.00  0.00    -0.248 NA
ATOM     33  C   UNL A   1      38.984  28.860  27.934  1.00  0.00     0.031 C 
ATOM     34  C   UNL A   1      37.335  31.607  31.796  1.00  0.00     0.029 A 
ATOM     35  N   UNL A   1      39.270  30.518  32.064  1.00  0.00    -0.354 N 
ATOM     36  C   UNL A   1      40.810  27.935  28.963  1.00  0.00     0.074 A 
ATOM     37  C   UNL A   1      40.013  28.040  27.758  1.00  0.00     0.031 C 
ATOM     38  C   UNL A   1      37.817  31.934  33.005  1.00  0.00     0.029 A 
ATOM     39  C   UNL A   1      39.045  31.184  33.243  1.00  0.00     0.049 A 
ATOM     40  H   UNL A   1      40.075  29.977  31.893  1.00  0.00     0.167 HD
ATOM     41  C   UNL A   1      41.935  27.191  29.083  1.00  0.00     0.037 A 
ATOM     42  C   UNL A   1      39.723  31.156  34.404  1.00  0.00     0.037 A 
ATOM     43  C   UNL A   1      42.747  27.125  30.269  1.00  0.00     0.049 A 
ATOM     44  C   UNL A   1      40.938  30.281  34.523  1.00  0.00     0.074 A 
ATOM     45  C   UNL A   1      43.923  26.423  30.475  1.00  0.00     0.029 A 
ATOM     46  N   UNL A   1      42.470  27.792  31.453  1.00  0.00    -0.354 N 
ATOM     47  N   UNL A   1      41.493  29.512  33.620  1.00  0.00    -0.248 NA
ATOM     48  C   UNL A   1      41.609  30.256  35.830  1.00  0.00     0.031 C 
ATOM     49  C   UNL A   1      44.339  26.639  31.793  1.00  0.00     0.029 A 
ATOM     50  C   UNL A   1      43.440  27.502  32.398  1.00  0.00     0.049 A 
ATOM     51  H   UNL A   1      41.698  28.385  31.600  1.00  0.00     0.167 HD
ATOM     52  C   UNL A   1      42.579  28.915  34.244  1.00  0.00     0.074 A 
ATOM     53  C   UNL A   1      42.619  29.429  35.597  1.00  0.00     0.031 C 
ATOM     54  C   UNL A   1      43.460  28.017  33.742  1.00  0.00     0.037 A 
BRANCH  41  55
ATOM     55  C   UNL A   1      42.351  26.359  27.908  1.00  0.00     0.064 A 
ATOM     56  C   UNL A   1      43.249  26.837  26.945  1.00  0.00     0.173 A 
ATOM     57  C   UNL A   1      41.897  25.036  27.789  1.00  0.00     0.173 A 
ATOM     58  F   UNL A   1      43.704  28.097  27.012  1.00  0.00    -0.203 F 
ATOM     59  C   UNL A   1      43.676  26.020  25.900  1.00  0.00     0.198 A 
ATOM     60  C   UNL A   1      42.339  24.218  26.754  1.00  0.00     0.198 A 
ATOM     61  F   UNL A   1      41.040  24.533  28.690  1.00  0.00    -0.203 F 
ATOM     62  F   UNL A   1      44.521  26.500  24.978  1.00  0.00    -0.200 F 
ATOM     63  C   UNL A   1      43.227  24.710  25.810  1.00  0.00     0.200 A 
ATOM     64  F   UNL A   1      41.913  22.949  26.675  1.00  0.00    -0.200 F 
ATOM     65  F   UNL A   1      43.650  23.923  24.812  1.00  0.00    -0.200 F 
ENDBRANCH  41  55
BRANCH  42  66
ATOM     66  C   UNL A   1      39.228  31.934  35.567  1.00  0.00     0.064 A 
ATOM     67  C   UNL A   1      39.617  33.265  35.763  1.00  0.00     0.173 A 
ATOM     68  C   UNL A   1      38.359  31.360  36.506  1.00  0.00     0.173 A 
ATOM     69  F   UNL A   1      40.469  33.847  34.907  1.00  0.00    -0.203 F 
ATOM     70  C   UNL A   1      39.165  33.989  36.864  1.00  0.00     0.198 A 
ATOM     71  C   UNL A   1      37.886  32.093  37.591  1.00  0.00     0.198 A 
ATOM     72  F   UNL A   1      37.961  30.087  36.364  1.00  0.00    -0.203 F 
ATOM     73  F   UNL A   1      39.586  35.247  37.054  1.00  0.00    -0.200 F 
ATOM     74  C   UNL A   1      38.295  33.405  37.773  1.00  0.00     0.200 A 
ATOM     75  F   UNL A   1      37.039  31.528  38.462  1.00  0.00    -0.200 F 
ATOM     76  F   UNL A   1      37.859  34.103  38.831  1.00  0.00    -0.200 F 
ENDBRANCH  42  66
BRANCH  54  77
ATOM     77  C   UNL A   1      44.544  27.544  34.660  1.00  0.00     0.064 A 
ATOM     78  C   UNL A   1      45.757  28.239  34.772  1.00  0.00     0.173 A 
ATOM     79  C   UNL A   1      44.361  26.401  35.452  1.00  0.00     0.173 A 
ATOM     80  F   UNL A   1      45.984  29.326  34.019  1.00  0.00    -0.203 F 
ATOM     81  C   UNL A   1      46.757  27.793  35.632  1.00  0.00     0.198 A 
ATOM     82  C   UNL A   1      45.354  25.972  36.326  1.00  0.00     0.198 A 
ATOM     83  F   UNL A   1      43.217  25.706  35.380  1.00  0.00    -0.203 F 
ATOM     84  F   UNL A   1      47.925  28.448  35.694  1.00  0.00    -0.200 F 
ATOM     85  C   UNL A   1      46.553  26.665  36.411  1.00  0.00     0.200 A 
ATOM     86  F   UNL A   1      45.154  24.885  37.084  1.00  0.00    -0.200 F 
ATOM     87  F   UNL A   1      47.517  26.238  37.239  1.00  0.00    -0.200 F 
ENDBRANCH  54  77
ENDBRANCH  28  29
ENDBRANCH  21  23
ENDBRANCH  20  21
ENDBRANCH  19  20
ENDBRANCH   1  19
TORSDOF 15
ENDMDL
