MODEL 1
REMARK VINA RESULT:     -11.2      0.000      0.000
REMARK SMILES [NH3+][C@H](Cc1cc(F)c(F)c(F)c1)C(=O)OCCOC(=O)c1ccc(-c2c3nc(c(-c4c(F)c(F)c(F)c(F)c4F)c4ccc([nH]4)c(-c4c(F)c(F)c(F)c(F)c4F)c4nc(c(-c5c(F)c(F)c(F)c(F)c5F)c5ccc2[nH]5)C=C4)C=C3)cc1
REMARK SMILES IDX 16 1 15 2 13 3 14 4 2 5 1 6 3 10 4 11 5 12 12 13 6 14 10 15
REMARK SMILES IDX 7 16 8 17 11 18 9 19 17 20 18 21 19 22 20 23 21 24 22 25
REMARK SMILES IDX 83 26 23 27 82 28 24 29 25 30 26 31 76 32 27 33 81 34 75 35
REMARK SMILES IDX 77 36 28 37 80 38 74 39 73 40 29 42 61 43 41 44 60 45 42 46
REMARK SMILES IDX 45 47 59 48 78 49 43 50 44 51 58 53 79 54 46 55 30 56 31 57
REMARK SMILES IDX 39 58 32 59 33 60 37 61 40 62 34 63 35 64 38 65 36 66 62 67
REMARK SMILES IDX 63 68 71 69 64 70 65 71 69 72 72 73 66 74 67 75 70 76 68 77
REMARK SMILES IDX 47 78 48 79 56 80 49 81 50 82 54 83 57 84 51 85 52 86 55 87
REMARK SMILES IDX 53 88
REMARK H PARENT 1 7 1 8 1 9 77 41 45 52
REMARK Flexibility Score: inf
ROOT
ATOM      1  C   UNL A   1      42.289  20.013  26.133  1.00  0.00     0.274 C 
ENDROOT
BRANCH   1   2
ATOM      2  O   UNL A   1      42.738  19.200  25.032  1.00  0.00    -0.458 OA
BRANCH   2   3
ATOM      3  C   UNL A   1      44.049  18.863  24.970  1.00  0.00     0.365 C 
ATOM      4  O   UNL A   1      44.577  18.018  25.687  1.00  0.00    -0.245 OA
BRANCH   3   5
ATOM      5  C   UNL A   1      44.832  19.675  23.913  1.00  0.00     0.296 C 
BRANCH   5   6
ATOM      6  N   UNL A   1      45.276  18.825  22.786  1.00  0.00    -0.346 N 
ATOM      7  H   UNL A   1      45.584  19.418  22.015  1.00  0.00     0.345 HD
ATOM      8  H   UNL A   1      44.501  18.239  22.476  1.00  0.00     0.345 HD
ATOM      9  H   UNL A   1      46.049  18.234  23.091  1.00  0.00     0.345 HD
ENDBRANCH   5   6
BRANCH   5  10
ATOM     10  C   UNL A   1      45.918  20.648  24.433  1.00  0.00     0.113 C 
BRANCH  10  11
ATOM     11  C   UNL A   1      45.668  22.129  24.637  1.00  0.00    -0.035 A 
ATOM     12  C   UNL A   1      44.410  22.700  24.870  1.00  0.00     0.046 A 
ATOM     13  C   UNL A   1      46.776  22.996  24.556  1.00  0.00     0.046 A 
ATOM     14  C   UNL A   1      44.256  24.086  24.910  1.00  0.00     0.162 A 
ATOM     15  C   UNL A   1      46.610  24.378  24.626  1.00  0.00     0.162 A 
ATOM     16  F   UNL A   1      43.023  24.597  25.045  1.00  0.00    -0.204 F 
ATOM     17  C   UNL A   1      45.348  24.928  24.781  1.00  0.00     0.194 A 
ATOM     18  F   UNL A   1      47.683  25.173  24.523  1.00  0.00    -0.204 F 
ATOM     19  F   UNL A   1      45.183  26.257  24.799  1.00  0.00    -0.200 F 
ENDBRANCH  10  11
ENDBRANCH   5  10
ENDBRANCH   3   5
ENDBRANCH   2   3
ENDBRANCH   1   2
BRANCH   1  20
ATOM     20  C   UNL A   1      40.794  19.804  26.396  1.00  0.00     0.275 C 
BRANCH  20  21
ATOM     21  O   UNL A   1      40.272  20.856  27.230  1.00  0.00    -0.458 OA
BRANCH  21  22
ATOM     22  C   UNL A   1      39.686  21.875  26.563  1.00  0.00     0.338 C 
ATOM     23  O   UNL A   1      38.791  21.804  25.739  1.00  0.00    -0.246 OA
BRANCH  22  24
ATOM     24  C   UNL A   1      40.148  23.157  27.122  1.00  0.00     0.060 A 
ATOM     25  C   UNL A   1      39.604  24.323  26.580  1.00  0.00     0.016 A 
ATOM     26  C   UNL A   1      41.108  23.224  28.134  1.00  0.00     0.016 A 
ATOM     27  C   UNL A   1      40.016  25.566  27.043  1.00  0.00     0.010 A 
ATOM     28  C   UNL A   1      41.524  24.476  28.600  1.00  0.00     0.010 A 
ATOM     29  C   UNL A   1      40.985  25.652  28.050  1.00  0.00    -0.014 A 
BRANCH  29  30
ATOM     30  C   UNL A   1      41.443  26.991  28.479  1.00  0.00     0.031 A 
ATOM     31  C   UNL A   1      42.883  27.376  28.313  1.00  0.00     0.074 A 
ATOM     32  C   UNL A   1      40.544  27.884  28.934  1.00  0.00     0.049 A 
ATOM     33  N   UNL A   1      43.470  28.515  28.578  1.00  0.00    -0.248 NA
ATOM     34  C   UNL A   1      43.784  26.348  27.767  1.00  0.00     0.031 C 
ATOM     35  C   UNL A   1      39.112  27.627  29.088  1.00  0.00     0.029 A 
ATOM     36  N   UNL A   1      40.695  29.191  29.321  1.00  0.00    -0.354 N 
ATOM     37  C   UNL A   1      44.804  28.341  28.238  1.00  0.00     0.074 A 
ATOM     38  C   UNL A   1      44.949  26.980  27.768  1.00  0.00     0.031 C 
ATOM     39  C   UNL A   1      38.510  28.751  29.510  1.00  0.00     0.029 A 
ATOM     40  C   UNL A   1      39.517  29.794  29.691  1.00  0.00     0.049 A 
ATOM     41  H   UNL A   1      41.564  29.653  29.332  1.00  0.00     0.167 HD
ATOM     42  C   UNL A   1      45.810  29.243  28.302  1.00  0.00     0.037 A 
ATOM     43  C   UNL A   1      39.282  31.045  30.131  1.00  0.00     0.037 A 
ATOM     44  C   UNL A   1      45.652  30.600  28.755  1.00  0.00     0.049 A 
ATOM     45  C   UNL A   1      40.435  32.005  30.249  1.00  0.00     0.074 A 
ATOM     46  C   UNL A   1      46.612  31.594  28.846  1.00  0.00     0.029 A 
ATOM     47  N   UNL A   1      44.459  31.155  29.194  1.00  0.00    -0.354 N 
ATOM     48  N   UNL A   1      41.693  31.832  29.922  1.00  0.00    -0.248 NA
ATOM     49  C   UNL A   1      40.135  33.334  30.802  1.00  0.00     0.031 C 
ATOM     50  C   UNL A   1      46.010  32.735  29.384  1.00  0.00     0.029 A 
ATOM     51  C   UNL A   1      44.663  32.471  29.581  1.00  0.00     0.049 A 
ATOM     52  H   UNL A   1      43.595  30.685  29.226  1.00  0.00     0.167 HD
ATOM     53  C   UNL A   1      42.331  33.029  30.217  1.00  0.00     0.074 A 
ATOM     54  C   UNL A   1      41.317  33.930  30.723  1.00  0.00     0.031 C 
ATOM     55  C   UNL A   1      43.643  33.351  30.088  1.00  0.00     0.037 A 
BRANCH  42  56
ATOM     56  C   UNL A   1      47.180  28.802  27.884  1.00  0.00     0.064 A 
ATOM     57  C   UNL A   1      47.499  28.676  26.524  1.00  0.00     0.173 A 
ATOM     58  C   UNL A   1      48.146  28.416  28.825  1.00  0.00     0.173 A 
ATOM     59  F   UNL A   1      46.608  29.030  25.586  1.00  0.00    -0.203 F 
ATOM     60  C   UNL A   1      48.727  28.159  26.120  1.00  0.00     0.198 A 
ATOM     61  C   UNL A   1      49.382  27.921  28.417  1.00  0.00     0.198 A 
ATOM     62  F   UNL A   1      47.894  28.531  30.138  1.00  0.00    -0.203 F 
ATOM     63  F   UNL A   1      48.995  28.013  24.815  1.00  0.00    -0.200 F 
ATOM     64  C   UNL A   1      49.667  27.781  27.066  1.00  0.00     0.200 A 
ATOM     65  F   UNL A   1      50.299  27.575  29.332  1.00  0.00    -0.200 F 
ATOM     66  F   UNL A   1      50.849  27.283  26.677  1.00  0.00    -0.200 F 
ENDBRANCH  42  56
BRANCH  43  67
ATOM     67  C   UNL A   1      37.900  31.460  30.483  1.00  0.00     0.064 A 
ATOM     68  C   UNL A   1      37.478  31.533  31.820  1.00  0.00     0.173 A 
ATOM     69  C   UNL A   1      36.970  31.792  29.488  1.00  0.00     0.173 A 
ATOM     70  F   UNL A   1      38.330  31.231  32.811  1.00  0.00    -0.203 F 
ATOM     71  C   UNL A   1      36.174  31.902  32.144  1.00  0.00     0.198 A 
ATOM     72  C   UNL A   1      35.676  32.190  29.815  1.00  0.00     0.198 A 
ATOM     73  F   UNL A   1      37.333  31.764  28.197  1.00  0.00    -0.203 F 
ATOM     74  F   UNL A   1      35.790  31.936  33.427  1.00  0.00    -0.200 F 
ATOM     75  C   UNL A   1      35.276  32.237  31.142  1.00  0.00     0.200 A 
ATOM     76  F   UNL A   1      34.820  32.541  28.846  1.00  0.00    -0.200 F 
ATOM     77  F   UNL A   1      34.029  32.611  31.456  1.00  0.00    -0.200 F 
ENDBRANCH  43  67
BRANCH  55  78
ATOM     78  C   UNL A   1      44.057  34.733  30.498  1.00  0.00     0.064 A 
ATOM     79  C   UNL A   1      44.468  34.994  31.815  1.00  0.00     0.173 A 
ATOM     80  C   UNL A   1      43.995  35.810  29.603  1.00  0.00     0.173 A 
ATOM     81  F   UNL A   1      44.537  34.000  32.713  1.00  0.00    -0.203 F 
ATOM     82  C   UNL A   1      44.794  36.285  32.221  1.00  0.00     0.198 A 
ATOM     83  C   UNL A   1      44.350  37.095  30.004  1.00  0.00     0.198 A 
ATOM     84  F   UNL A   1      43.619  35.610  28.331  1.00  0.00    -0.203 F 
ATOM     85  F   UNL A   1      45.154  36.516  33.490  1.00  0.00    -0.200 F 
ATOM     86  C   UNL A   1      44.740  37.333  31.314  1.00  0.00     0.200 A 
ATOM     87  F   UNL A   1      44.323  38.102  29.120  1.00  0.00    -0.200 F 
ATOM     88  F   UNL A   1      45.070  38.572  31.700  1.00  0.00    -0.200 F 
ENDBRANCH  55  78
ENDBRANCH  29  30
ENDBRANCH  22  24
ENDBRANCH  21  22
ENDBRANCH  20  21
ENDBRANCH   1  20
TORSDOF 14
ENDMDL
MODEL 2
REMARK VINA RESULT:     -11.0      5.206     12.214
REMARK SMILES [NH3+][C@H](Cc1cc(F)c(F)c(F)c1)C(=O)OCCOC(=O)c1ccc(-c2c3nc(c(-c4c(F)c(F)c(F)c(F)c4F)c4ccc([nH]4)c(-c4c(F)c(F)c(F)c(F)c4F)c4nc(c(-c5c(F)c(F)c(F)c(F)c5F)c5ccc2[nH]5)C=C4)C=C3)cc1
REMARK SMILES IDX 16 1 15 2 13 3 14 4 2 5 1 6 3 10 4 11 5 12 12 13 6 14 10 15
REMARK SMILES IDX 7 16 8 17 11 18 9 19 17 20 18 21 19 22 20 23 21 24 22 25
REMARK SMILES IDX 83 26 23 27 82 28 24 29 25 30 26 31 76 32 27 33 81 34 75 35
REMARK SMILES IDX 77 36 28 37 80 38 74 39 73 40 29 42 61 43 41 44 60 45 42 46
REMARK SMILES IDX 45 47 59 48 78 49 43 50 44 51 58 53 79 54 46 55 30 56 31 57
REMARK SMILES IDX 39 58 32 59 33 60 37 61 40 62 34 63 35 64 38 65 36 66 62 67
REMARK SMILES IDX 63 68 71 69 64 70 65 71 69 72 72 73 66 74 67 75 70 76 68 77
REMARK SMILES IDX 47 78 48 79 56 80 49 81 50 82 54 83 57 84 51 85 52 86 55 87
REMARK SMILES IDX 53 88
REMARK H PARENT 1 7 1 8 1 9 77 41 45 52
REMARK Flexibility Score: inf
ROOT
ATOM      1  C   UNL A   1      33.684  34.620  29.327  1.00  0.00     0.274 C 
ENDROOT
BRANCH   1   2
ATOM      2  O   UNL A   1      32.597  35.016  30.187  1.00  0.00    -0.458 OA
BRANCH   2   3
ATOM      3  C   UNL A   1      32.778  36.078  31.009  1.00  0.00     0.365 C 
ATOM      4  O   UNL A   1      32.902  37.235  30.621  1.00  0.00    -0.245 OA
BRANCH   3   5
ATOM      5  C   UNL A   1      32.839  35.681  32.503  1.00  0.00     0.296 C 
BRANCH   5   6
ATOM      6  N   UNL A   1      33.257  36.818  33.354  1.00  0.00    -0.346 N 
ATOM      7  H   UNL A   1      34.236  37.037  33.171  1.00  0.00     0.345 HD
ATOM      8  H   UNL A   1      33.144  36.567  34.336  1.00  0.00     0.345 HD
ATOM      9  H   UNL A   1      32.680  37.631  33.142  1.00  0.00     0.345 HD
ENDBRANCH   5   6
BRANCH   5  10
ATOM     10  C   UNL A   1      33.538  34.345  32.850  1.00  0.00     0.113 C 
BRANCH  10  11
ATOM     11  C   UNL A   1      34.972  34.266  33.334  1.00  0.00    -0.035 A 
ATOM     12  C   UNL A   1      35.354  33.958  34.647  1.00  0.00     0.046 A 
ATOM     13  C   UNL A   1      35.992  34.553  32.406  1.00  0.00     0.046 A 
ATOM     14  C   UNL A   1      36.691  34.043  35.036  1.00  0.00     0.162 A 
ATOM     15  C   UNL A   1      37.327  34.606  32.803  1.00  0.00     0.162 A 
ATOM     16  F   UNL A   1      37.007  33.828  36.321  1.00  0.00    -0.204 F 
ATOM     17  C   UNL A   1      37.679  34.373  34.122  1.00  0.00     0.194 A 
ATOM     18  F   UNL A   1      38.269  34.904  31.897  1.00  0.00    -0.204 F 
ATOM     19  F   UNL A   1      38.956  34.472  34.513  1.00  0.00    -0.200 F 
ENDBRANCH  10  11
ENDBRANCH   5  10
ENDBRANCH   3   5
ENDBRANCH   2   3
ENDBRANCH   1   2
BRANCH   1  20
ATOM     20  C   UNL A   1      33.161  33.921  28.068  1.00  0.00     0.275 C 
BRANCH  20  21
ATOM     21  O   UNL A   1      34.212  33.173  27.428  1.00  0.00    -0.458 OA
BRANCH  21  22
ATOM     22  C   UNL A   1      34.163  31.836  27.626  1.00  0.00     0.338 C 
ATOM     23  O   UNL A   1      33.278  31.070  27.290  1.00  0.00    -0.246 OA
BRANCH  22  24
ATOM     24  C   UNL A   1      35.459  31.370  28.147  1.00  0.00     0.060 A 
ATOM     25  C   UNL A   1      35.528  30.051  28.602  1.00  0.00     0.016 A 
ATOM     26  C   UNL A   1      36.577  32.205  28.217  1.00  0.00     0.016 A 
ATOM     27  C   UNL A   1      36.713  29.556  29.131  1.00  0.00     0.010 A 
ATOM     28  C   UNL A   1      37.770  31.706  28.751  1.00  0.00     0.010 A 
ATOM     29  C   UNL A   1      37.840  30.382  29.217  1.00  0.00    -0.014 A 
BRANCH  29  30
ATOM     30  C   UNL A   1      39.068  29.841  29.839  1.00  0.00     0.031 A 
ATOM     31  C   UNL A   1      39.485  30.312  31.200  1.00  0.00     0.074 A 
ATOM     32  C   UNL A   1      39.751  28.864  29.213  1.00  0.00     0.049 A 
ATOM     33  N   UNL A   1      40.496  29.925  31.936  1.00  0.00    -0.248 NA
ATOM     34  C   UNL A   1      38.651  31.351  31.825  1.00  0.00     0.031 C 
ATOM     35  C   UNL A   1      39.403  28.300  27.909  1.00  0.00     0.029 A 
ATOM     36  N   UNL A   1      40.860  28.156  29.600  1.00  0.00    -0.354 N 
ATOM     37  C   UNL A   1      40.423  30.672  33.103  1.00  0.00     0.074 A 
ATOM     38  C   UNL A   1      39.284  31.554  32.972  1.00  0.00     0.031 C 
ATOM     39  C   UNL A   1      40.264  27.312  27.617  1.00  0.00     0.029 A 
ATOM     40  C   UNL A   1      41.245  27.199  28.693  1.00  0.00     0.049 A 
ATOM     41  H   UNL A   1      41.335  28.318  30.448  1.00  0.00     0.167 HD
ATOM     42  C   UNL A   1      41.230  30.613  34.186  1.00  0.00     0.037 A 
ATOM     43  C   UNL A   1      42.276  26.333  28.728  1.00  0.00     0.037 A 
ATOM     44  C   UNL A   1      42.352  29.720  34.314  1.00  0.00     0.049 A 
ATOM     45  C   UNL A   1      43.191  26.337  29.923  1.00  0.00     0.074 A 
ATOM     46  C   UNL A   1      43.224  29.579  35.380  1.00  0.00     0.029 A 
ATOM     47  N   UNL A   1      42.757  28.815  33.343  1.00  0.00    -0.354 N 
ATOM     48  N   UNL A   1      43.113  27.045  31.023  1.00  0.00    -0.248 NA
ATOM     49  C   UNL A   1      44.342  25.424  29.878  1.00  0.00     0.031 C 
ATOM     50  C   UNL A   1      44.184  28.624  35.036  1.00  0.00     0.029 A 
ATOM     51  C   UNL A   1      43.883  28.131  33.776  1.00  0.00     0.049 A 
ATOM     52  H   UNL A   1      42.313  28.679  32.476  1.00  0.00     0.167 HD
ATOM     53  C   UNL A   1      44.193  26.657  31.804  1.00  0.00     0.074 A 
ATOM     54  C   UNL A   1      44.896  25.630  31.065  1.00  0.00     0.031 C 
ATOM     55  C   UNL A   1      44.573  27.116  33.023  1.00  0.00     0.037 A 
BRANCH  42  56
ATOM     56  C   UNL A   1      40.947  31.544  35.327  1.00  0.00     0.064 A 
ATOM     57  C   UNL A   1      39.864  31.303  36.185  1.00  0.00     0.173 A 
ATOM     58  C   UNL A   1      41.687  32.719  35.516  1.00  0.00     0.173 A 
ATOM     59  F   UNL A   1      39.124  30.193  36.043  1.00  0.00    -0.203 F 
ATOM     60  C   UNL A   1      39.518  32.216  37.177  1.00  0.00     0.198 A 
ATOM     61  C   UNL A   1      41.352  33.620  36.525  1.00  0.00     0.198 A 
ATOM     62  F   UNL A   1      42.741  32.989  34.731  1.00  0.00    -0.203 F 
ATOM     63  F   UNL A   1      38.456  31.982  37.961  1.00  0.00    -0.200 F 
ATOM     64  C   UNL A   1      40.262  33.374  37.346  1.00  0.00     0.200 A 
ATOM     65  F   UNL A   1      42.084  34.729  36.701  1.00  0.00    -0.200 F 
ATOM     66  F   UNL A   1      39.927  34.253  38.301  1.00  0.00    -0.200 F 
ENDBRANCH  42  56
BRANCH  43  67
ATOM     67  C   UNL A   1      42.491  25.389  27.602  1.00  0.00     0.064 A 
ATOM     68  C   UNL A   1      41.726  24.219  27.474  1.00  0.00     0.173 A 
ATOM     69  C   UNL A   1      43.468  25.637  26.628  1.00  0.00     0.173 A 
ATOM     70  F   UNL A   1      40.775  23.937  28.376  1.00  0.00    -0.203 F 
ATOM     71  C   UNL A   1      41.946  23.325  26.428  1.00  0.00     0.198 A 
ATOM     72  C   UNL A   1      43.666  24.758  25.566  1.00  0.00     0.198 A 
ATOM     73  F   UNL A   1      44.206  26.755  26.691  1.00  0.00    -0.203 F 
ATOM     74  F   UNL A   1      41.221  22.201  26.347  1.00  0.00    -0.200 F 
ATOM     75  C   UNL A   1      42.911  23.598  25.471  1.00  0.00     0.200 A 
ATOM     76  F   UNL A   1      44.579  25.040  24.626  1.00  0.00    -0.200 F 
ATOM     77  F   UNL A   1      43.108  22.749  24.454  1.00  0.00    -0.200 F 
ENDBRANCH  43  67
BRANCH  55  78
ATOM     78  C   UNL A   1      45.803  26.511  33.634  1.00  0.00     0.064 A 
ATOM     79  C   UNL A   1      45.707  25.383  34.463  1.00  0.00     0.173 A 
ATOM     80  C   UNL A   1      47.069  27.082  33.444  1.00  0.00     0.173 A 
ATOM     81  F   UNL A   1      44.518  24.804  34.685  1.00  0.00    -0.203 F 
ATOM     82  C   UNL A   1      46.834  24.854  35.085  1.00  0.00     0.198 A 
ATOM     83  C   UNL A   1      48.199  26.533  34.043  1.00  0.00     0.198 A 
ATOM     84  F   UNL A   1      47.213  28.154  32.652  1.00  0.00    -0.203 F 
ATOM     85  F   UNL A   1      46.715  23.794  35.897  1.00  0.00    -0.200 F 
ATOM     86  C   UNL A   1      48.080  25.425  34.870  1.00  0.00     0.200 A 
ATOM     87  F   UNL A   1      49.405  27.070  33.813  1.00  0.00    -0.200 F 
ATOM     88  F   UNL A   1      49.167  24.905  35.455  1.00  0.00    -0.200 F 
ENDBRANCH  55  78
ENDBRANCH  29  30
ENDBRANCH  22  24
ENDBRANCH  21  22
ENDBRANCH  20  21
ENDBRANCH   1  20
TORSDOF 14
ENDMDL
MODEL 3
REMARK VINA RESULT:     -10.9      4.973     12.129
REMARK SMILES [NH3+][C@H](Cc1cc(F)c(F)c(F)c1)C(=O)OCCOC(=O)c1ccc(-c2c3nc(c(-c4c(F)c(F)c(F)c(F)c4F)c4ccc([nH]4)c(-c4c(F)c(F)c(F)c(F)c4F)c4nc(c(-c5c(F)c(F)c(F)c(F)c5F)c5ccc2[nH]5)C=C4)C=C3)cc1
REMARK SMILES IDX 16 1 15 2 13 3 14 4 2 5 1 6 3 10 4 11 5 12 12 13 6 14 10 15
REMARK SMILES IDX 7 16 8 17 11 18 9 19 17 20 18 21 19 22 20 23 21 24 22 25
REMARK SMILES IDX 83 26 23 27 82 28 24 29 25 30 26 31 76 32 27 33 81 34 75 35
REMARK SMILES IDX 77 36 28 37 80 38 74 39 73 40 29 42 61 43 41 44 60 45 42 46
REMARK SMILES IDX 45 47 59 48 78 49 43 50 44 51 58 53 79 54 46 55 30 56 31 57
REMARK SMILES IDX 39 58 32 59 33 60 37 61 40 62 34 63 35 64 38 65 36 66 62 67
REMARK SMILES IDX 63 68 71 69 64 70 65 71 69 72 72 73 66 74 67 75 70 76 68 77
REMARK SMILES IDX 47 78 48 79 56 80 49 81 50 82 54 83 57 84 51 85 52 86 55 87
REMARK SMILES IDX 53 88
REMARK H PARENT 1 7 1 8 1 9 77 41 45 52
REMARK Flexibility Score: inf
ROOT
ATOM      1  C   UNL A   1      33.675  34.537  29.295  1.00  0.00     0.274 C 
ENDROOT
BRANCH   1   2
ATOM      2  O   UNL A   1      32.575  35.382  29.686  1.00  0.00    -0.458 OA
BRANCH   2   3
ATOM      3  C   UNL A   1      32.756  36.243  30.717  1.00  0.00     0.365 C 
ATOM      4  O   UNL A   1      32.903  37.454  30.585  1.00  0.00    -0.245 OA
BRANCH   3   5
ATOM      5  C   UNL A   1      32.787  35.539  32.093  1.00  0.00     0.296 C 
BRANCH   5   6
ATOM      6  N   UNL A   1      31.544  35.780  32.860  1.00  0.00    -0.346 N 
ATOM      7  H   UNL A   1      31.592  35.281  33.749  1.00  0.00     0.345 HD
ATOM      8  H   UNL A   1      30.743  35.445  32.325  1.00  0.00     0.345 HD
ATOM      9  H   UNL A   1      31.443  36.779  33.036  1.00  0.00     0.345 HD
ENDBRANCH   5   6
BRANCH   5  10
ATOM     10  C   UNL A   1      34.080  35.680  32.930  1.00  0.00     0.113 C 
BRANCH  10  11
ATOM     11  C   UNL A   1      35.002  34.514  33.227  1.00  0.00    -0.035 A 
ATOM     12  C   UNL A   1      35.114  33.365  32.433  1.00  0.00     0.046 A 
ATOM     13  C   UNL A   1      35.779  34.577  34.400  1.00  0.00     0.046 A 
ATOM     14  C   UNL A   1      35.886  32.282  32.855  1.00  0.00     0.162 A 
ATOM     15  C   UNL A   1      36.569  33.498  34.795  1.00  0.00     0.162 A 
ATOM     16  F   UNL A   1      35.897  31.166  32.112  1.00  0.00    -0.204 F 
ATOM     17  C   UNL A   1      36.608  32.341  34.036  1.00  0.00     0.194 A 
ATOM     18  F   UNL A   1      37.277  33.584  35.929  1.00  0.00    -0.204 F 
ATOM     19  F   UNL A   1      37.328  31.286  34.441  1.00  0.00    -0.200 F 
ENDBRANCH  10  11
ENDBRANCH   5  10
ENDBRANCH   3   5
ENDBRANCH   2   3
ENDBRANCH   1   2
BRANCH   1  20
ATOM     20  C   UNL A   1      33.335  33.744  28.030  1.00  0.00     0.275 C 
BRANCH  20  21
ATOM     21  O   UNL A   1      34.488  33.023  27.556  1.00  0.00    -0.458 OA
BRANCH  21  22
ATOM     22  C   UNL A   1      34.443  31.685  27.747  1.00  0.00     0.338 C 
ATOM     23  O   UNL A   1      33.546  30.923  27.436  1.00  0.00    -0.246 OA
BRANCH  22  24
ATOM     24  C   UNL A   1      35.755  31.214  28.223  1.00  0.00     0.060 A 
ATOM     25  C   UNL A   1      35.846  29.881  28.629  1.00  0.00     0.016 A 
ATOM     26  C   UNL A   1      36.866  32.057  28.298  1.00  0.00     0.016 A 
ATOM     27  C   UNL A   1      37.046  29.379  29.114  1.00  0.00     0.010 A 
ATOM     28  C   UNL A   1      38.076  31.552  28.788  1.00  0.00     0.010 A 
ATOM     29  C   UNL A   1      38.168  30.213  29.205  1.00  0.00    -0.014 A 
BRANCH  29  30
ATOM     30  C   UNL A   1      39.414  29.662  29.780  1.00  0.00     0.031 A 
ATOM     31  C   UNL A   1      39.939  30.201  31.077  1.00  0.00     0.074 A 
ATOM     32  C   UNL A   1      40.018  28.621  29.177  1.00  0.00     0.049 A 
ATOM     33  N   UNL A   1      40.982  29.820  31.770  1.00  0.00    -0.248 NA
ATOM     34  C   UNL A   1      39.188  31.311  31.685  1.00  0.00     0.031 C 
ATOM     35  C   UNL A   1      39.562  27.990  27.938  1.00  0.00     0.029 A 
ATOM     36  N   UNL A   1      41.123  27.894  29.537  1.00  0.00    -0.354 N 
ATOM     37  C   UNL A   1      41.016  30.642  32.887  1.00  0.00     0.074 A 
ATOM     38  C   UNL A   1      39.903  31.560  32.773  1.00  0.00     0.031 C 
ATOM     39  C   UNL A   1      40.365  26.951  27.657  1.00  0.00     0.029 A 
ATOM     40  C   UNL A   1      41.411  26.866  28.672  1.00  0.00     0.049 A 
ATOM     41  H   UNL A   1      41.660  28.090  30.339  1.00  0.00     0.167 HD
ATOM     42  C   UNL A   1      41.891  30.619  33.918  1.00  0.00     0.037 A 
ATOM     43  C   UNL A   1      42.409  25.963  28.697  1.00  0.00     0.037 A 
ATOM     44  C   UNL A   1      42.986  29.690  34.030  1.00  0.00     0.049 A 
ATOM     45  C   UNL A   1      43.403  26.005  29.827  1.00  0.00     0.074 A 
ATOM     46  C   UNL A   1      43.921  29.582  35.045  1.00  0.00     0.029 A 
ATOM     47  N   UNL A   1      43.291  28.710  33.097  1.00  0.00    -0.354 N 
ATOM     48  N   UNL A   1      43.425  26.784  30.881  1.00  0.00    -0.248 NA
ATOM     49  C   UNL A   1      44.513  25.044  29.767  1.00  0.00     0.031 C 
ATOM     50  C   UNL A   1      44.821  28.568  34.703  1.00  0.00     0.029 A 
ATOM     51  C   UNL A   1      44.418  28.009  33.501  1.00  0.00     0.049 A 
ATOM     52  H   UNL A   1      42.784  28.538  32.271  1.00  0.00     0.167 HD
ATOM     53  C   UNL A   1      44.540  26.402  31.614  1.00  0.00     0.074 A 
ATOM     54  C   UNL A   1      45.153  25.302  30.900  1.00  0.00     0.031 C 
ATOM     55  C   UNL A   1      45.018  26.921  32.773  1.00  0.00     0.037 A 
BRANCH  42  56
ATOM     56  C   UNL A   1      41.720  31.631  35.010  1.00  0.00     0.064 A 
ATOM     57  C   UNL A   1      40.694  31.485  35.955  1.00  0.00     0.173 A 
ATOM     58  C   UNL A   1      42.509  32.788  35.069  1.00  0.00     0.173 A 
ATOM     59  F   UNL A   1      39.910  30.396  35.939  1.00  0.00    -0.203 F 
ATOM     60  C   UNL A   1      40.448  32.472  36.906  1.00  0.00     0.198 A 
ATOM     61  C   UNL A   1      42.276  33.763  36.037  1.00  0.00     0.198 A 
ATOM     62  F   UNL A   1      43.512  32.968  34.197  1.00  0.00    -0.203 F 
ATOM     63  F   UNL A   1      39.438  32.328  37.774  1.00  0.00    -0.200 F 
ATOM     64  C   UNL A   1      41.239  33.610  36.945  1.00  0.00     0.200 A 
ATOM     65  F   UNL A   1      43.053  34.854  36.087  1.00  0.00    -0.200 F 
ATOM     66  F   UNL A   1      41.002  34.561  37.860  1.00  0.00    -0.200 F 
ENDBRANCH  42  56
BRANCH  43  67
ATOM     67  C   UNL A   1      42.513  24.940  27.623  1.00  0.00     0.064 A 
ATOM     68  C   UNL A   1      41.808  23.730  27.699  1.00  0.00     0.173 A 
ATOM     69  C   UNL A   1      43.322  25.155  26.499  1.00  0.00     0.173 A 
ATOM     70  F   UNL A   1      41.016  23.477  28.751  1.00  0.00    -0.203 F 
ATOM     71  C   UNL A   1      41.925  22.765  26.700  1.00  0.00     0.198 A 
ATOM     72  C   UNL A   1      43.414  24.202  25.487  1.00  0.00     0.198 A 
ATOM     73  F   UNL A   1      43.994  26.308  26.368  1.00  0.00    -0.203 F 
ATOM     74  F   UNL A   1      41.263  21.605  26.811  1.00  0.00    -0.200 F 
ATOM     75  C   UNL A   1      42.723  23.005  25.592  1.00  0.00     0.200 A 
ATOM     76  F   UNL A   1      44.162  24.449  24.403  1.00  0.00    -0.200 F 
ATOM     77  F   UNL A   1      42.819  22.085  24.622  1.00  0.00    -0.200 F 
ENDBRANCH  43  67
BRANCH  55  78
ATOM     78  C   UNL A   1      46.263  26.307  33.342  1.00  0.00     0.064 A 
ATOM     79  C   UNL A   1      47.528  26.805  32.994  1.00  0.00     0.173 A 
ATOM     80  C   UNL A   1      46.205  25.190  34.188  1.00  0.00     0.173 A 
ATOM     81  F   UNL A   1      47.638  27.866  32.181  1.00  0.00    -0.203 F 
ATOM     82  C   UNL A   1      48.690  26.201  33.467  1.00  0.00     0.198 A 
ATOM     83  C   UNL A   1      47.368  24.607  34.683  1.00  0.00     0.198 A 
ATOM     84  F   UNL A   1      45.020  24.684  34.558  1.00  0.00    -0.203 F 
ATOM     85  F   UNL A   1      49.888  26.675  33.098  1.00  0.00    -0.200 F 
ATOM     86  C   UNL A   1      48.609  25.107  34.315  1.00  0.00     0.200 A 
ATOM     87  F   UNL A   1      47.288  23.567  35.524  1.00  0.00    -0.200 F 
ATOM     88  F   UNL A   1      49.727  24.538  34.784  1.00  0.00    -0.200 F 
ENDBRANCH  55  78
ENDBRANCH  29  30
ENDBRANCH  22  24
ENDBRANCH  21  22
ENDBRANCH  20  21
ENDBRANCH   1  20
TORSDOF 14
ENDMDL
