MODEL 1
REMARK VINA RESULT:     -12.2      0.000      0.000
REMARK SMILES CC1(C)C(NC(=O)c2cc(F)c(F)cc2C(=O)OCCOC(=O)c2ccc(-c3c4nc(c(-c5c(F)c(F)c(F)c(F)c5F)c5ccc([nH]5)c(-c5c(F)c(F)c(F)c(F)c5F)c5nc(c(-c6c(F)c(F)c(F)c(F)c6F)c6ccc3[nH]6)C=C5)C=C4)cc2)C1(C)C
REMARK SMILES IDX 19 1 18 2 16 3 17 4 15 5 8 6 9 7 10 8 14 9 11 10 12 11 13 12
REMARK SMILES IDX 6 13 5 14 7 16 4 17 1 18 2 19 3 20 87 21 88 22 89 23 20 24
REMARK SMILES IDX 21 25 22 26 23 27 24 28 25 29 86 30 26 31 85 32 27 33 28 34
REMARK SMILES IDX 29 35 79 36 30 37 84 38 78 39 80 40 31 41 83 42 77 43 76 44
REMARK SMILES IDX 32 46 64 47 44 48 63 49 45 50 48 51 62 52 81 53 46 54 47 55
REMARK SMILES IDX 61 57 82 58 49 59 33 60 34 61 42 62 35 63 36 64 40 65 43 66
REMARK SMILES IDX 37 67 38 68 41 69 39 70 65 71 66 72 74 73 67 74 68 75 72 76
REMARK SMILES IDX 75 77 69 78 70 79 73 80 71 81 50 82 51 83 59 84 52 85 53 86
REMARK SMILES IDX 57 87 60 88 54 89 55 90 58 91 56 92
REMARK H PARENT 5 15 80 45 48 56
REMARK Flexibility Score: inf
ROOT
ATOM      1  C   UNL A   1      31.649  29.121  27.183  1.00  0.00     0.275 C 
ENDROOT
BRANCH   1   2
ATOM      2  O   UNL A   1      31.579  28.108  26.157  1.00  0.00    -0.458 OA
BRANCH   2   3
ATOM      3  C   UNL A   1      32.747  27.487  25.874  1.00  0.00     0.339 C 
ATOM      4  O   UNL A   1      33.655  27.264  26.656  1.00  0.00    -0.246 OA
BRANCH   3   5
ATOM      5  C   UNL A   1      32.796  26.971  24.484  1.00  0.00     0.075 A 
ATOM      6  C   UNL A   1      32.232  25.760  24.059  1.00  0.00     0.057 A 
ATOM      7  C   UNL A   1      32.208  25.439  22.690  1.00  0.00     0.057 A 
ATOM      8  C   UNL A   1      32.856  26.258  21.775  1.00  0.00     0.159 A 
ATOM      9  C   UNL A   1      33.405  27.809  23.532  1.00  0.00     0.059 A 
ATOM     10  F   UNL A   1      32.901  25.898  20.486  1.00  0.00    -0.204 F 
ATOM     11  C   UNL A   1      33.467  27.428  22.197  1.00  0.00     0.159 A 
ATOM     12  F   UNL A   1      34.118  28.206  21.323  1.00  0.00    -0.204 F 
BRANCH   6  13
ATOM     13  C   UNL A   1      31.666  24.785  25.015  1.00  0.00     0.252 C 
ATOM     14  N   UNL A   1      32.527  23.895  25.630  1.00  0.00    -0.348 N 
ATOM     15  H   UNL A   1      32.139  23.336  26.342  1.00  0.00     0.164 HD
ATOM     16  O   UNL A   1      30.464  24.794  25.248  1.00  0.00    -0.269 OA
BRANCH  14  17
ATOM     17  C   UNL A   1      33.919  23.690  25.352  1.00  0.00     0.094 C 
ATOM     18  C   UNL A   1      36.237  22.857  26.124  1.00  0.00     0.014 C 
ATOM     19  C   UNL A   1      34.782  22.541  25.819  1.00  0.00    -0.007 C 
ATOM     20  C   UNL A   1      34.213  21.548  26.802  1.00  0.00     0.014 C 
ATOM     21  C   UNL A   1      34.305  22.602  24.356  1.00  0.00    -0.007 C 
ATOM     22  C   UNL A   1      35.236  23.019  23.236  1.00  0.00     0.014 C 
ATOM     23  C   UNL A   1      33.273  21.602  23.877  1.00  0.00     0.014 C 
ENDBRANCH  14  17
ENDBRANCH   6  13
ENDBRANCH   3   5
ENDBRANCH   2   3
ENDBRANCH   1   2
BRANCH   1  24
ATOM     24  C   UNL A   1      31.620  30.524  26.583  1.00  0.00     0.275 C 
BRANCH  24  25
ATOM     25  O   UNL A   1      32.960  30.989  26.341  1.00  0.00    -0.458 OA
BRANCH  25  26
ATOM     26  C   UNL A   1      33.420  31.905  27.216  1.00  0.00     0.338 C 
ATOM     27  O   UNL A   1      32.852  32.911  27.626  1.00  0.00    -0.246 OA
BRANCH  26  28
ATOM     28  C   UNL A   1      34.735  31.495  27.716  1.00  0.00     0.060 A 
ATOM     29  C   UNL A   1      34.931  30.151  28.025  1.00  0.00     0.016 A 
ATOM     30  C   UNL A   1      35.706  32.442  28.037  1.00  0.00     0.016 A 
ATOM     31  C   UNL A   1      36.065  29.753  28.728  1.00  0.00     0.010 A 
ATOM     32  C   UNL A   1      36.877  32.031  28.684  1.00  0.00     0.010 A 
ATOM     33  C   UNL A   1      37.052  30.689  29.074  1.00  0.00    -0.014 A 
BRANCH  33  34
ATOM     34  C   UNL A   1      38.215  30.279  29.911  1.00  0.00     0.031 A 
ATOM     35  C   UNL A   1      39.302  29.420  29.317  1.00  0.00     0.074 A 
ATOM     36  C   UNL A   1      38.340  30.713  31.181  1.00  0.00     0.049 A 
ATOM     37  N   UNL A   1      40.310  28.829  29.910  1.00  0.00    -0.248 NA
ATOM     38  C   UNL A   1      39.247  29.189  27.864  1.00  0.00     0.031 C 
ATOM     39  C   UNL A   1      37.408  31.609  31.865  1.00  0.00     0.029 A 
ATOM     40  N   UNL A   1      39.316  30.474  32.119  1.00  0.00    -0.354 N 
ATOM     41  C   UNL A   1      40.975  28.121  28.916  1.00  0.00     0.074 A 
ATOM     42  C   UNL A   1      40.261  28.352  27.681  1.00  0.00     0.031 C 
ATOM     43  C   UNL A   1      37.884  31.888  33.089  1.00  0.00     0.029 A 
ATOM     44  C   UNL A   1      39.108  31.124  33.311  1.00  0.00     0.049 A 
ATOM     45  H   UNL A   1      40.092  29.890  31.952  1.00  0.00     0.167 HD
ATOM     46  C   UNL A   1      42.084  27.352  29.026  1.00  0.00     0.037 A 
ATOM     47  C   UNL A   1      39.805  31.087  34.463  1.00  0.00     0.037 A 
ATOM     48  C   UNL A   1      42.833  27.171  30.242  1.00  0.00     0.049 A 
ATOM     49  C   UNL A   1      41.005  30.187  34.572  1.00  0.00     0.074 A 
ATOM     50  C   UNL A   1      43.957  26.391  30.453  1.00  0.00     0.029 A 
ATOM     51  N   UNL A   1      42.554  27.804  31.443  1.00  0.00    -0.354 N 
ATOM     52  N   UNL A   1      41.565  29.442  33.652  1.00  0.00    -0.248 NA
ATOM     53  C   UNL A   1      41.650  30.098  35.892  1.00  0.00     0.031 C 
ATOM     54  C   UNL A   1      44.347  26.537  31.788  1.00  0.00     0.029 A 
ATOM     55  C   UNL A   1      43.483  27.432  32.398  1.00  0.00     0.049 A 
ATOM     56  H   UNL A   1      41.805  28.425  31.593  1.00  0.00     0.167 HD
ATOM     57  C   UNL A   1      42.629  28.805  34.275  1.00  0.00     0.074 A 
ATOM     58  C   UNL A   1      42.653  29.265  35.646  1.00  0.00     0.031 C 
ATOM     59  C   UNL A   1      43.502  27.909  33.755  1.00  0.00     0.037 A 
BRANCH  46  60
ATOM     60  C   UNL A   1      42.562  26.625  27.806  1.00  0.00     0.064 A 
ATOM     61  C   UNL A   1      42.139  25.310  27.558  1.00  0.00     0.173 A 
ATOM     62  C   UNL A   1      43.507  27.188  26.939  1.00  0.00     0.173 A 
ATOM     63  F   UNL A   1      41.241  24.725  28.365  1.00  0.00    -0.203 F 
ATOM     64  C   UNL A   1      42.661  24.578  26.496  1.00  0.00     0.198 A 
ATOM     65  C   UNL A   1      44.011  26.460  25.863  1.00  0.00     0.198 A 
ATOM     66  F   UNL A   1      43.933  28.446  27.128  1.00  0.00    -0.203 F 
ATOM     67  F   UNL A   1      42.270  23.311  26.299  1.00  0.00    -0.200 F 
ATOM     68  C   UNL A   1      43.596  25.154  25.649  1.00  0.00     0.200 A 
ATOM     69  F   UNL A   1      44.901  27.023  25.034  1.00  0.00    -0.200 F 
ATOM     70  F   UNL A   1      44.100  24.448  24.626  1.00  0.00    -0.200 F 
ENDBRANCH  46  60
BRANCH  47  71
ATOM     71  C   UNL A   1      39.370  31.910  35.623  1.00  0.00     0.064 A 
ATOM     72  C   UNL A   1      39.883  33.197  35.842  1.00  0.00     0.173 A 
ATOM     73  C   UNL A   1      38.425  31.420  36.535  1.00  0.00     0.173 A 
ATOM     74  F   UNL A   1      40.783  33.715  34.994  1.00  0.00    -0.203 F 
ATOM     75  C   UNL A   1      39.486  33.951  36.944  1.00  0.00     0.198 A 
ATOM     76  C   UNL A   1      38.007  32.188  37.620  1.00  0.00     0.198 A 
ATOM     77  F   UNL A   1      37.882  30.208  36.350  1.00  0.00    -0.203 F 
ATOM     78  F   UNL A   1      40.016  35.165  37.146  1.00  0.00    -0.200 F 
ATOM     79  C   UNL A   1      38.545  33.450  37.829  1.00  0.00     0.200 A 
ATOM     80  F   UNL A   1      37.075  31.711  38.456  1.00  0.00    -0.200 F 
ATOM     81  F   UNL A   1      38.150  34.184  38.877  1.00  0.00    -0.200 F 
ENDBRANCH  47  71
BRANCH  59  82
ATOM     82  C   UNL A   1      44.572  27.378  34.659  1.00  0.00     0.064 A 
ATOM     83  C   UNL A   1      44.356  26.212  35.409  1.00  0.00     0.173 A 
ATOM     84  C   UNL A   1      45.780  28.066  34.840  1.00  0.00     0.173 A 
ATOM     85  F   UNL A   1      43.212  25.524  35.275  1.00  0.00    -0.203 F 
ATOM     86  C   UNL A   1      45.309  25.761  36.318  1.00  0.00     0.198 A 
ATOM     87  C   UNL A   1      46.740  27.599  35.735  1.00  0.00     0.198 A 
ATOM     88  F   UNL A   1      46.035  29.178  34.135  1.00  0.00    -0.203 F 
ATOM     89  F   UNL A   1      45.071  24.659  37.043  1.00  0.00    -0.200 F 
ATOM     90  C   UNL A   1      46.500  26.453  36.478  1.00  0.00     0.200 A 
ATOM     91  F   UNL A   1      47.897  28.258  35.876  1.00  0.00    -0.200 F 
ATOM     92  F   UNL A   1      47.418  26.015  37.350  1.00  0.00    -0.200 F 
ENDBRANCH  59  82
ENDBRANCH  33  34
ENDBRANCH  26  28
ENDBRANCH  25  26
ENDBRANCH  24  25
ENDBRANCH   1  24
TORSDOF 13
ENDMDL
MODEL 2
REMARK VINA RESULT:     -12.2      4.309      9.687
REMARK SMILES CC1(C)C(NC(=O)c2cc(F)c(F)cc2C(=O)OCCOC(=O)c2ccc(-c3c4nc(c(-c5c(F)c(F)c(F)c(F)c5F)c5ccc([nH]5)c(-c5c(F)c(F)c(F)c(F)c5F)c5nc(c(-c6c(F)c(F)c(F)c(F)c6F)c6ccc3[nH]6)C=C5)C=C4)cc2)C1(C)C
REMARK SMILES IDX 19 1 18 2 16 3 17 4 15 5 8 6 9 7 10 8 14 9 11 10 12 11 13 12
REMARK SMILES IDX 6 13 5 14 7 16 4 17 1 18 2 19 3 20 87 21 88 22 89 23 20 24
REMARK SMILES IDX 21 25 22 26 23 27 24 28 25 29 86 30 26 31 85 32 27 33 28 34
REMARK SMILES IDX 29 35 79 36 30 37 84 38 78 39 80 40 31 41 83 42 77 43 76 44
REMARK SMILES IDX 32 46 64 47 44 48 63 49 45 50 48 51 62 52 81 53 46 54 47 55
REMARK SMILES IDX 61 57 82 58 49 59 33 60 34 61 42 62 35 63 36 64 40 65 43 66
REMARK SMILES IDX 37 67 38 68 41 69 39 70 65 71 66 72 74 73 67 74 68 75 72 76
REMARK SMILES IDX 75 77 69 78 70 79 73 80 71 81 50 82 51 83 59 84 52 85 53 86
REMARK SMILES IDX 57 87 60 88 54 89 55 90 58 91 56 92
REMARK H PARENT 5 15 80 45 48 56
REMARK Flexibility Score: inf
ROOT
ATOM      1  C   UNL A   1      35.804  20.239  25.073  1.00  0.00     0.275 C 
ENDROOT
BRANCH   1   2
ATOM      2  O   UNL A   1      35.376  21.211  26.051  1.00  0.00    -0.458 OA
BRANCH   2   3
ATOM      3  C   UNL A   1      34.088  21.610  25.948  1.00  0.00     0.339 C 
ATOM      4  O   UNL A   1      33.260  21.616  26.842  1.00  0.00    -0.246 OA
BRANCH   3   5
ATOM      5  C   UNL A   1      33.772  22.178  24.614  1.00  0.00     0.075 A 
ATOM      6  C   UNL A   1      34.330  23.354  24.091  1.00  0.00     0.057 A 
ATOM      7  C   UNL A   1      34.072  23.720  22.758  1.00  0.00     0.057 A 
ATOM      8  C   UNL A   1      33.165  22.991  22.002  1.00  0.00     0.159 A 
ATOM      9  C   UNL A   1      32.892  21.427  23.813  1.00  0.00     0.059 A 
ATOM     10  F   UNL A   1      32.862  23.399  20.764  1.00  0.00    -0.204 F 
ATOM     11  C   UNL A   1      32.564  21.860  22.533  1.00  0.00     0.159 A 
ATOM     12  F   UNL A   1      31.667  21.170  21.818  1.00  0.00    -0.204 F 
BRANCH   6  13
ATOM     13  C   UNL A   1      35.180  24.243  24.909  1.00  0.00     0.252 C 
ATOM     14  N   UNL A   1      34.570  25.254  25.629  1.00  0.00    -0.348 N 
ATOM     15  H   UNL A   1      35.148  25.757  26.249  1.00  0.00     0.164 HD
ATOM     16  O   UNL A   1      36.391  24.063  24.940  1.00  0.00    -0.269 OA
BRANCH  14  17
ATOM     17  C   UNL A   1      33.194  25.655  25.579  1.00  0.00     0.094 C 
ATOM     18  C   UNL A   1      31.222  26.954  26.621  1.00  0.00     0.014 C 
ATOM     19  C   UNL A   1      32.615  26.981  26.015  1.00  0.00    -0.007 C 
ATOM     20  C   UNL A   1      33.506  27.975  26.718  1.00  0.00     0.014 C 
ATOM     21  C   UNL A   1      32.773  26.664  24.517  1.00  0.00    -0.007 C 
ATOM     22  C   UNL A   1      31.586  26.278  23.659  1.00  0.00     0.014 C 
ATOM     23  C   UNL A   1      33.819  27.411  23.714  1.00  0.00     0.014 C 
ENDBRANCH  14  17
ENDBRANCH   6  13
ENDBRANCH   3   5
ENDBRANCH   2   3
ENDBRANCH   1   2
BRANCH   1  24
ATOM     24  C   UNL A   1      37.324  20.205  24.947  1.00  0.00     0.275 C 
BRANCH  24  25
ATOM     25  O   UNL A   1      37.905  21.330  25.631  1.00  0.00    -0.458 OA
BRANCH  25  26
ATOM     26  C   UNL A   1      39.156  21.140  26.094  1.00  0.00     0.338 C 
ATOM     27  O   UNL A   1      39.850  20.134  26.005  1.00  0.00    -0.246 OA
BRANCH  26  28
ATOM     28  C   UNL A   1      39.655  22.381  26.693  1.00  0.00     0.060 A 
ATOM     29  C   UNL A   1      39.120  23.587  26.248  1.00  0.00     0.016 A 
ATOM     30  C   UNL A   1      40.752  22.369  27.554  1.00  0.00     0.016 A 
ATOM     31  C   UNL A   1      39.725  24.791  26.597  1.00  0.00     0.010 A 
ATOM     32  C   UNL A   1      41.318  23.584  27.959  1.00  0.00     0.010 A 
ATOM     33  C   UNL A   1      40.837  24.806  27.453  1.00  0.00    -0.014 A 
BRANCH  33  34
ATOM     34  C   UNL A   1      41.542  26.087  27.746  1.00  0.00     0.031 A 
ATOM     35  C   UNL A   1      40.873  27.134  28.599  1.00  0.00     0.074 A 
ATOM     36  C   UNL A   1      42.797  26.302  27.303  1.00  0.00     0.049 A 
ATOM     37  N   UNL A   1      41.244  28.368  28.843  1.00  0.00    -0.248 NA
ATOM     38  C   UNL A   1      39.619  26.747  29.265  1.00  0.00     0.031 C 
ATOM     39  C   UNL A   1      43.598  25.352  26.532  1.00  0.00     0.029 A 
ATOM     40  N   UNL A   1      43.630  27.385  27.458  1.00  0.00    -0.354 N 
ATOM     41  C   UNL A   1      40.248  28.913  29.644  1.00  0.00     0.074 A 
ATOM     42  C   UNL A   1      39.256  27.882  29.848  1.00  0.00     0.031 C 
ATOM     43  C   UNL A   1      44.819  25.869  26.329  1.00  0.00     0.029 A 
ATOM     44  C   UNL A   1      44.864  27.221  26.879  1.00  0.00     0.049 A 
ATOM     45  H   UNL A   1      43.365  28.204  27.938  1.00  0.00     0.167 HD
ATOM     46  C   UNL A   1      40.173  30.161  30.164  1.00  0.00     0.037 A 
ATOM     47  C   UNL A   1      45.904  28.070  26.773  1.00  0.00     0.037 A 
ATOM     48  C   UNL A   1      41.190  31.169  30.015  1.00  0.00     0.049 A 
ATOM     49  C   UNL A   1      45.775  29.466  27.319  1.00  0.00     0.074 A 
ATOM     50  C   UNL A   1      41.190  32.470  30.488  1.00  0.00     0.029 A 
ATOM     51  N   UNL A   1      42.402  30.978  29.370  1.00  0.00    -0.354 N 
ATOM     52  N   UNL A   1      44.785  30.004  27.987  1.00  0.00    -0.248 NA
ATOM     53  C   UNL A   1      46.898  30.384  27.066  1.00  0.00     0.031 C 
ATOM     54  C   UNL A   1      42.395  33.073  30.113  1.00  0.00     0.029 A 
ATOM     55  C   UNL A   1      43.156  32.137  29.433  1.00  0.00     0.049 A 
ATOM     56  H   UNL A   1      42.684  30.142  28.933  1.00  0.00     0.167 HD
ATOM     57  C   UNL A   1      45.166  31.314  28.241  1.00  0.00     0.074 A 
ATOM     58  C   UNL A   1      46.486  31.488  27.675  1.00  0.00     0.031 C 
ATOM     59  C   UNL A   1      44.474  32.289  28.878  1.00  0.00     0.037 A 
BRANCH  46  60
ATOM     60  C   UNL A   1      38.945  30.530  30.938  1.00  0.00     0.064 A 
ATOM     61  C   UNL A   1      37.846  31.108  30.283  1.00  0.00     0.173 A 
ATOM     62  C   UNL A   1      38.888  30.403  32.332  1.00  0.00     0.173 A 
ATOM     63  F   UNL A   1      37.856  31.258  28.950  1.00  0.00    -0.203 F 
ATOM     64  C   UNL A   1      36.744  31.564  31.000  1.00  0.00     0.198 A 
ATOM     65  C   UNL A   1      37.774  30.839  33.044  1.00  0.00     0.198 A 
ATOM     66  F   UNL A   1      39.909  29.845  33.001  1.00  0.00    -0.203 F 
ATOM     67  F   UNL A   1      35.721  32.147  30.358  1.00  0.00    -0.200 F 
ATOM     68  C   UNL A   1      36.708  31.429  32.380  1.00  0.00     0.200 A 
ATOM     69  F   UNL A   1      37.732  30.692  34.376  1.00  0.00    -0.200 F 
ATOM     70  F   UNL A   1      35.647  31.869  33.070  1.00  0.00    -0.200 F 
ENDBRANCH  46  60
BRANCH  47  71
ATOM     71  C   UNL A   1      47.156  27.635  26.098  1.00  0.00     0.064 A 
ATOM     72  C   UNL A   1      47.313  27.738  24.708  1.00  0.00     0.173 A 
ATOM     73  C   UNL A   1      48.223  27.109  26.838  1.00  0.00     0.173 A 
ATOM     74  F   UNL A   1      46.324  28.242  23.955  1.00  0.00    -0.203 F 
ATOM     75  C   UNL A   1      48.480  27.306  24.082  1.00  0.00     0.198 A 
ATOM     76  C   UNL A   1      49.402  26.706  26.214  1.00  0.00     0.198 A 
ATOM     77  F   UNL A   1      48.133  27.021  28.173  1.00  0.00    -0.203 F 
ATOM     78  F   UNL A   1      48.591  27.387  22.749  1.00  0.00    -0.200 F 
ATOM     79  C   UNL A   1      49.526  26.797  24.835  1.00  0.00     0.200 A 
ATOM     80  F   UNL A   1      50.422  26.242  26.949  1.00  0.00    -0.200 F 
ATOM     81  F   UNL A   1      50.655  26.400  24.235  1.00  0.00    -0.200 F 
ENDBRANCH  47  71
BRANCH  59  82
ATOM     82  C   UNL A   1      45.133  33.627  29.021  1.00  0.00     0.064 A 
ATOM     83  C   UNL A   1      44.966  34.611  28.035  1.00  0.00     0.173 A 
ATOM     84  C   UNL A   1      45.990  33.906  30.095  1.00  0.00     0.173 A 
ATOM     85  F   UNL A   1      44.162  34.386  26.985  1.00  0.00    -0.203 F 
ATOM     86  C   UNL A   1      45.645  35.824  28.114  1.00  0.00     0.198 A 
ATOM     87  C   UNL A   1      46.651  35.129  30.181  1.00  0.00     0.198 A 
ATOM     88  F   UNL A   1      46.170  32.999  31.067  1.00  0.00    -0.203 F 
ATOM     89  F   UNL A   1      45.491  36.740  27.148  1.00  0.00    -0.200 F 
ATOM     90  C   UNL A   1      46.485  36.082  29.188  1.00  0.00     0.200 A 
ATOM     91  F   UNL A   1      47.447  35.384  31.227  1.00  0.00    -0.200 F 
ATOM     92  F   UNL A   1      47.134  37.252  29.266  1.00  0.00    -0.200 F 
ENDBRANCH  59  82
ENDBRANCH  33  34
ENDBRANCH  26  28
ENDBRANCH  25  26
ENDBRANCH  24  25
ENDBRANCH   1  24
TORSDOF 13
ENDMDL
MODEL 3
REMARK VINA RESULT:     -12.2      4.449      9.784
REMARK SMILES CC1(C)C(NC(=O)c2cc(F)c(F)cc2C(=O)OCCOC(=O)c2ccc(-c3c4nc(c(-c5c(F)c(F)c(F)c(F)c5F)c5ccc([nH]5)c(-c5c(F)c(F)c(F)c(F)c5F)c5nc(c(-c6c(F)c(F)c(F)c(F)c6F)c6ccc3[nH]6)C=C5)C=C4)cc2)C1(C)C
REMARK SMILES IDX 19 1 18 2 16 3 17 4 15 5 8 6 9 7 10 8 14 9 11 10 12 11 13 12
REMARK SMILES IDX 6 13 5 14 7 16 4 17 1 18 2 19 3 20 87 21 88 22 89 23 20 24
REMARK SMILES IDX 21 25 22 26 23 27 24 28 25 29 86 30 26 31 85 32 27 33 28 34
REMARK SMILES IDX 29 35 79 36 30 37 84 38 78 39 80 40 31 41 83 42 77 43 76 44
REMARK SMILES IDX 32 46 64 47 44 48 63 49 45 50 48 51 62 52 81 53 46 54 47 55
REMARK SMILES IDX 61 57 82 58 49 59 33 60 34 61 42 62 35 63 36 64 40 65 43 66
REMARK SMILES IDX 37 67 38 68 41 69 39 70 65 71 66 72 74 73 67 74 68 75 72 76
REMARK SMILES IDX 75 77 69 78 70 79 73 80 71 81 50 82 51 83 59 84 52 85 53 86
REMARK SMILES IDX 57 87 60 88 54 89 55 90 58 91 56 92
REMARK H PARENT 5 15 80 45 48 56
REMARK Flexibility Score: inf
ROOT
ATOM      1  C   UNL A   1      36.902  22.034  23.844  1.00  0.00     0.275 C 
ENDROOT
BRANCH   1   2
ATOM      2  O   UNL A   1      35.505  22.290  24.102  1.00  0.00    -0.458 OA
BRANCH   2   3
ATOM      3  C   UNL A   1      35.245  23.366  24.879  1.00  0.00     0.339 C 
ATOM      4  O   UNL A   1      35.961  24.342  25.024  1.00  0.00    -0.246 OA
BRANCH   3   5
ATOM      5  C   UNL A   1      33.895  23.314  25.491  1.00  0.00     0.075 A 
ATOM      6  C   UNL A   1      32.720  23.775  24.879  1.00  0.00     0.057 A 
ATOM      7  C   UNL A   1      31.474  23.542  25.488  1.00  0.00     0.057 A 
ATOM      8  C   UNL A   1      31.416  22.974  26.754  1.00  0.00     0.159 A 
ATOM      9  C   UNL A   1      33.808  22.698  26.753  1.00  0.00     0.059 A 
ATOM     10  F   UNL A   1      30.231  22.837  27.360  1.00  0.00    -0.204 F 
ATOM     11  C   UNL A   1      32.580  22.571  27.391  1.00  0.00     0.159 A 
ATOM     12  F   UNL A   1      32.532  22.050  28.623  1.00  0.00    -0.204 F 
BRANCH   6  13
ATOM     13  C   UNL A   1      32.746  24.520  23.603  1.00  0.00     0.252 C 
ATOM     14  N   UNL A   1      33.002  25.878  23.643  1.00  0.00    -0.348 N 
ATOM     15  H   UNL A   1      33.124  26.324  22.773  1.00  0.00     0.164 HD
ATOM     16  O   UNL A   1      32.554  23.925  22.550  1.00  0.00    -0.269 OA
BRANCH  14  17
ATOM     17  C   UNL A   1      33.111  26.714  24.803  1.00  0.00     0.094 C 
ATOM     18  C   UNL A   1      34.032  28.851  25.919  1.00  0.00     0.014 C 
ATOM     19  C   UNL A   1      33.171  28.224  24.837  1.00  0.00    -0.007 C 
ATOM     20  C   UNL A   1      33.276  28.983  23.537  1.00  0.00     0.014 C 
ATOM     21  C   UNL A   1      31.880  27.494  25.251  1.00  0.00    -0.007 C 
ATOM     22  C   UNL A   1      31.486  27.347  26.706  1.00  0.00     0.014 C 
ATOM     23  C   UNL A   1      30.664  27.586  24.352  1.00  0.00     0.014 C 
ENDBRANCH  14  17
ENDBRANCH   6  13
ENDBRANCH   3   5
ENDBRANCH   2   3
ENDBRANCH   1   2
BRANCH   1  24
ATOM     24  C   UNL A   1      37.403  20.826  24.629  1.00  0.00     0.275 C 
BRANCH  24  25
ATOM     25  O   UNL A   1      37.839  21.229  25.939  1.00  0.00    -0.458 OA
BRANCH  25  26
ATOM     26  C   UNL A   1      39.166  21.133  26.159  1.00  0.00     0.338 C 
ATOM     27  O   UNL A   1      39.913  20.203  25.881  1.00  0.00    -0.246 OA
BRANCH  26  28
ATOM     28  C   UNL A   1      39.661  22.384  26.742  1.00  0.00     0.060 A 
ATOM     29  C   UNL A   1      39.145  23.584  26.259  1.00  0.00     0.016 A 
ATOM     30  C   UNL A   1      40.740  22.383  27.625  1.00  0.00     0.016 A 
ATOM     31  C   UNL A   1      39.751  24.791  26.594  1.00  0.00     0.010 A 
ATOM     32  C   UNL A   1      41.307  23.603  28.016  1.00  0.00     0.010 A 
ATOM     33  C   UNL A   1      40.845  24.817  27.473  1.00  0.00    -0.014 A 
BRANCH  33  34
ATOM     34  C   UNL A   1      41.553  26.099  27.753  1.00  0.00     0.031 A 
ATOM     35  C   UNL A   1      40.897  27.147  28.617  1.00  0.00     0.074 A 
ATOM     36  C   UNL A   1      42.800  26.316  27.289  1.00  0.00     0.049 A 
ATOM     37  N   UNL A   1      41.270  28.381  28.853  1.00  0.00    -0.248 NA
ATOM     38  C   UNL A   1      39.654  26.758  29.304  1.00  0.00     0.031 C 
ATOM     39  C   UNL A   1      43.589  25.366  26.505  1.00  0.00     0.029 A 
ATOM     40  N   UNL A   1      43.634  27.400  27.429  1.00  0.00    -0.354 N 
ATOM     41  C   UNL A   1      40.287  28.925  29.670  1.00  0.00     0.074 A 
ATOM     42  C   UNL A   1      39.299  27.893  29.891  1.00  0.00     0.031 C 
ATOM     43  C   UNL A   1      44.807  25.884  26.281  1.00  0.00     0.029 A 
ATOM     44  C   UNL A   1      44.859  27.236  26.829  1.00  0.00     0.049 A 
ATOM     45  H   UNL A   1      43.376  28.219  27.912  1.00  0.00     0.167 HD
ATOM     46  C   UNL A   1      40.219  30.174  30.189  1.00  0.00     0.037 A 
ATOM     47  C   UNL A   1      45.895  28.087  26.706  1.00  0.00     0.037 A 
ATOM     48  C   UNL A   1      41.232  31.183  30.023  1.00  0.00     0.049 A 
ATOM     49  C   UNL A   1      45.774  29.483  27.252  1.00  0.00     0.074 A 
ATOM     50  C   UNL A   1      41.238  32.484  30.494  1.00  0.00     0.029 A 
ATOM     51  N   UNL A   1      42.433  30.993  29.358  1.00  0.00    -0.354 N 
ATOM     52  N   UNL A   1      44.794  30.021  27.936  1.00  0.00    -0.248 NA
ATOM     53  C   UNL A   1      46.891  30.402  26.979  1.00  0.00     0.031 C 
ATOM     54  C   UNL A   1      42.436  33.088  30.098  1.00  0.00     0.029 A 
ATOM     55  C   UNL A   1      43.187  32.153  29.407  1.00  0.00     0.049 A 
ATOM     56  H   UNL A   1      42.709  30.157  28.916  1.00  0.00     0.167 HD
ATOM     57  C   UNL A   1      45.178  31.332  28.182  1.00  0.00     0.074 A 
ATOM     58  C   UNL A   1      46.488  31.506  27.594  1.00  0.00     0.031 C 
ATOM     59  C   UNL A   1      44.495  32.306  28.830  1.00  0.00     0.037 A 
BRANCH  46  60
ATOM     60  C   UNL A   1      39.003  30.542  30.984  1.00  0.00     0.064 A 
ATOM     61  C   UNL A   1      37.901  31.137  30.350  1.00  0.00     0.173 A 
ATOM     62  C   UNL A   1      38.963  30.397  32.377  1.00  0.00     0.173 A 
ATOM     63  F   UNL A   1      37.896  31.304  29.019  1.00  0.00    -0.203 F 
ATOM     64  C   UNL A   1      36.811  31.592  31.087  1.00  0.00     0.198 A 
ATOM     65  C   UNL A   1      37.861  30.833  33.108  1.00  0.00     0.198 A 
ATOM     66  F   UNL A   1      39.988  29.823  33.025  1.00  0.00    -0.203 F 
ATOM     67  F   UNL A   1      35.785  32.191  30.465  1.00  0.00    -0.200 F 
ATOM     68  C   UNL A   1      36.791  31.439  32.465  1.00  0.00     0.200 A 
ATOM     69  F   UNL A   1      37.834  30.669  34.438  1.00  0.00    -0.200 F 
ATOM     70  F   UNL A   1      35.742  31.878  33.174  1.00  0.00    -0.200 F 
ENDBRANCH  46  60
BRANCH  47  71
ATOM     71  C   UNL A   1      47.136  27.653  26.010  1.00  0.00     0.064 A 
ATOM     72  C   UNL A   1      47.251  27.707  24.614  1.00  0.00     0.173 A 
ATOM     73  C   UNL A   1      48.236  27.177  26.737  1.00  0.00     0.173 A 
ATOM     74  F   UNL A   1      46.230  28.162  23.872  1.00  0.00    -0.203 F 
ATOM     75  C   UNL A   1      48.408  27.276  23.969  1.00  0.00     0.198 A 
ATOM     76  C   UNL A   1      49.405  26.776  26.094  1.00  0.00     0.198 A 
ATOM     77  F   UNL A   1      48.186  27.138  28.077  1.00  0.00    -0.203 F 
ATOM     78  F   UNL A   1      48.479  27.309  22.632  1.00  0.00    -0.200 F 
ATOM     79  C   UNL A   1      49.486  26.817  24.709  1.00  0.00     0.200 A 
ATOM     80  F   UNL A   1      50.455  26.361  26.815  1.00  0.00    -0.200 F 
ATOM     81  F   UNL A   1      50.607  26.422  24.091  1.00  0.00    -0.200 F 
ENDBRANCH  47  71
BRANCH  59  82
ATOM     82  C   UNL A   1      45.155  33.646  28.960  1.00  0.00     0.064 A 
ATOM     83  C   UNL A   1      44.968  34.629  27.977  1.00  0.00     0.173 A 
ATOM     84  C   UNL A   1      46.031  33.926  30.019  1.00  0.00     0.173 A 
ATOM     85  F   UNL A   1      44.146  34.402  26.942  1.00  0.00    -0.203 F 
ATOM     86  C   UNL A   1      45.647  35.842  28.044  1.00  0.00     0.198 A 
ATOM     87  C   UNL A   1      46.691  35.150  30.093  1.00  0.00     0.198 A 
ATOM     88  F   UNL A   1      46.229  33.020  30.987  1.00  0.00    -0.203 F 
ATOM     89  F   UNL A   1      45.475  36.757  27.080  1.00  0.00    -0.200 F 
ATOM     90  C   UNL A   1      46.505  36.102  29.102  1.00  0.00     0.200 A 
ATOM     91  F   UNL A   1      47.505  35.407  31.124  1.00  0.00    -0.200 F 
ATOM     92  F   UNL A   1      47.154  37.273  29.168  1.00  0.00    -0.200 F 
ENDBRANCH  59  82
ENDBRANCH  33  34
ENDBRANCH  26  28
ENDBRANCH  25  26
ENDBRANCH  24  25
ENDBRANCH   1  24
TORSDOF 13
ENDMDL
