MODEL 1
REMARK VINA RESULT:     -13.1      0.000      0.000
REMARK SMILES CC(C)(C)c1cc(Nc2ccccc2C(=O)OCCOC(=O)c2ccc(-c3c4nc(c(-c5c(F)c(F)c(F)c(F)c5F)c5ccc([nH]5)c(-c5c(F)c(F)c(F)c(F)c5F)c5nc(c(-c6c(F)c(F)c(F)c(F)c6F)c6ccc3[nH]6)C=C5)C=C4)cc2)cc2c1OCC2(C)C
REMARK SMILES IDX 18 1 17 2 15 3 16 4 14 5 9 6 10 7 11 8 13 9 12 10 8 11 7 13
REMARK SMILES IDX 5 14 6 15 88 16 87 17 89 18 86 19 91 20 90 21 92 22 93 23
REMARK SMILES IDX 2 24 1 25 3 26 4 27 19 28 20 29 21 30 22 31 23 32 24 33
REMARK SMILES IDX 85 34 25 35 84 36 26 37 27 38 28 39 78 40 29 41 83 42 77 43
REMARK SMILES IDX 79 44 30 45 82 46 76 47 75 48 31 50 63 51 43 52 62 53 44 54
REMARK SMILES IDX 47 55 61 56 80 57 45 58 46 59 60 61 81 62 48 63 32 64 33 65
REMARK SMILES IDX 41 66 34 67 35 68 39 69 42 70 36 71 37 72 40 73 38 74 64 75
REMARK SMILES IDX 65 76 73 77 66 78 67 79 71 80 74 81 68 82 69 83 72 84 70 85
REMARK SMILES IDX 49 86 50 87 58 88 51 89 52 90 56 91 59 92 53 93 54 94 57 95
REMARK SMILES IDX 55 96
REMARK H PARENT 8 12 79 49 47 60
REMARK Flexibility Score: inf
ROOT
ATOM      1  C   UNL A   1      42.282  19.256  26.764  1.00  0.00     0.275 C 
ENDROOT
BRANCH   1   2
ATOM      2  O   UNL A   1      41.550  20.325  26.132  1.00  0.00    -0.458 OA
BRANCH   2   3
ATOM      3  C   UNL A   1      40.222  20.150  25.931  1.00  0.00     0.340 C 
ATOM      4  O   UNL A   1      39.674  19.085  25.686  1.00  0.00    -0.246 OA
BRANCH   3   5
ATOM      5  C   UNL A   1      39.459  21.419  26.134  1.00  0.00     0.083 A 
ATOM      6  C   UNL A   1      38.187  21.682  25.590  1.00  0.00     0.053 A 
ATOM      7  C   UNL A   1      37.628  22.961  25.800  1.00  0.00     0.027 A 
ATOM      8  C   UNL A   1      38.320  23.968  26.474  1.00  0.00     0.002 A 
ATOM      9  C   UNL A   1      40.116  22.423  26.876  1.00  0.00     0.018 A 
ATOM     10  C   UNL A   1      39.570  23.699  27.013  1.00  0.00     0.001 A 
BRANCH   6  11
ATOM     11  N   UNL A   1      37.509  20.757  24.767  1.00  0.00    -0.355 N 
ATOM     12  H   UNL A   1      38.062  20.299  24.093  1.00  0.00     0.167 HD
BRANCH  11  13
ATOM     13  C   UNL A   1      36.146  20.400  24.784  1.00  0.00     0.039 A 
ATOM     14  C   UNL A   1      33.772  21.125  24.703  1.00  0.00     0.002 A 
ATOM     15  C   UNL A   1      35.159  21.409  24.762  1.00  0.00     0.034 A 
ATOM     16  C   UNL A   1      33.444  19.774  24.577  1.00  0.00     0.127 A 
ATOM     17  C   UNL A   1      34.400  18.772  24.615  1.00  0.00     0.006 A 
ATOM     18  O   UNL A   1      32.187  19.280  24.348  1.00  0.00    -0.492 OA
ATOM     19  C   UNL A   1      35.741  19.069  24.750  1.00  0.00     0.034 A 
ATOM     20  C   UNL A   1      33.790  17.429  24.409  1.00  0.00     0.028 C 
ATOM     21  C   UNL A   1      32.307  17.839  24.398  1.00  0.00     0.240 C 
ATOM     22  C   UNL A   1      34.238  16.839  23.065  1.00  0.00     0.020 C 
ATOM     23  C   UNL A   1      34.108  16.456  25.546  1.00  0.00     0.020 C 
BRANCH  14  24
ATOM     24  C   UNL A   1      32.727  22.254  24.723  1.00  0.00    -0.009 C 
ATOM     25  C   UNL A   1      31.600  21.999  25.756  1.00  0.00     0.016 C 
ATOM     26  C   UNL A   1      32.010  22.435  23.364  1.00  0.00     0.016 C 
ATOM     27  C   UNL A   1      33.436  23.569  25.095  1.00  0.00     0.016 C 
ENDBRANCH  14  24
ENDBRANCH  11  13
ENDBRANCH   6  11
ENDBRANCH   3   5
ENDBRANCH   2   3
ENDBRANCH   1   2
BRANCH   1  28
ATOM     28  C   UNL A   1      43.148  18.505  25.750  1.00  0.00     0.275 C 
BRANCH  28  29
ATOM     29  O   UNL A   1      43.404  19.330  24.599  1.00  0.00    -0.458 OA
BRANCH  29  30
ATOM     30  C   UNL A   1      44.698  19.651  24.382  1.00  0.00     0.338 C 
ATOM     31  O   UNL A   1      45.553  18.986  23.816  1.00  0.00    -0.246 OA
BRANCH  30  32
ATOM     32  C   UNL A   1      44.899  21.050  24.780  1.00  0.00     0.060 A 
ATOM     33  C   UNL A   1      44.667  22.115  23.911  1.00  0.00     0.016 A 
ATOM     34  C   UNL A   1      45.309  21.284  26.092  1.00  0.00     0.016 A 
ATOM     35  C   UNL A   1      44.882  23.422  24.364  1.00  0.00     0.010 A 
ATOM     36  C   UNL A   1      45.519  22.582  26.546  1.00  0.00     0.010 A 
ATOM     37  C   UNL A   1      45.317  23.665  25.683  1.00  0.00    -0.014 A 
BRANCH  37  38
ATOM     38  C   UNL A   1      45.508  25.048  26.189  1.00  0.00     0.031 A 
ATOM     39  C   UNL A   1      46.857  25.709  26.150  1.00  0.00     0.074 A 
ATOM     40  C   UNL A   1      44.462  25.688  26.746  1.00  0.00     0.049 A 
ATOM     41  N   UNL A   1      47.193  26.921  26.520  1.00  0.00    -0.248 NA
ATOM     42  C   UNL A   1      47.981  24.901  25.654  1.00  0.00     0.031 C 
ATOM     43  C   UNL A   1      43.127  25.118  26.924  1.00  0.00     0.029 A 
ATOM     44  N   UNL A   1      44.358  26.955  27.263  1.00  0.00    -0.354 N 
ATOM     45  C   UNL A   1      48.560  27.020  26.298  1.00  0.00     0.074 A 
ATOM     46  C   UNL A   1      49.004  25.729  25.817  1.00  0.00     0.031 C 
ATOM     47  C   UNL A   1      42.324  26.046  27.467  1.00  0.00     0.029 A 
ATOM     48  C   UNL A   1      43.092  27.267  27.696  1.00  0.00     0.049 A 
ATOM     49  H   UNL A   1      45.116  27.580  27.318  1.00  0.00     0.167 HD
ATOM     50  C   UNL A   1      49.364  28.101  26.452  1.00  0.00     0.037 A 
ATOM     51  C   UNL A   1      42.601  28.414  28.202  1.00  0.00     0.037 A 
ATOM     52  C   UNL A   1      48.913  29.388  26.915  1.00  0.00     0.049 A 
ATOM     53  C   UNL A   1      43.508  29.605  28.342  1.00  0.00     0.074 A 
ATOM     54  C   UNL A   1      49.637  30.562  27.038  1.00  0.00     0.029 A 
ATOM     55  N   UNL A   1      47.622  29.670  27.335  1.00  0.00    -0.354 N 
ATOM     56  N   UNL A   1      44.778  29.717  28.041  1.00  0.00    -0.248 NA
ATOM     57  C   UNL A   1      42.911  30.832  28.888  1.00  0.00     0.031 C 
ATOM     58  C   UNL A   1      48.795  31.543  27.570  1.00  0.00     0.029 A 
ATOM     59  C   UNL A   1      47.533  30.995  27.735  1.00  0.00     0.049 A 
ATOM     60  H   UNL A   1      46.878  29.025  27.347  1.00  0.00     0.167 HD
ATOM     61  C   UNL A   1      45.128  31.026  28.339  1.00  0.00     0.074 A 
ATOM     62  C   UNL A   1      43.930  31.678  28.829  1.00  0.00     0.031 C 
ATOM     63  C   UNL A   1      46.336  31.630  28.222  1.00  0.00     0.037 A 
BRANCH  50  64
ATOM     64  C   UNL A   1      50.813  27.956  26.083  1.00  0.00     0.064 A 
ATOM     65  C   UNL A   1      51.784  27.663  27.054  1.00  0.00     0.173 A 
ATOM     66  C   UNL A   1      51.225  28.027  24.744  1.00  0.00     0.173 A 
ATOM     67  F   UNL A   1      51.443  27.587  28.349  1.00  0.00    -0.203 F 
ATOM     68  C   UNL A   1      53.116  27.466  26.699  1.00  0.00     0.198 A 
ATOM     69  C   UNL A   1      52.553  27.800  24.390  1.00  0.00     0.198 A 
ATOM     70  F   UNL A   1      50.337  28.290  23.775  1.00  0.00    -0.203 F 
ATOM     71  F   UNL A   1      54.031  27.220  27.647  1.00  0.00    -0.200 F 
ATOM     72  C   UNL A   1      53.498  27.526  25.367  1.00  0.00     0.200 A 
ATOM     73  F   UNL A   1      52.919  27.840  23.101  1.00  0.00    -0.200 F 
ATOM     74  F   UNL A   1      54.778  27.317  25.026  1.00  0.00    -0.200 F 
ENDBRANCH  50  64
BRANCH  51  75
ATOM     75  C   UNL A   1      41.158  28.503  28.541  1.00  0.00     0.064 A 
ATOM     76  C   UNL A   1      40.700  28.128  29.811  1.00  0.00     0.173 A 
ATOM     77  C   UNL A   1      40.219  28.998  27.626  1.00  0.00     0.173 A 
ATOM     78  F   UNL A   1      41.561  27.632  30.713  1.00  0.00    -0.203 F 
ATOM     79  C   UNL A   1      39.354  28.236  30.151  1.00  0.00     0.198 A 
ATOM     80  C   UNL A   1      38.876  29.129  27.975  1.00  0.00     0.198 A 
ATOM     81  F   UNL A   1      40.609  29.376  26.399  1.00  0.00    -0.203 F 
ATOM     82  F   UNL A   1      38.937  27.843  31.362  1.00  0.00    -0.200 F 
ATOM     83  C   UNL A   1      38.444  28.745  29.236  1.00  0.00     0.200 A 
ATOM     84  F   UNL A   1      38.003  29.636  27.094  1.00  0.00    -0.200 F 
ATOM     85  F   UNL A   1      37.152  28.863  29.569  1.00  0.00    -0.200 F 
ENDBRANCH  51  75
BRANCH  63  86
ATOM     86  C   UNL A   1      46.429  33.074  28.624  1.00  0.00     0.064 A 
ATOM     87  C   UNL A   1      46.787  33.449  29.927  1.00  0.00     0.173 A 
ATOM     88  C   UNL A   1      46.223  34.092  27.678  1.00  0.00     0.173 A 
ATOM     89  F   UNL A   1      46.981  32.514  30.868  1.00  0.00    -0.203 F 
ATOM     90  C   UNL A   1      46.920  34.791  30.273  1.00  0.00     0.198 A 
ATOM     91  C   UNL A   1      46.384  35.431  28.022  1.00  0.00     0.198 A 
ATOM     92  F   UNL A   1      45.886  33.785  26.417  1.00  0.00    -0.203 F 
ATOM     93  F   UNL A   1      47.228  35.128  31.533  1.00  0.00    -0.200 F 
ATOM     94  C   UNL A   1      46.728  35.779  29.319  1.00  0.00     0.200 A 
ATOM     95  F   UNL A   1      46.213  36.384  27.096  1.00  0.00    -0.200 F 
ATOM     96  F   UNL A   1      46.871  37.070  29.652  1.00  0.00    -0.200 F 
ENDBRANCH  63  86
ENDBRANCH  37  38
ENDBRANCH  30  32
ENDBRANCH  29  30
ENDBRANCH  28  29
ENDBRANCH   1  28
TORSDOF 14
ENDMDL
MODEL 2
REMARK VINA RESULT:     -12.9      0.433      2.116
REMARK SMILES CC(C)(C)c1cc(Nc2ccccc2C(=O)OCCOC(=O)c2ccc(-c3c4nc(c(-c5c(F)c(F)c(F)c(F)c5F)c5ccc([nH]5)c(-c5c(F)c(F)c(F)c(F)c5F)c5nc(c(-c6c(F)c(F)c(F)c(F)c6F)c6ccc3[nH]6)C=C5)C=C4)cc2)cc2c1OCC2(C)C
REMARK SMILES IDX 18 1 17 2 15 3 16 4 14 5 9 6 10 7 11 8 13 9 12 10 8 11 7 13
REMARK SMILES IDX 5 14 6 15 88 16 87 17 89 18 86 19 91 20 90 21 92 22 93 23
REMARK SMILES IDX 2 24 1 25 3 26 4 27 19 28 20 29 21 30 22 31 23 32 24 33
REMARK SMILES IDX 85 34 25 35 84 36 26 37 27 38 28 39 78 40 29 41 83 42 77 43
REMARK SMILES IDX 79 44 30 45 82 46 76 47 75 48 31 50 63 51 43 52 62 53 44 54
REMARK SMILES IDX 47 55 61 56 80 57 45 58 46 59 60 61 81 62 48 63 32 64 33 65
REMARK SMILES IDX 41 66 34 67 35 68 39 69 42 70 36 71 37 72 40 73 38 74 64 75
REMARK SMILES IDX 65 76 73 77 66 78 67 79 71 80 74 81 68 82 69 83 72 84 70 85
REMARK SMILES IDX 49 86 50 87 58 88 51 89 52 90 56 91 59 92 53 93 54 94 57 95
REMARK SMILES IDX 55 96
REMARK H PARENT 8 12 79 49 47 60
REMARK Flexibility Score: inf
ROOT
ATOM      1  C   UNL A   1      42.293  19.294  26.718  1.00  0.00     0.275 C 
ENDROOT
BRANCH   1   2
ATOM      2  O   UNL A   1      41.581  20.384  26.100  1.00  0.00    -0.458 OA
BRANCH   2   3
ATOM      3  C   UNL A   1      40.246  20.246  25.917  1.00  0.00     0.340 C 
ATOM      4  O   UNL A   1      39.668  19.200  25.665  1.00  0.00    -0.246 OA
BRANCH   3   5
ATOM      5  C   UNL A   1      39.520  21.531  26.153  1.00  0.00     0.083 A 
ATOM      6  C   UNL A   1      38.200  21.791  25.734  1.00  0.00     0.053 A 
ATOM      7  C   UNL A   1      37.677  23.083  25.956  1.00  0.00     0.027 A 
ATOM      8  C   UNL A   1      38.443  24.104  26.519  1.00  0.00     0.002 A 
ATOM      9  C   UNL A   1      40.258  22.552  26.788  1.00  0.00     0.018 A 
ATOM     10  C   UNL A   1      39.740  23.838  26.935  1.00  0.00     0.001 A 
BRANCH   6  11
ATOM     11  N   UNL A   1      37.433  20.846  25.019  1.00  0.00    -0.355 N 
ATOM     12  H   UNL A   1      37.945  20.176  24.511  1.00  0.00     0.167 HD
BRANCH  11  13
ATOM     13  C   UNL A   1      36.030  20.735  24.937  1.00  0.00     0.039 A 
ATOM     14  C   UNL A   1      34.041  19.281  24.622  1.00  0.00     0.002 A 
ATOM     15  C   UNL A   1      35.444  19.484  24.649  1.00  0.00     0.034 A 
ATOM     16  C   UNL A   1      33.272  20.386  24.991  1.00  0.00     0.127 A 
ATOM     17  C   UNL A   1      33.832  21.624  25.259  1.00  0.00     0.006 A 
ATOM     18  O   UNL A   1      31.916  20.379  25.188  1.00  0.00    -0.492 OA
ATOM     19  C   UNL A   1      35.197  21.818  25.203  1.00  0.00     0.034 A 
ATOM     20  C   UNL A   1      32.798  22.612  25.675  1.00  0.00     0.028 C 
ATOM     21  C   UNL A   1      31.541  21.752  25.450  1.00  0.00     0.240 C 
ATOM     22  C   UNL A   1      32.983  22.990  27.151  1.00  0.00     0.020 C 
ATOM     23  C   UNL A   1      32.797  23.869  24.802  1.00  0.00     0.020 C 
BRANCH  14  24
ATOM     24  C   UNL A   1      33.442  17.910  24.263  1.00  0.00    -0.009 C 
ATOM     25  C   UNL A   1      32.592  17.317  25.415  1.00  0.00     0.016 C 
ATOM     26  C   UNL A   1      34.520  16.845  23.953  1.00  0.00     0.016 C 
ATOM     27  C   UNL A   1      32.536  18.080  23.031  1.00  0.00     0.016 C 
ENDBRANCH  14  24
ENDBRANCH  11  13
ENDBRANCH   6  11
ENDBRANCH   3   5
ENDBRANCH   2   3
ENDBRANCH   1   2
BRANCH   1  28
ATOM     28  C   UNL A   1      43.159  18.551  25.698  1.00  0.00     0.275 C 
BRANCH  28  29
ATOM     29  O   UNL A   1      43.438  19.395  24.567  1.00  0.00    -0.458 OA
BRANCH  29  30
ATOM     30  C   UNL A   1      44.736  19.714  24.377  1.00  0.00     0.338 C 
ATOM     31  O   UNL A   1      45.602  19.048  23.829  1.00  0.00    -0.246 OA
BRANCH  30  32
ATOM     32  C   UNL A   1      44.931  21.112  24.779  1.00  0.00     0.060 A 
ATOM     33  C   UNL A   1      44.635  22.181  23.934  1.00  0.00     0.016 A 
ATOM     34  C   UNL A   1      45.402  21.341  26.071  1.00  0.00     0.016 A 
ATOM     35  C   UNL A   1      44.849  23.487  24.390  1.00  0.00     0.010 A 
ATOM     36  C   UNL A   1      45.611  22.639  26.527  1.00  0.00     0.010 A 
ATOM     37  C   UNL A   1      45.345  23.727  25.687  1.00  0.00    -0.014 A 
BRANCH  37  38
ATOM     38  C   UNL A   1      45.535  25.107  26.198  1.00  0.00     0.031 A 
ATOM     39  C   UNL A   1      46.882  25.771  26.155  1.00  0.00     0.074 A 
ATOM     40  C   UNL A   1      44.490  25.744  26.762  1.00  0.00     0.049 A 
ATOM     41  N   UNL A   1      47.217  26.983  26.529  1.00  0.00    -0.248 NA
ATOM     42  C   UNL A   1      48.006  24.968  25.652  1.00  0.00     0.031 C 
ATOM     43  C   UNL A   1      43.157  25.170  26.943  1.00  0.00     0.029 A 
ATOM     44  N   UNL A   1      44.385  27.008  27.284  1.00  0.00    -0.354 N 
ATOM     45  C   UNL A   1      48.583  27.086  26.301  1.00  0.00     0.074 A 
ATOM     46  C   UNL A   1      49.028  25.798  25.814  1.00  0.00     0.031 C 
ATOM     47  C   UNL A   1      42.355  26.094  27.493  1.00  0.00     0.029 A 
ATOM     48  C   UNL A   1      43.121  27.316  27.724  1.00  0.00     0.049 A 
ATOM     49  H   UNL A   1      45.142  27.634  27.338  1.00  0.00     0.167 HD
ATOM     50  C   UNL A   1      49.385  28.168  26.456  1.00  0.00     0.037 A 
ATOM     51  C   UNL A   1      42.630  28.460  28.236  1.00  0.00     0.037 A 
ATOM     52  C   UNL A   1      48.934  29.452  26.926  1.00  0.00     0.049 A 
ATOM     53  C   UNL A   1      43.535  29.652  28.377  1.00  0.00     0.074 A 
ATOM     54  C   UNL A   1      49.656  30.627  27.050  1.00  0.00     0.029 A 
ATOM     55  N   UNL A   1      47.644  29.730  27.352  1.00  0.00    -0.354 N 
ATOM     56  N   UNL A   1      44.803  29.768  28.070  1.00  0.00    -0.248 NA
ATOM     57  C   UNL A   1      42.937  30.876  28.930  1.00  0.00     0.031 C 
ATOM     58  C   UNL A   1      48.814  31.605  27.590  1.00  0.00     0.029 A 
ATOM     59  C   UNL A   1      47.554  31.053  27.757  1.00  0.00     0.049 A 
ATOM     60  H   UNL A   1      46.901  29.083  27.365  1.00  0.00     0.167 HD
ATOM     61  C   UNL A   1      45.152  31.077  28.372  1.00  0.00     0.074 A 
ATOM     62  C   UNL A   1      43.954  31.724  28.869  1.00  0.00     0.031 C 
ATOM     63  C   UNL A   1      46.358  31.684  28.253  1.00  0.00     0.037 A 
BRANCH  50  64
ATOM     64  C   UNL A   1      50.833  28.027  26.080  1.00  0.00     0.064 A 
ATOM     65  C   UNL A   1      51.808  27.725  27.044  1.00  0.00     0.173 A 
ATOM     66  C   UNL A   1      51.240  28.112  24.740  1.00  0.00     0.173 A 
ATOM     67  F   UNL A   1      51.472  27.636  28.339  1.00  0.00    -0.203 F 
ATOM     68  C   UNL A   1      53.139  27.532  26.683  1.00  0.00     0.198 A 
ATOM     69  C   UNL A   1      52.567  27.890  24.379  1.00  0.00     0.198 A 
ATOM     70  F   UNL A   1      50.348  28.385  23.777  1.00  0.00    -0.203 F 
ATOM     71  F   UNL A   1      54.057  27.277  27.625  1.00  0.00    -0.200 F 
ATOM     72  C   UNL A   1      53.515  27.606  25.350  1.00  0.00     0.200 A 
ATOM     73  F   UNL A   1      52.928  27.943  23.089  1.00  0.00    -0.200 F 
ATOM     74  F   UNL A   1      54.794  27.401  25.002  1.00  0.00    -0.200 F 
ENDBRANCH  50  64
BRANCH  51  75
ATOM     75  C   UNL A   1      41.188  28.545  28.581  1.00  0.00     0.064 A 
ATOM     76  C   UNL A   1      40.738  28.182  29.859  1.00  0.00     0.173 A 
ATOM     77  C   UNL A   1      40.241  29.023  27.665  1.00  0.00     0.173 A 
ATOM     78  F   UNL A   1      41.607  27.702  30.762  1.00  0.00    -0.203 F 
ATOM     79  C   UNL A   1      39.393  28.286  30.204  1.00  0.00     0.198 A 
ATOM     80  C   UNL A   1      38.899  29.151  28.020  1.00  0.00     0.198 A 
ATOM     81  F   UNL A   1      40.623  29.389  26.433  1.00  0.00    -0.203 F 
ATOM     82  F   UNL A   1      38.986  27.905  31.422  1.00  0.00    -0.200 F 
ATOM     83  C   UNL A   1      38.476  28.779  29.288  1.00  0.00     0.200 A 
ATOM     84  F   UNL A   1      38.018  29.642  27.138  1.00  0.00    -0.200 F 
ATOM     85  F   UNL A   1      37.186  28.894  29.626  1.00  0.00    -0.200 F 
ENDBRANCH  51  75
BRANCH  63  86
ATOM     86  C   UNL A   1      46.449  33.126  28.659  1.00  0.00     0.064 A 
ATOM     87  C   UNL A   1      46.183  34.160  27.750  1.00  0.00     0.173 A 
ATOM     88  C   UNL A   1      46.741  33.476  29.988  1.00  0.00     0.173 A 
ATOM     89  F   UNL A   1      45.914  33.877  26.467  1.00  0.00    -0.203 F 
ATOM     90  C   UNL A   1      46.221  35.492  28.152  1.00  0.00     0.198 A 
ATOM     91  C   UNL A   1      46.750  34.808  30.391  1.00  0.00     0.198 A 
ATOM     92  F   UNL A   1      46.995  32.524  30.897  1.00  0.00    -0.203 F 
ATOM     93  F   UNL A   1      45.998  36.466  27.258  1.00  0.00    -0.200 F 
ATOM     94  C   UNL A   1      46.494  35.815  29.473  1.00  0.00     0.200 A 
ATOM     95  F   UNL A   1      47.000  35.117  31.671  1.00  0.00    -0.200 F 
ATOM     96  F   UNL A   1      46.516  37.098  29.860  1.00  0.00    -0.200 F 
ENDBRANCH  63  86
ENDBRANCH  37  38
ENDBRANCH  30  32
ENDBRANCH  29  30
ENDBRANCH  28  29
ENDBRANCH   1  28
TORSDOF 14
ENDMDL
MODEL 3
REMARK VINA RESULT:     -12.8      7.871     13.028
REMARK SMILES CC(C)(C)c1cc(Nc2ccccc2C(=O)OCCOC(=O)c2ccc(-c3c4nc(c(-c5c(F)c(F)c(F)c(F)c5F)c5ccc([nH]5)c(-c5c(F)c(F)c(F)c(F)c5F)c5nc(c(-c6c(F)c(F)c(F)c(F)c6F)c6ccc3[nH]6)C=C5)C=C4)cc2)cc2c1OCC2(C)C
REMARK SMILES IDX 18 1 17 2 15 3 16 4 14 5 9 6 10 7 11 8 13 9 12 10 8 11 7 13
REMARK SMILES IDX 5 14 6 15 88 16 87 17 89 18 86 19 91 20 90 21 92 22 93 23
REMARK SMILES IDX 2 24 1 25 3 26 4 27 19 28 20 29 21 30 22 31 23 32 24 33
REMARK SMILES IDX 85 34 25 35 84 36 26 37 27 38 28 39 78 40 29 41 83 42 77 43
REMARK SMILES IDX 79 44 30 45 82 46 76 47 75 48 31 50 63 51 43 52 62 53 44 54
REMARK SMILES IDX 47 55 61 56 80 57 45 58 46 59 60 61 81 62 48 63 32 64 33 65
REMARK SMILES IDX 41 66 34 67 35 68 39 69 42 70 36 71 37 72 40 73 38 74 64 75
REMARK SMILES IDX 65 76 73 77 66 78 67 79 71 80 74 81 68 82 69 83 72 84 70 85
REMARK SMILES IDX 49 86 50 87 58 88 51 89 52 90 56 91 59 92 53 93 54 94 57 95
REMARK SMILES IDX 55 96
REMARK H PARENT 8 12 79 49 47 60
REMARK Flexibility Score: inf
ROOT
ATOM      1  C   UNL A   1      33.824  35.368  28.745  1.00  0.00     0.275 C 
ENDROOT
BRANCH   1   2
ATOM      2  O   UNL A   1      33.687  33.945  28.929  1.00  0.00    -0.458 OA
BRANCH   2   3
ATOM      3  C   UNL A   1      33.082  33.235  27.946  1.00  0.00     0.340 C 
ATOM      4  O   UNL A   1      32.115  33.604  27.296  1.00  0.00    -0.246 OA
BRANCH   3   5
ATOM      5  C   UNL A   1      33.796  31.952  27.671  1.00  0.00     0.083 A 
ATOM      6  C   UNL A   1      33.199  30.814  27.096  1.00  0.00     0.053 A 
ATOM      7  C   UNL A   1      33.980  29.645  26.974  1.00  0.00     0.027 A 
ATOM      8  C   UNL A   1      35.289  29.578  27.452  1.00  0.00     0.002 A 
ATOM      9  C   UNL A   1      35.144  31.893  28.084  1.00  0.00     0.018 A 
ATOM     10  C   UNL A   1      35.873  30.707  28.011  1.00  0.00     0.001 A 
BRANCH   6  11
ATOM     11  N   UNL A   1      31.833  30.774  26.738  1.00  0.00    -0.355 N 
ATOM     12  H   UNL A   1      31.206  31.137  27.404  1.00  0.00     0.167 HD
BRANCH  11  13
ATOM     13  C   UNL A   1      31.250  30.284  25.551  1.00  0.00     0.039 A 
ATOM     14  C   UNL A   1      30.904  28.378  23.998  1.00  0.00     0.002 A 
ATOM     15  C   UNL A   1      31.512  28.961  25.138  1.00  0.00     0.034 A 
ATOM     16  C   UNL A   1      29.953  29.173  23.356  1.00  0.00     0.127 A 
ATOM     17  C   UNL A   1      29.699  30.480  23.740  1.00  0.00     0.006 A 
ATOM     18  O   UNL A   1      29.133  28.764  22.338  1.00  0.00    -0.492 OA
ATOM     19  C   UNL A   1      30.360  31.053  24.807  1.00  0.00     0.034 A 
ATOM     20  C   UNL A   1      28.608  31.084  22.925  1.00  0.00     0.028 C 
ATOM     21  C   UNL A   1      28.398  29.939  21.919  1.00  0.00     0.240 C 
ATOM     22  C   UNL A   1      27.366  31.328  23.792  1.00  0.00     0.020 C 
ATOM     23  C   UNL A   1      29.036  32.382  22.236  1.00  0.00     0.020 C 
BRANCH  14  24
ATOM     24  C   UNL A   1      31.249  26.945  23.558  1.00  0.00    -0.009 C 
ATOM     25  C   UNL A   1      32.508  26.393  24.276  1.00  0.00     0.016 C 
ATOM     26  C   UNL A   1      31.555  26.836  22.046  1.00  0.00     0.016 C 
ATOM     27  C   UNL A   1      30.059  26.029  23.896  1.00  0.00     0.016 C 
ENDBRANCH  14  24
ENDBRANCH  11  13
ENDBRANCH   6  11
ENDBRANCH   3   5
ENDBRANCH   2   3
ENDBRANCH   1   2
BRANCH   1  28
ATOM     28  C   UNL A   1      32.920  36.139  29.710  1.00  0.00     0.275 C 
BRANCH  28  29
ATOM     29  O   UNL A   1      32.473  35.279  30.774  1.00  0.00    -0.458 OA
BRANCH  29  30
ATOM     30  C   UNL A   1      32.826  35.656  32.022  1.00  0.00     0.338 C 
ATOM     31  O   UNL A   1      32.211  36.379  32.792  1.00  0.00    -0.246 OA
BRANCH  30  32
ATOM     32  C   UNL A   1      34.020  34.896  32.413  1.00  0.00     0.060 A 
ATOM     33  C   UNL A   1      33.948  33.600  32.921  1.00  0.00     0.016 A 
ATOM     34  C   UNL A   1      35.255  35.515  32.227  1.00  0.00     0.016 A 
ATOM     35  C   UNL A   1      35.131  32.940  33.272  1.00  0.00     0.010 A 
ATOM     36  C   UNL A   1      36.433  34.859  32.571  1.00  0.00     0.010 A 
ATOM     37  C   UNL A   1      36.383  33.567  33.107  1.00  0.00    -0.014 A 
BRANCH  37  38
ATOM     38  C   UNL A   1      37.648  32.863  33.435  1.00  0.00     0.031 A 
ATOM     39  C   UNL A   1      38.399  33.167  34.699  1.00  0.00     0.074 A 
ATOM     40  C   UNL A   1      38.152  31.982  32.549  1.00  0.00     0.049 A 
ATOM     41  N   UNL A   1      39.502  32.623  35.156  1.00  0.00    -0.248 NA
ATOM     42  C   UNL A   1      37.862  34.237  35.553  1.00  0.00     0.031 C 
ATOM     43  C   UNL A   1      37.562  31.670  31.247  1.00  0.00     0.029 A 
ATOM     44  N   UNL A   1      39.272  31.191  32.608  1.00  0.00    -0.354 N 
ATOM     45  C   UNL A   1      39.784  33.279  36.347  1.00  0.00     0.074 A 
ATOM     46  C   UNL A   1      38.773  34.301  36.515  1.00  0.00     0.031 C 
ATOM     47  C   UNL A   1      38.299  30.721  30.650  1.00  0.00     0.029 A 
ATOM     48  C   UNL A   1      39.423  30.374  31.515  1.00  0.00     0.049 A 
ATOM     49  H   UNL A   1      39.905  31.207  33.361  1.00  0.00     0.167 HD
ATOM     50  C   UNL A   1      40.779  33.028  37.233  1.00  0.00     0.037 A 
ATOM     51  C   UNL A   1      40.353  29.437  31.248  1.00  0.00     0.037 A 
ATOM     52  C   UNL A   1      41.772  31.998  37.068  1.00  0.00     0.049 A 
ATOM     53  C   UNL A   1      41.433  29.163  32.257  1.00  0.00     0.074 A 
ATOM     54  C   UNL A   1      42.777  31.622  37.944  1.00  0.00     0.029 A 
ATOM     55  N   UNL A   1      41.888  31.182  35.953  1.00  0.00    -0.354 N 
ATOM     56  N   UNL A   1      41.636  29.723  33.424  1.00  0.00    -0.248 NA
ATOM     57  C   UNL A   1      42.410  28.119  31.915  1.00  0.00     0.031 C 
ATOM     58  C   UNL A   1      43.526  30.606  37.341  1.00  0.00     0.029 A 
ATOM     59  C   UNL A   1      42.960  30.317  36.109  1.00  0.00     0.049 A 
ATOM     60  H   UNL A   1      41.297  31.213  35.166  1.00  0.00     0.167 HD
ATOM     61  C   UNL A   1      42.748  29.091  33.964  1.00  0.00     0.074 A 
ATOM     62  C   UNL A   1      43.165  28.089  33.005  1.00  0.00     0.031 C 
ATOM     63  C   UNL A   1      43.367  29.326  35.146  1.00  0.00     0.037 A 
BRANCH  50  64
ATOM     64  C   UNL A   1      40.828  33.856  38.486  1.00  0.00     0.064 A 
ATOM     65  C   UNL A   1      41.651  34.989  38.576  1.00  0.00     0.173 A 
ATOM     66  C   UNL A   1      39.988  33.567  39.572  1.00  0.00     0.173 A 
ATOM     67  F   UNL A   1      42.474  35.308  37.567  1.00  0.00    -0.203 F 
ATOM     68  C   UNL A   1      41.646  35.791  39.715  1.00  0.00     0.198 A 
ATOM     69  C   UNL A   1      39.964  34.388  40.698  1.00  0.00     0.198 A 
ATOM     70  F   UNL A   1      39.171  32.504  39.534  1.00  0.00    -0.203 F 
ATOM     71  F   UNL A   1      42.464  36.849  39.791  1.00  0.00    -0.200 F 
ATOM     72  C   UNL A   1      40.796  35.495  40.770  1.00  0.00     0.200 A 
ATOM     73  F   UNL A   1      39.130  34.112  41.710  1.00  0.00    -0.200 F 
ATOM     74  F   UNL A   1      40.779  36.279  41.858  1.00  0.00    -0.200 F 
ENDBRANCH  50  64
BRANCH  51  75
ATOM     75  C   UNL A   1      40.250  28.642  29.998  1.00  0.00     0.064 A 
ATOM     76  C   UNL A   1      40.881  29.076  28.824  1.00  0.00     0.173 A 
ATOM     77  C   UNL A   1      39.559  27.424  29.958  1.00  0.00     0.173 A 
ATOM     78  F   UNL A   1      41.539  30.245  28.811  1.00  0.00    -0.203 F 
ATOM     79  C   UNL A   1      40.817  28.323  27.654  1.00  0.00     0.198 A 
ATOM     80  C   UNL A   1      39.516  26.660  28.794  1.00  0.00     0.198 A 
ATOM     81  F   UNL A   1      38.943  26.964  31.058  1.00  0.00    -0.203 F 
ATOM     82  F   UNL A   1      41.405  28.775  26.537  1.00  0.00    -0.200 F 
ATOM     83  C   UNL A   1      40.143  27.112  27.642  1.00  0.00     0.200 A 
ATOM     84  F   UNL A   1      38.878  25.482  28.789  1.00  0.00    -0.200 F 
ATOM     85  F   UNL A   1      40.095  26.382  26.520  1.00  0.00    -0.200 F 
ENDBRANCH  51  75
BRANCH  63  86
ATOM     86  C   UNL A   1      44.563  28.482  35.480  1.00  0.00     0.064 A 
ATOM     87  C   UNL A   1      45.858  28.870  35.109  1.00  0.00     0.173 A 
ATOM     88  C   UNL A   1      44.418  27.307  36.236  1.00  0.00     0.173 A 
ATOM     89  F   UNL A   1      46.046  29.977  34.375  1.00  0.00    -0.203 F 
ATOM     90  C   UNL A   1      46.964  28.105  35.469  1.00  0.00     0.198 A 
ATOM     91  C   UNL A   1      45.529  26.560  36.616  1.00  0.00     0.198 A 
ATOM     92  F   UNL A   1      43.202  26.896  36.621  1.00  0.00    -0.203 F 
ATOM     93  F   UNL A   1      48.190  28.477  35.074  1.00  0.00    -0.200 F 
ATOM     94  C   UNL A   1      46.800  26.958  36.230  1.00  0.00     0.200 A 
ATOM     95  F   UNL A   1      45.371  25.459  37.364  1.00  0.00    -0.200 F 
ATOM     96  F   UNL A   1      47.868  26.231  36.587  1.00  0.00    -0.200 F 
ENDBRANCH  63  86
ENDBRANCH  37  38
ENDBRANCH  30  32
ENDBRANCH  29  30
ENDBRANCH  28  29
ENDBRANCH   1  28
TORSDOF 14
ENDMDL
