MODEL 1
REMARK VINA RESULT:     -11.3      0.000      0.000
REMARK SMILES CC(C)C[C@@H](CNC(=O)[C@@H]1CCOC1)C(=O)OCCOC(=O)c1ccc(-c2c3nc(c(-c4c(F)c(F)c(F)c(F)c4F)c4ccc([nH]4)c(-c4c(F)c(F)c(F)c(F)c4F)c4nc(c(-c5c(F)c(F)c(F)c(F)c5F)c5ccc2[nH]5)C=C4)C=C3)cc1
REMARK SMILES IDX 18 1 17 2 15 3 16 4 5 5 4 6 2 7 1 8 3 9 6 10 7 11 8 12 9 14
REMARK SMILES IDX 10 15 11 16 14 17 12 18 13 19 19 20 20 21 21 22 22 23 23 24
REMARK SMILES IDX 24 25 85 26 25 27 84 28 26 29 27 30 28 31 78 32 29 33 83 34
REMARK SMILES IDX 77 35 79 36 30 37 82 38 76 39 75 40 31 42 63 43 43 44 62 45
REMARK SMILES IDX 44 46 47 47 61 48 80 49 45 50 46 51 60 53 81 54 48 55 32 56
REMARK SMILES IDX 33 57 41 58 34 59 35 60 39 61 42 62 36 63 37 64 40 65 38 66
REMARK SMILES IDX 64 67 65 68 73 69 66 70 67 71 71 72 74 73 68 74 69 75 72 76
REMARK SMILES IDX 70 77 49 78 50 79 58 80 51 81 52 82 56 83 59 84 53 85 54 86
REMARK SMILES IDX 57 87 55 88
REMARK H PARENT 7 13 79 41 47 52
REMARK Flexibility Score: inf
ROOT
ATOM      1  C   UNL A   1      36.130  20.267  24.980  1.00  0.00     0.274 C 
ENDROOT
BRANCH   1   2
ATOM      2  O   UNL A   1      35.605  21.370  25.750  1.00  0.00    -0.462 OA
BRANCH   2   3
ATOM      3  C   UNL A   1      34.381  21.186  26.302  1.00  0.00     0.310 C 
ATOM      4  O   UNL A   1      34.079  21.490  27.451  1.00  0.00    -0.252 OA
BRANCH   3   5
ATOM      5  C   UNL A   1      33.382  20.526  25.373  1.00  0.00     0.118 C 
BRANCH   5   6
ATOM      6  C   UNL A   1      32.915  19.131  25.823  1.00  0.00     0.020 C 
BRANCH   6   7
ATOM      7  C   UNL A   1      33.221  17.982  24.832  1.00  0.00    -0.017 C 
ATOM      8  C   UNL A   1      32.674  16.625  25.287  1.00  0.00     0.007 C 
ATOM      9  C   UNL A   1      32.633  18.316  23.457  1.00  0.00     0.007 C 
ENDBRANCH   6   7
ENDBRANCH   5   6
BRANCH   5  10
ATOM     10  C   UNL A   1      32.272  21.510  25.008  1.00  0.00     0.131 C 
BRANCH  10  11
ATOM     11  N   UNL A   1      31.473  21.984  26.120  1.00  0.00    -0.355 N 
ATOM     12  C   UNL A   1      30.933  23.192  26.414  1.00  0.00     0.225 C 
ATOM     13  H   UNL A   1      31.284  21.292  26.793  1.00  0.00     0.163 HD
ATOM     14  O   UNL A   1      30.193  23.222  27.405  1.00  0.00    -0.275 OA
BRANCH  12  15
ATOM     15  C   UNL A   1      31.237  24.498  25.689  1.00  0.00     0.106 C 
ATOM     16  C   UNL A   1      32.534  25.234  25.938  1.00  0.00     0.044 C 
ATOM     17  C   UNL A   1      30.147  25.528  25.900  1.00  0.00     0.173 C 
ATOM     18  C   UNL A   1      32.120  26.564  26.537  1.00  0.00     0.161 C 
ATOM     19  O   UNL A   1      30.771  26.792  26.137  1.00  0.00    -0.381 OA
ENDBRANCH  12  15
ENDBRANCH  10  11
ENDBRANCH   5  10
ENDBRANCH   3   5
ENDBRANCH   2   3
ENDBRANCH   1   2
BRANCH   1  20
ATOM     20  C   UNL A   1      37.661  20.227  24.966  1.00  0.00     0.275 C 
BRANCH  20  21
ATOM     21  O   UNL A   1      38.226  21.418  25.544  1.00  0.00    -0.458 OA
BRANCH  21  22
ATOM     22  C   UNL A   1      39.409  21.226  26.171  1.00  0.00     0.338 C 
ATOM     23  O   UNL A   1      40.140  20.254  26.083  1.00  0.00    -0.246 OA
BRANCH  22  24
ATOM     24  C   UNL A   1      39.820  22.447  26.884  1.00  0.00     0.060 A 
ATOM     25  C   UNL A   1      39.184  23.637  26.517  1.00  0.00     0.016 A 
ATOM     26  C   UNL A   1      40.873  22.459  27.801  1.00  0.00     0.016 A 
ATOM     27  C   UNL A   1      39.611  24.851  27.034  1.00  0.00     0.010 A 
ATOM     28  C   UNL A   1      41.321  23.686  28.307  1.00  0.00     0.010 A 
ATOM     29  C   UNL A   1      40.712  24.886  27.896  1.00  0.00    -0.014 A 
BRANCH  29  30
ATOM     30  C   UNL A   1      41.317  26.203  28.195  1.00  0.00     0.031 A 
ATOM     31  C   UNL A   1      42.701  26.491  27.686  1.00  0.00     0.074 A 
ATOM     32  C   UNL A   1      40.603  27.160  28.811  1.00  0.00     0.049 A 
ATOM     33  N   UNL A   1      43.417  27.581  27.791  1.00  0.00    -0.248 NA
ATOM     34  C   UNL A   1      43.368  25.402  26.952  1.00  0.00     0.031 C 
ATOM     35  C   UNL A   1      39.228  27.014  29.283  1.00  0.00     0.029 A 
ATOM     36  N   UNL A   1      40.935  28.452  29.127  1.00  0.00    -0.354 N 
ATOM     37  C   UNL A   1      44.617  27.305  27.151  1.00  0.00     0.074 A 
ATOM     38  C   UNL A   1      44.544  25.943  26.672  1.00  0.00     0.031 C 
ATOM     39  C   UNL A   1      38.829  28.176  29.825  1.00  0.00     0.029 A 
ATOM     40  C   UNL A   1      39.929  29.137  29.761  1.00  0.00     0.049 A 
ATOM     41  H   UNL A   1      41.811  28.851  28.919  1.00  0.00     0.167 HD
ATOM     42  C   UNL A   1      45.685  28.120  26.976  1.00  0.00     0.037 A 
ATOM     43  C   UNL A   1      39.909  30.394  30.241  1.00  0.00     0.037 A 
ATOM     44  C   UNL A   1      45.750  29.478  27.441  1.00  0.00     0.049 A 
ATOM     45  C   UNL A   1      41.128  31.265  30.073  1.00  0.00     0.074 A 
ATOM     46  C   UNL A   1      46.789  30.385  27.324  1.00  0.00     0.029 A 
ATOM     47  N   UNL A   1      44.724  30.126  28.114  1.00  0.00    -0.354 N 
ATOM     48  N   UNL A   1      42.263  30.995  29.475  1.00  0.00    -0.248 NA
ATOM     49  C   UNL A   1      41.058  32.617  30.645  1.00  0.00     0.031 C 
ATOM     50  C   UNL A   1      46.404  31.572  27.957  1.00  0.00     0.029 A 
ATOM     51  C   UNL A   1      45.110  31.419  28.430  1.00  0.00     0.049 A 
ATOM     52  H   UNL A   1      43.853  29.727  28.335  1.00  0.00     0.167 HD
ATOM     53  C   UNL A   1      43.030  32.148  29.571  1.00  0.00     0.074 A 
ATOM     54  C   UNL A   1      42.226  33.124  30.277  1.00  0.00     0.031 C 
ATOM     55  C   UNL A   1      44.286  32.379  29.119  1.00  0.00     0.037 A 
BRANCH  42  56
ATOM     56  C   UNL A   1      46.882  27.542  26.282  1.00  0.00     0.064 A 
ATOM     57  C   UNL A   1      47.902  26.889  26.988  1.00  0.00     0.173 A 
ATOM     58  C   UNL A   1      47.006  27.640  24.888  1.00  0.00     0.173 A 
ATOM     59  F   UNL A   1      47.841  26.789  28.325  1.00  0.00    -0.203 F 
ATOM     60  C   UNL A   1      49.014  26.373  26.326  1.00  0.00     0.198 A 
ATOM     61  C   UNL A   1      48.106  27.102  24.227  1.00  0.00     0.198 A 
ATOM     62  F   UNL A   1      46.057  28.258  24.167  1.00  0.00    -0.203 F 
ATOM     63  F   UNL A   1      49.998  25.792  27.025  1.00  0.00    -0.200 F 
ATOM     64  C   UNL A   1      49.112  26.475  24.947  1.00  0.00     0.200 A 
ATOM     65  F   UNL A   1      48.196  27.197  22.893  1.00  0.00    -0.200 F 
ATOM     66  F   UNL A   1      50.181  25.978  24.310  1.00  0.00    -0.200 F 
ENDBRANCH  42  56
BRANCH  43  67
ATOM     67  C   UNL A   1      38.697  30.909  30.928  1.00  0.00     0.064 A 
ATOM     68  C   UNL A   1      38.560  30.818  32.320  1.00  0.00     0.173 A 
ATOM     69  C   UNL A   1      37.643  31.487  30.205  1.00  0.00     0.173 A 
ATOM     70  F   UNL A   1      39.530  30.249  33.052  1.00  0.00    -0.203 F 
ATOM     71  C   UNL A   1      37.408  31.270  32.960  1.00  0.00     0.198 A 
ATOM     72  C   UNL A   1      36.504  31.963  30.848  1.00  0.00     0.198 A 
ATOM     73  F   UNL A   1      37.725  31.593  28.870  1.00  0.00    -0.203 F 
ATOM     74  F   UNL A   1      37.284  31.132  34.287  1.00  0.00    -0.200 F 
ATOM     75  C   UNL A   1      36.384  31.848  32.225  1.00  0.00     0.200 A 
ATOM     76  F   UNL A   1      35.520  32.527  30.135  1.00  0.00    -0.200 F 
ATOM     77  F   UNL A   1      35.277  32.284  32.842  1.00  0.00    -0.200 F 
ENDBRANCH  43  67
BRANCH  55  78
ATOM     78  C   UNL A   1      44.849  33.752  29.331  1.00  0.00     0.064 A 
ATOM     79  C   UNL A   1      45.603  34.071  30.470  1.00  0.00     0.173 A 
ATOM     80  C   UNL A   1      44.657  34.753  28.367  1.00  0.00     0.173 A 
ATOM     81  F   UNL A   1      45.802  33.151  31.427  1.00  0.00    -0.203 F 
ATOM     82  C   UNL A   1      46.122  35.349  30.648  1.00  0.00     0.198 A 
ATOM     83  C   UNL A   1      45.199  36.023  28.536  1.00  0.00     0.198 A 
ATOM     84  F   UNL A   1      43.949  34.495  27.257  1.00  0.00    -0.203 F 
ATOM     85  F   UNL A   1      46.801  35.645  31.765  1.00  0.00    -0.200 F 
ATOM     86  C   UNL A   1      45.925  36.323  29.678  1.00  0.00     0.200 A 
ATOM     87  F   UNL A   1      45.017  36.959  27.594  1.00  0.00    -0.200 F 
ATOM     88  F   UNL A   1      46.427  37.553  29.851  1.00  0.00    -0.200 F 
ENDBRANCH  55  78
ENDBRANCH  29  30
ENDBRANCH  22  24
ENDBRANCH  21  22
ENDBRANCH  20  21
ENDBRANCH   1  20
TORSDOF 16
ENDMDL
MODEL 2
REMARK VINA RESULT:     -11.3      4.878      7.624
REMARK SMILES CC(C)C[C@@H](CNC(=O)[C@@H]1CCOC1)C(=O)OCCOC(=O)c1ccc(-c2c3nc(c(-c4c(F)c(F)c(F)c(F)c4F)c4ccc([nH]4)c(-c4c(F)c(F)c(F)c(F)c4F)c4nc(c(-c5c(F)c(F)c(F)c(F)c5F)c5ccc2[nH]5)C=C4)C=C3)cc1
REMARK SMILES IDX 18 1 17 2 15 3 16 4 5 5 4 6 2 7 1 8 3 9 6 10 7 11 8 12 9 14
REMARK SMILES IDX 10 15 11 16 14 17 12 18 13 19 19 20 20 21 21 22 22 23 23 24
REMARK SMILES IDX 24 25 85 26 25 27 84 28 26 29 27 30 28 31 78 32 29 33 83 34
REMARK SMILES IDX 77 35 79 36 30 37 82 38 76 39 75 40 31 42 63 43 43 44 62 45
REMARK SMILES IDX 44 46 47 47 61 48 80 49 45 50 46 51 60 53 81 54 48 55 32 56
REMARK SMILES IDX 33 57 41 58 34 59 35 60 39 61 42 62 36 63 37 64 40 65 38 66
REMARK SMILES IDX 64 67 65 68 73 69 66 70 67 71 71 72 74 73 68 74 69 75 72 76
REMARK SMILES IDX 70 77 49 78 50 79 58 80 51 81 52 82 56 83 59 84 53 85 54 86
REMARK SMILES IDX 57 87 55 88
REMARK H PARENT 7 13 79 41 47 52
REMARK Flexibility Score: inf
ROOT
ATOM      1  C   UNL A   1      32.338  29.768  25.229  1.00  0.00     0.274 C 
ENDROOT
BRANCH   1   2
ATOM      2  O   UNL A   1      31.325  29.099  24.446  1.00  0.00    -0.462 OA
BRANCH   2   3
ATOM      3  C   UNL A   1      31.164  27.774  24.683  1.00  0.00     0.310 C 
ATOM      4  O   UNL A   1      31.435  27.215  25.740  1.00  0.00    -0.252 OA
BRANCH   3   5
ATOM      5  C   UNL A   1      30.633  26.999  23.494  1.00  0.00     0.118 C 
BRANCH   5   6
ATOM      6  C   UNL A   1      29.829  25.740  23.860  1.00  0.00     0.020 C 
BRANCH   6   7
ATOM      7  C   UNL A   1      30.558  24.397  23.614  1.00  0.00    -0.017 C 
ATOM      8  C   UNL A   1      31.834  24.543  22.778  1.00  0.00     0.007 C 
ATOM      9  C   UNL A   1      30.917  23.750  24.956  1.00  0.00     0.007 C 
ENDBRANCH   6   7
ENDBRANCH   5   6
BRANCH   5  10
ATOM     10  C   UNL A   1      29.963  27.949  22.504  1.00  0.00     0.131 C 
BRANCH  10  11
ATOM     11  N   UNL A   1      28.688  28.490  22.929  1.00  0.00    -0.355 N 
ATOM     12  C   UNL A   1      28.131  29.722  22.822  1.00  0.00     0.225 C 
ATOM     13  H   UNL A   1      28.113  27.834  23.383  1.00  0.00     0.163 HD
ATOM     14  O   UNL A   1      26.955  29.813  23.196  1.00  0.00    -0.275 OA
BRANCH  12  15
ATOM     15  C   UNL A   1      28.857  30.986  22.377  1.00  0.00     0.106 C 
ATOM     16  C   UNL A   1      29.290  32.022  23.390  1.00  0.00     0.044 C 
ATOM     17  C   UNL A   1      28.070  31.751  21.334  1.00  0.00     0.173 C 
ATOM     18  C   UNL A   1      28.512  33.272  23.027  1.00  0.00     0.161 C 
ATOM     19  O   UNL A   1      28.143  33.143  21.656  1.00  0.00    -0.381 OA
ENDBRANCH  12  15
ENDBRANCH  10  11
ENDBRANCH   5  10
ENDBRANCH   3   5
ENDBRANCH   2   3
ENDBRANCH   1   2
BRANCH   1  20
ATOM     20  C   UNL A   1      31.762  30.856  26.140  1.00  0.00     0.275 C 
BRANCH  20  21
ATOM     21  O   UNL A   1      32.504  30.964  27.369  1.00  0.00    -0.458 OA
BRANCH  21  22
ATOM     22  C   UNL A   1      33.357  32.012  27.415  1.00  0.00     0.338 C 
ATOM     23  O   UNL A   1      33.089  33.189  27.241  1.00  0.00    -0.246 OA
BRANCH  22  24
ATOM     24  C   UNL A   1      34.686  31.578  27.877  1.00  0.00     0.060 A 
ATOM     25  C   UNL A   1      34.824  30.231  28.224  1.00  0.00     0.016 A 
ATOM     26  C   UNL A   1      35.738  32.474  28.080  1.00  0.00     0.016 A 
ATOM     27  C   UNL A   1      35.997  29.771  28.804  1.00  0.00     0.010 A 
ATOM     28  C   UNL A   1      36.915  32.017  28.686  1.00  0.00     0.010 A 
ATOM     29  C   UNL A   1      37.031  30.671  29.081  1.00  0.00    -0.014 A 
BRANCH  29  30
ATOM     30  C   UNL A   1      38.135  30.213  29.953  1.00  0.00     0.031 A 
ATOM     31  C   UNL A   1      39.163  29.279  29.382  1.00  0.00     0.074 A 
ATOM     32  C   UNL A   1      38.276  30.709  31.194  1.00  0.00     0.049 A 
ATOM     33  N   UNL A   1      40.235  28.778  29.941  1.00  0.00    -0.248 NA
ATOM     34  C   UNL A   1      38.961  28.859  27.985  1.00  0.00     0.031 C 
ATOM     35  C   UNL A   1      37.378  31.674  31.824  1.00  0.00     0.029 A 
ATOM     36  N   UNL A   1      39.243  30.479  32.138  1.00  0.00    -0.354 N 
ATOM     37  C   UNL A   1      40.823  27.976  28.973  1.00  0.00     0.074 A 
ATOM     38  C   UNL A   1      39.987  28.042  27.796  1.00  0.00     0.031 C 
ATOM     39  C   UNL A   1      37.840  31.961  33.052  1.00  0.00     0.029 A 
ATOM     40  C   UNL A   1      39.050  31.178  33.303  1.00  0.00     0.049 A 
ATOM     41  H   UNL A   1      40.004  29.870  31.995  1.00  0.00     0.167 HD
ATOM     42  C   UNL A   1      41.964  27.250  29.060  1.00  0.00     0.037 A 
ATOM     43  C   UNL A   1      39.768  31.176  34.442  1.00  0.00     0.037 A 
ATOM     44  C   UNL A   1      42.800  27.196  30.227  1.00  0.00     0.049 A 
ATOM     45  C   UNL A   1      41.007  30.324  34.527  1.00  0.00     0.074 A 
ATOM     46  C   UNL A   1      43.970  26.484  30.422  1.00  0.00     0.029 A 
ATOM     47  N   UNL A   1      42.551  27.889  31.403  1.00  0.00    -0.354 N 
ATOM     48  N   UNL A   1      41.553  29.561  33.611  1.00  0.00    -0.248 NA
ATOM     49  C   UNL A   1      41.732  30.338  35.806  1.00  0.00     0.031 C 
ATOM     50  C   UNL A   1      44.412  26.720  31.729  1.00  0.00     0.029 A 
ATOM     51  C   UNL A   1      43.541  27.612  32.333  1.00  0.00     0.049 A 
ATOM     52  H   UNL A   1      41.786  28.489  31.555  1.00  0.00     0.167 HD
ATOM     53  C   UNL A   1      42.698  29.028  34.190  1.00  0.00     0.074 A 
ATOM     54  C   UNL A   1      42.773  29.565  35.533  1.00  0.00     0.031 C 
ATOM     55  C   UNL A   1      43.604  28.171  33.659  1.00  0.00     0.037 A 
BRANCH  42  56
ATOM     56  C   UNL A   1      42.346  26.427  27.866  1.00  0.00     0.064 A 
ATOM     57  C   UNL A   1      43.261  26.891  26.911  1.00  0.00     0.173 A 
ATOM     58  C   UNL A   1      41.791  25.152  27.681  1.00  0.00     0.173 A 
ATOM     59  F   UNL A   1      43.803  28.113  27.032  1.00  0.00    -0.203 F 
ATOM     60  C   UNL A   1      43.591  26.117  25.801  1.00  0.00     0.198 A 
ATOM     61  C   UNL A   1      42.141  24.371  26.583  1.00  0.00     0.198 A 
ATOM     62  F   UNL A   1      40.909  24.664  28.566  1.00  0.00    -0.203 F 
ATOM     63  F   UNL A   1      44.433  26.598  24.876  1.00  0.00    -0.200 F 
ATOM     64  C   UNL A   1      43.035  24.857  25.640  1.00  0.00     0.200 A 
ATOM     65  F   UNL A   1      41.608  23.151  26.434  1.00  0.00    -0.200 F 
ATOM     66  F   UNL A   1      43.354  24.112  24.573  1.00  0.00    -0.200 F 
ENDBRANCH  42  56
BRANCH  43  67
ATOM     67  C   UNL A   1      39.334  32.005  35.595  1.00  0.00     0.064 A 
ATOM     68  C   UNL A   1      39.801  33.317  35.759  1.00  0.00     0.173 A 
ATOM     69  C   UNL A   1      38.457  31.498  36.565  1.00  0.00     0.173 A 
ATOM     70  F   UNL A   1      40.662  33.837  34.871  1.00  0.00    -0.203 F 
ATOM     71  C   UNL A   1      39.420  34.083  36.858  1.00  0.00     0.198 A 
ATOM     72  C   UNL A   1      38.057  32.274  37.650  1.00  0.00     0.198 A 
ATOM     73  F   UNL A   1      37.986  30.247  36.455  1.00  0.00    -0.203 F 
ATOM     74  F   UNL A   1      39.916  35.319  37.015  1.00  0.00    -0.200 F 
ATOM     75  C   UNL A   1      38.544  33.564  37.800  1.00  0.00     0.200 A 
ATOM     76  F   UNL A   1      37.204  31.771  38.552  1.00  0.00    -0.200 F 
ATOM     77  F   UNL A   1      38.178  34.302  38.856  1.00  0.00    -0.200 F 
ENDBRANCH  43  67
BRANCH  55  78
ATOM     78  C   UNL A   1      44.778  27.799  34.514  1.00  0.00     0.064 A 
ATOM     79  C   UNL A   1      45.954  28.563  34.523  1.00  0.00     0.173 A 
ATOM     80  C   UNL A   1      44.710  26.682  35.360  1.00  0.00     0.173 A 
ATOM     81  F   UNL A   1      46.070  29.632  33.721  1.00  0.00    -0.203 F 
ATOM     82  C   UNL A   1      47.031  28.205  35.328  1.00  0.00     0.198 A 
ATOM     83  C   UNL A   1      45.780  26.341  36.182  1.00  0.00     0.198 A 
ATOM     84  F   UNL A   1      43.604  25.923  35.393  1.00  0.00    -0.203 F 
ATOM     85  F   UNL A   1      48.163  28.922  35.287  1.00  0.00    -0.200 F 
ATOM     86  C   UNL A   1      46.941  27.098  36.161  1.00  0.00     0.200 A 
ATOM     87  F   UNL A   1      45.688  25.278  36.994  1.00  0.00    -0.200 F 
ATOM     88  F   UNL A   1      47.979  26.757  36.937  1.00  0.00    -0.200 F 
ENDBRANCH  55  78
ENDBRANCH  29  30
ENDBRANCH  22  24
ENDBRANCH  21  22
ENDBRANCH  20  21
ENDBRANCH   1  20
TORSDOF 16
ENDMDL
MODEL 3
REMARK VINA RESULT:     -11.3      4.550     10.144
REMARK SMILES CC(C)C[C@@H](CNC(=O)[C@@H]1CCOC1)C(=O)OCCOC(=O)c1ccc(-c2c3nc(c(-c4c(F)c(F)c(F)c(F)c4F)c4ccc([nH]4)c(-c4c(F)c(F)c(F)c(F)c4F)c4nc(c(-c5c(F)c(F)c(F)c(F)c5F)c5ccc2[nH]5)C=C4)C=C3)cc1
REMARK SMILES IDX 18 1 17 2 15 3 16 4 5 5 4 6 2 7 1 8 3 9 6 10 7 11 8 12 9 14
REMARK SMILES IDX 10 15 11 16 14 17 12 18 13 19 19 20 20 21 21 22 22 23 23 24
REMARK SMILES IDX 24 25 85 26 25 27 84 28 26 29 27 30 28 31 78 32 29 33 83 34
REMARK SMILES IDX 77 35 79 36 30 37 82 38 76 39 75 40 31 42 63 43 43 44 62 45
REMARK SMILES IDX 44 46 47 47 61 48 80 49 45 50 46 51 60 53 81 54 48 55 32 56
REMARK SMILES IDX 33 57 41 58 34 59 35 60 39 61 42 62 36 63 37 64 40 65 38 66
REMARK SMILES IDX 64 67 65 68 73 69 66 70 67 71 71 72 74 73 68 74 69 75 72 76
REMARK SMILES IDX 70 77 49 78 50 79 58 80 51 81 52 82 56 83 59 84 53 85 54 86
REMARK SMILES IDX 57 87 55 88
REMARK H PARENT 7 13 79 41 47 52
REMARK Flexibility Score: inf
ROOT
ATOM      1  C   UNL A   1      31.411  29.499  25.436  1.00  0.00     0.274 C 
ENDROOT
BRANCH   1   2
ATOM      2  O   UNL A   1      32.497  28.961  24.652  1.00  0.00    -0.462 OA
BRANCH   2   3
ATOM      3  C   UNL A   1      32.297  28.908  23.311  1.00  0.00     0.310 C 
ATOM      4  O   UNL A   1      33.177  29.047  22.467  1.00  0.00    -0.252 OA
BRANCH   3   5
ATOM      5  C   UNL A   1      30.852  28.685  22.915  1.00  0.00     0.118 C 
BRANCH   5   6
ATOM      6  C   UNL A   1      30.262  29.778  22.008  1.00  0.00     0.020 C 
BRANCH   6   7
ATOM      7  C   UNL A   1      28.894  30.343  22.462  1.00  0.00    -0.017 C 
ATOM      8  C   UNL A   1      29.004  31.680  23.201  1.00  0.00     0.007 C 
ATOM      9  C   UNL A   1      27.981  30.523  21.245  1.00  0.00     0.007 C 
ENDBRANCH   6   7
ENDBRANCH   5   6
BRANCH   5  10
ATOM     10  C   UNL A   1      30.654  27.247  22.436  1.00  0.00     0.131 C 
BRANCH  10  11
ATOM     11  N   UNL A   1      31.661  26.756  21.518  1.00  0.00    -0.355 N 
ATOM     12  C   UNL A   1      32.470  25.668  21.539  1.00  0.00     0.225 C 
ATOM     13  H   UNL A   1      31.780  27.322  20.722  1.00  0.00     0.163 HD
ATOM     14  O   UNL A   1      33.144  25.480  20.518  1.00  0.00    -0.275 OA
BRANCH  12  15
ATOM     15  C   UNL A   1      32.675  24.739  22.731  1.00  0.00     0.106 C 
ATOM     16  C   UNL A   1      32.987  25.301  24.100  1.00  0.00     0.044 C 
ATOM     17  C   UNL A   1      33.754  23.710  22.466  1.00  0.00     0.173 C 
ATOM     18  C   UNL A   1      34.366  24.768  24.435  1.00  0.00     0.161 C 
ATOM     19  O   UNL A   1      34.560  23.599  23.642  1.00  0.00    -0.381 OA
ENDBRANCH  12  15
ENDBRANCH  10  11
ENDBRANCH   5  10
ENDBRANCH   3   5
ENDBRANCH   2   3
ENDBRANCH   1   2
BRANCH   1  20
ATOM     20  C   UNL A   1      31.779  30.808  26.142  1.00  0.00     0.275 C 
BRANCH  20  21
ATOM     21  O   UNL A   1      32.769  30.596  27.166  1.00  0.00    -0.458 OA
BRANCH  21  22
ATOM     22  C   UNL A   1      33.479  31.700  27.491  1.00  0.00     0.338 C 
ATOM     23  O   UNL A   1      33.052  32.832  27.644  1.00  0.00    -0.246 OA
BRANCH  22  24
ATOM     24  C   UNL A   1      34.871  31.344  27.814  1.00  0.00     0.060 A 
ATOM     25  C   UNL A   1      35.143  29.988  28.021  1.00  0.00     0.016 A 
ATOM     26  C   UNL A   1      35.860  32.306  28.024  1.00  0.00     0.016 A 
ATOM     27  C   UNL A   1      36.391  29.582  28.469  1.00  0.00     0.010 A 
ATOM     28  C   UNL A   1      37.114  31.901  28.498  1.00  0.00     0.010 A 
ATOM     29  C   UNL A   1      37.369  30.541  28.755  1.00  0.00    -0.014 A 
BRANCH  29  30
ATOM     30  C   UNL A   1      38.571  30.105  29.499  1.00  0.00     0.031 A 
ATOM     31  C   UNL A   1      38.745  30.564  30.918  1.00  0.00     0.074 A 
ATOM     32  C   UNL A   1      39.432  29.230  28.954  1.00  0.00     0.049 A 
ATOM     33  N   UNL A   1      39.693  30.282  31.775  1.00  0.00    -0.248 NA
ATOM     34  C   UNL A   1      37.702  31.458  31.449  1.00  0.00     0.031 C 
ATOM     35  C   UNL A   1      39.323  28.664  27.611  1.00  0.00     0.029 A 
ATOM     36  N   UNL A   1      40.560  28.650  29.475  1.00  0.00    -0.354 N 
ATOM     37  C   UNL A   1      39.369  30.972  32.935  1.00  0.00     0.074 A 
ATOM     38  C   UNL A   1      38.147  31.698  32.673  1.00  0.00     0.031 C 
ATOM     39  C   UNL A   1      40.342  27.810  27.414  1.00  0.00     0.029 A 
ATOM     40  C   UNL A   1      41.187  27.792  28.607  1.00  0.00     0.049 A 
ATOM     41  H   UNL A   1      40.889  28.832  30.386  1.00  0.00     0.167 HD
ATOM     42  C   UNL A   1      40.033  30.994  34.115  1.00  0.00     0.037 A 
ATOM     43  C   UNL A   1      42.320  27.082  28.761  1.00  0.00     0.037 A 
ATOM     44  C   UNL A   1      41.241  30.260  34.376  1.00  0.00     0.049 A 
ATOM     45  C   UNL A   1      43.064  27.160  30.070  1.00  0.00     0.074 A 
ATOM     46  C   UNL A   1      41.997  30.221  35.535  1.00  0.00     0.029 A 
ATOM     47  N   UNL A   1      41.868  29.430  33.459  1.00  0.00    -0.354 N 
ATOM     48  N   UNL A   1      42.757  27.821  31.159  1.00  0.00    -0.248 NA
ATOM     49  C   UNL A   1      44.311  26.387  30.168  1.00  0.00     0.031 C 
ATOM     50  C   UNL A   1      43.102  29.393  35.306  1.00  0.00     0.029 A 
ATOM     51  C   UNL A   1      43.010  28.883  34.021  1.00  0.00     0.049 A 
ATOM     52  H   UNL A   1      41.549  29.255  32.545  1.00  0.00     0.167 HD
ATOM     53  C   UNL A   1      43.752  27.523  32.081  1.00  0.00     0.074 A 
ATOM     54  C   UNL A   1      44.667  26.612  31.425  1.00  0.00     0.031 C 
ATOM     55  C   UNL A   1      43.897  27.965  33.354  1.00  0.00     0.037 A 
BRANCH  42  56
ATOM     56  C   UNL A   1      39.480  31.872  35.197  1.00  0.00     0.064 A 
ATOM     57  C   UNL A   1      38.622  31.374  36.188  1.00  0.00     0.173 A 
ATOM     58  C   UNL A   1      39.821  33.232  35.245  1.00  0.00     0.173 A 
ATOM     59  F   UNL A   1      38.250  30.084  36.173  1.00  0.00    -0.203 F 
ATOM     60  C   UNL A   1      38.107  32.210  37.176  1.00  0.00     0.198 A 
ATOM     61  C   UNL A   1      39.324  34.060  36.247  1.00  0.00     0.198 A 
ATOM     62  F   UNL A   1      40.637  33.757  34.319  1.00  0.00    -0.203 F 
ATOM     63  F   UNL A   1      37.253  31.723  38.086  1.00  0.00    -0.200 F 
ATOM     64  C   UNL A   1      38.462  33.550  37.208  1.00  0.00     0.200 A 
ATOM     65  F   UNL A   1      39.673  35.353  36.280  1.00  0.00    -0.200 F 
ATOM     66  F   UNL A   1      37.967  34.354  38.158  1.00  0.00    -0.200 F 
ENDBRANCH  42  56
BRANCH  43  67
ATOM     67  C   UNL A   1      42.824  26.235  27.650  1.00  0.00     0.064 A 
ATOM     68  C   UNL A   1      42.419  24.900  27.516  1.00  0.00     0.173 A 
ATOM     69  C   UNL A   1      43.733  26.739  26.708  1.00  0.00     0.173 A 
ATOM     70  F   UNL A   1      41.570  24.365  28.407  1.00  0.00    -0.203 F 
ATOM     71  C   UNL A   1      42.917  24.097  26.492  1.00  0.00     0.198 A 
ATOM     72  C   UNL A   1      44.211  25.943  25.670  1.00  0.00     0.198 A 
ATOM     73  F   UNL A   1      44.155  28.010  26.796  1.00  0.00    -0.203 F 
ATOM     74  F   UNL A   1      42.547  22.811  26.412  1.00  0.00    -0.200 F 
ATOM     75  C   UNL A   1      43.808  24.620  25.567  1.00  0.00     0.200 A 
ATOM     76  F   UNL A   1      45.065  26.455  24.774  1.00  0.00    -0.200 F 
ATOM     77  F   UNL A   1      44.286  23.848  24.582  1.00  0.00    -0.200 F 
ENDBRANCH  43  67
BRANCH  55  78
ATOM     78  C   UNL A   1      45.061  27.432  34.135  1.00  0.00     0.064 A 
ATOM     79  C   UNL A   1      46.293  28.102  34.171  1.00  0.00     0.173 A 
ATOM     80  C   UNL A   1      44.931  26.251  34.882  1.00  0.00     0.173 A 
ATOM     81  F   UNL A   1      46.469  29.227  33.461  1.00  0.00    -0.203 F 
ATOM     82  C   UNL A   1      47.360  27.595  34.905  1.00  0.00     0.198 A 
ATOM     83  C   UNL A   1      45.993  25.761  35.635  1.00  0.00     0.198 A 
ATOM     84  F   UNL A   1      43.771  25.577  34.885  1.00  0.00    -0.203 F 
ATOM     85  F   UNL A   1      48.542  28.227  34.889  1.00  0.00    -0.200 F 
ATOM     86  C   UNL A   1      47.208  26.428  35.641  1.00  0.00     0.200 A 
ATOM     87  F   UNL A   1      45.841  24.640  36.355  1.00  0.00    -0.200 F 
ATOM     88  F   UNL A   1      48.237  25.943  36.350  1.00  0.00    -0.200 F 
ENDBRANCH  55  78
ENDBRANCH  29  30
ENDBRANCH  22  24
ENDBRANCH  21  22
ENDBRANCH  20  21
ENDBRANCH   1  20
TORSDOF 16
ENDMDL
