MODEL 1
REMARK VINA RESULT:     -12.1      0.000      0.000
REMARK SMILES C[NH2+][C@@]1(C(=O)OCCOC(=O)c2ccc(-c3c4nc(c(-c5c(F)c(F)c(F)c(F)c5F)c5ccc([nH]5)c(-c5c(F)c(F)c(F)c(F)c5F)c5nc(c(-c6c(F)c(F)c(F)c(F)c6F)c6ccc3[nH]6)C=C5)C=C4)cc2)CCC[C@@H]([N@@H+](C)C2CC[NH+](C)CC2)C1
REMARK SMILES IDX 7 1 6 2 4 3 5 4 3 5 75 6 88 7 76 8 78 9 77 10 2 11 1 12
REMARK SMILES IDX 79 15 80 16 81 18 82 19 87 20 83 21 86 22 84 23 85 24 8 26
REMARK SMILES IDX 9 27 10 28 11 29 12 30 13 31 74 32 14 33 73 34 15 35 16 36
REMARK SMILES IDX 17 37 67 38 18 39 72 40 66 41 68 42 19 43 71 44 65 45 64 46
REMARK SMILES IDX 20 48 52 49 32 50 51 51 33 52 36 53 50 54 69 55 34 56 35 57
REMARK SMILES IDX 49 59 70 60 37 61 21 62 22 63 30 64 23 65 24 66 28 67 31 68
REMARK SMILES IDX 25 69 26 70 29 71 27 72 53 73 54 74 62 75 55 76 56 77 60 78
REMARK SMILES IDX 63 79 57 80 58 81 61 82 59 83 38 84 39 85 47 86 40 87 41 88
REMARK SMILES IDX 45 89 48 90 42 91 43 92 46 93 44 94
REMARK H PARENT 2 13 2 14 79 17 84 25 68 47 36 58
REMARK Flexibility Score: inf
ROOT
ATOM      1  C   UNL A   1      31.384  29.001  24.182  1.00  0.00     0.274 C 
ENDROOT
BRANCH   1   2
ATOM      2  O   UNL A   1      30.822  27.681  24.319  1.00  0.00    -0.457 OA
BRANCH   2   3
ATOM      3  C   UNL A   1      31.564  26.674  23.781  1.00  0.00     0.368 C 
ATOM      4  O   UNL A   1      32.105  26.741  22.679  1.00  0.00    -0.245 OA
BRANCH   3   5
ATOM      5  C   UNL A   1      31.618  25.393  24.684  1.00  0.00     0.199 C 
ATOM      6  C   UNL A   1      32.308  25.843  25.982  1.00  0.00     0.081 C 
ATOM      7  C   UNL A   1      32.367  24.206  24.046  1.00  0.00     0.146 C 
ATOM      8  C   UNL A   1      33.740  26.294  25.722  1.00  0.00     0.013 C 
ATOM      9  C   UNL A   1      33.911  24.238  24.105  1.00  0.00     0.190 C 
ATOM     10  C   UNL A   1      34.605  25.236  25.053  1.00  0.00     0.065 C 
BRANCH   5  11
ATOM     11  N   UNL A   1      30.188  24.994  24.854  1.00  0.00    -0.334 N 
ATOM     12  C   UNL A   1      29.529  25.205  26.124  1.00  0.00     0.331 C 
ATOM     13  H   UNL A   1      29.654  25.509  24.154  1.00  0.00     0.347 HD
ATOM     14  H   UNL A   1      30.215  23.978  24.767  1.00  0.00     0.347 HD
ENDBRANCH   5  11
BRANCH   9  15
ATOM     15  N   UNL A   1      34.534  22.889  24.040  1.00  0.00    -0.332 N 
ATOM     16  C   UNL A   1      35.850  22.953  23.382  1.00  0.00     0.333 C 
ATOM     17  H   UNL A   1      33.797  22.433  23.501  1.00  0.00     0.348 HD
BRANCH  15  18
ATOM     18  C   UNL A   1      34.567  21.929  25.187  1.00  0.00     0.195 C 
ATOM     19  C   UNL A   1      35.365  20.625  25.002  1.00  0.00     0.126 C 
ATOM     20  C   UNL A   1      33.284  21.639  25.993  1.00  0.00     0.126 C 
ATOM     21  C   UNL A   1      34.516  19.416  24.627  1.00  0.00     0.268 C 
ATOM     22  C   UNL A   1      32.529  20.372  25.587  1.00  0.00     0.268 C 
ATOM     23  N   UNL A   1      33.398  19.189  25.545  1.00  0.00    -0.337 N 
ATOM     24  C   UNL A   1      32.622  18.024  25.096  1.00  0.00     0.332 C 
ATOM     25  H   UNL A   1      33.766  19.015  26.480  1.00  0.00     0.347 HD
ENDBRANCH  15  18
ENDBRANCH   9  15
ENDBRANCH   3   5
ENDBRANCH   2   3
ENDBRANCH   1   2
BRANCH   1  26
ATOM     26  C   UNL A   1      31.557  29.652  25.551  1.00  0.00     0.275 C 
BRANCH  26  27
ATOM     27  O   UNL A   1      32.929  30.046  25.737  1.00  0.00    -0.458 OA
BRANCH  27  28
ATOM     28  C   UNL A   1      33.164  30.879  26.776  1.00  0.00     0.338 C 
ATOM     29  O   UNL A   1      32.402  31.704  27.251  1.00  0.00    -0.246 OA
BRANCH  28  30
ATOM     30  C   UNL A   1      34.515  30.654  27.322  1.00  0.00     0.060 A 
ATOM     31  C   UNL A   1      34.947  29.367  27.624  1.00  0.00     0.016 A 
ATOM     32  C   UNL A   1      35.299  31.748  27.683  1.00  0.00     0.016 A 
ATOM     33  C   UNL A   1      36.086  29.174  28.407  1.00  0.00     0.010 A 
ATOM     34  C   UNL A   1      36.515  31.543  28.346  1.00  0.00     0.010 A 
ATOM     35  C   UNL A   1      36.906  30.255  28.758  1.00  0.00    -0.014 A 
BRANCH  35  36
ATOM     36  C   UNL A   1      38.146  30.065  29.569  1.00  0.00     0.031 A 
ATOM     37  C   UNL A   1      39.287  29.243  29.023  1.00  0.00     0.074 A 
ATOM     38  C   UNL A   1      38.268  30.603  30.800  1.00  0.00     0.049 A 
ATOM     39  N   UNL A   1      40.299  28.702  29.653  1.00  0.00    -0.248 NA
ATOM     40  C   UNL A   1      39.276  28.980  27.576  1.00  0.00     0.031 C 
ATOM     41  C   UNL A   1      37.290  31.474  31.452  1.00  0.00     0.029 A 
ATOM     42  N   UNL A   1      39.277  30.491  31.728  1.00  0.00    -0.354 N 
ATOM     43  C   UNL A   1      40.992  27.965  28.701  1.00  0.00     0.074 A 
ATOM     44  C   UNL A   1      40.300  28.147  27.442  1.00  0.00     0.031 C 
ATOM     45  C   UNL A   1      37.761  31.851  32.649  1.00  0.00     0.029 A 
ATOM     46  C   UNL A   1      39.019  31.158  32.901  1.00  0.00     0.049 A 
ATOM     47  H   UNL A   1      40.103  29.980  31.568  1.00  0.00     0.167 HD
ATOM     48  C   UNL A   1      42.095  27.195  28.868  1.00  0.00     0.037 A 
ATOM     49  C   UNL A   1      39.679  31.167  34.074  1.00  0.00     0.037 A 
ATOM     50  C   UNL A   1      42.827  27.082  30.102  1.00  0.00     0.049 A 
ATOM     51  C   UNL A   1      40.898  30.307  34.242  1.00  0.00     0.074 A 
ATOM     52  C   UNL A   1      43.957  26.328  30.373  1.00  0.00     0.029 A 
ATOM     53  N   UNL A   1      42.517  27.769  31.267  1.00  0.00    -0.354 N 
ATOM     54  N   UNL A   1      41.476  29.517  33.371  1.00  0.00    -0.248 NA
ATOM     55  C   UNL A   1      41.535  30.314  35.566  1.00  0.00     0.031 C 
ATOM     56  C   UNL A   1      44.320  26.545  31.708  1.00  0.00     0.029 A 
ATOM     57  C   UNL A   1      43.436  27.458  32.257  1.00  0.00     0.049 A 
ATOM     58  H   UNL A   1      41.758  28.385  31.374  1.00  0.00     0.167 HD
ATOM     59  C   UNL A   1      42.540  28.929  34.040  1.00  0.00     0.074 A 
ATOM     60  C   UNL A   1      42.545  29.475  35.381  1.00  0.00     0.031 C 
ATOM     61  C   UNL A   1      43.425  28.011  33.586  1.00  0.00     0.037 A 
BRANCH  48  62
ATOM     62  C   UNL A   1      42.558  26.377  27.698  1.00  0.00     0.064 A 
ATOM     63  C   UNL A   1      43.558  26.823  26.825  1.00  0.00     0.173 A 
ATOM     64  C   UNL A   1      42.011  25.102  27.477  1.00  0.00     0.173 A 
ATOM     65  F   UNL A   1      44.101  28.039  26.984  1.00  0.00    -0.203 F 
ATOM     66  C   UNL A   1      43.982  26.030  25.760  1.00  0.00     0.198 A 
ATOM     67  C   UNL A   1      42.456  24.303  26.427  1.00  0.00     0.198 A 
ATOM     68  F   UNL A   1      41.056  24.626  28.288  1.00  0.00    -0.203 F 
ATOM     69  F   UNL A   1      44.915  26.491  24.914  1.00  0.00    -0.200 F 
ATOM     70  C   UNL A   1      43.437  24.770  25.566  1.00  0.00     0.200 A 
ATOM     71  F   UNL A   1      41.934  23.080  26.249  1.00  0.00    -0.200 F 
ATOM     72  F   UNL A   1      43.852  24.007  24.545  1.00  0.00    -0.200 F 
ENDBRANCH  48  62
BRANCH  49  73
ATOM     73  C   UNL A   1      39.154  31.976  35.206  1.00  0.00     0.064 A 
ATOM     74  C   UNL A   1      38.396  31.383  36.222  1.00  0.00     0.173 A 
ATOM     75  C   UNL A   1      39.421  33.350  35.305  1.00  0.00     0.173 A 
ATOM     76  F   UNL A   1      38.088  30.079  36.154  1.00  0.00    -0.203 F 
ATOM     77  C   UNL A   1      37.923  32.134  37.297  1.00  0.00     0.198 A 
ATOM     78  C   UNL A   1      38.975  34.092  36.395  1.00  0.00     0.198 A 
ATOM     79  F   UNL A   1      40.141  33.964  34.354  1.00  0.00    -0.203 F 
ATOM     80  F   UNL A   1      37.172  31.549  38.240  1.00  0.00    -0.200 F 
ATOM     81  C   UNL A   1      38.222  33.485  37.388  1.00  0.00     0.200 A 
ATOM     82  F   UNL A   1      39.278  35.394  36.485  1.00  0.00    -0.200 F 
ATOM     83  F   UNL A   1      37.781  34.202  38.430  1.00  0.00    -0.200 F 
ENDBRANCH  49  73
BRANCH  61  84
ATOM     84  C   UNL A   1      44.482  27.554  34.545  1.00  0.00     0.064 A 
ATOM     85  C   UNL A   1      44.298  26.420  35.347  1.00  0.00     0.173 A 
ATOM     86  C   UNL A   1      45.698  28.244  34.643  1.00  0.00     0.173 A 
ATOM     87  F   UNL A   1      43.143  25.739  35.298  1.00  0.00    -0.203 F 
ATOM     88  C   UNL A   1      45.288  26.003  36.232  1.00  0.00     0.198 A 
ATOM     89  C   UNL A   1      46.695  27.813  35.514  1.00  0.00     0.198 A 
ATOM     90  F   UNL A   1      45.920  29.335  33.893  1.00  0.00    -0.203 F 
ATOM     91  F   UNL A   1      45.078  24.939  37.019  1.00  0.00    -0.200 F 
ATOM     92  C   UNL A   1      46.487  26.697  36.311  1.00  0.00     0.200 A 
ATOM     93  F   UNL A   1      47.855  28.481  35.586  1.00  0.00    -0.200 F 
ATOM     94  F   UNL A   1      47.440  26.295  37.163  1.00  0.00    -0.200 F 
ENDBRANCH  61  84
ENDBRANCH  35  36
ENDBRANCH  28  30
ENDBRANCH  27  28
ENDBRANCH  26  27
ENDBRANCH   1  26
TORSDOF 14
ENDMDL
MODEL 2
REMARK VINA RESULT:     -12.0      1.258      2.753
REMARK SMILES C[NH2+][C@@]1(C(=O)OCCOC(=O)c2ccc(-c3c4nc(c(-c5c(F)c(F)c(F)c(F)c5F)c5ccc([nH]5)c(-c5c(F)c(F)c(F)c(F)c5F)c5nc(c(-c6c(F)c(F)c(F)c(F)c6F)c6ccc3[nH]6)C=C5)C=C4)cc2)CCC[C@@H]([N@@H+](C)C2CC[NH+](C)CC2)C1
REMARK SMILES IDX 7 1 6 2 4 3 5 4 3 5 75 6 88 7 76 8 78 9 77 10 2 11 1 12
REMARK SMILES IDX 79 15 80 16 81 18 82 19 87 20 83 21 86 22 84 23 85 24 8 26
REMARK SMILES IDX 9 27 10 28 11 29 12 30 13 31 74 32 14 33 73 34 15 35 16 36
REMARK SMILES IDX 17 37 67 38 18 39 72 40 66 41 68 42 19 43 71 44 65 45 64 46
REMARK SMILES IDX 20 48 52 49 32 50 51 51 33 52 36 53 50 54 69 55 34 56 35 57
REMARK SMILES IDX 49 59 70 60 37 61 21 62 22 63 30 64 23 65 24 66 28 67 31 68
REMARK SMILES IDX 25 69 26 70 29 71 27 72 53 73 54 74 62 75 55 76 56 77 60 78
REMARK SMILES IDX 63 79 57 80 58 81 61 82 59 83 38 84 39 85 47 86 40 87 41 88
REMARK SMILES IDX 45 89 48 90 42 91 43 92 46 93 44 94
REMARK H PARENT 2 13 2 14 79 17 84 25 68 47 36 58
REMARK Flexibility Score: inf
ROOT
ATOM      1  C   UNL A   1      32.014  27.891  26.178  1.00  0.00     0.274 C 
ENDROOT
BRANCH   1   2
ATOM      2  O   UNL A   1      32.807  27.473  25.049  1.00  0.00    -0.457 OA
BRANCH   2   3
ATOM      3  C   UNL A   1      32.147  26.728  24.120  1.00  0.00     0.368 C 
ATOM      4  O   UNL A   1      30.981  26.931  23.787  1.00  0.00    -0.245 OA
BRANCH   3   5
ATOM      5  C   UNL A   1      33.004  25.544  23.551  1.00  0.00     0.199 C 
ATOM      6  C   UNL A   1      32.049  24.340  23.509  1.00  0.00     0.081 C 
ATOM      7  C   UNL A   1      34.260  25.221  24.384  1.00  0.00     0.146 C 
ATOM      8  C   UNL A   1      31.582  23.952  24.905  1.00  0.00     0.013 C 
ATOM      9  C   UNL A   1      34.055  24.377  25.663  1.00  0.00     0.190 C 
ATOM     10  C   UNL A   1      32.718  23.637  25.867  1.00  0.00     0.065 C 
BRANCH   5  11
ATOM     11  N   UNL A   1      33.455  26.020  22.209  1.00  0.00    -0.334 N 
ATOM     12  C   UNL A   1      32.691  25.674  21.030  1.00  0.00     0.331 C 
ATOM     13  H   UNL A   1      33.488  27.038  22.253  1.00  0.00     0.347 HD
ATOM     14  H   UNL A   1      34.339  25.530  22.070  1.00  0.00     0.347 HD
ENDBRANCH   5  11
BRANCH   9  15
ATOM     15  N   UNL A   1      35.267  23.620  26.073  1.00  0.00    -0.332 N 
ATOM     16  C   UNL A   1      34.922  22.230  26.420  1.00  0.00     0.333 C 
ATOM     17  H   UNL A   1      35.531  24.214  26.860  1.00  0.00     0.348 HD
BRANCH  15  18
ATOM     18  C   UNL A   1      36.569  23.668  25.339  1.00  0.00     0.195 C 
ATOM     19  C   UNL A   1      36.898  22.501  24.390  1.00  0.00     0.126 C 
ATOM     20  C   UNL A   1      37.853  24.118  26.068  1.00  0.00     0.126 C 
ATOM     21  C   UNL A   1      37.814  21.441  24.990  1.00  0.00     0.268 C 
ATOM     22  C   UNL A   1      38.744  22.985  26.583  1.00  0.00     0.268 C 
ATOM     23  N   UNL A   1      39.052  21.995  25.543  1.00  0.00    -0.337 N 
ATOM     24  C   UNL A   1      39.860  20.912  26.119  1.00  0.00     0.332 C 
ATOM     25  H   UNL A   1      39.574  22.452  24.795  1.00  0.00     0.347 HD
ENDBRANCH  15  18
ENDBRANCH   9  15
ENDBRANCH   3   5
ENDBRANCH   2   3
ENDBRANCH   1   2
BRANCH   1  26
ATOM     26  C   UNL A   1      31.788  29.400  26.142  1.00  0.00     0.275 C 
BRANCH  26  27
ATOM     27  O   UNL A   1      33.046  30.081  25.987  1.00  0.00    -0.458 OA
BRANCH  27  28
ATOM     28  C   UNL A   1      33.334  31.002  26.934  1.00  0.00     0.338 C 
ATOM     29  O   UNL A   1      32.611  31.893  27.345  1.00  0.00    -0.246 OA
BRANCH  28  30
ATOM     30  C   UNL A   1      34.694  30.788  27.465  1.00  0.00     0.060 A 
ATOM     31  C   UNL A   1      35.169  29.500  27.683  1.00  0.00     0.016 A 
ATOM     32  C   UNL A   1      35.441  31.883  27.896  1.00  0.00     0.016 A 
ATOM     33  C   UNL A   1      36.315  29.295  28.452  1.00  0.00     0.010 A 
ATOM     34  C   UNL A   1      36.664  31.676  28.544  1.00  0.00     0.010 A 
ATOM     35  C   UNL A   1      37.099  30.378  28.873  1.00  0.00    -0.014 A 
BRANCH  35  36
ATOM     36  C   UNL A   1      38.347  30.178  29.670  1.00  0.00     0.031 A 
ATOM     37  C   UNL A   1      39.476  29.351  29.111  1.00  0.00     0.074 A 
ATOM     38  C   UNL A   1      38.484  30.712  30.901  1.00  0.00     0.049 A 
ATOM     39  N   UNL A   1      40.492  28.801  29.728  1.00  0.00    -0.248 NA
ATOM     40  C   UNL A   1      39.449  29.092  27.662  1.00  0.00     0.031 C 
ATOM     41  C   UNL A   1      37.519  31.587  31.567  1.00  0.00     0.029 A 
ATOM     42  N   UNL A   1      39.501  30.590  31.819  1.00  0.00    -0.354 N 
ATOM     43  C   UNL A   1      41.170  28.063  28.767  1.00  0.00     0.074 A 
ATOM     44  C   UNL A   1      40.467  28.253  27.516  1.00  0.00     0.031 C 
ATOM     45  C   UNL A   1      38.004  31.957  32.760  1.00  0.00     0.029 A 
ATOM     46  C   UNL A   1      39.260  31.256  32.997  1.00  0.00     0.049 A 
ATOM     47  H   UNL A   1      40.323  30.075  31.649  1.00  0.00     0.167 HD
ATOM     48  C   UNL A   1      42.270  27.286  28.920  1.00  0.00     0.037 A 
ATOM     49  C   UNL A   1      39.932  31.257  34.163  1.00  0.00     0.037 A 
ATOM     50  C   UNL A   1      43.014  27.164  30.147  1.00  0.00     0.049 A 
ATOM     51  C   UNL A   1      41.147  30.390  34.315  1.00  0.00     0.074 A 
ATOM     52  C   UNL A   1      44.142  26.403  30.404  1.00  0.00     0.029 A 
ATOM     53  N   UNL A   1      42.720  27.850  31.317  1.00  0.00    -0.354 N 
ATOM     54  N   UNL A   1      41.711  29.598  33.436  1.00  0.00    -0.248 NA
ATOM     55  C   UNL A   1      41.798  30.389  35.633  1.00  0.00     0.031 C 
ATOM     56  C   UNL A   1      44.520  26.614  31.736  1.00  0.00     0.029 A 
ATOM     57  C   UNL A   1      43.647  27.531  32.296  1.00  0.00     0.049 A 
ATOM     58  H   UNL A   1      41.966  28.471  31.433  1.00  0.00     0.167 HD
ATOM     59  C   UNL A   1      42.779  29.002  34.093  1.00  0.00     0.074 A 
ATOM     60  C   UNL A   1      42.801  29.543  35.436  1.00  0.00     0.031 C 
ATOM     61  C   UNL A   1      43.653  28.079  33.627  1.00  0.00     0.037 A 
BRANCH  48  62
ATOM     62  C   UNL A   1      42.716  26.469  27.744  1.00  0.00     0.064 A 
ATOM     63  C   UNL A   1      42.168  25.212  27.457  1.00  0.00     0.173 A 
ATOM     64  C   UNL A   1      43.685  26.981  26.865  1.00  0.00     0.173 A 
ATOM     65  F   UNL A   1      41.251  24.673  28.273  1.00  0.00    -0.203 F 
ATOM     66  C   UNL A   1      42.589  24.487  26.343  1.00  0.00     0.198 A 
ATOM     67  C   UNL A   1      44.084  26.264  25.739  1.00  0.00     0.198 A 
ATOM     68  F   UNL A   1      44.236  28.183  27.091  1.00  0.00    -0.203 F 
ATOM     69  F   UNL A   1      42.079  23.269  26.108  1.00  0.00    -0.200 F 
ATOM     70  C   UNL A   1      43.539  25.015  25.483  1.00  0.00     0.200 A 
ATOM     71  F   UNL A   1      44.995  26.783  24.904  1.00  0.00    -0.200 F 
ATOM     72  F   UNL A   1      43.936  24.319  24.409  1.00  0.00    -0.200 F 
ENDBRANCH  48  62
BRANCH  49  73
ATOM     73  C   UNL A   1      39.424  32.066  35.302  1.00  0.00     0.064 A 
ATOM     74  C   UNL A   1      39.742  33.424  35.418  1.00  0.00     0.173 A 
ATOM     75  C   UNL A   1      38.593  31.502  36.282  1.00  0.00     0.173 A 
ATOM     76  F   UNL A   1      40.558  34.000  34.523  1.00  0.00    -0.203 F 
ATOM     77  C   UNL A   1      39.247  34.190  36.472  1.00  0.00     0.198 A 
ATOM     78  C   UNL A   1      38.073  32.275  37.317  1.00  0.00     0.198 A 
ATOM     79  F   UNL A   1      38.262  30.204  36.216  1.00  0.00    -0.203 F 
ATOM     80  F   UNL A   1      39.591  35.481  36.578  1.00  0.00    -0.200 F 
ATOM     81  C   UNL A   1      38.405  33.618  37.414  1.00  0.00     0.200 A 
ATOM     82  F   UNL A   1      37.250  31.721  38.216  1.00  0.00    -0.200 F 
ATOM     83  F   UNL A   1      37.916  34.359  38.417  1.00  0.00    -0.200 F 
ENDBRANCH  49  73
BRANCH  61  84
ATOM     84  C   UNL A   1      44.718  27.614  34.573  1.00  0.00     0.064 A 
ATOM     85  C   UNL A   1      45.939  28.292  34.687  1.00  0.00     0.173 A 
ATOM     86  C   UNL A   1      44.503  26.495  35.389  1.00  0.00     0.173 A 
ATOM     87  F   UNL A   1      46.194  29.358  33.913  1.00  0.00    -0.203 F 
ATOM     88  C   UNL A   1      46.919  27.853  35.573  1.00  0.00     0.198 A 
ATOM     89  C   UNL A   1      45.477  26.070  36.289  1.00  0.00     0.198 A 
ATOM     90  F   UNL A   1      43.349  25.815  35.316  1.00  0.00    -0.203 F 
ATOM     91  F   UNL A   1      48.095  28.492  35.640  1.00  0.00    -0.200 F 
ATOM     92  C   UNL A   1      46.685  26.746  36.376  1.00  0.00     0.200 A 
ATOM     93  F   UNL A   1      45.249  25.003  37.067  1.00  0.00    -0.200 F 
ATOM     94  F   UNL A   1      47.630  26.324  37.228  1.00  0.00    -0.200 F 
ENDBRANCH  61  84
ENDBRANCH  35  36
ENDBRANCH  28  30
ENDBRANCH  27  28
ENDBRANCH  26  27
ENDBRANCH   1  26
TORSDOF 14
ENDMDL
MODEL 3
REMARK VINA RESULT:     -12.0      0.534      1.688
REMARK SMILES C[NH2+][C@@]1(C(=O)OCCOC(=O)c2ccc(-c3c4nc(c(-c5c(F)c(F)c(F)c(F)c5F)c5ccc([nH]5)c(-c5c(F)c(F)c(F)c(F)c5F)c5nc(c(-c6c(F)c(F)c(F)c(F)c6F)c6ccc3[nH]6)C=C5)C=C4)cc2)CCC[C@@H]([N@@H+](C)C2CC[NH+](C)CC2)C1
REMARK SMILES IDX 7 1 6 2 4 3 5 4 3 5 75 6 88 7 76 8 78 9 77 10 2 11 1 12
REMARK SMILES IDX 79 15 80 16 81 18 82 19 87 20 83 21 86 22 84 23 85 24 8 26
REMARK SMILES IDX 9 27 10 28 11 29 12 30 13 31 74 32 14 33 73 34 15 35 16 36
REMARK SMILES IDX 17 37 67 38 18 39 72 40 66 41 68 42 19 43 71 44 65 45 64 46
REMARK SMILES IDX 20 48 52 49 32 50 51 51 33 52 36 53 50 54 69 55 34 56 35 57
REMARK SMILES IDX 49 59 70 60 37 61 21 62 22 63 30 64 23 65 24 66 28 67 31 68
REMARK SMILES IDX 25 69 26 70 29 71 27 72 53 73 54 74 62 75 55 76 56 77 60 78
REMARK SMILES IDX 63 79 57 80 58 81 61 82 59 83 38 84 39 85 47 86 40 87 41 88
REMARK SMILES IDX 45 89 48 90 42 91 43 92 46 93 44 94
REMARK H PARENT 2 13 2 14 79 17 84 25 68 47 36 58
REMARK Flexibility Score: inf
ROOT
ATOM      1  C   UNL A   1      32.718  29.349  24.313  1.00  0.00     0.274 C 
ENDROOT
BRANCH   1   2
ATOM      2  O   UNL A   1      31.974  28.297  23.669  1.00  0.00    -0.457 OA
BRANCH   2   3
ATOM      3  C   UNL A   1      32.711  27.225  23.268  1.00  0.00     0.368 C 
ATOM      4  O   UNL A   1      33.651  27.301  22.479  1.00  0.00    -0.245 OA
BRANCH   3   5
ATOM      5  C   UNL A   1      32.208  25.866  23.869  1.00  0.00     0.199 C 
ATOM      6  C   UNL A   1      32.310  26.039  25.393  1.00  0.00     0.081 C 
ATOM      7  C   UNL A   1      33.009  24.636  23.400  1.00  0.00     0.146 C 
ATOM      8  C   UNL A   1      33.753  26.240  25.834  1.00  0.00     0.013 C 
ATOM      9  C   UNL A   1      34.363  24.374  24.098  1.00  0.00     0.190 C 
ATOM     10  C   UNL A   1      34.688  25.118  25.409  1.00  0.00     0.065 C 
BRANCH   5  11
ATOM     11  N   UNL A   1      30.811  25.725  23.358  1.00  0.00    -0.334 N 
ATOM     12  C   UNL A   1      29.694  25.904  24.259  1.00  0.00     0.331 C 
ATOM     13  H   UNL A   1      30.701  26.409  22.610  1.00  0.00     0.347 HD
ATOM     14  H   UNL A   1      30.753  24.740  23.101  1.00  0.00     0.347 HD
ENDBRANCH   5  11
BRANCH   9  15
ATOM     15  N   UNL A   1      34.782  22.948  24.059  1.00  0.00    -0.332 N 
ATOM     16  C   UNL A   1      36.103  22.809  23.421  1.00  0.00     0.333 C 
ATOM     17  H   UNL A   1      33.995  22.596  23.515  1.00  0.00     0.348 HD
BRANCH  15  18
ATOM     18  C   UNL A   1      34.660  22.009  25.218  1.00  0.00     0.195 C 
ATOM     19  C   UNL A   1      35.446  20.688  25.153  1.00  0.00     0.126 C 
ATOM     20  C   UNL A   1      33.283  21.759  25.870  1.00  0.00     0.126 C 
ATOM     21  C   UNL A   1      34.624  19.488  24.699  1.00  0.00     0.268 C 
ATOM     22  C   UNL A   1      32.557  20.498  25.399  1.00  0.00     0.268 C 
ATOM     23  N   UNL A   1      33.400  19.299  25.481  1.00  0.00    -0.337 N 
ATOM     24  C   UNL A   1      32.660  18.140  24.962  1.00  0.00     0.332 C 
ATOM     25  H   UNL A   1      33.651  19.137  26.457  1.00  0.00     0.347 HD
ENDBRANCH  15  18
ENDBRANCH   9  15
ENDBRANCH   3   5
ENDBRANCH   2   3
ENDBRANCH   1   2
BRANCH   1  26
ATOM     26  C   UNL A   1      31.858  30.046  25.363  1.00  0.00     0.275 C 
BRANCH  26  27
ATOM     27  O   UNL A   1      32.492  29.960  26.653  1.00  0.00    -0.458 OA
BRANCH  27  28
ATOM     28  C   UNL A   1      33.041  31.105  27.114  1.00  0.00     0.338 C 
ATOM     29  O   UNL A   1      32.523  32.208  27.163  1.00  0.00    -0.246 OA
BRANCH  28  30
ATOM     30  C   UNL A   1      34.412  30.861  27.601  1.00  0.00     0.060 A 
ATOM     31  C   UNL A   1      34.830  29.570  27.906  1.00  0.00     0.016 A 
ATOM     32  C   UNL A   1      35.234  31.943  27.906  1.00  0.00     0.016 A 
ATOM     33  C   UNL A   1      35.999  29.365  28.639  1.00  0.00     0.010 A 
ATOM     34  C   UNL A   1      36.474  31.723  28.516  1.00  0.00     0.010 A 
ATOM     35  C   UNL A   1      36.857  30.434  28.934  1.00  0.00    -0.014 A 
BRANCH  35  36
ATOM     36  C   UNL A   1      38.129  30.231  29.690  1.00  0.00     0.031 A 
ATOM     37  C   UNL A   1      39.240  29.405  29.092  1.00  0.00     0.074 A 
ATOM     38  C   UNL A   1      38.307  30.761  30.918  1.00  0.00     0.049 A 
ATOM     39  N   UNL A   1      40.274  28.853  29.675  1.00  0.00    -0.248 NA
ATOM     40  C   UNL A   1      39.167  29.150  27.645  1.00  0.00     0.031 C 
ATOM     41  C   UNL A   1      37.363  31.634  31.616  1.00  0.00     0.029 A 
ATOM     42  N   UNL A   1      39.352  30.636  31.802  1.00  0.00    -0.354 N 
ATOM     43  C   UNL A   1      40.921  28.117  28.690  1.00  0.00     0.074 A 
ATOM     44  C   UNL A   1      40.178  28.311  27.463  1.00  0.00     0.031 C 
ATOM     45  C   UNL A   1      37.886  32.000  32.794  1.00  0.00     0.029 A 
ATOM     46  C   UNL A   1      39.149  31.298  32.989  1.00  0.00     0.049 A 
ATOM     47  H   UNL A   1      40.168  30.121  31.605  1.00  0.00     0.167 HD
ATOM     48  C   UNL A   1      42.024  27.339  28.806  1.00  0.00     0.037 A 
ATOM     49  C   UNL A   1      39.858  31.295  34.133  1.00  0.00     0.037 A 
ATOM     50  C   UNL A   1      42.807  27.213  30.008  1.00  0.00     0.049 A 
ATOM     51  C   UNL A   1      41.077  30.426  34.244  1.00  0.00     0.074 A 
ATOM     52  C   UNL A   1      43.943  26.450  30.227  1.00  0.00     0.029 A 
ATOM     53  N   UNL A   1      42.552  27.895  31.189  1.00  0.00    -0.354 N 
ATOM     54  N   UNL A   1      41.612  29.637  33.345  1.00  0.00    -0.248 NA
ATOM     55  C   UNL A   1      41.770  30.421  35.540  1.00  0.00     0.031 C 
ATOM     56  C   UNL A   1      44.363  26.657  31.547  1.00  0.00     0.029 A 
ATOM     57  C   UNL A   1      43.509  27.572  32.137  1.00  0.00     0.049 A 
ATOM     58  H   UNL A   1      41.802  28.516  31.331  1.00  0.00     0.167 HD
ATOM     59  C   UNL A   1      42.699  29.038  33.965  1.00  0.00     0.074 A 
ATOM     60  C   UNL A   1      42.765  29.576  35.308  1.00  0.00     0.031 C 
ATOM     61  C   UNL A   1      43.558  28.117  33.469  1.00  0.00     0.037 A 
BRANCH  48  62
ATOM     62  C   UNL A   1      42.432  26.525  27.614  1.00  0.00     0.064 A 
ATOM     63  C   UNL A   1      43.426  26.951  26.723  1.00  0.00     0.173 A 
ATOM     64  C   UNL A   1      41.838  25.273  27.386  1.00  0.00     0.173 A 
ATOM     65  F   UNL A   1      44.014  28.145  26.889  1.00  0.00    -0.203 F 
ATOM     66  C   UNL A   1      43.798  26.162  25.636  1.00  0.00     0.198 A 
ATOM     67  C   UNL A   1      42.230  24.476  26.313  1.00  0.00     0.198 A 
ATOM     68  F   UNL A   1      40.885  24.815  28.212  1.00  0.00    -0.203 F 
ATOM     69  F   UNL A   1      44.726  26.605  24.775  1.00  0.00    -0.200 F 
ATOM     70  C   UNL A   1      43.206  24.924  25.436  1.00  0.00     0.200 A 
ATOM     71  F   UNL A   1      41.664  23.275  26.129  1.00  0.00    -0.200 F 
ATOM     72  F   UNL A   1      43.571  24.164  24.395  1.00  0.00    -0.200 F 
ENDBRANCH  48  62
BRANCH  49  73
ATOM     73  C   UNL A   1      39.387  32.101  35.290  1.00  0.00     0.064 A 
ATOM     74  C   UNL A   1      39.745  33.447  35.422  1.00  0.00     0.173 A 
ATOM     75  C   UNL A   1      38.552  31.546  36.272  1.00  0.00     0.173 A 
ATOM     76  F   UNL A   1      40.567  34.013  34.525  1.00  0.00    -0.203 F 
ATOM     77  C   UNL A   1      39.285  34.211  36.493  1.00  0.00     0.198 A 
ATOM     78  C   UNL A   1      38.068  32.318  37.324  1.00  0.00     0.198 A 
ATOM     79  F   UNL A   1      38.184  30.259  36.191  1.00  0.00    -0.203 F 
ATOM     80  F   UNL A   1      39.667  35.490  36.614  1.00  0.00    -0.200 F 
ATOM     81  C   UNL A   1      38.438  33.649  37.437  1.00  0.00     0.200 A 
ATOM     82  F   UNL A   1      37.239  31.774  38.226  1.00  0.00    -0.200 F 
ATOM     83  F   UNL A   1      37.983  34.389  38.457  1.00  0.00    -0.200 F 
ENDBRANCH  49  73
BRANCH  61  84
ATOM     84  C   UNL A   1      44.652  27.648  34.380  1.00  0.00     0.064 A 
ATOM     85  C   UNL A   1      45.875  28.327  34.459  1.00  0.00     0.173 A 
ATOM     86  C   UNL A   1      44.464  26.524  35.196  1.00  0.00     0.173 A 
ATOM     87  F   UNL A   1      46.105  29.397  33.684  1.00  0.00    -0.203 F 
ATOM     88  C   UNL A   1      46.882  27.885  35.312  1.00  0.00     0.198 A 
ATOM     89  C   UNL A   1      45.466  26.095  36.062  1.00  0.00     0.198 A 
ATOM     90  F   UNL A   1      43.309  25.843  35.154  1.00  0.00    -0.203 F 
ATOM     91  F   UNL A   1      48.059  28.525  35.346  1.00  0.00    -0.200 F 
ATOM     92  C   UNL A   1      46.675  26.773  36.116  1.00  0.00     0.200 A 
ATOM     93  F   UNL A   1      45.263  25.024  36.842  1.00  0.00    -0.200 F 
ATOM     94  F   UNL A   1      47.646  26.348  36.935  1.00  0.00    -0.200 F 
ENDBRANCH  61  84
ENDBRANCH  35  36
ENDBRANCH  28  30
ENDBRANCH  27  28
ENDBRANCH  26  27
ENDBRANCH   1  26
TORSDOF 14
ENDMDL
