MODEL 1
REMARK VINA RESULT:     -14.8      0.000      0.000
REMARK SMILES O=C(OCCOC(=O)c1nccnc1C(=O)Nc1n[nH]c2ncccc12)c1ccc(-c2c3nc(c(-c4c(F)c(F)c(F)c(F)c4F)c4ccc([nH]4)c(-c4c(F)c(F)c(F)c(F)c4F)c4nc(c(-c5c(F)c(F)c(F)c(F)c5F)c5ccc2[nH]5)C=C4)C=C3)cc1
REMARK SMILES IDX 4 1 3 2 2 3 1 4 27 5 28 6 89 7 29 8 88 9 30 10 31 11 32 12
REMARK SMILES IDX 82 13 33 14 87 15 81 16 83 17 34 18 86 19 80 20 79 21 35 23
REMARK SMILES IDX 67 24 47 25 66 26 48 27 51 28 65 29 84 30 49 31 50 32 64 34
REMARK SMILES IDX 85 35 52 36 36 37 37 38 45 39 38 40 39 41 43 42 46 43 40 44
REMARK SMILES IDX 41 45 44 46 42 47 68 48 69 49 77 50 70 51 71 52 75 53 78 54
REMARK SMILES IDX 72 55 73 56 76 57 74 58 53 59 54 60 62 61 55 62 56 63 60 64
REMARK SMILES IDX 63 65 57 66 58 67 61 68 59 69 5 70 6 71 7 72 8 73 9 74 10 75
REMARK SMILES IDX 14 76 11 77 13 78 12 79 15 80 16 81 17 82 18 84 19 85 26 86
REMARK SMILES IDX 20 87 21 88 25 89 22 91 24 92 23 93
REMARK H PARENT 83 22 51 33 17 83 20 90
REMARK Flexibility Score: inf
ROOT
ATOM      1  C   UNL A   1      37.304  23.053  24.949  1.00  0.00     0.275 C 
ENDROOT
BRANCH   1   2
ATOM      2  O   UNL A   1      38.101  23.156  26.218  1.00  0.00    -0.458 OA
BRANCH   2   3
ATOM      3  C   UNL A   1      39.389  22.757  26.499  1.00  0.00     0.338 C 
ATOM      4  O   UNL A   1      39.783  21.607  26.532  1.00  0.00    -0.246 OA
BRANCH   3   5
ATOM      5  C   UNL A   1      40.281  23.979  26.720  1.00  0.00     0.060 A 
ATOM      6  C   UNL A   1      41.115  23.989  27.806  1.00  0.00     0.016 A 
ATOM      7  C   UNL A   1      40.231  25.190  26.059  1.00  0.00     0.016 A 
ATOM      8  C   UNL A   1      41.306  25.136  28.586  1.00  0.00     0.010 A 
ATOM      9  C   UNL A   1      40.659  26.370  26.740  1.00  0.00     0.010 A 
ATOM     10  C   UNL A   1      40.915  26.365  28.134  1.00  0.00    -0.014 A 
BRANCH  10  11
ATOM     11  C   UNL A   1      40.583  27.540  29.059  1.00  0.00     0.031 A 
ATOM     12  C   UNL A   1      41.548  27.758  30.198  1.00  0.00     0.074 A 
ATOM     13  C   UNL A   1      39.705  28.574  28.924  1.00  0.00     0.049 A 
ATOM     14  N   UNL A   1      41.359  28.203  31.407  1.00  0.00    -0.248 NA
ATOM     15  C   UNL A   1      42.942  27.380  29.911  1.00  0.00     0.031 C 
ATOM     16  C   UNL A   1      38.975  28.983  27.732  1.00  0.00     0.029 A 
ATOM     17  N   UNL A   1      39.289  29.524  29.849  1.00  0.00    -0.354 N 
ATOM     18  C   UNL A   1      42.554  27.951  32.070  1.00  0.00     0.074 A 
ATOM     19  C   UNL A   1      43.450  27.327  31.127  1.00  0.00     0.031 C 
ATOM     20  C   UNL A   1      38.149  30.007  28.000  1.00  0.00     0.029 A 
ATOM     21  C   UNL A   1      38.263  30.337  29.406  1.00  0.00     0.049 A 
ATOM     22  H   UNL A   1      39.692  29.610  30.743  1.00  0.00     0.167 HD
ATOM     23  C   UNL A   1      42.862  28.219  33.359  1.00  0.00     0.037 A 
ATOM     24  C   UNL A   1      37.479  31.233  30.045  1.00  0.00     0.037 A 
ATOM     25  C   UNL A   1      42.046  29.054  34.195  1.00  0.00     0.049 A 
ATOM     26  C   UNL A   1      37.745  31.486  31.503  1.00  0.00     0.074 A 
ATOM     27  C   UNL A   1      42.213  29.389  35.523  1.00  0.00     0.029 A 
ATOM     28  N   UNL A   1      40.938  29.757  33.737  1.00  0.00    -0.354 N 
ATOM     29  N   UNL A   1      38.703  31.001  32.254  1.00  0.00    -0.248 NA
ATOM     30  C   UNL A   1      36.836  32.406  32.201  1.00  0.00     0.031 C 
ATOM     31  C   UNL A   1      41.188  30.275  35.877  1.00  0.00     0.029 A 
ATOM     32  C   UNL A   1      40.413  30.528  34.755  1.00  0.00     0.049 A 
ATOM     33  H   UNL A   1      40.580  29.711  32.820  1.00  0.00     0.167 HD
ATOM     34  C   UNL A   1      38.542  31.585  33.501  1.00  0.00     0.074 A 
ATOM     35  C   UNL A   1      37.392  32.463  33.404  1.00  0.00     0.031 C 
ATOM     36  C   UNL A   1      39.284  31.414  34.621  1.00  0.00     0.037 A 
BRANCH  23  37
ATOM     37  C   UNL A   1      44.055  27.509  33.927  1.00  0.00     0.064 A 
ATOM     38  C   UNL A   1      45.360  28.021  33.875  1.00  0.00     0.173 A 
ATOM     39  C   UNL A   1      43.885  26.210  34.436  1.00  0.00     0.173 A 
ATOM     40  F   UNL A   1      45.586  29.243  33.369  1.00  0.00    -0.203 F 
ATOM     41  C   UNL A   1      46.452  27.236  34.239  1.00  0.00     0.198 A 
ATOM     42  C   UNL A   1      44.974  25.446  34.843  1.00  0.00     0.198 A 
ATOM     43  F   UNL A   1      42.661  25.666  34.505  1.00  0.00    -0.203 F 
ATOM     44  F   UNL A   1      47.696  27.705  34.069  1.00  0.00    -0.200 F 
ATOM     45  C   UNL A   1      46.259  25.950  34.724  1.00  0.00     0.200 A 
ATOM     46  F   UNL A   1      44.781  24.208  35.317  1.00  0.00    -0.200 F 
ATOM     47  F   UNL A   1      47.312  25.190  35.052  1.00  0.00    -0.200 F 
ENDBRANCH  23  37
BRANCH  24  48
ATOM     48  C   UNL A   1      36.352  31.921  29.339  1.00  0.00     0.064 A 
ATOM     49  C   UNL A   1      36.345  33.309  29.135  1.00  0.00     0.173 A 
ATOM     50  C   UNL A   1      35.234  31.203  28.880  1.00  0.00     0.173 A 
ATOM     51  F   UNL A   1      37.370  34.054  29.573  1.00  0.00    -0.203 F 
ATOM     52  C   UNL A   1      35.267  33.949  28.517  1.00  0.00     0.198 A 
ATOM     53  C   UNL A   1      34.169  31.839  28.240  1.00  0.00     0.198 A 
ATOM     54  F   UNL A   1      35.175  29.873  29.048  1.00  0.00    -0.203 F 
ATOM     55  F   UNL A   1      35.273  35.283  28.376  1.00  0.00    -0.200 F 
ATOM     56  C   UNL A   1      34.182  33.214  28.065  1.00  0.00     0.200 A 
ATOM     57  F   UNL A   1      33.129  31.119  27.797  1.00  0.00    -0.200 F 
ATOM     58  F   UNL A   1      33.149  33.828  27.472  1.00  0.00    -0.200 F 
ENDBRANCH  24  48
BRANCH  36  59
ATOM     59  C   UNL A   1      38.920  32.245  35.811  1.00  0.00     0.064 A 
ATOM     60  C   UNL A   1      38.152  31.730  36.863  1.00  0.00     0.173 A 
ATOM     61  C   UNL A   1      39.391  33.562  35.913  1.00  0.00     0.173 A 
ATOM     62  F   UNL A   1      37.666  30.481  36.797  1.00  0.00    -0.203 F 
ATOM     63  C   UNL A   1      37.849  32.515  37.971  1.00  0.00     0.198 A 
ATOM     64  C   UNL A   1      39.112  34.332  37.035  1.00  0.00     0.198 A 
ATOM     65  F   UNL A   1      40.131  34.094  34.929  1.00  0.00    -0.203 F 
ATOM     66  F   UNL A   1      37.075  32.021  38.947  1.00  0.00    -0.200 F 
ATOM     67  C   UNL A   1      38.337  33.811  38.060  1.00  0.00     0.200 A 
ATOM     68  F   UNL A   1      39.593  35.580  37.126  1.00  0.00    -0.200 F 
ATOM     69  F   UNL A   1      38.053  34.561  39.134  1.00  0.00    -0.200 F 
ENDBRANCH  36  59
ENDBRANCH  10  11
ENDBRANCH   3   5
ENDBRANCH   2   3
ENDBRANCH   1   2
BRANCH   1  70
ATOM     70  C   UNL A   1      35.514  23.496  24.916  1.00  0.00     0.275 C 
BRANCH  70  71
ATOM     71  O   UNL A   1      34.503  24.558  23.480  1.00  0.00    -0.457 OA
BRANCH  71  72
ATOM     72  C   UNL A   1      33.653  25.644  22.957  1.00  0.00     0.359 C 
ATOM     73  O   UNL A   1      33.541  25.752  21.733  1.00  0.00    -0.244 OA
BRANCH  72  74
ATOM     74  C   UNL A   1      32.915  26.741  23.770  1.00  0.00     0.179 A 
ATOM     75  N   UNL A   1      33.761  27.837  23.875  1.00  0.00    -0.245 NA
ATOM     76  C   UNL A   1      31.582  26.871  24.223  1.00  0.00     0.161 A 
ATOM     77  C   UNL A   1      33.278  28.997  24.393  1.00  0.00     0.132 A 
ATOM     78  N   UNL A   1      31.189  28.053  24.843  1.00  0.00    -0.247 NA
ATOM     79  C   UNL A   1      32.019  29.096  24.910  1.00  0.00     0.132 A 
BRANCH  76  80
ATOM     80  C   UNL A   1      30.346  25.972  24.303  1.00  0.00     0.278 C 
ATOM     81  O   UNL A   1      29.267  26.404  23.871  1.00  0.00    -0.267 OA
ATOM     82  N   UNL A   1      30.248  24.732  24.853  1.00  0.00    -0.303 N 
ATOM     83  H   UNL A   1      29.338  24.366  24.936  1.00  0.00     0.172 HD
BRANCH  82  84
ATOM     84  C   UNL A   1      31.243  23.945  25.296  1.00  0.00     0.164 A 
ATOM     85  N   UNL A   1      31.600  24.115  26.576  1.00  0.00    -0.155 NA
ATOM     86  C   UNL A   1      31.820  22.852  24.640  1.00  0.00     0.063 A 
ATOM     87  N   UNL A   1      32.080  22.941  27.048  1.00  0.00    -0.259 N 
ATOM     88  C   UNL A   1      32.391  22.049  26.083  1.00  0.00     0.157 A 
ATOM     89  C   UNL A   1      31.932  21.885  23.053  1.00  0.00     0.017 A 
ATOM     90  H   UNL A   1      32.192  22.754  28.008  1.00  0.00     0.192 HD
ATOM     91  N   UNL A   1      32.997  20.473  26.126  1.00  0.00    -0.237 NA
ATOM     92  C   UNL A   1      32.528  20.217  23.084  1.00  0.00     0.021 A 
ATOM     93  C   UNL A   1      33.024  19.611  24.625  1.00  0.00     0.113 A 
ENDBRANCH  82  84
ENDBRANCH  76  80
ENDBRANCH  72  74
ENDBRANCH  71  72
ENDBRANCH  70  71
ENDBRANCH   1  70
TORSDOF 13
ENDMDL
MODEL 2
REMARK VINA RESULT:     -14.7      1.261      2.213
REMARK SMILES O=C(OCCOC(=O)c1nccnc1C(=O)Nc1n[nH]c2ncccc12)c1ccc(-c2c3nc(c(-c4c(F)c(F)c(F)c(F)c4F)c4ccc([nH]4)c(-c4c(F)c(F)c(F)c(F)c4F)c4nc(c(-c5c(F)c(F)c(F)c(F)c5F)c5ccc2[nH]5)C=C4)C=C3)cc1
REMARK SMILES IDX 4 1 3 2 2 3 1 4 27 5 28 6 89 7 29 8 88 9 30 10 31 11 32 12
REMARK SMILES IDX 82 13 33 14 87 15 81 16 83 17 34 18 86 19 80 20 79 21 35 23
REMARK SMILES IDX 67 24 47 25 66 26 48 27 51 28 65 29 84 30 49 31 50 32 64 34
REMARK SMILES IDX 85 35 52 36 36 37 37 38 45 39 38 40 39 41 43 42 46 43 40 44
REMARK SMILES IDX 41 45 44 46 42 47 68 48 69 49 77 50 70 51 71 52 75 53 78 54
REMARK SMILES IDX 72 55 73 56 76 57 74 58 53 59 54 60 62 61 55 62 56 63 60 64
REMARK SMILES IDX 63 65 57 66 58 67 61 68 59 69 5 70 6 71 7 72 8 73 9 74 10 75
REMARK SMILES IDX 14 76 11 77 13 78 12 79 15 80 16 81 17 82 18 84 19 85 26 86
REMARK SMILES IDX 20 87 21 88 25 89 22 91 24 92 23 93
REMARK H PARENT 83 22 51 33 17 83 20 90
REMARK Flexibility Score: inf
ROOT
ATOM      1  C   UNL A   1      38.330  21.259  25.421  1.00  0.00     0.275 C 
ENDROOT
BRANCH   1   2
ATOM      2  O   UNL A   1      38.900  22.367  26.260  1.00  0.00    -0.458 OA
BRANCH   2   3
ATOM      3  C   UNL A   1      40.014  22.393  27.068  1.00  0.00     0.338 C 
ATOM      4  O   UNL A   1      40.449  21.453  27.706  1.00  0.00    -0.246 OA
BRANCH   3   5
ATOM      5  C   UNL A   1      40.669  23.773  27.016  1.00  0.00     0.060 A 
ATOM      6  C   UNL A   1      41.709  24.034  27.869  1.00  0.00     0.016 A 
ATOM      7  C   UNL A   1      40.230  24.890  26.334  1.00  0.00     0.016 A 
ATOM      8  C   UNL A   1      41.838  25.262  28.530  1.00  0.00     0.010 A 
ATOM      9  C   UNL A   1      40.556  26.185  26.841  1.00  0.00     0.010 A 
ATOM     10  C   UNL A   1      41.117  26.352  28.132  1.00  0.00    -0.014 A 
BRANCH  10  11
ATOM     11  C   UNL A   1      40.774  27.523  29.057  1.00  0.00     0.031 A 
ATOM     12  C   UNL A   1      41.742  27.755  30.191  1.00  0.00     0.074 A 
ATOM     13  C   UNL A   1      39.881  28.545  28.926  1.00  0.00     0.049 A 
ATOM     14  N   UNL A   1      41.554  28.199  31.401  1.00  0.00    -0.248 NA
ATOM     15  C   UNL A   1      43.139  27.396  29.896  1.00  0.00     0.031 C 
ATOM     16  C   UNL A   1      39.139  28.943  27.738  1.00  0.00     0.029 A 
ATOM     17  N   UNL A   1      39.458  29.490  29.853  1.00  0.00    -0.354 N 
ATOM     18  C   UNL A   1      42.755  27.963  32.057  1.00  0.00     0.074 A 
ATOM     19  C   UNL A   1      43.655  27.350  31.110  1.00  0.00     0.031 C 
ATOM     20  C   UNL A   1      38.301  29.956  28.010  1.00  0.00     0.029 A 
ATOM     21  C   UNL A   1      38.419  30.289  29.414  1.00  0.00     0.049 A 
ATOM     22  H   UNL A   1      39.864  29.583  30.744  1.00  0.00     0.167 HD
ATOM     23  C   UNL A   1      43.067  28.237  33.344  1.00  0.00     0.037 A 
ATOM     24  C   UNL A   1      37.626  31.175  30.057  1.00  0.00     0.037 A 
ATOM     25  C   UNL A   1      42.244  29.062  34.184  1.00  0.00     0.049 A 
ATOM     26  C   UNL A   1      37.896  31.434  31.513  1.00  0.00     0.074 A 
ATOM     27  C   UNL A   1      42.414  29.400  35.511  1.00  0.00     0.029 A 
ATOM     28  N   UNL A   1      41.125  29.749  33.731  1.00  0.00    -0.354 N 
ATOM     29  N   UNL A   1      38.865  30.962  32.260  1.00  0.00    -0.248 NA
ATOM     30  C   UNL A   1      36.979  32.341  32.216  1.00  0.00     0.031 C 
ATOM     31  C   UNL A   1      41.379  30.273  35.870  1.00  0.00     0.029 A 
ATOM     32  C   UNL A   1      40.594  30.514  34.752  1.00  0.00     0.049 A 
ATOM     33  H   UNL A   1      40.762  29.698  32.817  1.00  0.00     0.167 HD
ATOM     34  C   UNL A   1      38.703  31.545  33.507  1.00  0.00     0.074 A 
ATOM     35  C   UNL A   1      37.540  32.407  33.416  1.00  0.00     0.031 C 
ATOM     36  C   UNL A   1      39.453  31.385  34.623  1.00  0.00     0.037 A 
BRANCH  23  37
ATOM     37  C   UNL A   1      44.272  27.543  33.906  1.00  0.00     0.064 A 
ATOM     38  C   UNL A   1      44.230  26.270  34.494  1.00  0.00     0.173 A 
ATOM     39  C   UNL A   1      45.490  28.243  33.955  1.00  0.00     0.173 A 
ATOM     40  F   UNL A   1      43.086  25.569  34.506  1.00  0.00    -0.203 F 
ATOM     41  C   UNL A   1      45.334  25.758  35.172  1.00  0.00     0.198 A 
ATOM     42  C   UNL A   1      46.605  27.708  34.592  1.00  0.00     0.198 A 
ATOM     43  F   UNL A   1      45.588  29.466  33.413  1.00  0.00    -0.203 F 
ATOM     44  F   UNL A   1      45.233  24.593  35.827  1.00  0.00    -0.200 F 
ATOM     45  C   UNL A   1      46.521  26.476  35.220  1.00  0.00     0.200 A 
ATOM     46  F   UNL A   1      47.750  28.403  34.630  1.00  0.00    -0.200 F 
ATOM     47  F   UNL A   1      47.573  25.992  35.892  1.00  0.00    -0.200 F 
ENDBRANCH  23  37
BRANCH  24  48
ATOM     48  C   UNL A   1      36.486  31.847  29.356  1.00  0.00     0.064 A 
ATOM     49  C   UNL A   1      36.477  33.230  29.118  1.00  0.00     0.173 A 
ATOM     50  C   UNL A   1      35.358  31.120  28.937  1.00  0.00     0.173 A 
ATOM     51  F   UNL A   1      37.510  33.984  29.518  1.00  0.00    -0.203 F 
ATOM     52  C   UNL A   1      35.387  33.857  28.506  1.00  0.00     0.198 A 
ATOM     53  C   UNL A   1      34.282  31.742  28.303  1.00  0.00     0.198 A 
ATOM     54  F   UNL A   1      35.301  29.795  29.139  1.00  0.00    -0.203 F 
ATOM     55  F   UNL A   1      35.392  35.186  28.332  1.00  0.00    -0.200 F 
ATOM     56  C   UNL A   1      34.292  33.112  28.094  1.00  0.00     0.200 A 
ATOM     57  F   UNL A   1      33.232  31.013  27.898  1.00  0.00    -0.200 F 
ATOM     58  F   UNL A   1      33.249  33.713  27.506  1.00  0.00    -0.200 F 
ENDBRANCH  24  48
BRANCH  36  59
ATOM     59  C   UNL A   1      39.085  32.212  35.814  1.00  0.00     0.064 A 
ATOM     60  C   UNL A   1      39.501  33.542  35.946  1.00  0.00     0.173 A 
ATOM     61  C   UNL A   1      38.262  31.670  36.812  1.00  0.00     0.173 A 
ATOM     62  F   UNL A   1      40.304  34.094  35.024  1.00  0.00    -0.203 F 
ATOM     63  C   UNL A   1      39.123  34.299  37.051  1.00  0.00     0.198 A 
ATOM     64  C   UNL A   1      37.861  32.438  37.899  1.00  0.00     0.198 A 
ATOM     65  F   UNL A   1      37.839  30.400  36.725  1.00  0.00    -0.203 F 
ATOM     66  F   UNL A   1      39.568  35.556  37.183  1.00  0.00    -0.200 F 
ATOM     67  C   UNL A   1      38.296  33.749  38.021  1.00  0.00     0.200 A 
ATOM     68  F   UNL A   1      37.053  31.910  38.829  1.00  0.00    -0.200 F 
ATOM     69  F   UNL A   1      37.924  34.483  39.078  1.00  0.00    -0.200 F 
ENDBRANCH  36  59
ENDBRANCH  10  11
ENDBRANCH   3   5
ENDBRANCH   2   3
ENDBRANCH   1   2
BRANCH   1  70
ATOM     70  C   UNL A   1      37.019  21.598  24.168  1.00  0.00     0.275 C 
BRANCH  70  71
ATOM     71  O   UNL A   1      35.870  23.286  23.968  1.00  0.00    -0.457 OA
BRANCH  71  72
ATOM     72  C   UNL A   1      34.904  24.316  24.395  1.00  0.00     0.359 C 
ATOM     73  O   UNL A   1      35.083  24.856  25.491  1.00  0.00    -0.244 OA
BRANCH  72  74
ATOM     74  C   UNL A   1      33.619  24.772  23.654  1.00  0.00     0.179 A 
ATOM     75  N   UNL A   1      34.006  25.499  22.536  1.00  0.00    -0.245 NA
ATOM     76  C   UNL A   1      32.252  24.445  23.808  1.00  0.00     0.161 A 
ATOM     77  C   UNL A   1      33.064  25.860  21.625  1.00  0.00     0.132 A 
ATOM     78  N   UNL A   1      31.330  24.942  22.893  1.00  0.00    -0.247 NA
ATOM     79  C   UNL A   1      31.735  25.623  21.818  1.00  0.00     0.132 A 
BRANCH  76  80
ATOM     80  C   UNL A   1      31.401  23.692  24.833  1.00  0.00     0.278 C 
ATOM     81  O   UNL A   1      30.330  24.196  25.201  1.00  0.00    -0.267 OA
ATOM     82  N   UNL A   1      31.690  22.522  25.463  1.00  0.00    -0.303 N 
ATOM     83  H   UNL A   1      31.084  22.264  26.195  1.00  0.00     0.172 HD
BRANCH  82  84
ATOM     84  C   UNL A   1      32.703  21.677  25.209  1.00  0.00     0.164 A 
ATOM     85  N   UNL A   1      33.668  21.620  26.136  1.00  0.00    -0.155 NA
ATOM     86  C   UNL A   1      32.777  20.721  24.189  1.00  0.00     0.063 A 
ATOM     87  N   UNL A   1      34.219  20.384  26.107  1.00  0.00    -0.259 N 
ATOM     88  C   UNL A   1      33.927  19.679  24.993  1.00  0.00     0.157 A 
ATOM     89  C   UNL A   1      31.994  20.051  22.639  1.00  0.00     0.017 A 
ATOM     90  H   UNL A   1      34.783  20.032  26.833  1.00  0.00     0.192 HD
ATOM     91  N   UNL A   1      34.336  18.125  24.475  1.00  0.00    -0.237 NA
ATOM     92  C   UNL A   1      32.382  18.408  22.101  1.00  0.00     0.021 A 
ATOM     93  C   UNL A   1      33.532  17.542  23.057  1.00  0.00     0.113 A 
ENDBRANCH  82  84
ENDBRANCH  76  80
ENDBRANCH  72  74
ENDBRANCH  71  72
ENDBRANCH  70  71
ENDBRANCH   1  70
TORSDOF 13
ENDMDL
MODEL 3
REMARK VINA RESULT:     -14.6      2.905      7.959
REMARK SMILES O=C(OCCOC(=O)c1nccnc1C(=O)Nc1n[nH]c2ncccc12)c1ccc(-c2c3nc(c(-c4c(F)c(F)c(F)c(F)c4F)c4ccc([nH]4)c(-c4c(F)c(F)c(F)c(F)c4F)c4nc(c(-c5c(F)c(F)c(F)c(F)c5F)c5ccc2[nH]5)C=C4)C=C3)cc1
REMARK SMILES IDX 4 1 3 2 2 3 1 4 27 5 28 6 89 7 29 8 88 9 30 10 31 11 32 12
REMARK SMILES IDX 82 13 33 14 87 15 81 16 83 17 34 18 86 19 80 20 79 21 35 23
REMARK SMILES IDX 67 24 47 25 66 26 48 27 51 28 65 29 84 30 49 31 50 32 64 34
REMARK SMILES IDX 85 35 52 36 36 37 37 38 45 39 38 40 39 41 43 42 46 43 40 44
REMARK SMILES IDX 41 45 44 46 42 47 68 48 69 49 77 50 70 51 71 52 75 53 78 54
REMARK SMILES IDX 72 55 73 56 76 57 74 58 53 59 54 60 62 61 55 62 56 63 60 64
REMARK SMILES IDX 63 65 57 66 58 67 61 68 59 69 5 70 6 71 7 72 8 73 9 74 10 75
REMARK SMILES IDX 14 76 11 77 13 78 12 79 15 80 16 81 17 82 18 84 19 85 26 86
REMARK SMILES IDX 20 87 21 88 25 89 22 91 24 92 23 93
REMARK H PARENT 83 22 51 33 17 83 20 90
REMARK Flexibility Score: inf
ROOT
ATOM      1  C   UNL A   1      32.792  33.737  27.480  1.00  0.00     0.275 C 
ENDROOT
BRANCH   1   2
ATOM      2  O   UNL A   1      32.830  34.096  28.938  1.00  0.00    -0.458 OA
BRANCH   2   3
ATOM      3  C   UNL A   1      33.893  34.180  29.810  1.00  0.00     0.338 C 
ATOM      4  O   UNL A   1      33.839  34.579  30.957  1.00  0.00    -0.246 OA
BRANCH   3   5
ATOM      5  C   UNL A   1      35.162  33.649  29.142  1.00  0.00     0.060 A 
ATOM      6  C   UNL A   1      35.107  32.436  28.509  1.00  0.00     0.016 A 
ATOM      7  C   UNL A   1      36.444  34.152  29.246  1.00  0.00     0.016 A 
ATOM      8  C   UNL A   1      36.142  31.498  28.608  1.00  0.00     0.010 A 
ATOM      9  C   UNL A   1      37.552  33.263  29.103  1.00  0.00     0.010 A 
ATOM     10  C   UNL A   1      37.371  31.857  29.083  1.00  0.00    -0.014 A 
BRANCH  10  11
ATOM     11  C   UNL A   1      38.353  30.871  29.722  1.00  0.00     0.031 A 
ATOM     12  C   UNL A   1      38.433  30.924  31.228  1.00  0.00     0.074 A 
ATOM     13  C   UNL A   1      39.010  29.792  29.210  1.00  0.00     0.049 A 
ATOM     14  N   UNL A   1      39.429  30.714  32.041  1.00  0.00    -0.248 NA
ATOM     15  C   UNL A   1      37.180  31.301  31.902  1.00  0.00     0.031 C 
ATOM     16  C   UNL A   1      38.785  29.125  27.934  1.00  0.00     0.029 A 
ATOM     17  N   UNL A   1      40.032  29.023  29.754  1.00  0.00    -0.354 N 
ATOM     18  C   UNL A   1      38.973  31.145  33.280  1.00  0.00     0.074 A 
ATOM     19  C   UNL A   1      37.620  31.613  33.106  1.00  0.00     0.031 C 
ATOM     20  C   UNL A   1      39.674  28.137  27.743  1.00  0.00     0.029 A 
ATOM     21  C   UNL A   1      40.567  28.092  28.882  1.00  0.00     0.049 A 
ATOM     22  H   UNL A   1      40.346  29.131  30.680  1.00  0.00     0.167 HD
ATOM     23  C   UNL A   1      39.640  31.147  34.456  1.00  0.00     0.037 A 
ATOM     24  C   UNL A   1      41.662  27.304  28.962  1.00  0.00     0.037 A 
ATOM     25  C   UNL A   1      40.883  30.454  34.645  1.00  0.00     0.049 A 
ATOM     26  C   UNL A   1      42.472  27.352  30.228  1.00  0.00     0.074 A 
ATOM     27  C   UNL A   1      41.687  30.393  35.765  1.00  0.00     0.029 A 
ATOM     28  N   UNL A   1      41.458  29.627  33.689  1.00  0.00    -0.354 N 
ATOM     29  N   UNL A   1      42.226  28.017  31.330  1.00  0.00    -0.248 NA
ATOM     30  C   UNL A   1      43.700  26.546  30.270  1.00  0.00     0.031 C 
ATOM     31  C   UNL A   1      42.766  29.548  35.477  1.00  0.00     0.029 A 
ATOM     32  C   UNL A   1      42.606  29.046  34.194  1.00  0.00     0.049 A 
ATOM     33  H   UNL A   1      41.101  29.477  32.784  1.00  0.00     0.167 HD
ATOM     34  C   UNL A   1      43.240  27.681  32.213  1.00  0.00     0.074 A 
ATOM     35  C   UNL A   1      44.107  26.750  31.516  1.00  0.00     0.031 C 
ATOM     36  C   UNL A   1      43.432  28.100  33.486  1.00  0.00     0.037 A 
BRANCH  23  37
ATOM     37  C   UNL A   1      39.076  32.008  35.547  1.00  0.00     0.064 A 
ATOM     38  C   UNL A   1      39.384  33.368  35.700  1.00  0.00     0.173 A 
ATOM     39  C   UNL A   1      38.287  31.404  36.541  1.00  0.00     0.173 A 
ATOM     40  F   UNL A   1      40.160  33.990  34.798  1.00  0.00    -0.203 F 
ATOM     41  C   UNL A   1      38.990  34.068  36.838  1.00  0.00     0.198 A 
ATOM     42  C   UNL A   1      37.854  32.119  37.654  1.00  0.00     0.198 A 
ATOM     43  F   UNL A   1      37.963  30.106  36.451  1.00  0.00    -0.203 F 
ATOM     44  F   UNL A   1      39.397  35.333  37.017  1.00  0.00    -0.200 F 
ATOM     45  C   UNL A   1      38.225  33.445  37.813  1.00  0.00     0.200 A 
ATOM     46  F   UNL A   1      37.110  31.514  38.589  1.00  0.00    -0.200 F 
ATOM     47  F   UNL A   1      37.866  34.114  38.916  1.00  0.00    -0.200 F 
ENDBRANCH  23  37
BRANCH  24  48
ATOM     48  C   UNL A   1      42.082  26.441  27.813  1.00  0.00     0.064 A 
ATOM     49  C   UNL A   1      41.590  25.137  27.649  1.00  0.00     0.173 A 
ATOM     50  C   UNL A   1      43.019  26.893  26.868  1.00  0.00     0.173 A 
ATOM     51  F   UNL A   1      40.715  24.637  28.532  1.00  0.00    -0.203 F 
ATOM     52  C   UNL A   1      42.024  24.322  26.600  1.00  0.00     0.198 A 
ATOM     53  C   UNL A   1      43.433  26.088  25.806  1.00  0.00     0.198 A 
ATOM     54  F   UNL A   1      43.533  28.129  26.970  1.00  0.00    -0.203 F 
ATOM     55  F   UNL A   1      41.566  23.066  26.496  1.00  0.00    -0.200 F 
ATOM     56  C   UNL A   1      42.942  24.799  25.676  1.00  0.00     0.200 A 
ATOM     57  F   UNL A   1      44.312  26.561  24.911  1.00  0.00    -0.200 F 
ATOM     58  F   UNL A   1      43.357  24.017  24.670  1.00  0.00    -0.200 F 
ENDBRANCH  24  48
BRANCH  36  59
ATOM     59  C   UNL A   1      44.581  27.502  34.233  1.00  0.00     0.064 A 
ATOM     60  C   UNL A   1      44.453  26.305  34.949  1.00  0.00     0.173 A 
ATOM     61  C   UNL A   1      45.840  28.119  34.189  1.00  0.00     0.173 A 
ATOM     62  F   UNL A   1      43.263  25.692  35.034  1.00  0.00    -0.203 F 
ATOM     63  C   UNL A   1      45.545  25.754  35.614  1.00  0.00     0.198 A 
ATOM     64  C   UNL A   1      46.935  27.550  34.829  1.00  0.00     0.198 A 
ATOM     65  F   UNL A   1      46.008  29.266  33.514  1.00  0.00    -0.203 F 
ATOM     66  F   UNL A   1      45.393  24.633  36.331  1.00  0.00    -0.200 F 
ATOM     67  C   UNL A   1      46.785  26.372  35.545  1.00  0.00     0.200 A 
ATOM     68  F   UNL A   1      48.136  28.141  34.751  1.00  0.00    -0.200 F 
ATOM     69  F   UNL A   1      47.837  25.835  36.178  1.00  0.00    -0.200 F 
ENDBRANCH  36  59
ENDBRANCH  10  11
ENDBRANCH   3   5
ENDBRANCH   2   3
ENDBRANCH   1   2
BRANCH   1  70
ATOM     70  C   UNL A   1      31.585  32.497  26.841  1.00  0.00     0.275 C 
BRANCH  70  71
ATOM     71  O   UNL A   1      31.726  30.451  26.903  1.00  0.00    -0.457 OA
BRANCH  71  72
ATOM     72  C   UNL A   1      31.711  29.083  26.351  1.00  0.00     0.359 C 
ATOM     73  O   UNL A   1      31.514  28.147  27.132  1.00  0.00    -0.244 OA
BRANCH  72  74
ATOM     74  C   UNL A   1      31.985  28.652  24.886  1.00  0.00     0.179 A 
ATOM     75  N   UNL A   1      33.293  29.001  24.575  1.00  0.00    -0.245 NA
ATOM     76  C   UNL A   1      31.258  27.869  23.960  1.00  0.00     0.161 A 
ATOM     77  C   UNL A   1      33.831  28.572  23.404  1.00  0.00     0.132 A 
ATOM     78  N   UNL A   1      31.835  27.559  22.733  1.00  0.00    -0.247 NA
ATOM     79  C   UNL A   1      33.101  27.893  22.472  1.00  0.00     0.132 A 
BRANCH  76  80
ATOM     80  C   UNL A   1      29.851  27.271  23.878  1.00  0.00     0.278 C 
ATOM     81  O   UNL A   1      28.978  27.888  23.250  1.00  0.00    -0.267 OA
ATOM     82  N   UNL A   1      29.389  26.135  24.467  1.00  0.00    -0.303 N 
ATOM     83  H   UNL A   1      28.418  25.985  24.415  1.00  0.00     0.172 HD
BRANCH  82  84
ATOM     84  C   UNL A   1      30.099  25.193  25.111  1.00  0.00     0.164 A 
ATOM     85  N   UNL A   1      29.787  25.002  26.400  1.00  0.00    -0.155 NA
ATOM     86  C   UNL A   1      30.989  24.268  24.553  1.00  0.00     0.063 A 
ATOM     87  N   UNL A   1      30.057  23.715  26.720  1.00  0.00    -0.259 N 
ATOM     88  C   UNL A   1      30.849  23.082  25.829  1.00  0.00     0.157 A 
ATOM     89  C   UNL A   1      31.909  23.738  23.024  1.00  0.00     0.017 A 
ATOM     90  H   UNL A   1      29.707  23.281  27.532  1.00  0.00     0.192 HD
ATOM     91  N   UNL A   1      31.461  21.511  25.746  1.00  0.00    -0.237 NA
ATOM     92  C   UNL A   1      32.524  22.081  22.904  1.00  0.00     0.021 A 
ATOM     93  C   UNL A   1      32.259  21.065  24.276  1.00  0.00     0.113 A 
ENDBRANCH  82  84
ENDBRANCH  76  80
ENDBRANCH  72  74
ENDBRANCH  71  72
ENDBRANCH  70  71
ENDBRANCH   1  70
TORSDOF 13
ENDMDL
