MODEL 1
REMARK VINA RESULT:     -10.1      0.000      0.000
REMARK SMILES CC[C@H](C(C)C)[C@](C)(O)C(=O)OCCOC(=O)c1ccc(-c2c3nc(c(-c4c(F)c(F)c(F)c(F)c4F)c4ccc([nH]4)c(-c4c(F)c(F)c(F)c(F)c4F)c4nc(c(-c5c(F)c(F)c(F)c(F)c5F)c5ccc2[nH]5)C=C4)C=C3)cc1
REMARK SMILES IDX 13 1 12 2 10 3 11 4 7 5 8 6 3 7 2 8 1 9 4 10 5 11 6 12 9 13
REMARK SMILES IDX 14 15 15 16 16 17 17 18 18 19 19 20 80 21 20 22 79 23 21 24
REMARK SMILES IDX 22 25 23 26 73 27 24 28 78 29 72 30 74 31 25 32 77 33 71 34
REMARK SMILES IDX 70 35 26 37 58 38 38 39 57 40 39 41 42 42 56 43 75 44 40 45
REMARK SMILES IDX 41 46 55 48 76 49 43 50 27 51 28 52 36 53 29 54 30 55 34 56
REMARK SMILES IDX 37 57 31 58 32 59 35 60 33 61 59 62 60 63 68 64 61 65 62 66
REMARK SMILES IDX 66 67 69 68 63 69 64 70 67 71 65 72 44 73 45 74 53 75 46 76
REMARK SMILES IDX 47 77 51 78 54 79 48 80 49 81 52 82 50 83
REMARK H PARENT 9 14 74 36 42 47
REMARK Flexibility Score: inf
ROOT
ATOM      1  C   UNL A   1      37.698  19.613  25.003  1.00  0.00     0.274 C 
ENDROOT
BRANCH   1   2
ATOM      2  O   UNL A   1      37.510  20.976  24.565  1.00  0.00    -0.460 OA
BRANCH   2   3
ATOM      3  C   UNL A   1      36.223  21.429  24.600  1.00  0.00     0.338 C 
ATOM      4  O   UNL A   1      35.287  20.753  25.007  1.00  0.00    -0.249 OA
BRANCH   3   5
ATOM      5  C   UNL A   1      36.101  22.911  24.145  1.00  0.00     0.162 C 
ATOM      6  C   UNL A   1      37.061  23.726  25.029  1.00  0.00     0.055 C 
BRANCH   5   7
ATOM      7  C   UNL A   1      34.624  23.487  24.095  1.00  0.00     0.034 C 
BRANCH   7   8
ATOM      8  C   UNL A   1      33.925  23.114  22.748  1.00  0.00     0.004 C 
ATOM      9  C   UNL A   1      32.724  22.184  22.870  1.00  0.00     0.004 C 
ENDBRANCH   7   8
BRANCH   7  10
ATOM     10  C   UNL A   1      34.359  24.986  24.463  1.00  0.00    -0.011 C 
ATOM     11  C   UNL A   1      33.734  25.770  23.302  1.00  0.00     0.008 C 
ATOM     12  C   UNL A   1      33.636  25.252  25.785  1.00  0.00     0.008 C 
ENDBRANCH   7  10
ENDBRANCH   5   7
BRANCH   5  13
ATOM     13  O   UNL A   1      36.623  23.078  22.809  1.00  0.00    -0.378 OA
ATOM     14  H   UNL A   1      37.473  22.616  22.734  1.00  0.00     0.212 HD
ENDBRANCH   5  13
ENDBRANCH   3   5
ENDBRANCH   2   3
ENDBRANCH   1   2
BRANCH   1  15
ATOM     15  C   UNL A   1      39.104  19.330  25.542  1.00  0.00     0.275 C 
BRANCH  15  16
ATOM     16  O   UNL A   1      39.838  20.539  25.821  1.00  0.00    -0.458 OA
BRANCH  16  17
ATOM     17  C   UNL A   1      40.575  20.514  26.955  1.00  0.00     0.338 C 
ATOM     18  O   UNL A   1      41.063  19.536  27.497  1.00  0.00    -0.246 OA
BRANCH  17  19
ATOM     19  C   UNL A   1      40.853  21.882  27.423  1.00  0.00     0.060 A 
ATOM     20  C   UNL A   1      40.264  22.925  26.713  1.00  0.00     0.016 A 
ATOM     21  C   UNL A   1      41.805  22.160  28.403  1.00  0.00     0.016 A 
ATOM     22  C   UNL A   1      40.661  24.238  26.908  1.00  0.00     0.010 A 
ATOM     23  C   UNL A   1      42.168  23.495  28.645  1.00  0.00     0.010 A 
ATOM     24  C   UNL A   1      41.621  24.540  27.875  1.00  0.00    -0.014 A 
BRANCH  24  25
ATOM     25  C   UNL A   1      42.086  25.945  28.003  1.00  0.00     0.031 A 
ATOM     26  C   UNL A   1      43.376  26.367  27.358  1.00  0.00     0.074 A 
ATOM     27  C   UNL A   1      41.311  26.864  28.611  1.00  0.00     0.049 A 
ATOM     28  N   UNL A   1      44.010  27.509  27.443  1.00  0.00    -0.248 NA
ATOM     29  C   UNL A   1      44.038  25.375  26.497  1.00  0.00     0.031 C 
ATOM     30  C   UNL A   1      39.990  26.606  29.189  1.00  0.00     0.029 A 
ATOM     31  N   UNL A   1      41.510  28.205  28.824  1.00  0.00    -0.354 N 
ATOM     32  C   UNL A   1      45.166  27.357  26.690  1.00  0.00     0.074 A 
ATOM     33  C   UNL A   1      45.143  26.017  26.142  1.00  0.00     0.031 C 
ATOM     34  C   UNL A   1      39.488  27.755  29.666  1.00  0.00     0.029 A 
ATOM     35  C   UNL A   1      40.479  28.813  29.497  1.00  0.00     0.049 A 
ATOM     36  H   UNL A   1      42.315  28.685  28.522  1.00  0.00     0.167 HD
ATOM     37  C   UNL A   1      46.158  28.255  26.481  1.00  0.00     0.037 A 
ATOM     38  C   UNL A   1      40.364  30.072  29.962  1.00  0.00     0.037 A 
ATOM     39  C   UNL A   1      46.155  29.601  26.989  1.00  0.00     0.049 A 
ATOM     40  C   UNL A   1      41.502  31.034  29.760  1.00  0.00     0.074 A 
ATOM     41  C   UNL A   1      47.124  30.579  26.854  1.00  0.00     0.029 A 
ATOM     42  N   UNL A   1      45.116  30.164  27.715  1.00  0.00    -0.354 N 
ATOM     43  N   UNL A   1      42.632  30.854  29.124  1.00  0.00    -0.248 NA
ATOM     44  C   UNL A   1      41.358  32.366  30.364  1.00  0.00     0.031 C 
ATOM     45  C   UNL A   1      46.684  31.728  27.522  1.00  0.00     0.029 A 
ATOM     46  C   UNL A   1      45.425  31.474  28.043  1.00  0.00     0.049 A 
ATOM     47  H   UNL A   1      44.282  29.702  27.961  1.00  0.00     0.167 HD
ATOM     48  C   UNL A   1      43.332  32.045  29.246  1.00  0.00     0.074 A 
ATOM     49  C   UNL A   1      42.489  32.952  29.997  1.00  0.00     0.031 C 
ATOM     50  C   UNL A   1      44.569  32.358  28.788  1.00  0.00     0.037 A 
BRANCH  37  51
ATOM     51  C   UNL A   1      47.356  27.793  25.710  1.00  0.00     0.064 A 
ATOM     52  C   UNL A   1      47.387  27.808  24.308  1.00  0.00     0.173 A 
ATOM     53  C   UNL A   1      48.504  27.362  26.390  1.00  0.00     0.173 A 
ATOM     54  F   UNL A   1      46.307  28.195  23.614  1.00  0.00    -0.203 F 
ATOM     55  C   UNL A   1      48.522  27.392  23.616  1.00  0.00     0.198 A 
ATOM     56  C   UNL A   1      49.644  26.968  25.696  1.00  0.00     0.198 A 
ATOM     57  F   UNL A   1      48.524  27.332  27.731  1.00  0.00    -0.203 F 
ATOM     58  F   UNL A   1      48.520  27.381  22.275  1.00  0.00    -0.200 F 
ATOM     59  C   UNL A   1      49.650  26.979  24.309  1.00  0.00     0.200 A 
ATOM     60  F   UNL A   1      50.735  26.575  26.367  1.00  0.00    -0.200 F 
ATOM     61  F   UNL A   1      50.743  26.584  23.640  1.00  0.00    -0.200 F 
ENDBRANCH  37  51
BRANCH  38  62
ATOM     62  C   UNL A   1      39.148  30.476  30.715  1.00  0.00     0.064 A 
ATOM     63  C   UNL A   1      38.053  31.059  30.064  1.00  0.00     0.173 A 
ATOM     64  C   UNL A   1      39.063  30.296  32.104  1.00  0.00     0.173 A 
ATOM     65  F   UNL A   1      38.099  31.278  28.741  1.00  0.00    -0.203 F 
ATOM     66  C   UNL A   1      36.921  31.454  30.776  1.00  0.00     0.198 A 
ATOM     67  C   UNL A   1      37.920  30.665  32.810  1.00  0.00     0.198 A 
ATOM     68  F   UNL A   1      40.088  29.748  32.774  1.00  0.00    -0.203 F 
ATOM     69  F   UNL A   1      35.904  32.046  30.137  1.00  0.00    -0.200 F 
ATOM     70  C   UNL A   1      36.853  31.250  32.146  1.00  0.00     0.200 A 
ATOM     71  F   UNL A   1      37.856  30.456  34.132  1.00  0.00    -0.200 F 
ATOM     72  F   UNL A   1      35.763  31.625  32.829  1.00  0.00    -0.200 F 
ENDBRANCH  38  62
BRANCH  50  73
ATOM     73  C   UNL A   1      45.072  33.739  29.076  1.00  0.00     0.064 A 
ATOM     74  C   UNL A   1      45.845  34.010  30.214  1.00  0.00     0.173 A 
ATOM     75  C   UNL A   1      44.808  34.792  28.188  1.00  0.00     0.173 A 
ATOM     76  F   UNL A   1      46.109  33.037  31.098  1.00  0.00    -0.203 F 
ATOM     77  C   UNL A   1      46.323  35.294  30.462  1.00  0.00     0.198 A 
ATOM     78  C   UNL A   1      45.304  36.069  28.429  1.00  0.00     0.198 A 
ATOM     79  F   UNL A   1      44.075  34.579  27.086  1.00  0.00    -0.203 F 
ATOM     80  F   UNL A   1      47.029  35.541  31.574  1.00  0.00    -0.200 F 
ATOM     81  C   UNL A   1      46.056  36.321  29.568  1.00  0.00     0.200 A 
ATOM     82  F   UNL A   1      45.052  37.060  27.561  1.00  0.00    -0.200 F 
ATOM     83  F   UNL A   1      46.519  37.555  29.807  1.00  0.00    -0.200 F 
ENDBRANCH  50  73
ENDBRANCH  24  25
ENDBRANCH  17  19
ENDBRANCH  16  17
ENDBRANCH  15  16
ENDBRANCH   1  15
TORSDOF 15
ENDMDL
MODEL 2
REMARK VINA RESULT:     -10.0      3.072      5.276
REMARK SMILES CC[C@H](C(C)C)[C@](C)(O)C(=O)OCCOC(=O)c1ccc(-c2c3nc(c(-c4c(F)c(F)c(F)c(F)c4F)c4ccc([nH]4)c(-c4c(F)c(F)c(F)c(F)c4F)c4nc(c(-c5c(F)c(F)c(F)c(F)c5F)c5ccc2[nH]5)C=C4)C=C3)cc1
REMARK SMILES IDX 13 1 12 2 10 3 11 4 7 5 8 6 3 7 2 8 1 9 4 10 5 11 6 12 9 13
REMARK SMILES IDX 14 15 15 16 16 17 17 18 18 19 19 20 80 21 20 22 79 23 21 24
REMARK SMILES IDX 22 25 23 26 73 27 24 28 78 29 72 30 74 31 25 32 77 33 71 34
REMARK SMILES IDX 70 35 26 37 58 38 38 39 57 40 39 41 42 42 56 43 75 44 40 45
REMARK SMILES IDX 41 46 55 48 76 49 43 50 27 51 28 52 36 53 29 54 30 55 34 56
REMARK SMILES IDX 37 57 31 58 32 59 35 60 33 61 59 62 60 63 68 64 61 65 62 66
REMARK SMILES IDX 66 67 69 68 63 69 64 70 67 71 65 72 44 73 45 74 53 75 46 76
REMARK SMILES IDX 47 77 51 78 54 79 48 80 49 81 52 82 50 83
REMARK H PARENT 9 14 74 36 42 47
REMARK Flexibility Score: inf
ROOT
ATOM      1  C   UNL A   1      41.652  19.833  26.081  1.00  0.00     0.274 C 
ENDROOT
BRANCH   1   2
ATOM      2  O   UNL A   1      42.839  20.586  26.413  1.00  0.00    -0.460 OA
BRANCH   2   3
ATOM      3  C   UNL A   1      43.692  20.820  25.374  1.00  0.00     0.338 C 
ATOM      4  O   UNL A   1      44.184  19.925  24.697  1.00  0.00    -0.249 OA
BRANCH   3   5
ATOM      5  C   UNL A   1      43.899  22.337  25.103  1.00  0.00     0.162 C 
ATOM      6  C   UNL A   1      44.777  22.446  23.844  1.00  0.00     0.055 C 
BRANCH   5   7
ATOM      7  C   UNL A   1      44.430  23.182  26.335  1.00  0.00     0.034 C 
BRANCH   7   8
ATOM      8  C   UNL A   1      43.246  23.843  27.111  1.00  0.00     0.004 C 
ATOM      9  C   UNL A   1      43.055  23.367  28.546  1.00  0.00     0.004 C 
ENDBRANCH   7   8
BRANCH   7  10
ATOM     10  C   UNL A   1      45.602  24.200  26.135  1.00  0.00    -0.011 C 
ATOM     11  C   UNL A   1      45.127  25.522  25.519  1.00  0.00     0.008 C 
ATOM     12  C   UNL A   1      46.527  24.429  27.332  1.00  0.00     0.008 C 
ENDBRANCH   7  10
ENDBRANCH   5   7
BRANCH   5  13
ATOM     13  O   UNL A   1      42.653  22.960  24.720  1.00  0.00    -0.378 OA
ATOM     14  H   UNL A   1      41.976  22.766  25.387  1.00  0.00     0.212 HD
ENDBRANCH   5  13
ENDBRANCH   3   5
ENDBRANCH   2   3
ENDBRANCH   1   2
BRANCH   1  15
ATOM     15  C   UNL A   1      40.353  20.502  26.541  1.00  0.00     0.275 C 
BRANCH  15  16
ATOM     16  O   UNL A   1      40.503  21.925  26.725  1.00  0.00    -0.458 OA
BRANCH  16  17
ATOM     17  C   UNL A   1      39.453  22.670  26.315  1.00  0.00     0.338 C 
ATOM     18  O   UNL A   1      38.495  22.298  25.658  1.00  0.00    -0.246 OA
BRANCH  17  19
ATOM     19  C   UNL A   1      39.524  24.025  26.887  1.00  0.00     0.060 A 
ATOM     20  C   UNL A   1      40.025  25.032  26.066  1.00  0.00     0.016 A 
ATOM     21  C   UNL A   1      39.289  24.282  28.236  1.00  0.00     0.016 A 
ATOM     22  C   UNL A   1      40.369  26.272  26.581  1.00  0.00     0.010 A 
ATOM     23  C   UNL A   1      39.582  25.556  28.752  1.00  0.00     0.010 A 
ATOM     24  C   UNL A   1      40.155  26.549  27.932  1.00  0.00    -0.014 A 
BRANCH  24  25
ATOM     25  C   UNL A   1      40.611  27.855  28.473  1.00  0.00     0.031 A 
ATOM     26  C   UNL A   1      42.078  28.114  28.663  1.00  0.00     0.074 A 
ATOM     27  C   UNL A   1      39.723  28.842  28.701  1.00  0.00     0.049 A 
ATOM     28  N   UNL A   1      42.674  29.138  29.220  1.00  0.00    -0.248 NA
ATOM     29  C   UNL A   1      43.001  27.089  28.152  1.00  0.00     0.031 C 
ATOM     30  C   UNL A   1      38.281  28.753  28.461  1.00  0.00     0.029 A 
ATOM     31  N   UNL A   1      39.904  30.120  29.165  1.00  0.00    -0.354 N 
ATOM     32  C   UNL A   1      44.033  28.859  29.171  1.00  0.00     0.074 A 
ATOM     33  C   UNL A   1      44.179  27.575  28.519  1.00  0.00     0.031 C 
ATOM     34  C   UNL A   1      37.714  29.934  28.754  1.00  0.00     0.029 A 
ATOM     35  C   UNL A   1      38.737  30.836  29.273  1.00  0.00     0.049 A 
ATOM     36  H   UNL A   1      40.787  30.490  29.398  1.00  0.00     0.167 HD
ATOM     37  C   UNL A   1      45.062  29.605  29.637  1.00  0.00     0.037 A 
ATOM     38  C   UNL A   1      38.511  32.067  29.773  1.00  0.00     0.037 A 
ATOM     39  C   UNL A   1      44.916  30.902  30.243  1.00  0.00     0.049 A 
ATOM     40  C   UNL A   1      39.665  32.853  30.329  1.00  0.00     0.074 A 
ATOM     41  C   UNL A   1      45.894  31.727  30.769  1.00  0.00     0.029 A 
ATOM     42  N   UNL A   1      43.709  31.571  30.385  1.00  0.00    -0.354 N 
ATOM     43  N   UNL A   1      40.937  32.543  30.362  1.00  0.00    -0.248 NA
ATOM     44  C   UNL A   1      39.348  34.152  30.941  1.00  0.00     0.031 C 
ATOM     45  C   UNL A   1      45.276  32.885  31.255  1.00  0.00     0.029 A 
ATOM     46  C   UNL A   1      43.918  32.794  31.000  1.00  0.00     0.049 A 
ATOM     47  H   UNL A   1      42.834  31.227  30.094  1.00  0.00     0.167 HD
ATOM     48  C   UNL A   1      41.572  33.603  30.992  1.00  0.00     0.074 A 
ATOM     49  C   UNL A   1      40.549  34.579  31.304  1.00  0.00     0.031 C 
ATOM     50  C   UNL A   1      42.884  33.751  31.297  1.00  0.00     0.037 A 
BRANCH  37  51
ATOM     51  C   UNL A   1      46.436  29.015  29.553  1.00  0.00     0.064 A 
ATOM     52  C   UNL A   1      46.980  28.252  30.596  1.00  0.00     0.173 A 
ATOM     53  C   UNL A   1      47.205  29.191  28.394  1.00  0.00     0.173 A 
ATOM     54  F   UNL A   1      46.290  28.071  31.731  1.00  0.00    -0.203 F 
ATOM     55  C   UNL A   1      48.255  27.698  30.484  1.00  0.00     0.198 A 
ATOM     56  C   UNL A   1      48.468  28.619  28.277  1.00  0.00     0.198 A 
ATOM     57  F   UNL A   1      46.726  29.912  27.369  1.00  0.00    -0.203 F 
ATOM     58  F   UNL A   1      48.772  27.000  31.505  1.00  0.00    -0.200 F 
ATOM     59  C   UNL A   1      48.994  27.877  29.324  1.00  0.00     0.200 A 
ATOM     60  F   UNL A   1      49.178  28.787  27.153  1.00  0.00    -0.200 F 
ATOM     61  F   UNL A   1      50.217  27.339  29.217  1.00  0.00    -0.200 F 
ENDBRANCH  37  51
BRANCH  38  62
ATOM     62  C   UNL A   1      37.127  32.603  29.824  1.00  0.00     0.064 A 
ATOM     63  C   UNL A   1      36.325  32.432  30.961  1.00  0.00     0.173 A 
ATOM     64  C   UNL A   1      36.574  33.290  28.732  1.00  0.00     0.173 A 
ATOM     65  F   UNL A   1      36.798  31.756  32.018  1.00  0.00    -0.203 F 
ATOM     66  C   UNL A   1      35.019  32.920  30.999  1.00  0.00     0.198 A 
ATOM     67  C   UNL A   1      35.280  33.802  28.783  1.00  0.00     0.198 A 
ATOM     68  F   UNL A   1      37.299  33.474  27.619  1.00  0.00    -0.203 F 
ATOM     69  F   UNL A   1      34.259  32.707  32.081  1.00  0.00    -0.200 F 
ATOM     70  C   UNL A   1      34.501  33.610  29.914  1.00  0.00     0.200 A 
ATOM     71  F   UNL A   1      34.788  34.477  27.735  1.00  0.00    -0.200 F 
ATOM     72  F   UNL A   1      33.248  34.084  29.953  1.00  0.00    -0.200 F 
ENDBRANCH  38  62
BRANCH  50  73
ATOM     73  C   UNL A   1      43.284  35.018  31.988  1.00  0.00     0.064 A 
ATOM     74  C   UNL A   1      43.318  35.105  33.387  1.00  0.00     0.173 A 
ATOM     75  C   UNL A   1      43.670  36.143  31.245  1.00  0.00     0.173 A 
ATOM     76  F   UNL A   1      42.942  34.059  34.137  1.00  0.00    -0.203 F 
ATOM     77  C   UNL A   1      43.708  36.283  34.019  1.00  0.00     0.198 A 
ATOM     78  C   UNL A   1      44.078  37.311  31.881  1.00  0.00     0.198 A 
ATOM     79  F   UNL A   1      43.655  36.106  29.905  1.00  0.00    -0.203 F 
ATOM     80  F   UNL A   1      43.699  36.357  35.357  1.00  0.00    -0.200 F 
ATOM     81  C   UNL A   1      44.092  37.382  33.266  1.00  0.00     0.200 A 
ATOM     82  F   UNL A   1      44.457  38.372  31.152  1.00  0.00    -0.200 F 
ATOM     83  F   UNL A   1      44.470  38.514  33.877  1.00  0.00    -0.200 F 
ENDBRANCH  50  73
ENDBRANCH  24  25
ENDBRANCH  17  19
ENDBRANCH  16  17
ENDBRANCH  15  16
ENDBRANCH   1  15
TORSDOF 15
ENDMDL
MODEL 3
REMARK VINA RESULT:     -10.0      0.883      7.985
REMARK SMILES CC[C@H](C(C)C)[C@](C)(O)C(=O)OCCOC(=O)c1ccc(-c2c3nc(c(-c4c(F)c(F)c(F)c(F)c4F)c4ccc([nH]4)c(-c4c(F)c(F)c(F)c(F)c4F)c4nc(c(-c5c(F)c(F)c(F)c(F)c5F)c5ccc2[nH]5)C=C4)C=C3)cc1
REMARK SMILES IDX 13 1 12 2 10 3 11 4 7 5 8 6 3 7 2 8 1 9 4 10 5 11 6 12 9 13
REMARK SMILES IDX 14 15 15 16 16 17 17 18 18 19 19 20 80 21 20 22 79 23 21 24
REMARK SMILES IDX 22 25 23 26 73 27 24 28 78 29 72 30 74 31 25 32 77 33 71 34
REMARK SMILES IDX 70 35 26 37 58 38 38 39 57 40 39 41 42 42 56 43 75 44 40 45
REMARK SMILES IDX 41 46 55 48 76 49 43 50 27 51 28 52 36 53 29 54 30 55 34 56
REMARK SMILES IDX 37 57 31 58 32 59 35 60 33 61 59 62 60 63 68 64 61 65 62 66
REMARK SMILES IDX 66 67 69 68 63 69 64 70 67 71 65 72 44 73 45 74 53 75 46 76
REMARK SMILES IDX 47 77 51 78 54 79 48 80 49 81 52 82 50 83
REMARK H PARENT 9 14 74 36 42 47
REMARK Flexibility Score: inf
ROOT
ATOM      1  C   UNL A   1      35.948  21.313  25.220  1.00  0.00     0.274 C 
ENDROOT
BRANCH   1   2
ATOM      2  O   UNL A   1      35.993  22.717  24.885  1.00  0.00    -0.460 OA
BRANCH   2   3
ATOM      3  C   UNL A   1      35.691  23.018  23.589  1.00  0.00     0.338 C 
ATOM      4  O   UNL A   1      36.493  22.903  22.671  1.00  0.00    -0.249 OA
BRANCH   3   5
ATOM      5  C   UNL A   1      34.205  23.441  23.406  1.00  0.00     0.162 C 
ATOM      6  C   UNL A   1      34.154  24.967  23.593  1.00  0.00     0.055 C 
BRANCH   5   7
ATOM      7  C   UNL A   1      33.158  22.646  24.293  1.00  0.00     0.034 C 
BRANCH   7   8
ATOM      8  C   UNL A   1      32.213  21.779  23.400  1.00  0.00     0.004 C 
ATOM      9  C   UNL A   1      32.418  20.272  23.500  1.00  0.00     0.004 C 
ENDBRANCH   7   8
BRANCH   7  10
ATOM     10  C   UNL A   1      32.344  23.397  25.399  1.00  0.00    -0.011 C 
ATOM     11  C   UNL A   1      30.849  23.053  25.358  1.00  0.00     0.008 C 
ATOM     12  C   UNL A   1      32.902  23.343  26.822  1.00  0.00     0.008 C 
ENDBRANCH   7  10
ENDBRANCH   5   7
BRANCH   5  13
ATOM     13  O   UNL A   1      33.783  23.237  22.040  1.00  0.00    -0.378 OA
ATOM     14  H   UNL A   1      32.815  23.283  21.990  1.00  0.00     0.212 HD
ENDBRANCH   5  13
ENDBRANCH   3   5
ENDBRANCH   2   3
ENDBRANCH   1   2
BRANCH   1  15
ATOM     15  C   UNL A   1      37.292  20.597  25.045  1.00  0.00     0.275 C 
BRANCH  15  16
ATOM     16  O   UNL A   1      38.413  21.494  25.179  1.00  0.00    -0.458 OA
BRANCH  16  17
ATOM     17  C   UNL A   1      39.253  21.215  26.200  1.00  0.00     0.338 C 
ATOM     18  O   UNL A   1      39.649  20.115  26.550  1.00  0.00    -0.246 OA
BRANCH  17  19
ATOM     19  C   UNL A   1      39.775  22.455  26.797  1.00  0.00     0.060 A 
ATOM     20  C   UNL A   1      39.309  23.655  26.268  1.00  0.00     0.016 A 
ATOM     21  C   UNL A   1      40.824  22.461  27.715  1.00  0.00     0.016 A 
ATOM     22  C   UNL A   1      39.920  24.860  26.579  1.00  0.00     0.010 A 
ATOM     23  C   UNL A   1      41.409  23.685  28.079  1.00  0.00     0.010 A 
ATOM     24  C   UNL A   1      40.981  24.890  27.486  1.00  0.00    -0.014 A 
BRANCH  24  25
ATOM     25  C   UNL A   1      41.669  26.182  27.735  1.00  0.00     0.031 A 
ATOM     26  C   UNL A   1      40.999  27.238  28.567  1.00  0.00     0.074 A 
ATOM     27  C   UNL A   1      42.930  26.374  27.301  1.00  0.00     0.049 A 
ATOM     28  N   UNL A   1      41.378  28.468  28.809  1.00  0.00    -0.248 NA
ATOM     29  C   UNL A   1      39.736  26.861  29.220  1.00  0.00     0.031 C 
ATOM     30  C   UNL A   1      43.731  25.389  26.571  1.00  0.00     0.029 A 
ATOM     31  N   UNL A   1      43.768  27.453  27.431  1.00  0.00    -0.354 N 
ATOM     32  C   UNL A   1      40.381  29.024  29.599  1.00  0.00     0.074 A 
ATOM     33  C   UNL A   1      39.383  27.996  29.807  1.00  0.00     0.031 C 
ATOM     34  C   UNL A   1      44.950  25.899  26.341  1.00  0.00     0.029 A 
ATOM     35  C   UNL A   1      44.993  27.271  26.838  1.00  0.00     0.049 A 
ATOM     36  H   UNL A   1      43.515  28.279  27.904  1.00  0.00     0.167 HD
ATOM     37  C   UNL A   1      40.305  30.280  30.096  1.00  0.00     0.037 A 
ATOM     38  C   UNL A   1      46.021  28.127  26.678  1.00  0.00     0.037 A 
ATOM     39  C   UNL A   1      41.321  31.285  29.925  1.00  0.00     0.049 A 
ATOM     40  C   UNL A   1      45.890  29.532  27.197  1.00  0.00     0.074 A 
ATOM     41  C   UNL A   1      41.326  32.596  30.368  1.00  0.00     0.029 A 
ATOM     42  N   UNL A   1      42.526  31.079  29.270  1.00  0.00    -0.354 N 
ATOM     43  N   UNL A   1      44.903  30.078  27.864  1.00  0.00    -0.248 NA
ATOM     44  C   UNL A   1      47.005  30.448  26.917  1.00  0.00     0.031 C 
ATOM     45  C   UNL A   1      42.524  33.192  29.959  1.00  0.00     0.029 A 
ATOM     46  C   UNL A   1      43.278  32.242  29.290  1.00  0.00     0.049 A 
ATOM     47  H   UNL A   1      42.806  30.232  28.852  1.00  0.00     0.167 HD
ATOM     48  C   UNL A   1      45.277  31.395  28.087  1.00  0.00     0.074 A 
ATOM     49  C   UNL A   1      46.593  31.562  27.506  1.00  0.00     0.031 C 
ATOM     50  C   UNL A   1      44.587  32.383  28.707  1.00  0.00     0.037 A 
BRANCH  37  51
ATOM     51  C   UNL A   1      39.056  30.658  30.833  1.00  0.00     0.064 A 
ATOM     52  C   UNL A   1      38.956  30.549  32.227  1.00  0.00     0.173 A 
ATOM     53  C   UNL A   1      37.955  31.168  30.130  1.00  0.00     0.173 A 
ATOM     54  F   UNL A   1      39.976  30.050  32.940  1.00  0.00    -0.203 F 
ATOM     55  C   UNL A   1      37.789  30.926  32.889  1.00  0.00     0.198 A 
ATOM     56  C   UNL A   1      36.799  31.563  30.797  1.00  0.00     0.198 A 
ATOM     57  F   UNL A   1      38.004  31.292  28.795  1.00  0.00    -0.203 F 
ATOM     58  F   UNL A   1      37.700  30.783  34.219  1.00  0.00    -0.200 F 
ATOM     59  C   UNL A   1      36.716  31.438  32.175  1.00  0.00     0.200 A 
ATOM     60  F   UNL A   1      35.766  32.064  30.106  1.00  0.00    -0.200 F 
ATOM     61  F   UNL A   1      35.596  31.804  32.816  1.00  0.00    -0.200 F 
ENDBRANCH  37  51
BRANCH  38  62
ATOM     62  C   UNL A   1      47.238  27.696  25.945  1.00  0.00     0.064 A 
ATOM     63  C   UNL A   1      48.375  27.246  26.629  1.00  0.00     0.173 A 
ATOM     64  C   UNL A   1      47.292  27.734  24.543  1.00  0.00     0.173 A 
ATOM     65  F   UNL A   1      48.383  27.220  27.970  1.00  0.00    -0.203 F 
ATOM     66  C   UNL A   1      49.524  26.860  25.938  1.00  0.00     0.198 A 
ATOM     67  C   UNL A   1      48.429  27.321  23.853  1.00  0.00     0.198 A 
ATOM     68  F   UNL A   1      46.231  28.163  23.842  1.00  0.00    -0.203 F 
ATOM     69  F   UNL A   1      50.612  26.473  26.617  1.00  0.00    -0.200 F 
ATOM     70  C   UNL A   1      49.546  26.891  24.552  1.00  0.00     0.200 A 
ATOM     71  F   UNL A   1      48.442  27.343  22.513  1.00  0.00    -0.200 F 
ATOM     72  F   UNL A   1      50.648  26.514  23.889  1.00  0.00    -0.200 F 
ENDBRANCH  38  62
BRANCH  50  73
ATOM     73  C   UNL A   1      45.251  33.722  28.799  1.00  0.00     0.064 A 
ATOM     74  C   UNL A   1      45.040  34.708  27.825  1.00  0.00     0.173 A 
ATOM     75  C   UNL A   1      46.076  34.035  29.889  1.00  0.00     0.173 A 
ATOM     76  F   UNL A   1      44.271  34.448  26.758  1.00  0.00    -0.203 F 
ATOM     77  C   UNL A   1      45.648  35.956  27.930  1.00  0.00     0.198 A 
ATOM     78  C   UNL A   1      46.666  35.290  30.001  1.00  0.00     0.198 A 
ATOM     79  F   UNL A   1      46.304  33.124  30.847  1.00  0.00    -0.203 F 
ATOM     80  F   UNL A   1      45.464  36.872  26.969  1.00  0.00    -0.200 F 
ATOM     81  C   UNL A   1      46.456  36.247  29.019  1.00  0.00     0.200 A 
ATOM     82  F   UNL A   1      47.441  35.573  31.058  1.00  0.00    -0.200 F 
ATOM     83  F   UNL A   1      47.038  37.450  29.119  1.00  0.00    -0.200 F 
ENDBRANCH  50  73
ENDBRANCH  24  25
ENDBRANCH  17  19
ENDBRANCH  16  17
ENDBRANCH  15  16
ENDBRANCH   1  15
TORSDOF 15
ENDMDL
