MODEL 1
REMARK VINA RESULT:     -13.5      0.000      0.000
REMARK SMILES CS(=O)(=O)c1ccc(C2=NN(c3ccc(C(=O)OCCOC(=O)c4ccc(-c5c6nc(c(-c7c(F)c(F)c(F)c(F)c7F)c7ccc([nH]7)c(-c7c(F)c(F)c(F)c(F)c7F)c7nc(c(-c8c(F)c(F)c(F)c(F)c8F)c8ccc5[nH]8)C=C7)C=C6)cc4)cc3)[C@H](c3ccccc3)C2)cc1
REMARK SMILES IDX 19 1 18 2 16 3 17 4 15 5 12 6 13 7 88 8 14 9 87 10 11 11
REMARK SMILES IDX 9 12 10 13 96 14 89 15 8 16 5 17 6 18 98 19 7 20 97 21 2 22
REMARK SMILES IDX 1 23 3 24 4 25 90 26 91 27 95 28 92 29 94 30 93 31 20 32
REMARK SMILES IDX 21 33 22 34 23 35 24 36 25 37 86 38 26 39 85 40 27 41 28 42
REMARK SMILES IDX 29 43 79 44 30 45 84 46 78 47 80 48 31 49 83 50 77 51 76 52
REMARK SMILES IDX 32 54 64 55 44 56 63 57 45 58 48 59 62 60 81 61 46 62 47 63
REMARK SMILES IDX 61 65 82 66 49 67 33 68 34 69 42 70 35 71 36 72 40 73 43 74
REMARK SMILES IDX 37 75 38 76 41 77 39 78 65 79 66 80 74 81 67 82 68 83 72 84
REMARK SMILES IDX 75 85 69 86 70 87 73 88 71 89 50 90 51 91 59 92 52 93 53 94
REMARK SMILES IDX 57 95 60 96 54 97 55 98 58 99 56 100
REMARK H PARENT 80 53 48 64
REMARK Flexibility Score: inf
ROOT
ATOM      1  C   UNL A   1      33.384  31.592  27.130  1.00  0.00     0.275 C 
ENDROOT
BRANCH   1   2
ATOM      2  O   UNL A   1      33.964  30.892  28.247  1.00  0.00    -0.458 OA
BRANCH   2   3
ATOM      3  C   UNL A   1      34.654  29.767  27.946  1.00  0.00     0.338 C 
ATOM      4  O   UNL A   1      35.755  29.457  28.378  1.00  0.00    -0.246 OA
BRANCH   3   5
ATOM      5  C   UNL A   1      33.874  28.880  27.046  1.00  0.00     0.060 A 
ATOM      6  C   UNL A   1      32.380  27.077  25.488  1.00  0.00     0.060 A 
ATOM      7  C   UNL A   1      31.921  27.467  26.749  1.00  0.00     0.029 A 
ATOM      8  C   UNL A   1      33.560  27.647  24.990  1.00  0.00     0.029 A 
ATOM      9  C   UNL A   1      32.676  28.336  27.534  1.00  0.00     0.018 A 
ATOM     10  C   UNL A   1      34.305  28.548  25.759  1.00  0.00     0.018 A 
BRANCH   6  11
ATOM     11  N   UNL A   1      31.773  26.025  24.795  1.00  0.00    -0.257 N 
ATOM     12  C   UNL A   1      31.919  24.032  24.046  1.00  0.00     0.071 C 
ATOM     13  N   UNL A   1      32.105  24.745  25.114  1.00  0.00    -0.176 NA
ATOM     14  C   UNL A   1      31.526  24.793  22.809  1.00  0.00     0.091 C 
ATOM     15  C   UNL A   1      31.486  26.221  23.365  1.00  0.00     0.144 C 
BRANCH  12  16
ATOM     16  C   UNL A   1      32.048  22.560  24.035  1.00  0.00    -0.002 A 
ATOM     17  C   UNL A   1      32.407  19.800  23.907  1.00  0.00     0.067 A 
ATOM     18  C   UNL A   1      32.197  20.522  22.729  1.00  0.00     0.021 A 
ATOM     19  C   UNL A   1      32.436  20.447  25.148  1.00  0.00     0.021 A 
ATOM     20  C   UNL A   1      32.005  21.903  22.798  1.00  0.00     0.011 A 
ATOM     21  C   UNL A   1      32.256  21.832  25.211  1.00  0.00     0.011 A 
BRANCH  17  22
ATOM     22  S   UNL A   1      32.727  18.052  23.829  1.00  0.00     0.175 S 
ATOM     23  C   UNL A   1      34.425  17.904  24.314  1.00  0.00     0.163 C 
ATOM     24  O   UNL A   1      32.616  17.668  22.434  1.00  0.00    -0.224 OA
ATOM     25  O   UNL A   1      31.918  17.408  24.845  1.00  0.00    -0.224 OA
ENDBRANCH  17  22
ENDBRANCH  12  16
BRANCH  15  26
ATOM     26  C   UNL A   1      30.215  27.036  23.194  1.00  0.00    -0.023 A 
ATOM     27  C   UNL A   1      28.978  26.669  23.741  1.00  0.00     0.006 A 
ATOM     28  C   UNL A   1      30.303  28.282  22.539  1.00  0.00     0.006 A 
ATOM     29  C   UNL A   1      27.869  27.513  23.629  1.00  0.00     0.000 A 
ATOM     30  C   UNL A   1      29.204  29.137  22.453  1.00  0.00     0.000 A 
ATOM     31  C   UNL A   1      27.984  28.750  22.995  1.00  0.00     0.000 A 
ENDBRANCH  15  26
ENDBRANCH   6  11
ENDBRANCH   3   5
ENDBRANCH   2   3
ENDBRANCH   1   2
BRANCH   1  32
ATOM     32  C   UNL A   1      32.541  32.776  27.602  1.00  0.00     0.275 C 
BRANCH  32  33
ATOM     33  O   UNL A   1      33.325  33.983  27.639  1.00  0.00    -0.458 OA
BRANCH  33  34
ATOM     34  C   UNL A   1      33.303  34.651  28.815  1.00  0.00     0.338 C 
ATOM     35  O   UNL A   1      32.445  35.409  29.230  1.00  0.00    -0.246 OA
BRANCH  34  36
ATOM     36  C   UNL A   1      34.498  34.301  29.593  1.00  0.00     0.060 A 
ATOM     37  C   UNL A   1      35.755  34.561  29.048  1.00  0.00     0.016 A 
ATOM     38  C   UNL A   1      34.378  33.608  30.795  1.00  0.00     0.016 A 
ATOM     39  C   UNL A   1      36.905  34.086  29.673  1.00  0.00     0.010 A 
ATOM     40  C   UNL A   1      35.535  33.175  31.449  1.00  0.00     0.010 A 
ATOM     41  C   UNL A   1      36.807  33.387  30.882  1.00  0.00    -0.014 A 
BRANCH  41  42
ATOM     42  C   UNL A   1      38.012  32.815  31.535  1.00  0.00     0.031 A 
ATOM     43  C   UNL A   1      38.713  31.652  30.892  1.00  0.00     0.074 A 
ATOM     44  C   UNL A   1      38.467  33.310  32.701  1.00  0.00     0.049 A 
ATOM     45  N   UNL A   1      39.595  30.829  31.398  1.00  0.00    -0.248 NA
ATOM     46  C   UNL A   1      38.362  31.372  29.491  1.00  0.00     0.031 C 
ATOM     47  C   UNL A   1      37.934  34.483  33.392  1.00  0.00     0.029 A 
ATOM     48  N   UNL A   1      39.478  32.871  33.522  1.00  0.00    -0.354 N 
ATOM     49  C   UNL A   1      39.854  29.897  30.402  1.00  0.00     0.074 A 
ATOM     50  C   UNL A   1      39.048  30.262  29.257  1.00  0.00     0.031 C 
ATOM     51  C   UNL A   1      38.619  34.670  34.532  1.00  0.00     0.029 A 
ATOM     52  C   UNL A   1      39.579  33.583  34.691  1.00  0.00     0.049 A 
ATOM     53  H   UNL A   1      40.071  32.119  33.294  1.00  0.00     0.167 HD
ATOM     54  C   UNL A   1      40.684  28.828  30.451  1.00  0.00     0.037 A 
ATOM     55  C   UNL A   1      40.320  33.352  35.793  1.00  0.00     0.037 A 
ATOM     56  C   UNL A   1      41.519  28.506  31.578  1.00  0.00     0.049 A 
ATOM     57  C   UNL A   1      41.202  32.135  35.844  1.00  0.00     0.074 A 
ATOM     58  C   UNL A   1      42.400  27.449  31.728  1.00  0.00     0.029 A 
ATOM     59  N   UNL A   1      41.587  29.253  32.745  1.00  0.00    -0.354 N 
ATOM     60  N   UNL A   1      41.394  31.216  34.929  1.00  0.00    -0.248 NA
ATOM     61  C   UNL A   1      41.954  31.910  37.086  1.00  0.00     0.031 C 
ATOM     62  C   UNL A   1      42.978  27.540  32.998  1.00  0.00     0.029 A 
ATOM     63  C   UNL A   1      42.490  28.676  33.622  1.00  0.00     0.049 A 
ATOM     64  H   UNL A   1      41.070  30.072  32.923  1.00  0.00     0.167 HD
ATOM     65  C   UNL A   1      42.303  30.320  35.473  1.00  0.00     0.074 A 
ATOM     66  C   UNL A   1      42.629  30.806  36.798  1.00  0.00     0.031 C 
ATOM     67  C   UNL A   1      42.819  29.194  34.925  1.00  0.00     0.037 A 
BRANCH  54  68
ATOM     68  C   UNL A   1      40.698  27.902  29.271  1.00  0.00     0.064 A 
ATOM     69  C   UNL A   1      39.786  26.845  29.145  1.00  0.00     0.173 A 
ATOM     70  C   UNL A   1      41.619  28.103  28.231  1.00  0.00     0.173 A 
ATOM     71  F   UNL A   1      38.894  26.603  30.117  1.00  0.00    -0.203 F 
ATOM     72  C   UNL A   1      39.810  26.010  28.031  1.00  0.00     0.198 A 
ATOM     73  C   UNL A   1      41.623  27.284  27.107  1.00  0.00     0.198 A 
ATOM     74  F   UNL A   1      42.509  29.104  28.301  1.00  0.00    -0.203 F 
ATOM     75  F   UNL A   1      38.954  24.982  27.948  1.00  0.00    -0.200 F 
ATOM     76  C   UNL A   1      40.722  26.234  27.009  1.00  0.00     0.200 A 
ATOM     77  F   UNL A   1      42.496  27.511  26.116  1.00  0.00    -0.200 F 
ATOM     78  F   UNL A   1      40.737  25.435  25.933  1.00  0.00    -0.200 F 
ENDBRANCH  54  68
BRANCH  55  79
ATOM     79  C   UNL A   1      40.215  34.271  36.956  1.00  0.00     0.064 A 
ATOM     80  C   UNL A   1      39.286  34.038  37.978  1.00  0.00     0.173 A 
ATOM     81  C   UNL A   1      41.050  35.393  37.077  1.00  0.00     0.173 A 
ATOM     82  F   UNL A   1      38.447  32.995  37.893  1.00  0.00    -0.203 F 
ATOM     83  C   UNL A   1      39.190  34.894  39.073  1.00  0.00     0.198 A 
ATOM     84  C   UNL A   1      40.974  36.232  38.185  1.00  0.00     0.198 A 
ATOM     85  F   UNL A   1      41.955  35.663  36.124  1.00  0.00    -0.203 F 
ATOM     86  F   UNL A   1      38.268  34.670  40.019  1.00  0.00    -0.200 F 
ATOM     87  C   UNL A   1      40.041  35.985  39.180  1.00  0.00     0.200 A 
ATOM     88  F   UNL A   1      41.806  37.277  38.292  1.00  0.00    -0.200 F 
ATOM     89  F   UNL A   1      39.957  36.801  40.240  1.00  0.00    -0.200 F 
ENDBRANCH  55  79
BRANCH  67  90
ATOM     90  C   UNL A   1      43.835  28.437  35.727  1.00  0.00     0.064 A 
ATOM     91  C   UNL A   1      43.458  27.441  36.638  1.00  0.00     0.173 A 
ATOM     92  C   UNL A   1      45.205  28.666  35.524  1.00  0.00     0.173 A 
ATOM     93  F   UNL A   1      42.161  27.198  36.874  1.00  0.00    -0.203 F 
ATOM     94  C   UNL A   1      44.420  26.705  37.324  1.00  0.00     0.198 A 
ATOM     95  C   UNL A   1      46.162  27.913  36.197  1.00  0.00     0.198 A 
ATOM     96  F   UNL A   1      45.612  29.606  34.658  1.00  0.00    -0.203 F 
ATOM     97  F   UNL A   1      44.042  25.774  38.212  1.00  0.00    -0.200 F 
ATOM     98  C   UNL A   1      45.770  26.936  37.097  1.00  0.00     0.200 A 
ATOM     99  F   UNL A   1      47.465  28.130  35.967  1.00  0.00    -0.200 F 
ATOM    100  F   UNL A   1      46.692  26.215  37.749  1.00  0.00    -0.200 F 
ENDBRANCH  67  90
ENDBRANCH  41  42
ENDBRANCH  34  36
ENDBRANCH  33  34
ENDBRANCH  32  33
ENDBRANCH   1  32
TORSDOF 15
ENDMDL
MODEL 2
REMARK VINA RESULT:     -13.4      3.545      9.026
REMARK SMILES CS(=O)(=O)c1ccc(C2=NN(c3ccc(C(=O)OCCOC(=O)c4ccc(-c5c6nc(c(-c7c(F)c(F)c(F)c(F)c7F)c7ccc([nH]7)c(-c7c(F)c(F)c(F)c(F)c7F)c7nc(c(-c8c(F)c(F)c(F)c(F)c8F)c8ccc5[nH]8)C=C7)C=C6)cc4)cc3)[C@H](c3ccccc3)C2)cc1
REMARK SMILES IDX 19 1 18 2 16 3 17 4 15 5 12 6 13 7 88 8 14 9 87 10 11 11
REMARK SMILES IDX 9 12 10 13 96 14 89 15 8 16 5 17 6 18 98 19 7 20 97 21 2 22
REMARK SMILES IDX 1 23 3 24 4 25 90 26 91 27 95 28 92 29 94 30 93 31 20 32
REMARK SMILES IDX 21 33 22 34 23 35 24 36 25 37 86 38 26 39 85 40 27 41 28 42
REMARK SMILES IDX 29 43 79 44 30 45 84 46 78 47 80 48 31 49 83 50 77 51 76 52
REMARK SMILES IDX 32 54 64 55 44 56 63 57 45 58 48 59 62 60 81 61 46 62 47 63
REMARK SMILES IDX 61 65 82 66 49 67 33 68 34 69 42 70 35 71 36 72 40 73 43 74
REMARK SMILES IDX 37 75 38 76 41 77 39 78 65 79 66 80 74 81 67 82 68 83 72 84
REMARK SMILES IDX 75 85 69 86 70 87 73 88 71 89 50 90 51 91 59 92 52 93 53 94
REMARK SMILES IDX 57 95 60 96 54 97 55 98 58 99 56 100
REMARK H PARENT 80 53 48 64
REMARK Flexibility Score: inf
ROOT
ATOM      1  C   UNL A   1      39.805  21.457  25.765  1.00  0.00     0.275 C 
ENDROOT
BRANCH   1   2
ATOM      2  O   UNL A   1      39.049  22.294  26.660  1.00  0.00    -0.458 OA
BRANCH   2   3
ATOM      3  C   UNL A   1      38.629  23.476  26.152  1.00  0.00     0.338 C 
ATOM      4  O   UNL A   1      39.297  24.495  26.045  1.00  0.00    -0.246 OA
BRANCH   3   5
ATOM      5  C   UNL A   1      37.231  23.386  25.659  1.00  0.00     0.060 A 
ATOM      6  C   UNL A   1      34.632  23.335  24.584  1.00  0.00     0.060 A 
ATOM      7  C   UNL A   1      35.740  23.110  23.762  1.00  0.00     0.029 A 
ATOM      8  C   UNL A   1      34.836  23.523  25.958  1.00  0.00     0.029 A 
ATOM      9  C   UNL A   1      37.029  23.166  24.288  1.00  0.00     0.018 A 
ATOM     10  C   UNL A   1      36.126  23.544  26.499  1.00  0.00     0.018 A 
BRANCH   6  11
ATOM     11  N   UNL A   1      33.360  23.531  24.038  1.00  0.00    -0.257 N 
ATOM     12  C   UNL A   1      31.662  24.806  23.826  1.00  0.00     0.071 C 
ATOM     13  N   UNL A   1      32.956  24.795  23.740  1.00  0.00    -0.176 NA
ATOM     14  C   UNL A   1      31.026  23.532  24.312  1.00  0.00     0.091 C 
ATOM     15  C   UNL A   1      32.271  22.660  24.509  1.00  0.00     0.144 C 
BRANCH  12  16
ATOM     16  C   UNL A   1      30.845  25.976  23.443  1.00  0.00    -0.002 A 
ATOM     17  C   UNL A   1      29.271  28.204  22.875  1.00  0.00     0.067 A 
ATOM     18  C   UNL A   1      28.744  27.169  23.651  1.00  0.00     0.021 A 
ATOM     19  C   UNL A   1      30.578  28.132  22.378  1.00  0.00     0.021 A 
ATOM     20  C   UNL A   1      29.530  26.048  23.923  1.00  0.00     0.011 A 
ATOM     21  C   UNL A   1      31.367  27.013  22.664  1.00  0.00     0.011 A 
BRANCH  17  22
ATOM     22  S   UNL A   1      28.308  29.671  22.581  1.00  0.00     0.175 S 
ATOM     23  C   UNL A   1      29.083  30.903  23.591  1.00  0.00     0.163 C 
ATOM     24  O   UNL A   1      26.982  29.414  23.112  1.00  0.00    -0.224 OA
ATOM     25  O   UNL A   1      28.495  30.052  21.195  1.00  0.00    -0.224 OA
ENDBRANCH  17  22
ENDBRANCH  12  16
BRANCH  15  26
ATOM     26  C   UNL A   1      32.339  21.314  23.808  1.00  0.00    -0.023 A 
ATOM     27  C   UNL A   1      32.578  20.104  24.473  1.00  0.00     0.006 A 
ATOM     28  C   UNL A   1      32.043  21.261  22.429  1.00  0.00     0.006 A 
ATOM     29  C   UNL A   1      32.530  18.888  23.783  1.00  0.00     0.000 A 
ATOM     30  C   UNL A   1      31.967  20.047  21.748  1.00  0.00     0.000 A 
ATOM     31  C   UNL A   1      32.215  18.859  22.425  1.00  0.00     0.000 A 
ENDBRANCH  15  26
ENDBRANCH   6  11
ENDBRANCH   3   5
ENDBRANCH   2   3
ENDBRANCH   1   2
BRANCH   1  32
ATOM     32  C   UNL A   1      41.279  21.414  26.166  1.00  0.00     0.275 C 
BRANCH  32  33
ATOM     33  O   UNL A   1      42.059  22.311  25.354  1.00  0.00    -0.458 OA
BRANCH  33  34
ATOM     34  C   UNL A   1      43.097  22.907  25.984  1.00  0.00     0.338 C 
ATOM     35  O   UNL A   1      44.279  22.627  25.908  1.00  0.00    -0.246 OA
BRANCH  34  36
ATOM     36  C   UNL A   1      42.595  24.024  26.795  1.00  0.00     0.060 A 
ATOM     37  C   UNL A   1      42.967  25.323  26.452  1.00  0.00     0.016 A 
ATOM     38  C   UNL A   1      41.870  23.780  27.958  1.00  0.00     0.016 A 
ATOM     39  C   UNL A   1      42.661  26.388  27.295  1.00  0.00     0.010 A 
ATOM     40  C   UNL A   1      41.517  24.855  28.778  1.00  0.00     0.010 A 
ATOM     41  C   UNL A   1      41.931  26.165  28.468  1.00  0.00    -0.014 A 
BRANCH  41  42
ATOM     42  C   UNL A   1      41.647  27.274  29.414  1.00  0.00     0.031 A 
ATOM     43  C   UNL A   1      42.494  27.423  30.647  1.00  0.00     0.074 A 
ATOM     44  C   UNL A   1      40.631  28.129  29.193  1.00  0.00     0.049 A 
ATOM     45  N   UNL A   1      42.272  28.124  31.729  1.00  0.00    -0.248 NA
ATOM     46  C   UNL A   1      43.757  26.668  30.665  1.00  0.00     0.031 C 
ATOM     47  C   UNL A   1      39.784  28.151  28.002  1.00  0.00     0.029 A 
ATOM     48  N   UNL A   1      40.129  29.139  29.978  1.00  0.00    -0.354 N 
ATOM     49  C   UNL A   1      43.332  27.844  32.581  1.00  0.00     0.074 A 
ATOM     50  C   UNL A   1      44.204  26.921  31.887  1.00  0.00     0.031 C 
ATOM     51  C   UNL A   1      38.865  29.121  28.135  1.00  0.00     0.029 A 
ATOM     52  C   UNL A   1      39.007  29.731  29.452  1.00  0.00     0.049 A 
ATOM     53  H   UNL A   1      40.534  29.411  30.833  1.00  0.00     0.167 HD
ATOM     54  C   UNL A   1      43.545  28.311  33.835  1.00  0.00     0.037 A 
ATOM     55  C   UNL A   1      38.155  30.622  29.995  1.00  0.00     0.037 A 
ATOM     56  C   UNL A   1      42.695  29.268  34.493  1.00  0.00     0.049 A 
ATOM     57  C   UNL A   1      38.384  31.095  31.405  1.00  0.00     0.074 A 
ATOM     58  C   UNL A   1      42.824  29.811  35.760  1.00  0.00     0.029 A 
ATOM     59  N   UNL A   1      41.566  29.839  33.925  1.00  0.00    -0.354 N 
ATOM     60  N   UNL A   1      39.347  30.777  32.236  1.00  0.00    -0.248 NA
ATOM     61  C   UNL A   1      37.399  32.033  31.960  1.00  0.00     0.031 C 
ATOM     62  C   UNL A   1      41.756  30.688  35.970  1.00  0.00     0.029 A 
ATOM     63  C   UNL A   1      40.985  30.723  34.819  1.00  0.00     0.049 A 
ATOM     64  H   UNL A   1      41.228  29.645  33.021  1.00  0.00     0.167 HD
ATOM     65  C   UNL A   1      39.098  31.491  33.399  1.00  0.00     0.074 A 
ATOM     66  C   UNL A   1      37.896  32.263  33.168  1.00  0.00     0.031 C 
ATOM     67  C   UNL A   1      39.803  31.502  34.556  1.00  0.00     0.037 A 
BRANCH  54  68
ATOM     68  C   UNL A   1      44.714  27.760  34.595  1.00  0.00     0.064 A 
ATOM     69  C   UNL A   1      45.994  28.324  34.501  1.00  0.00     0.173 A 
ATOM     70  C   UNL A   1      44.539  26.671  35.463  1.00  0.00     0.173 A 
ATOM     71  F   UNL A   1      46.217  29.359  33.676  1.00  0.00    -0.203 F 
ATOM     72  C   UNL A   1      47.060  27.804  35.231  1.00  0.00     0.198 A 
ATOM     73  C   UNL A   1      45.599  26.171  36.211  1.00  0.00     0.198 A 
ATOM     74  F   UNL A   1      43.333  26.098  35.593  1.00  0.00    -0.203 F 
ATOM     75  F   UNL A   1      48.283  28.334  35.097  1.00  0.00    -0.200 F 
ATOM     76  C   UNL A   1      46.861  26.734  36.091  1.00  0.00     0.200 A 
ATOM     77  F   UNL A   1      45.401  25.145  37.051  1.00  0.00    -0.200 F 
ATOM     78  F   UNL A   1      47.886  26.241  36.800  1.00  0.00    -0.200 F 
ENDBRANCH  54  68
BRANCH  55  79
ATOM     79  C   UNL A   1      36.976  31.083  29.216  1.00  0.00     0.064 A 
ATOM     80  C   UNL A   1      35.892  30.229  28.974  1.00  0.00     0.173 A 
ATOM     81  C   UNL A   1      36.904  32.390  28.707  1.00  0.00     0.173 A 
ATOM     82  F   UNL A   1      35.928  28.963  29.416  1.00  0.00    -0.203 F 
ATOM     83  C   UNL A   1      34.783  30.661  28.249  1.00  0.00     0.198 A 
ATOM     84  C   UNL A   1      35.783  32.829  28.009  1.00  0.00     0.198 A 
ATOM     85  F   UNL A   1      37.916  33.245  28.908  1.00  0.00    -0.203 F 
ATOM     86  F   UNL A   1      33.776  29.813  28.001  1.00  0.00    -0.200 F 
ATOM     87  C   UNL A   1      34.726  31.963  27.775  1.00  0.00     0.200 A 
ATOM     88  F   UNL A   1      35.725  34.092  27.563  1.00  0.00    -0.200 F 
ATOM     89  F   UNL A   1      33.653  32.381  27.088  1.00  0.00    -0.200 F 
ENDBRANCH  55  79
BRANCH  67  90
ATOM     90  C   UNL A   1      39.330  32.420  35.644  1.00  0.00     0.064 A 
ATOM     91  C   UNL A   1      38.443  31.985  36.638  1.00  0.00     0.173 A 
ATOM     92  C   UNL A   1      39.832  33.728  35.728  1.00  0.00     0.173 A 
ATOM     93  F   UNL A   1      37.927  30.749  36.589  1.00  0.00    -0.203 F 
ATOM     94  C   UNL A   1      38.068  32.833  37.676  1.00  0.00     0.198 A 
ATOM     95  C   UNL A   1      39.470  34.565  36.780  1.00  0.00     0.198 A 
ATOM     96  F   UNL A   1      40.687  34.185  34.802  1.00  0.00    -0.203 F 
ATOM     97  F   UNL A   1      37.198  32.410  38.604  1.00  0.00    -0.200 F 
ATOM     98  C   UNL A   1      38.588  34.118  37.751  1.00  0.00     0.200 A 
ATOM     99  F   UNL A   1      39.983  35.801  36.857  1.00  0.00    -0.200 F 
ATOM    100  F   UNL A   1      38.236  34.926  38.760  1.00  0.00    -0.200 F 
ENDBRANCH  67  90
ENDBRANCH  41  42
ENDBRANCH  34  36
ENDBRANCH  33  34
ENDBRANCH  32  33
ENDBRANCH   1  32
TORSDOF 15
ENDMDL
MODEL 3
REMARK VINA RESULT:     -13.4      5.781     10.869
REMARK SMILES CS(=O)(=O)c1ccc(C2=NN(c3ccc(C(=O)OCCOC(=O)c4ccc(-c5c6nc(c(-c7c(F)c(F)c(F)c(F)c7F)c7ccc([nH]7)c(-c7c(F)c(F)c(F)c(F)c7F)c7nc(c(-c8c(F)c(F)c(F)c(F)c8F)c8ccc5[nH]8)C=C7)C=C6)cc4)cc3)[C@H](c3ccccc3)C2)cc1
REMARK SMILES IDX 19 1 18 2 16 3 17 4 15 5 12 6 13 7 88 8 14 9 87 10 11 11
REMARK SMILES IDX 9 12 10 13 96 14 89 15 8 16 5 17 6 18 98 19 7 20 97 21 2 22
REMARK SMILES IDX 1 23 3 24 4 25 90 26 91 27 95 28 92 29 94 30 93 31 20 32
REMARK SMILES IDX 21 33 22 34 23 35 24 36 25 37 86 38 26 39 85 40 27 41 28 42
REMARK SMILES IDX 29 43 79 44 30 45 84 46 78 47 80 48 31 49 83 50 77 51 76 52
REMARK SMILES IDX 32 54 64 55 44 56 63 57 45 58 48 59 62 60 81 61 46 62 47 63
REMARK SMILES IDX 61 65 82 66 49 67 33 68 34 69 42 70 35 71 36 72 40 73 43 74
REMARK SMILES IDX 37 75 38 76 41 77 39 78 65 79 66 80 74 81 67 82 68 83 72 84
REMARK SMILES IDX 75 85 69 86 70 87 73 88 71 89 50 90 51 91 59 92 52 93 53 94
REMARK SMILES IDX 57 95 60 96 54 97 55 98 58 99 56 100
REMARK H PARENT 80 53 48 64
REMARK Flexibility Score: inf
ROOT
ATOM      1  C   UNL A   1      39.002  20.526  25.265  1.00  0.00     0.275 C 
ENDROOT
BRANCH   1   2
ATOM      2  O   UNL A   1      38.453  21.401  26.268  1.00  0.00    -0.458 OA
BRANCH   2   3
ATOM      3  C   UNL A   1      38.468  22.722  25.973  1.00  0.00     0.338 C 
ATOM      4  O   UNL A   1      39.432  23.469  26.058  1.00  0.00    -0.246 OA
BRANCH   3   5
ATOM      5  C   UNL A   1      37.152  23.175  25.456  1.00  0.00     0.060 A 
ATOM      6  C   UNL A   1      34.576  23.940  24.625  1.00  0.00     0.060 A 
ATOM      7  C   UNL A   1      34.978  24.140  25.949  1.00  0.00     0.029 A 
ATOM      8  C   UNL A   1      35.497  23.412  23.710  1.00  0.00     0.029 A 
ATOM      9  C   UNL A   1      36.243  23.732  26.368  1.00  0.00     0.018 A 
ATOM     10  C   UNL A   1      36.781  23.034  24.117  1.00  0.00     0.018 A 
BRANCH   6  11
ATOM     11  N   UNL A   1      33.241  24.109  24.246  1.00  0.00    -0.257 N 
ATOM     12  C   UNL A   1      31.523  25.375  24.193  1.00  0.00     0.071 C 
ATOM     13  N   UNL A   1      32.794  25.355  23.934  1.00  0.00    -0.176 NA
ATOM     14  C   UNL A   1      30.965  24.132  24.833  1.00  0.00     0.091 C 
ATOM     15  C   UNL A   1      32.229  23.270  24.909  1.00  0.00     0.144 C 
BRANCH  12  16
ATOM     16  C   UNL A   1      30.657  26.524  23.858  1.00  0.00    -0.002 A 
ATOM     17  C   UNL A   1      29.112  28.714  23.098  1.00  0.00     0.067 A 
ATOM     18  C   UNL A   1      30.499  28.849  23.185  1.00  0.00     0.021 A 
ATOM     19  C   UNL A   1      28.490  27.494  23.391  1.00  0.00     0.021 A 
ATOM     20  C   UNL A   1      31.270  27.753  23.579  1.00  0.00     0.011 A 
ATOM     21  C   UNL A   1      29.267  26.396  23.773  1.00  0.00     0.011 A 
BRANCH  17  22
ATOM     22  S   UNL A   1      28.123  30.078  22.527  1.00  0.00     0.175 S 
ATOM     23  C   UNL A   1      29.077  31.509  22.957  1.00  0.00     0.163 C 
ATOM     24  O   UNL A   1      26.912  30.081  23.324  1.00  0.00    -0.224 OA
ATOM     25  O   UNL A   1      28.062  30.005  21.080  1.00  0.00    -0.224 OA
ENDBRANCH  17  22
ENDBRANCH  12  16
BRANCH  15  26
ATOM     26  C   UNL A   1      32.208  21.885  24.283  1.00  0.00    -0.023 A 
ATOM     27  C   UNL A   1      32.055  21.658  22.908  1.00  0.00     0.006 A 
ATOM     28  C   UNL A   1      32.459  20.772  25.111  1.00  0.00     0.006 A 
ATOM     29  C   UNL A   1      32.142  20.363  22.385  1.00  0.00     0.000 A 
ATOM     30  C   UNL A   1      32.574  19.485  24.585  1.00  0.00     0.000 A 
ATOM     31  C   UNL A   1      32.411  19.280  23.220  1.00  0.00     0.000 A 
ENDBRANCH  15  26
ENDBRANCH   6  11
ENDBRANCH   3   5
ENDBRANCH   2   3
ENDBRANCH   1   2
BRANCH   1  32
ATOM     32  C   UNL A   1      39.796  19.387  25.905  1.00  0.00     0.275 C 
BRANCH  32  33
ATOM     33  O   UNL A   1      41.093  19.257  25.293  1.00  0.00    -0.458 OA
BRANCH  33  34
ATOM     34  C   UNL A   1      42.141  19.299  26.146  1.00  0.00     0.338 C 
ATOM     35  O   UNL A   1      42.842  18.375  26.518  1.00  0.00    -0.246 OA
BRANCH  34  36
ATOM     36  C   UNL A   1      42.367  20.687  26.569  1.00  0.00     0.060 A 
ATOM     37  C   UNL A   1      42.783  21.620  25.620  1.00  0.00     0.016 A 
ATOM     38  C   UNL A   1      42.293  21.034  27.916  1.00  0.00     0.016 A 
ATOM     39  C   UNL A   1      43.178  22.896  26.013  1.00  0.00     0.010 A 
ATOM     40  C   UNL A   1      42.639  22.331  28.305  1.00  0.00     0.010 A 
ATOM     41  C   UNL A   1      43.109  23.266  27.361  1.00  0.00    -0.014 A 
BRANCH  41  42
ATOM     42  C   UNL A   1      43.584  24.598  27.814  1.00  0.00     0.031 A 
ATOM     43  C   UNL A   1      42.577  25.646  28.196  1.00  0.00     0.074 A 
ATOM     44  C   UNL A   1      44.899  24.883  27.863  1.00  0.00     0.049 A 
ATOM     45  N   UNL A   1      42.737  26.935  28.354  1.00  0.00    -0.248 NA
ATOM     46  C   UNL A   1      41.200  25.177  28.420  1.00  0.00     0.031 C 
ATOM     47  C   UNL A   1      45.983  23.938  27.598  1.00  0.00     0.029 A 
ATOM     48  N   UNL A   1      45.545  26.064  28.138  1.00  0.00    -0.354 N 
ATOM     49  C   UNL A   1      41.473  27.439  28.630  1.00  0.00     0.074 A 
ATOM     50  C   UNL A   1      40.558  26.317  28.633  1.00  0.00     0.031 C 
ATOM     51  C   UNL A   1      47.158  24.576  27.720  1.00  0.00     0.029 A 
ATOM     52  C   UNL A   1      46.907  25.988  27.988  1.00  0.00     0.049 A 
ATOM     53  H   UNL A   1      45.077  26.885  28.416  1.00  0.00     0.167 HD
ATOM     54  C   UNL A   1      41.113  28.726  28.849  1.00  0.00     0.037 A 
ATOM     55  C   UNL A   1      47.843  26.956  28.005  1.00  0.00     0.037 A 
ATOM     56  C   UNL A   1      42.041  29.825  28.894  1.00  0.00     0.049 A 
ATOM     57  C   UNL A   1      47.419  28.386  28.207  1.00  0.00     0.074 A 
ATOM     58  C   UNL A   1      41.782  31.167  29.115  1.00  0.00     0.029 A 
ATOM     59  N   UNL A   1      43.413  29.703  28.732  1.00  0.00    -0.354 N 
ATOM     60  N   UNL A   1      46.215  28.870  28.398  1.00  0.00    -0.248 NA
ATOM     61  C   UNL A   1      48.477  29.405  28.173  1.00  0.00     0.031 C 
ATOM     62  C   UNL A   1      42.995  31.861  29.056  1.00  0.00     0.029 A 
ATOM     63  C   UNL A   1      44.013  30.946  28.841  1.00  0.00     0.049 A 
ATOM     64  H   UNL A   1      43.890  28.858  28.565  1.00  0.00     0.167 HD
ATOM     65  C   UNL A   1      46.374  30.242  28.531  1.00  0.00     0.074 A 
ATOM     66  C   UNL A   1      47.790  30.516  28.403  1.00  0.00     0.031 C 
ATOM     67  C   UNL A   1      45.429  31.191  28.738  1.00  0.00     0.037 A 
BRANCH  54  68
ATOM     68  C   UNL A   1      39.652  29.025  29.011  1.00  0.00     0.064 A 
ATOM     69  C   UNL A   1      38.839  29.372  27.923  1.00  0.00     0.173 A 
ATOM     70  C   UNL A   1      39.050  28.922  30.275  1.00  0.00     0.173 A 
ATOM     71  F   UNL A   1      39.369  29.495  26.697  1.00  0.00    -0.203 F 
ATOM     72  C   UNL A   1      37.482  29.628  28.098  1.00  0.00     0.198 A 
ATOM     73  C   UNL A   1      37.689  29.152  30.442  1.00  0.00     0.198 A 
ATOM     74  F   UNL A   1      39.783  28.588  31.347  1.00  0.00    -0.203 F 
ATOM     75  F   UNL A   1      36.730  29.995  27.052  1.00  0.00    -0.200 F 
ATOM     76  C   UNL A   1      36.906  29.510  29.355  1.00  0.00     0.200 A 
ATOM     77  F   UNL A   1      37.132  29.025  31.655  1.00  0.00    -0.200 F 
ATOM     78  F   UNL A   1      35.597  29.747  29.520  1.00  0.00    -0.200 F 
ENDBRANCH  54  68
BRANCH  55  79
ATOM     79  C   UNL A   1      49.270  26.607  27.775  1.00  0.00     0.064 A 
ATOM     80  C   UNL A   1      50.152  26.432  28.849  1.00  0.00     0.173 A 
ATOM     81  C   UNL A   1      49.777  26.430  26.478  1.00  0.00     0.173 A 
ATOM     82  F   UNL A   1      49.720  26.619  30.106  1.00  0.00    -0.203 F 
ATOM     83  C   UNL A   1      51.488  26.099  28.636  1.00  0.00     0.198 A 
ATOM     84  C   UNL A   1      51.104  26.068  26.267  1.00  0.00     0.198 A 
ATOM     85  F   UNL A   1      48.975  26.590  25.416  1.00  0.00    -0.203 F 
ATOM     86  F   UNL A   1      52.319  25.972  29.679  1.00  0.00    -0.200 F 
ATOM     87  C   UNL A   1      51.960  25.908  27.346  1.00  0.00     0.200 A 
ATOM     88  F   UNL A   1      51.554  25.872  25.021  1.00  0.00    -0.200 F 
ATOM     89  F   UNL A   1      53.243  25.575  27.143  1.00  0.00    -0.200 F 
ENDBRANCH  55  79
BRANCH  67  90
ATOM     90  C   UNL A   1      45.894  32.606  28.899  1.00  0.00     0.064 A 
ATOM     91  C   UNL A   1      46.030  33.465  27.799  1.00  0.00     0.173 A 
ATOM     92  C   UNL A   1      46.135  33.126  30.180  1.00  0.00     0.173 A 
ATOM     93  F   UNL A   1      45.824  33.007  26.556  1.00  0.00    -0.203 F 
ATOM     94  C   UNL A   1      46.401  34.795  27.977  1.00  0.00     0.198 A 
ATOM     95  C   UNL A   1      46.485  34.462  30.354  1.00  0.00     0.198 A 
ATOM     96  F   UNL A   1      46.012  32.344  31.261  1.00  0.00    -0.203 F 
ATOM     97  F   UNL A   1      46.553  35.595  26.912  1.00  0.00    -0.200 F 
ATOM     98  C   UNL A   1      46.619  35.294  29.254  1.00  0.00     0.200 A 
ATOM     99  F   UNL A   1      46.684  34.946  31.588  1.00  0.00    -0.200 F 
ATOM    100  F   UNL A   1      46.962  36.579  29.421  1.00  0.00    -0.200 F 
ENDBRANCH  67  90
ENDBRANCH  41  42
ENDBRANCH  34  36
ENDBRANCH  33  34
ENDBRANCH  32  33
ENDBRANCH   1  32
TORSDOF 15
ENDMDL
