MODEL 1
REMARK VINA RESULT:     -10.1      0.000      0.000
REMARK SMILES O=C(OCCOC(=O)c1cnc(Nc2ccccc2)nc1)c1ccc(-c2c3nc(c(-c4c(F)c(F)c(F)c(F)c4F)c4ccc([nH]4)c(-c4c(F)c(F)c(F)c(F)c4F)c4nc(c(-c5c(F)c(F)c(F)c(F)c5F)c5ccc2[nH]5)C=C4)C=C3)cc1
REMARK SMILES IDX 4 1 3 2 2 3 1 4 22 5 23 6 84 7 24 8 83 9 25 10 26 11 27 12
REMARK SMILES IDX 77 13 28 14 82 15 76 16 78 17 29 18 81 19 75 20 74 21 30 23
REMARK SMILES IDX 62 24 42 25 61 26 43 27 46 28 60 29 79 30 44 31 45 32 59 34
REMARK SMILES IDX 80 35 47 36 31 37 32 38 40 39 33 40 34 41 38 42 41 43 35 44
REMARK SMILES IDX 36 45 39 46 37 47 63 48 64 49 72 50 65 51 66 52 70 53 73 54
REMARK SMILES IDX 67 55 68 56 71 57 69 58 48 59 49 60 57 61 50 62 51 63 55 64
REMARK SMILES IDX 58 65 52 66 53 67 56 68 54 69 5 70 6 71 7 72 8 73 9 74 10 75
REMARK SMILES IDX 21 76 11 77 20 78 12 79 13 80 14 82 15 83 19 84 16 85 18 86
REMARK SMILES IDX 17 87
REMARK H PARENT 78 22 46 33 13 81
REMARK Flexibility Score: inf
ROOT
ATOM      1  C   UNL A   1      43.308  19.003  25.801  1.00  0.00     0.275 C 
ENDROOT
BRANCH   1   2
ATOM      2  O   UNL A   1      41.964  19.363  25.433  1.00  0.00    -0.458 OA
BRANCH   2   3
ATOM      3  C   UNL A   1      41.025  20.066  26.105  1.00  0.00     0.338 C 
ATOM      4  O   UNL A   1      39.884  19.613  26.179  1.00  0.00    -0.246 OA
BRANCH   3   5
ATOM      5  C   UNL A   1      41.243  21.444  26.642  1.00  0.00     0.060 A 
ATOM      6  C   UNL A   1      41.397  22.605  25.884  1.00  0.00     0.016 A 
ATOM      7  C   UNL A   1      41.350  21.555  28.042  1.00  0.00     0.016 A 
ATOM      8  C   UNL A   1      41.589  23.845  26.500  1.00  0.00     0.010 A 
ATOM      9  C   UNL A   1      41.532  22.794  28.666  1.00  0.00     0.010 A 
ATOM     10  C   UNL A   1      41.662  23.949  27.892  1.00  0.00    -0.014 A 
BRANCH  10  11
ATOM     11  C   UNL A   1      42.035  25.245  28.503  1.00  0.00     0.031 A 
ATOM     12  C   UNL A   1      43.479  25.500  28.818  1.00  0.00     0.074 A 
ATOM     13  C   UNL A   1      41.113  26.209  28.681  1.00  0.00     0.049 A 
ATOM     14  N   UNL A   1      44.055  26.595  29.242  1.00  0.00    -0.248 NA
ATOM     15  C   UNL A   1      44.406  24.375  28.606  1.00  0.00     0.031 C 
ATOM     16  C   UNL A   1      39.697  26.079  28.359  1.00  0.00     0.029 A 
ATOM     17  N   UNL A   1      41.228  27.488  29.164  1.00  0.00    -0.354 N 
ATOM     18  C   UNL A   1      45.408  26.303  29.306  1.00  0.00     0.074 A 
ATOM     19  C   UNL A   1      45.566  24.912  28.949  1.00  0.00     0.031 C 
ATOM     20  C   UNL A   1      39.066  27.228  28.655  1.00  0.00     0.029 A 
ATOM     21  C   UNL A   1      40.037  28.173  29.197  1.00  0.00     0.049 A 
ATOM     22  H   UNL A   1      42.083  27.878  29.459  1.00  0.00     0.167 HD
ATOM     23  C   UNL A   1      46.433  27.136  29.600  1.00  0.00     0.037 A 
ATOM     24  C   UNL A   1      39.767  29.423  29.623  1.00  0.00     0.037 A 
ATOM     25  C   UNL A   1      46.264  28.511  29.981  1.00  0.00     0.049 A 
ATOM     26  C   UNL A   1      40.910  30.265  30.126  1.00  0.00     0.074 A 
ATOM     27  C   UNL A   1      47.226  29.447  30.305  1.00  0.00     0.029 A 
ATOM     28  N   UNL A   1      45.031  29.139  30.106  1.00  0.00    -0.354 N 
ATOM     29  N   UNL A   1      42.195  30.001  30.128  1.00  0.00    -0.248 NA
ATOM     30  C   UNL A   1      40.568  31.580  30.682  1.00  0.00     0.031 C 
ATOM     31  C   UNL A   1      46.575  30.631  30.672  1.00  0.00     0.029 A 
ATOM     32  C   UNL A   1      45.207  30.444  30.534  1.00  0.00     0.049 A 
ATOM     33  H   UNL A   1      44.161  28.719  29.918  1.00  0.00     0.167 HD
ATOM     34  C   UNL A   1      42.819  31.137  30.622  1.00  0.00     0.074 A 
ATOM     35  C   UNL A   1      41.768  32.088  30.926  1.00  0.00     0.031 C 
ATOM     36  C   UNL A   1      44.142  31.380  30.792  1.00  0.00     0.037 A 
BRANCH  23  37
ATOM     37  C   UNL A   1      47.814  26.557  29.527  1.00  0.00     0.064 A 
ATOM     38  C   UNL A   1      48.420  25.972  30.652  1.00  0.00     0.173 A 
ATOM     39  C   UNL A   1      48.556  26.623  28.340  1.00  0.00     0.173 A 
ATOM     40  F   UNL A   1      47.759  25.906  31.817  1.00  0.00    -0.203 F 
ATOM     41  C   UNL A   1      49.731  25.507  30.598  1.00  0.00     0.198 A 
ATOM     42  C   UNL A   1      49.859  26.135  28.284  1.00  0.00     0.198 A 
ATOM     43  F   UNL A   1      48.024  27.176  27.241  1.00  0.00    -0.203 F 
ATOM     44  F   UNL A   1      50.310  25.009  31.700  1.00  0.00    -0.200 F 
ATOM     45  C   UNL A   1      50.449  25.589  29.414  1.00  0.00     0.200 A 
ATOM     46  F   UNL A   1      50.552  26.211  27.139  1.00  0.00    -0.200 F 
ATOM     47  F   UNL A   1      51.717  25.154  29.367  1.00  0.00    -0.200 F 
ENDBRANCH  23  37
BRANCH  24  48
ATOM     48  C   UNL A   1      38.374  29.952  29.610  1.00  0.00     0.064 A 
ATOM     49  C   UNL A   1      37.745  30.365  28.428  1.00  0.00     0.173 A 
ATOM     50  C   UNL A   1      37.655  30.103  30.802  1.00  0.00     0.173 A 
ATOM     51  F   UNL A   1      38.392  30.269  27.258  1.00  0.00    -0.203 F 
ATOM     52  C   UNL A   1      36.466  30.926  28.449  1.00  0.00     0.198 A 
ATOM     53  C   UNL A   1      36.369  30.638  30.825  1.00  0.00     0.198 A 
ATOM     54  F   UNL A   1      38.212  29.731  31.956  1.00  0.00    -0.203 F 
ATOM     55  F   UNL A   1      35.912  31.361  27.309  1.00  0.00    -0.200 F 
ATOM     56  C   UNL A   1      35.778  31.059  29.646  1.00  0.00     0.200 A 
ATOM     57  F   UNL A   1      35.712  30.759  31.986  1.00  0.00    -0.200 F 
ATOM     58  F   UNL A   1      34.556  31.607  29.664  1.00  0.00    -0.200 F 
ENDBRANCH  24  48
BRANCH  36  59
ATOM     59  C   UNL A   1      44.527  32.757  31.242  1.00  0.00     0.064 A 
ATOM     60  C   UNL A   1      44.699  33.072  32.597  1.00  0.00     0.173 A 
ATOM     61  C   UNL A   1      44.758  33.765  30.294  1.00  0.00     0.173 A 
ATOM     62  F   UNL A   1      44.470  32.147  33.540  1.00  0.00    -0.203 F 
ATOM     63  C   UNL A   1      45.069  34.356  32.987  1.00  0.00     0.198 A 
ATOM     64  C   UNL A   1      45.155  35.038  30.686  1.00  0.00     0.198 A 
ATOM     65  F   UNL A   1      44.610  33.508  28.985  1.00  0.00    -0.203 F 
ATOM     66  F   UNL A   1      45.184  34.650  34.289  1.00  0.00    -0.200 F 
ATOM     67  C   UNL A   1      45.304  35.335  32.032  1.00  0.00     0.200 A 
ATOM     68  F   UNL A   1      45.393  35.979  29.762  1.00  0.00    -0.200 F 
ATOM     69  F   UNL A   1      45.666  36.568  32.410  1.00  0.00    -0.200 F 
ENDBRANCH  36  59
ENDBRANCH  10  11
ENDBRANCH   3   5
ENDBRANCH   2   3
ENDBRANCH   1   2
BRANCH   1  70
ATOM     70  C   UNL A   1      44.277  18.887  24.624  1.00  0.00     0.275 C 
BRANCH  70  71
ATOM     71  O   UNL A   1      44.649  20.157  24.066  1.00  0.00    -0.458 OA
BRANCH  71  72
ATOM     72  C   UNL A   1      45.736  20.740  24.636  1.00  0.00     0.341 C 
ATOM     73  O   UNL A   1      46.823  20.233  24.844  1.00  0.00    -0.246 OA
BRANCH  72  74
ATOM     74  C   UNL A   1      45.459  22.156  24.845  1.00  0.00     0.096 A 
ATOM     75  C   UNL A   1      44.448  22.835  24.219  1.00  0.00     0.132 A 
ATOM     76  C   UNL A   1      46.270  22.909  25.656  1.00  0.00     0.132 A 
ATOM     77  N   UNL A   1      44.273  24.170  24.338  1.00  0.00    -0.220 NA
ATOM     78  N   UNL A   1      46.177  24.256  25.743  1.00  0.00    -0.220 NA
ATOM     79  C   UNL A   1      45.181  24.852  25.063  1.00  0.00     0.227 A 
BRANCH  79  80
ATOM     80  N   UNL A   1      45.221  26.239  25.032  1.00  0.00    -0.324 N 
ATOM     81  H   UNL A   1      46.033  26.609  24.617  1.00  0.00     0.170 HD
BRANCH  80  82
ATOM     82  C   UNL A   1      44.320  27.206  25.484  1.00  0.00     0.041 A 
ATOM     83  C   UNL A   1      44.789  28.266  26.274  1.00  0.00     0.026 A 
ATOM     84  C   UNL A   1      42.959  27.167  25.166  1.00  0.00     0.026 A 
ATOM     85  C   UNL A   1      43.911  29.227  26.780  1.00  0.00     0.002 A 
ATOM     86  C   UNL A   1      42.074  28.111  25.693  1.00  0.00     0.002 A 
ATOM     87  C   UNL A   1      42.548  29.135  26.510  1.00  0.00     0.000 A 
ENDBRANCH  80  82
ENDBRANCH  79  80
ENDBRANCH  72  74
ENDBRANCH  71  72
ENDBRANCH  70  71
ENDBRANCH   1  70
TORSDOF 13
ENDMDL
MODEL 2
REMARK VINA RESULT:      -9.7      6.305     11.487
REMARK SMILES O=C(OCCOC(=O)c1cnc(Nc2ccccc2)nc1)c1ccc(-c2c3nc(c(-c4c(F)c(F)c(F)c(F)c4F)c4ccc([nH]4)c(-c4c(F)c(F)c(F)c(F)c4F)c4nc(c(-c5c(F)c(F)c(F)c(F)c5F)c5ccc2[nH]5)C=C4)C=C3)cc1
REMARK SMILES IDX 4 1 3 2 2 3 1 4 22 5 23 6 84 7 24 8 83 9 25 10 26 11 27 12
REMARK SMILES IDX 77 13 28 14 82 15 76 16 78 17 29 18 81 19 75 20 74 21 30 23
REMARK SMILES IDX 62 24 42 25 61 26 43 27 46 28 60 29 79 30 44 31 45 32 59 34
REMARK SMILES IDX 80 35 47 36 31 37 32 38 40 39 33 40 34 41 38 42 41 43 35 44
REMARK SMILES IDX 36 45 39 46 37 47 63 48 64 49 72 50 65 51 66 52 70 53 73 54
REMARK SMILES IDX 67 55 68 56 71 57 69 58 48 59 49 60 57 61 50 62 51 63 55 64
REMARK SMILES IDX 58 65 52 66 53 67 56 68 54 69 5 70 6 71 7 72 8 73 9 74 10 75
REMARK SMILES IDX 21 76 11 77 20 78 12 79 13 80 14 82 15 83 19 84 16 85 18 86
REMARK SMILES IDX 17 87
REMARK H PARENT 78 22 46 33 13 81
REMARK Flexibility Score: inf
ROOT
ATOM      1  C   UNL A   1      31.915  32.703  26.740  1.00  0.00     0.275 C 
ENDROOT
BRANCH   1   2
ATOM      2  O   UNL A   1      32.494  33.456  27.821  1.00  0.00    -0.458 OA
BRANCH   2   3
ATOM      3  C   UNL A   1      33.751  33.924  27.995  1.00  0.00     0.338 C 
ATOM      4  O   UNL A   1      34.034  35.039  27.561  1.00  0.00    -0.246 OA
BRANCH   3   5
ATOM      5  C   UNL A   1      34.871  33.108  28.554  1.00  0.00     0.060 A 
ATOM      6  C   UNL A   1      34.746  31.884  29.210  1.00  0.00     0.016 A 
ATOM      7  C   UNL A   1      36.161  33.664  28.441  1.00  0.00     0.016 A 
ATOM      8  C   UNL A   1      35.873  31.205  29.685  1.00  0.00     0.010 A 
ATOM      9  C   UNL A   1      37.293  32.986  28.904  1.00  0.00     0.010 A 
ATOM     10  C   UNL A   1      37.152  31.751  29.541  1.00  0.00    -0.014 A 
BRANCH  10  11
ATOM     11  C   UNL A   1      38.300  31.091  30.203  1.00  0.00     0.031 A 
ATOM     12  C   UNL A   1      38.591  31.428  31.635  1.00  0.00     0.074 A 
ATOM     13  C   UNL A   1      39.006  30.140  29.564  1.00  0.00     0.049 A 
ATOM     14  N   UNL A   1      39.463  30.894  32.451  1.00  0.00    -0.248 NA
ATOM     15  C   UNL A   1      37.776  32.495  32.238  1.00  0.00     0.031 C 
ATOM     16  C   UNL A   1      38.768  29.706  28.192  1.00  0.00     0.029 A 
ATOM     17  N   UNL A   1      40.054  29.361  29.983  1.00  0.00    -0.354 N 
ATOM     18  C   UNL A   1      39.270  31.529  33.668  1.00  0.00     0.074 A 
ATOM     19  C   UNL A   1      38.253  32.538  33.472  1.00  0.00     0.031 C 
ATOM     20  C   UNL A   1      39.646  28.740  27.874  1.00  0.00     0.029 A 
ATOM     21  C   UNL A   1      40.515  28.495  29.020  1.00  0.00     0.049 A 
ATOM     22  H   UNL A   1      40.440  29.418  30.887  1.00  0.00     0.167 HD
ATOM     23  C   UNL A   1      39.865  31.267  34.855  1.00  0.00     0.037 A 
ATOM     24  C   UNL A   1      41.528  27.608  29.066  1.00  0.00     0.037 A 
ATOM     25  C   UNL A   1      40.895  30.282  35.034  1.00  0.00     0.049 A 
ATOM     26  C   UNL A   1      42.299  27.474  30.353  1.00  0.00     0.074 A 
ATOM     27  C   UNL A   1      41.571  29.933  36.187  1.00  0.00     0.029 A 
ATOM     28  N   UNL A   1      41.410  29.497  34.010  1.00  0.00    -0.354 N 
ATOM     29  N   UNL A   1      42.073  28.038  31.517  1.00  0.00    -0.248 NA
ATOM     30  C   UNL A   1      43.463  26.579  30.339  1.00  0.00     0.031 C 
ATOM     31  C   UNL A   1      42.530  28.968  35.852  1.00  0.00     0.029 A 
ATOM     32  C   UNL A   1      42.420  28.686  34.499  1.00  0.00     0.049 A 
ATOM     33  H   UNL A   1      41.102  29.515  33.075  1.00  0.00     0.167 HD
ATOM     34  C   UNL A   1      43.021  27.518  32.385  1.00  0.00     0.074 A 
ATOM     35  C   UNL A   1      43.838  26.607  31.610  1.00  0.00     0.031 C 
ATOM     36  C   UNL A   1      43.190  27.759  33.709  1.00  0.00     0.037 A 
BRANCH  23  37
ATOM     37  C   UNL A   1      39.409  32.078  36.031  1.00  0.00     0.064 A 
ATOM     38  C   UNL A   1      40.018  33.302  36.353  1.00  0.00     0.173 A 
ATOM     39  C   UNL A   1      38.385  31.612  36.867  1.00  0.00     0.173 A 
ATOM     40  F   UNL A   1      41.017  33.779  35.596  1.00  0.00    -0.203 F 
ATOM     41  C   UNL A   1      39.642  34.011  37.491  1.00  0.00     0.198 A 
ATOM     42  C   UNL A   1      37.996  32.337  37.991  1.00  0.00     0.198 A 
ATOM     43  F   UNL A   1      37.775  30.447  36.605  1.00  0.00    -0.203 F 
ATOM     44  F   UNL A   1      40.280  35.145  37.813  1.00  0.00    -0.200 F 
ATOM     45  C   UNL A   1      38.632  33.528  38.308  1.00  0.00     0.200 A 
ATOM     46  F   UNL A   1      37.017  31.871  38.780  1.00  0.00    -0.200 F 
ATOM     47  F   UNL A   1      38.281  34.203  39.412  1.00  0.00    -0.200 F 
ENDBRANCH  23  37
BRANCH  24  48
ATOM     48  C   UNL A   1      41.887  26.792  27.872  1.00  0.00     0.064 A 
ATOM     49  C   UNL A   1      41.331  25.527  27.640  1.00  0.00     0.173 A 
ATOM     50  C   UNL A   1      42.841  27.248  26.954  1.00  0.00     0.173 A 
ATOM     51  F   UNL A   1      40.432  25.025  28.498  1.00  0.00    -0.203 F 
ATOM     52  C   UNL A   1      41.736  24.748  26.554  1.00  0.00     0.198 A 
ATOM     53  C   UNL A   1      43.228  26.486  25.854  1.00  0.00     0.198 A 
ATOM     54  F   UNL A   1      43.404  28.444  27.133  1.00  0.00    -0.203 F 
ATOM     55  F   UNL A   1      41.227  23.520  26.388  1.00  0.00    -0.200 F 
ATOM     56  C   UNL A   1      42.682  25.230  25.660  1.00  0.00     0.200 A 
ATOM     57  F   UNL A   1      44.141  26.962  24.996  1.00  0.00    -0.200 F 
ATOM     58  F   UNL A   1      43.075  24.477  24.624  1.00  0.00    -0.200 F 
ENDBRANCH  24  48
BRANCH  36  59
ATOM     59  C   UNL A   1      44.240  26.956  34.416  1.00  0.00     0.064 A 
ATOM     60  C   UNL A   1      45.551  27.426  34.575  1.00  0.00     0.173 A 
ATOM     61  C   UNL A   1      43.912  25.709  34.970  1.00  0.00     0.173 A 
ATOM     62  F   UNL A   1      45.915  28.603  34.045  1.00  0.00    -0.203 F 
ATOM     63  C   UNL A   1      46.503  26.665  35.247  1.00  0.00     0.198 A 
ATOM     64  C   UNL A   1      44.859  24.965  35.665  1.00  0.00     0.198 A 
ATOM     65  F   UNL A   1      42.669  25.220  34.846  1.00  0.00    -0.203 F 
ATOM     66  F   UNL A   1      47.762  27.111  35.349  1.00  0.00    -0.200 F 
ATOM     67  C   UNL A   1      46.155  25.440  35.797  1.00  0.00     0.200 A 
ATOM     68  F   UNL A   1      44.518  23.787  36.206  1.00  0.00    -0.200 F 
ATOM     69  F   UNL A   1      47.072  24.712  36.449  1.00  0.00    -0.200 F 
ENDBRANCH  36  59
ENDBRANCH  10  11
ENDBRANCH   3   5
ENDBRANCH   2   3
ENDBRANCH   1   2
BRANCH   1  70
ATOM     70  C   UNL A   1      32.049  31.186  26.883  1.00  0.00     0.275 C 
BRANCH  70  71
ATOM     71  O   UNL A   1      31.404  30.456  25.828  1.00  0.00    -0.458 OA
BRANCH  71  72
ATOM     72  C   UNL A   1      32.182  29.531  25.209  1.00  0.00     0.341 C 
ATOM     73  O   UNL A   1      33.279  29.702  24.709  1.00  0.00    -0.246 OA
BRANCH  72  74
ATOM     74  C   UNL A   1      31.564  28.218  25.354  1.00  0.00     0.096 A 
ATOM     75  C   UNL A   1      31.794  27.381  26.413  1.00  0.00     0.132 A 
ATOM     76  C   UNL A   1      30.750  27.722  24.368  1.00  0.00     0.132 A 
ATOM     77  N   UNL A   1      31.301  26.124  26.478  1.00  0.00    -0.220 NA
ATOM     78  N   UNL A   1      30.300  26.447  24.357  1.00  0.00    -0.220 NA
ATOM     79  C   UNL A   1      30.605  25.674  25.416  1.00  0.00     0.227 A 
BRANCH  79  80
ATOM     80  N   UNL A   1      30.281  24.331  25.293  1.00  0.00    -0.324 N 
ATOM     81  H   UNL A   1      29.364  24.111  25.574  1.00  0.00     0.170 HD
BRANCH  80  82
ATOM     82  C   UNL A   1      31.019  23.234  24.843  1.00  0.00     0.041 A 
ATOM     83  C   UNL A   1      31.369  22.223  25.751  1.00  0.00     0.026 A 
ATOM     84  C   UNL A   1      31.414  23.093  23.509  1.00  0.00     0.026 A 
ATOM     85  C   UNL A   1      32.143  21.132  25.347  1.00  0.00     0.002 A 
ATOM     86  C   UNL A   1      32.211  22.018  23.108  1.00  0.00     0.002 A 
ATOM     87  C   UNL A   1      32.585  21.043  24.030  1.00  0.00     0.000 A 
ENDBRANCH  80  82
ENDBRANCH  79  80
ENDBRANCH  72  74
ENDBRANCH  71  72
ENDBRANCH  70  71
ENDBRANCH   1  70
TORSDOF 13
ENDMDL
MODEL 3
REMARK VINA RESULT:      -9.7      5.146     11.234
REMARK SMILES O=C(OCCOC(=O)c1cnc(Nc2ccccc2)nc1)c1ccc(-c2c3nc(c(-c4c(F)c(F)c(F)c(F)c4F)c4ccc([nH]4)c(-c4c(F)c(F)c(F)c(F)c4F)c4nc(c(-c5c(F)c(F)c(F)c(F)c5F)c5ccc2[nH]5)C=C4)C=C3)cc1
REMARK SMILES IDX 4 1 3 2 2 3 1 4 22 5 23 6 84 7 24 8 83 9 25 10 26 11 27 12
REMARK SMILES IDX 77 13 28 14 82 15 76 16 78 17 29 18 81 19 75 20 74 21 30 23
REMARK SMILES IDX 62 24 42 25 61 26 43 27 46 28 60 29 79 30 44 31 45 32 59 34
REMARK SMILES IDX 80 35 47 36 31 37 32 38 40 39 33 40 34 41 38 42 41 43 35 44
REMARK SMILES IDX 36 45 39 46 37 47 63 48 64 49 72 50 65 51 66 52 70 53 73 54
REMARK SMILES IDX 67 55 68 56 71 57 69 58 48 59 49 60 57 61 50 62 51 63 55 64
REMARK SMILES IDX 58 65 52 66 53 67 56 68 54 69 5 70 6 71 7 72 8 73 9 74 10 75
REMARK SMILES IDX 21 76 11 77 20 78 12 79 13 80 14 82 15 83 19 84 16 85 18 86
REMARK SMILES IDX 17 87
REMARK H PARENT 78 22 46 33 13 81
REMARK Flexibility Score: inf
ROOT
ATOM      1  C   UNL A   1      33.166  33.216  27.872  1.00  0.00     0.275 C 
ENDROOT
BRANCH   1   2
ATOM      2  O   UNL A   1      34.138  32.309  28.422  1.00  0.00    -0.458 OA
BRANCH   2   3
ATOM      3  C   UNL A   1      34.531  31.082  28.010  1.00  0.00     0.338 C 
ATOM      4  O   UNL A   1      33.760  30.410  27.327  1.00  0.00    -0.246 OA
BRANCH   3   5
ATOM      5  C   UNL A   1      35.793  30.419  28.459  1.00  0.00     0.060 A 
ATOM      6  C   UNL A   1      35.984  29.751  29.668  1.00  0.00     0.016 A 
ATOM      7  C   UNL A   1      36.896  30.530  27.589  1.00  0.00     0.016 A 
ATOM      8  C   UNL A   1      37.214  29.159  29.976  1.00  0.00     0.010 A 
ATOM      9  C   UNL A   1      38.126  29.932  27.886  1.00  0.00     0.010 A 
ATOM     10  C   UNL A   1      38.293  29.249  29.093  1.00  0.00    -0.014 A 
BRANCH  10  11
ATOM     11  C   UNL A   1      39.623  28.762  29.522  1.00  0.00     0.031 A 
ATOM     12  C   UNL A   1      40.342  29.507  30.607  1.00  0.00     0.074 A 
ATOM     13  C   UNL A   1      40.131  27.622  29.019  1.00  0.00     0.049 A 
ATOM     14  N   UNL A   1      41.454  29.202  31.225  1.00  0.00    -0.248 NA
ATOM     15  C   UNL A   1      39.714  30.752  31.077  1.00  0.00     0.031 C 
ATOM     16  C   UNL A   1      39.486  26.800  28.001  1.00  0.00     0.029 A 
ATOM     17  N   UNL A   1      41.294  26.952  29.300  1.00  0.00    -0.354 N 
ATOM     18  C   UNL A   1      41.633  30.192  32.179  1.00  0.00     0.074 A 
ATOM     19  C   UNL A   1      40.560  31.146  32.016  1.00  0.00     0.031 C 
ATOM     20  C   UNL A   1      40.261  25.735  27.735  1.00  0.00     0.029 A 
ATOM     21  C   UNL A   1      41.462  25.806  28.559  1.00  0.00     0.049 A 
ATOM     22  H   UNL A   1      41.947  27.263  29.969  1.00  0.00     0.167 HD
ATOM     23  C   UNL A   1      42.589  30.275  33.133  1.00  0.00     0.037 A 
ATOM     24  C   UNL A   1      42.479  24.921  28.551  1.00  0.00     0.037 A 
ATOM     25  C   UNL A   1      43.668  29.337  33.268  1.00  0.00     0.049 A 
ATOM     26  C   UNL A   1      43.627  25.147  29.499  1.00  0.00     0.074 A 
ATOM     27  C   UNL A   1      44.695  29.322  34.193  1.00  0.00     0.029 A 
ATOM     28  N   UNL A   1      43.864  28.247  32.430  1.00  0.00    -0.354 N 
ATOM     29  N   UNL A   1      43.760  26.054  30.438  1.00  0.00    -0.248 NA
ATOM     30  C   UNL A   1      44.766  24.227  29.390  1.00  0.00     0.031 C 
ATOM     31  C   UNL A   1      45.540  28.249  33.885  1.00  0.00     0.029 A 
ATOM     32  C   UNL A   1      45.015  27.569  32.796  1.00  0.00     0.049 A 
ATOM     33  H   UNL A   1      43.271  27.992  31.686  1.00  0.00     0.167 HD
ATOM     34  C   UNL A   1      44.961  25.775  31.073  1.00  0.00     0.074 A 
ATOM     35  C   UNL A   1      45.528  24.624  30.400  1.00  0.00     0.031 C 
ATOM     36  C   UNL A   1      45.535  26.402  32.130  1.00  0.00     0.037 A 
BRANCH  23  37
ATOM     37  C   UNL A   1      42.497  31.433  34.080  1.00  0.00     0.064 A 
ATOM     38  C   UNL A   1      43.092  32.669  33.781  1.00  0.00     0.173 A 
ATOM     39  C   UNL A   1      41.845  31.298  35.314  1.00  0.00     0.173 A 
ATOM     40  F   UNL A   1      43.746  32.841  32.623  1.00  0.00    -0.203 F 
ATOM     41  C   UNL A   1      43.070  33.716  34.699  1.00  0.00     0.198 A 
ATOM     42  C   UNL A   1      41.805  32.355  36.220  1.00  0.00     0.198 A 
ATOM     43  F   UNL A   1      41.266  30.136  35.648  1.00  0.00    -0.203 F 
ATOM     44  F   UNL A   1      43.698  34.866  34.418  1.00  0.00    -0.200 F 
ATOM     45  C   UNL A   1      42.426  33.557  35.917  1.00  0.00     0.200 A 
ATOM     46  F   UNL A   1      41.180  32.203  37.396  1.00  0.00    -0.200 F 
ATOM     47  F   UNL A   1      42.417  34.561  36.807  1.00  0.00    -0.200 F 
ENDBRANCH  23  37
BRANCH  24  48
ATOM     48  C   UNL A   1      42.473  23.758  27.620  1.00  0.00     0.064 A 
ATOM     49  C   UNL A   1      42.013  22.493  28.010  1.00  0.00     0.173 A 
ATOM     50  C   UNL A   1      42.980  23.879  26.320  1.00  0.00     0.173 A 
ATOM     51  F   UNL A   1      41.540  22.308  29.250  1.00  0.00    -0.203 F 
ATOM     52  C   UNL A   1      42.085  21.400  27.145  1.00  0.00     0.198 A 
ATOM     53  C   UNL A   1      43.029  22.797  25.444  1.00  0.00     0.198 A 
ATOM     54  F   UNL A   1      43.436  25.061  25.902  1.00  0.00    -0.203 F 
ATOM     55  F   UNL A   1      41.687  20.191  27.564  1.00  0.00    -0.200 F 
ATOM     56  C   UNL A   1      42.590  21.553  25.862  1.00  0.00     0.200 A 
ATOM     57  F   UNL A   1      43.517  22.957  24.206  1.00  0.00    -0.200 F 
ATOM     58  F   UNL A   1      42.667  20.501  25.037  1.00  0.00    -0.200 F 
ENDBRANCH  24  48
BRANCH  36  59
ATOM     59  C   UNL A   1      46.793  25.798  32.675  1.00  0.00     0.064 A 
ATOM     60  C   UNL A   1      46.774  24.852  33.709  1.00  0.00     0.173 A 
ATOM     61  C   UNL A   1      48.035  26.153  32.126  1.00  0.00     0.173 A 
ATOM     62  F   UNL A   1      45.613  24.497  34.278  1.00  0.00    -0.203 F 
ATOM     63  C   UNL A   1      47.958  24.298  34.188  1.00  0.00     0.198 A 
ATOM     64  C   UNL A   1      49.212  25.576  32.588  1.00  0.00     0.198 A 
ATOM     65  F   UNL A   1      48.101  27.051  31.131  1.00  0.00    -0.203 F 
ATOM     66  F   UNL A   1      47.923  23.430  35.207  1.00  0.00    -0.200 F 
ATOM     67  C   UNL A   1      49.174  24.655  33.623  1.00  0.00     0.200 A 
ATOM     68  F   UNL A   1      50.384  25.913  32.033  1.00  0.00    -0.200 F 
ATOM     69  F   UNL A   1      50.311  24.115  34.082  1.00  0.00    -0.200 F 
ENDBRANCH  36  59
ENDBRANCH  10  11
ENDBRANCH   3   5
ENDBRANCH   2   3
ENDBRANCH   1   2
BRANCH   1  70
ATOM     70  C   UNL A   1      33.184  34.614  28.490  1.00  0.00     0.275 C 
BRANCH  70  71
ATOM     71  O   UNL A   1      32.620  34.660  29.809  1.00  0.00    -0.458 OA
BRANCH  71  72
ATOM     72  C   UNL A   1      32.982  35.738  30.552  1.00  0.00     0.341 C 
ATOM     73  O   UNL A   1      32.528  36.866  30.490  1.00  0.00    -0.246 OA
BRANCH  72  74
ATOM     74  C   UNL A   1      33.930  35.312  31.575  1.00  0.00     0.096 A 
ATOM     75  C   UNL A   1      34.192  36.023  32.716  1.00  0.00     0.132 A 
ATOM     76  C   UNL A   1      34.675  34.174  31.399  1.00  0.00     0.132 A 
ATOM     77  N   UNL A   1      35.152  35.672  33.599  1.00  0.00    -0.220 NA
ATOM     78  N   UNL A   1      35.695  33.828  32.217  1.00  0.00    -0.220 NA
ATOM     79  C   UNL A   1      35.914  34.603  33.294  1.00  0.00     0.227 A 
BRANCH  79  80
ATOM     80  N   UNL A   1      37.069  34.325  34.010  1.00  0.00    -0.324 N 
ATOM     81  H   UNL A   1      37.779  34.999  33.907  1.00  0.00     0.170 HD
BRANCH  80  82
ATOM     82  C   UNL A   1      37.410  33.262  34.849  1.00  0.00     0.041 A 
ATOM     83  C   UNL A   1      37.401  33.453  36.239  1.00  0.00     0.026 A 
ATOM     84  C   UNL A   1      37.749  31.998  34.356  1.00  0.00     0.026 A 
ATOM     85  C   UNL A   1      37.778  32.426  37.108  1.00  0.00     0.002 A 
ATOM     86  C   UNL A   1      38.153  30.977  35.220  1.00  0.00     0.002 A 
ATOM     87  C   UNL A   1      38.178  31.194  36.596  1.00  0.00     0.000 A 
ENDBRANCH  80  82
ENDBRANCH  79  80
ENDBRANCH  72  74
ENDBRANCH  71  72
ENDBRANCH  70  71
ENDBRANCH   1  70
TORSDOF 13
ENDMDL
