MODEL 1
REMARK VINA RESULT:     -12.4      0.000      0.000
REMARK SMILES O=C(Cc1ccc(-c2ccc(Cl)cc2)cc1)OCCOC(=O)c1ccc(-c2c3nc(c(-c4c(F)c(F)c(F)c(F)c4F)c4ccc([nH]4)c(-c4c(F)c(F)c(F)c(F)c4F)c4nc(c(-c5c(F)c(F)c(F)c(F)c5F)c5ccc2[nH]5)C=C4)C=C3)cc1
REMARK SMILES IDX 18 1 17 2 2 3 1 4 3 5 4 6 5 7 16 8 6 9 15 10 7 11 8 12 9 13
REMARK SMILES IDX 14 14 10 15 13 16 11 17 12 18 19 19 20 20 21 21 22 22 23 23
REMARK SMILES IDX 24 24 85 25 25 26 84 27 26 28 27 29 28 30 78 31 29 32 83 33
REMARK SMILES IDX 77 34 79 35 30 36 82 37 76 38 75 39 31 41 63 42 43 43 62 44
REMARK SMILES IDX 44 45 47 46 61 47 80 48 45 49 46 50 60 52 81 53 48 54 32 55
REMARK SMILES IDX 33 56 41 57 34 58 35 59 39 60 42 61 36 62 37 63 40 64 38 65
REMARK SMILES IDX 64 66 65 67 73 68 66 69 67 70 71 71 74 72 68 73 69 74 72 75
REMARK SMILES IDX 70 76 49 77 50 78 58 79 51 80 52 81 56 82 59 83 53 84 54 85
REMARK SMILES IDX 57 86 55 87
REMARK H PARENT 79 40 47 51
REMARK Flexibility Score: inf
ROOT
ATOM      1  C   UNL A   1      44.142  20.921  25.433  1.00  0.00     0.274 C 
ENDROOT
BRANCH   1   2
ATOM      2  O   UNL A   1      43.416  19.732  25.057  1.00  0.00    -0.462 OA
BRANCH   2   3
ATOM      3  C   UNL A   1      42.682  18.986  25.919  1.00  0.00     0.310 C 
ATOM      4  O   UNL A   1      42.562  17.774  25.739  1.00  0.00    -0.252 OA
BRANCH   3   5
ATOM      5  C   UNL A   1      41.928  19.687  27.028  1.00  0.00     0.158 C 
BRANCH   5   6
ATOM      6  C   UNL A   1      40.707  20.441  26.586  1.00  0.00    -0.037 A 
ATOM      7  C   UNL A   1      39.777  19.842  25.730  1.00  0.00     0.005 A 
ATOM      8  C   UNL A   1      40.475  21.746  27.028  1.00  0.00     0.005 A 
ATOM      9  C   UNL A   1      38.669  20.552  25.278  1.00  0.00     0.009 A 
ATOM     10  C   UNL A   1      39.344  22.445  26.596  1.00  0.00     0.009 A 
ATOM     11  C   UNL A   1      38.433  21.871  25.693  1.00  0.00    -0.018 A 
BRANCH  11  12
ATOM     12  C   UNL A   1      37.291  22.630  25.157  1.00  0.00    -0.018 A 
ATOM     13  C   UNL A   1      36.633  23.604  25.929  1.00  0.00     0.010 A 
ATOM     14  C   UNL A   1      36.789  22.360  23.871  1.00  0.00     0.010 A 
ATOM     15  C   UNL A   1      35.506  24.272  25.442  1.00  0.00     0.021 A 
ATOM     16  C   UNL A   1      35.666  23.030  23.378  1.00  0.00     0.021 A 
ATOM     17  C   UNL A   1      35.026  23.978  24.170  1.00  0.00     0.041 A 
ATOM     18  Cl  UNL A   1      33.629  24.785  23.574  1.00  0.00    -0.084 Cl
ENDBRANCH  11  12
ENDBRANCH   5   6
ENDBRANCH   3   5
ENDBRANCH   2   3
ENDBRANCH   1   2
BRANCH   1  19
ATOM     19  C   UNL A   1      43.957  22.063  24.430  1.00  0.00     0.275 C 
BRANCH  19  20
ATOM     20  O   UNL A   1      43.281  23.174  25.044  1.00  0.00    -0.458 OA
BRANCH  20  21
ATOM     21  C   UNL A   1      44.029  24.298  25.185  1.00  0.00     0.338 C 
ATOM     22  O   UNL A   1      44.965  24.646  24.487  1.00  0.00    -0.246 OA
BRANCH  21  23
ATOM     23  C   UNL A   1      43.402  25.172  26.204  1.00  0.00     0.060 A 
ATOM     24  C   UNL A   1      43.825  26.506  26.269  1.00  0.00     0.016 A 
ATOM     25  C   UNL A   1      42.385  24.717  27.049  1.00  0.00     0.016 A 
ATOM     26  C   UNL A   1      43.245  27.384  27.187  1.00  0.00     0.010 A 
ATOM     27  C   UNL A   1      41.814  25.593  27.978  1.00  0.00     0.010 A 
ATOM     28  C   UNL A   1      42.253  26.925  28.065  1.00  0.00    -0.014 A 
BRANCH  28  29
ATOM     29  C   UNL A   1      41.781  27.787  29.173  1.00  0.00     0.031 A 
ATOM     30  C   UNL A   1      42.483  27.704  30.499  1.00  0.00     0.074 A 
ATOM     31  C   UNL A   1      40.730  28.614  29.020  1.00  0.00     0.049 A 
ATOM     32  N   UNL A   1      42.215  28.320  31.622  1.00  0.00    -0.248 NA
ATOM     33  C   UNL A   1      43.641  26.800  30.567  1.00  0.00     0.031 C 
ATOM     34  C   UNL A   1      39.974  28.803  27.785  1.00  0.00     0.029 A 
ATOM     35  N   UNL A   1      40.107  29.437  29.927  1.00  0.00    -0.354 N 
ATOM     36  C   UNL A   1      43.169  27.879  32.528  1.00  0.00     0.074 A 
ATOM     37  C   UNL A   1      44.009  26.926  31.834  1.00  0.00     0.031 C 
ATOM     38  C   UNL A   1      38.971  29.669  28.018  1.00  0.00     0.029 A 
ATOM     39  C   UNL A   1      39.001  30.075  29.423  1.00  0.00     0.049 A 
ATOM     40  H   UNL A   1      40.425  29.558  30.851  1.00  0.00     0.167 HD
ATOM     41  C   UNL A   1      43.335  28.241  33.821  1.00  0.00     0.037 A 
ATOM     42  C   UNL A   1      38.103  30.873  30.035  1.00  0.00     0.037 A 
ATOM     43  C   UNL A   1      42.505  29.184  34.518  1.00  0.00     0.049 A 
ATOM     44  C   UNL A   1      38.265  31.196  31.500  1.00  0.00     0.074 A 
ATOM     45  C   UNL A   1      42.635  29.655  35.812  1.00  0.00     0.029 A 
ATOM     46  N   UNL A   1      41.377  29.786  33.983  1.00  0.00    -0.354 N 
ATOM     47  N   UNL A   1      39.214  30.833  32.330  1.00  0.00    -0.248 NA
ATOM     48  C   UNL A   1      37.227  32.039  32.115  1.00  0.00     0.031 C 
ATOM     49  C   UNL A   1      41.555  30.502  36.079  1.00  0.00     0.029 A 
ATOM     50  C   UNL A   1      40.776  30.593  34.936  1.00  0.00     0.049 A 
ATOM     51  H   UNL A   1      41.051  29.660  33.062  1.00  0.00     0.167 HD
ATOM     52  C   UNL A   1      38.900  31.421  33.550  1.00  0.00     0.074 A 
ATOM     53  C   UNL A   1      37.680  32.172  33.354  1.00  0.00     0.031 C 
ATOM     54  C   UNL A   1      39.566  31.343  34.728  1.00  0.00     0.037 A 
BRANCH  41  55
ATOM     55  C   UNL A   1      44.452  27.594  34.581  1.00  0.00     0.064 A 
ATOM     56  C   UNL A   1      44.255  26.412  35.308  1.00  0.00     0.173 A 
ATOM     57  C   UNL A   1      45.742  28.141  34.544  1.00  0.00     0.173 A 
ATOM     58  F   UNL A   1      43.034  25.861  35.383  1.00  0.00    -0.203 F 
ATOM     59  C   UNL A   1      45.310  25.807  35.984  1.00  0.00     0.198 A 
ATOM     60  C   UNL A   1      46.800  27.522  35.203  1.00  0.00     0.198 A 
ATOM     61  F   UNL A   1      45.978  29.271  33.861  1.00  0.00    -0.203 F 
ATOM     62  F   UNL A   1      45.095  24.695  36.701  1.00  0.00    -0.200 F 
ATOM     63  C   UNL A   1      46.582  26.358  35.926  1.00  0.00     0.200 A 
ATOM     64  F   UNL A   1      48.028  28.051  35.140  1.00  0.00    -0.200 F 
ATOM     65  F   UNL A   1      47.598  25.771  36.573  1.00  0.00    -0.200 F 
ENDBRANCH  41  55
BRANCH  42  66
ATOM     66  C   UNL A   1      36.940  31.407  29.280  1.00  0.00     0.064 A 
ATOM     67  C   UNL A   1      36.863  32.763  28.933  1.00  0.00     0.173 A 
ATOM     68  C   UNL A   1      35.859  30.582  28.938  1.00  0.00     0.173 A 
ATOM     69  F   UNL A   1      37.858  33.597  29.270  1.00  0.00    -0.203 F 
ATOM     70  C   UNL A   1      35.737  33.279  28.293  1.00  0.00     0.198 A 
ATOM     71  C   UNL A   1      34.745  31.094  28.275  1.00  0.00     0.198 A 
ATOM     72  F   UNL A   1      35.880  29.280  29.255  1.00  0.00    -0.203 F 
ATOM     73  F   UNL A   1      35.664  34.589  28.023  1.00  0.00    -0.200 F 
ATOM     74  C   UNL A   1      34.681  32.443  27.962  1.00  0.00     0.200 A 
ATOM     75  F   UNL A   1      33.728  30.282  27.954  1.00  0.00    -0.200 F 
ATOM     76  F   UNL A   1      33.595  32.942  27.355  1.00  0.00    -0.200 F 
ENDBRANCH  42  66
BRANCH  54  77
ATOM     77  C   UNL A   1      39.011  32.103  35.897  1.00  0.00     0.064 A 
ATOM     78  C   UNL A   1      38.179  31.487  36.842  1.00  0.00     0.173 A 
ATOM     79  C   UNL A   1      39.373  33.441  36.112  1.00  0.00     0.173 A 
ATOM     80  F   UNL A   1      37.793  30.213  36.673  1.00  0.00    -0.203 F 
ATOM     81  C   UNL A   1      37.720  32.186  37.955  1.00  0.00     0.198 A 
ATOM     82  C   UNL A   1      38.934  34.131  37.239  1.00  0.00     0.198 A 
ATOM     83  F   UNL A   1      40.173  34.074  35.240  1.00  0.00    -0.203 F 
ATOM     84  F   UNL A   1      36.902  31.587  38.831  1.00  0.00    -0.200 F 
ATOM     85  C   UNL A   1      38.106  33.504  38.158  1.00  0.00     0.200 A 
ATOM     86  F   UNL A   1      39.318  35.399  37.440  1.00  0.00    -0.200 F 
ATOM     87  F   UNL A   1      37.676  34.171  39.238  1.00  0.00    -0.200 F 
ENDBRANCH  54  77
ENDBRANCH  28  29
ENDBRANCH  21  23
ENDBRANCH  20  21
ENDBRANCH  19  20
ENDBRANCH   1  19
TORSDOF 13
ENDMDL
MODEL 2
REMARK VINA RESULT:     -12.0      0.548      1.830
REMARK SMILES O=C(Cc1ccc(-c2ccc(Cl)cc2)cc1)OCCOC(=O)c1ccc(-c2c3nc(c(-c4c(F)c(F)c(F)c(F)c4F)c4ccc([nH]4)c(-c4c(F)c(F)c(F)c(F)c4F)c4nc(c(-c5c(F)c(F)c(F)c(F)c5F)c5ccc2[nH]5)C=C4)C=C3)cc1
REMARK SMILES IDX 18 1 17 2 2 3 1 4 3 5 4 6 5 7 16 8 6 9 15 10 7 11 8 12 9 13
REMARK SMILES IDX 14 14 10 15 13 16 11 17 12 18 19 19 20 20 21 21 22 22 23 23
REMARK SMILES IDX 24 24 85 25 25 26 84 27 26 28 27 29 28 30 78 31 29 32 83 33
REMARK SMILES IDX 77 34 79 35 30 36 82 37 76 38 75 39 31 41 63 42 43 43 62 44
REMARK SMILES IDX 44 45 47 46 61 47 80 48 45 49 46 50 60 52 81 53 48 54 32 55
REMARK SMILES IDX 33 56 41 57 34 58 35 59 39 60 42 61 36 62 37 63 40 64 38 65
REMARK SMILES IDX 64 66 65 67 73 68 66 69 67 70 71 71 74 72 68 73 69 74 72 75
REMARK SMILES IDX 70 76 49 77 50 78 58 79 51 80 52 81 56 82 59 83 53 84 54 85
REMARK SMILES IDX 57 86 55 87
REMARK H PARENT 79 40 47 51
REMARK Flexibility Score: inf
ROOT
ATOM      1  C   UNL A   1      43.766  21.306  25.753  1.00  0.00     0.274 C 
ENDROOT
BRANCH   1   2
ATOM      2  O   UNL A   1      43.616  19.892  25.506  1.00  0.00    -0.462 OA
BRANCH   2   3
ATOM      3  C   UNL A   1      42.682  19.112  26.104  1.00  0.00     0.310 C 
ATOM      4  O   UNL A   1      42.599  17.918  25.816  1.00  0.00    -0.252 OA
BRANCH   3   5
ATOM      5  C   UNL A   1      41.680  19.760  27.035  1.00  0.00     0.158 C 
BRANCH   5   6
ATOM      6  C   UNL A   1      40.416  20.234  26.376  1.00  0.00    -0.037 A 
ATOM      7  C   UNL A   1      40.031  21.574  26.468  1.00  0.00     0.005 A 
ATOM      8  C   UNL A   1      39.613  19.348  25.653  1.00  0.00     0.005 A 
ATOM      9  C   UNL A   1      38.836  22.009  25.901  1.00  0.00     0.009 A 
ATOM     10  C   UNL A   1      38.430  19.795  25.059  1.00  0.00     0.009 A 
ATOM     11  C   UNL A   1      38.006  21.128  25.193  1.00  0.00    -0.018 A 
BRANCH  11  12
ATOM     12  C   UNL A   1      36.716  21.589  24.653  1.00  0.00    -0.018 A 
ATOM     13  C   UNL A   1      36.651  22.591  23.669  1.00  0.00     0.010 A 
ATOM     14  C   UNL A   1      35.504  21.075  25.149  1.00  0.00     0.010 A 
ATOM     15  C   UNL A   1      35.423  23.075  23.210  1.00  0.00     0.021 A 
ATOM     16  C   UNL A   1      34.274  21.552  24.689  1.00  0.00     0.021 A 
ATOM     17  C   UNL A   1      34.240  22.555  23.725  1.00  0.00     0.041 A 
ATOM     18  Cl  UNL A   1      32.727  23.160  23.176  1.00  0.00    -0.084 Cl
ENDBRANCH  11  12
ENDBRANCH   5   6
ENDBRANCH   3   5
ENDBRANCH   2   3
ENDBRANCH   1   2
BRANCH   1  19
ATOM     19  C   UNL A   1      43.693  22.136  24.469  1.00  0.00     0.275 C 
BRANCH  19  20
ATOM     20  O   UNL A   1      43.101  23.421  24.729  1.00  0.00    -0.458 OA
BRANCH  20  21
ATOM     21  C   UNL A   1      43.977  24.403  25.064  1.00  0.00     0.338 C 
ATOM     22  O   UNL A   1      45.024  24.672  24.501  1.00  0.00    -0.246 OA
BRANCH  21  23
ATOM     23  C   UNL A   1      43.368  25.260  26.107  1.00  0.00     0.060 A 
ATOM     24  C   UNL A   1      43.806  26.588  26.199  1.00  0.00     0.016 A 
ATOM     25  C   UNL A   1      42.352  24.796  26.950  1.00  0.00     0.016 A 
ATOM     26  C   UNL A   1      43.242  27.451  27.141  1.00  0.00     0.010 A 
ATOM     27  C   UNL A   1      41.798  25.657  27.903  1.00  0.00     0.010 A 
ATOM     28  C   UNL A   1      42.252  26.982  28.016  1.00  0.00    -0.014 A 
BRANCH  28  29
ATOM     29  C   UNL A   1      41.798  27.825  29.148  1.00  0.00     0.031 A 
ATOM     30  C   UNL A   1      42.510  27.705  30.465  1.00  0.00     0.074 A 
ATOM     31  C   UNL A   1      40.755  28.664  29.022  1.00  0.00     0.049 A 
ATOM     32  N   UNL A   1      42.258  28.297  31.604  1.00  0.00    -0.248 NA
ATOM     33  C   UNL A   1      43.660  26.788  30.503  1.00  0.00     0.031 C 
ATOM     34  C   UNL A   1      39.989  28.888  27.798  1.00  0.00     0.029 A 
ATOM     35  N   UNL A   1      40.148  29.474  29.952  1.00  0.00    -0.354 N 
ATOM     36  C   UNL A   1      43.216  27.827  32.491  1.00  0.00     0.074 A 
ATOM     37  C   UNL A   1      44.040  26.882  31.769  1.00  0.00     0.031 C 
ATOM     38  C   UNL A   1      38.997  29.759  28.059  1.00  0.00     0.029 A 
ATOM     39  C   UNL A   1      39.044  30.133  29.472  1.00  0.00     0.049 A 
ATOM     40  H   UNL A   1      40.474  29.571  30.876  1.00  0.00     0.167 HD
ATOM     41  C   UNL A   1      43.396  28.159  33.791  1.00  0.00     0.037 A 
ATOM     42  C   UNL A   1      38.159  30.926  30.109  1.00  0.00     0.037 A 
ATOM     43  C   UNL A   1      42.581  29.094  34.515  1.00  0.00     0.049 A 
ATOM     44  C   UNL A   1      38.337  31.215  31.580  1.00  0.00     0.074 A 
ATOM     45  C   UNL A   1      42.727  29.535  35.819  1.00  0.00     0.029 A 
ATOM     46  N   UNL A   1      41.455  29.719  34.004  1.00  0.00    -0.354 N 
ATOM     47  N   UNL A   1      39.288  30.824  32.393  1.00  0.00    -0.248 NA
ATOM     48  C   UNL A   1      37.312  32.054  32.222  1.00  0.00     0.031 C 
ATOM     49  C   UNL A   1      41.658  30.386  36.114  1.00  0.00     0.029 A 
ATOM     50  C   UNL A   1      40.871  30.510  34.980  1.00  0.00     0.049 A 
ATOM     51  H   UNL A   1      41.120  29.617  33.084  1.00  0.00     0.167 HD
ATOM     52  C   UNL A   1      38.991  31.387  33.629  1.00  0.00     0.074 A 
ATOM     53  C   UNL A   1      37.778  32.155  33.461  1.00  0.00     0.031 C 
ATOM     54  C   UNL A   1      39.666  31.276  34.799  1.00  0.00     0.037 A 
BRANCH  41  55
ATOM     55  C   UNL A   1      44.512  27.484  34.526  1.00  0.00     0.064 A 
ATOM     56  C   UNL A   1      45.755  28.107  34.704  1.00  0.00     0.173 A 
ATOM     57  C   UNL A   1      44.320  26.218  35.096  1.00  0.00     0.173 A 
ATOM     58  F   UNL A   1      45.990  29.312  34.163  1.00  0.00    -0.203 F 
ATOM     59  C   UNL A   1      46.773  27.479  35.415  1.00  0.00     0.198 A 
ATOM     60  C   UNL A   1      45.333  25.601  35.825  1.00  0.00     0.198 A 
ATOM     61  F   UNL A   1      43.147  25.582  34.953  1.00  0.00    -0.203 F 
ATOM     62  F   UNL A   1      47.966  28.076  35.545  1.00  0.00    -0.200 F 
ATOM     63  C   UNL A   1      46.559  26.230  35.980  1.00  0.00     0.200 A 
ATOM     64  F   UNL A   1      45.121  24.399  36.378  1.00  0.00    -0.200 F 
ATOM     65  F   UNL A   1      47.538  25.629  36.670  1.00  0.00    -0.200 F 
ENDBRANCH  41  55
BRANCH  42  66
ATOM     66  C   UNL A   1      36.995  31.489  29.377  1.00  0.00     0.064 A 
ATOM     67  C   UNL A   1      36.921  32.855  29.075  1.00  0.00     0.173 A 
ATOM     68  C   UNL A   1      35.909  30.679  29.012  1.00  0.00     0.173 A 
ATOM     69  F   UNL A   1      37.920  33.675  29.435  1.00  0.00    -0.203 F 
ATOM     70  C   UNL A   1      35.795  33.396  28.457  1.00  0.00     0.198 A 
ATOM     71  C   UNL A   1      34.795  31.216  28.370  1.00  0.00     0.198 A 
ATOM     72  F   UNL A   1      35.928  29.367  29.287  1.00  0.00    -0.203 F 
ATOM     73  F   UNL A   1      35.726  34.714  28.230  1.00  0.00    -0.200 F 
ATOM     74  C   UNL A   1      34.735  32.575  28.102  1.00  0.00     0.200 A 
ATOM     75  F   UNL A   1      33.774  30.419  28.027  1.00  0.00    -0.200 F 
ATOM     76  F   UNL A   1      33.648  33.096  27.516  1.00  0.00    -0.200 F 
ENDBRANCH  42  66
BRANCH  54  77
ATOM     77  C   UNL A   1      39.128  32.015  35.989  1.00  0.00     0.064 A 
ATOM     78  C   UNL A   1      39.470  33.352  36.236  1.00  0.00     0.173 A 
ATOM     79  C   UNL A   1      38.208  31.402  36.852  1.00  0.00     0.173 A 
ATOM     80  F   UNL A   1      40.357  33.978  35.448  1.00  0.00    -0.203 F 
ATOM     81  C   UNL A   1      38.916  34.046  37.309  1.00  0.00     0.198 A 
ATOM     82  C   UNL A   1      37.636  32.105  37.909  1.00  0.00     0.198 A 
ATOM     83  F   UNL A   1      37.843  30.125  36.656  1.00  0.00    -0.203 F 
ATOM     84  F   UNL A   1      39.279  35.315  37.543  1.00  0.00    -0.200 F 
ATOM     85  C   UNL A   1      37.993  33.426  38.138  1.00  0.00     0.200 A 
ATOM     86  F   UNL A   1      36.735  31.509  38.701  1.00  0.00    -0.200 F 
ATOM     87  F   UNL A   1      37.450  34.100  39.161  1.00  0.00    -0.200 F 
ENDBRANCH  54  77
ENDBRANCH  28  29
ENDBRANCH  21  23
ENDBRANCH  20  21
ENDBRANCH  19  20
ENDBRANCH   1  19
TORSDOF 13
ENDMDL
MODEL 3
REMARK VINA RESULT:     -11.8      5.044      7.624
REMARK SMILES O=C(Cc1ccc(-c2ccc(Cl)cc2)cc1)OCCOC(=O)c1ccc(-c2c3nc(c(-c4c(F)c(F)c(F)c(F)c4F)c4ccc([nH]4)c(-c4c(F)c(F)c(F)c(F)c4F)c4nc(c(-c5c(F)c(F)c(F)c(F)c5F)c5ccc2[nH]5)C=C4)C=C3)cc1
REMARK SMILES IDX 18 1 17 2 2 3 1 4 3 5 4 6 5 7 16 8 6 9 15 10 7 11 8 12 9 13
REMARK SMILES IDX 14 14 10 15 13 16 11 17 12 18 19 19 20 20 21 21 22 22 23 23
REMARK SMILES IDX 24 24 85 25 25 26 84 27 26 28 27 29 28 30 78 31 29 32 83 33
REMARK SMILES IDX 77 34 79 35 30 36 82 37 76 38 75 39 31 41 63 42 43 43 62 44
REMARK SMILES IDX 44 45 47 46 61 47 80 48 45 49 46 50 60 52 81 53 48 54 32 55
REMARK SMILES IDX 33 56 41 57 34 58 35 59 39 60 42 61 36 62 37 63 40 64 38 65
REMARK SMILES IDX 64 66 65 67 73 68 66 69 67 70 71 71 74 72 68 73 69 74 72 75
REMARK SMILES IDX 70 76 49 77 50 78 58 79 51 80 52 81 56 82 59 83 53 84 54 85
REMARK SMILES IDX 57 86 55 87
REMARK H PARENT 79 40 47 51
REMARK Flexibility Score: inf
ROOT
ATOM      1  C   UNL A   1      42.053  18.802  25.942  1.00  0.00     0.274 C 
ENDROOT
BRANCH   1   2
ATOM      2  O   UNL A   1      41.865  20.203  26.231  1.00  0.00    -0.462 OA
BRANCH   2   3
ATOM      3  C   UNL A   1      41.187  20.672  27.307  1.00  0.00     0.310 C 
ATOM      4  O   UNL A   1      40.779  19.892  28.168  1.00  0.00    -0.252 OA
BRANCH   3   5
ATOM      5  C   UNL A   1      40.846  22.146  27.367  1.00  0.00     0.158 C 
BRANCH   5   6
ATOM      6  C   UNL A   1      39.586  22.535  26.649  1.00  0.00    -0.037 A 
ATOM      7  C   UNL A   1      39.037  23.808  26.826  1.00  0.00     0.005 A 
ATOM      8  C   UNL A   1      38.949  21.638  25.788  1.00  0.00     0.005 A 
ATOM      9  C   UNL A   1      37.843  24.159  26.202  1.00  0.00     0.009 A 
ATOM     10  C   UNL A   1      37.767  22.004  25.139  1.00  0.00     0.009 A 
ATOM     11  C   UNL A   1      37.178  23.262  25.354  1.00  0.00    -0.018 A 
BRANCH  11  12
ATOM     12  C   UNL A   1      35.884  23.624  24.751  1.00  0.00    -0.018 A 
ATOM     13  C   UNL A   1      35.032  24.565  25.357  1.00  0.00     0.010 A 
ATOM     14  C   UNL A   1      35.438  22.996  23.574  1.00  0.00     0.010 A 
ATOM     15  C   UNL A   1      33.775  24.854  24.819  1.00  0.00     0.021 A 
ATOM     16  C   UNL A   1      34.184  23.286  23.030  1.00  0.00     0.021 A 
ATOM     17  C   UNL A   1      33.356  24.210  23.660  1.00  0.00     0.041 A 
ATOM     18  Cl  UNL A   1      31.803  24.551  23.005  1.00  0.00    -0.084 Cl
ENDBRANCH  11  12
ENDBRANCH   5   6
ENDBRANCH   3   5
ENDBRANCH   2   3
ENDBRANCH   1   2
BRANCH   1  19
ATOM     19  C   UNL A   1      43.499  18.469  25.566  1.00  0.00     0.275 C 
BRANCH  19  20
ATOM     20  O   UNL A   1      43.836  19.041  24.291  1.00  0.00    -0.458 OA
BRANCH  20  21
ATOM     21  C   UNL A   1      45.081  19.578  24.210  1.00  0.00     0.338 C 
ATOM     22  O   UNL A   1      46.049  19.099  23.647  1.00  0.00    -0.246 OA
BRANCH  21  23
ATOM     23  C   UNL A   1      45.045  20.963  24.736  1.00  0.00     0.060 A 
ATOM     24  C   UNL A   1      44.702  21.990  23.847  1.00  0.00     0.016 A 
ATOM     25  C   UNL A   1      45.292  21.254  26.082  1.00  0.00     0.016 A 
ATOM     26  C   UNL A   1      44.619  23.310  24.295  1.00  0.00     0.010 A 
ATOM     27  C   UNL A   1      45.222  22.578  26.527  1.00  0.00     0.010 A 
ATOM     28  C   UNL A   1      44.904  23.614  25.633  1.00  0.00    -0.014 A 
BRANCH  28  29
ATOM     29  C   UNL A   1      45.021  25.026  26.068  1.00  0.00     0.031 A 
ATOM     30  C   UNL A   1      46.374  25.679  26.039  1.00  0.00     0.074 A 
ATOM     31  C   UNL A   1      43.952  25.714  26.508  1.00  0.00     0.049 A 
ATOM     32  N   UNL A   1      46.726  26.880  26.421  1.00  0.00    -0.248 NA
ATOM     33  C   UNL A   1      47.479  24.864  25.513  1.00  0.00     0.031 C 
ATOM     34  C   UNL A   1      42.584  25.207  26.571  1.00  0.00     0.029 A 
ATOM     35  N   UNL A   1      43.860  26.992  27.006  1.00  0.00    -0.354 N 
ATOM     36  C   UNL A   1      48.090  26.964  26.180  1.00  0.00     0.074 A 
ATOM     37  C   UNL A   1      48.509  25.687  25.643  1.00  0.00     0.031 C 
ATOM     38  C   UNL A   1      41.791  26.156  27.102  1.00  0.00     0.029 A 
ATOM     39  C   UNL A   1      42.602  27.326  27.438  1.00  0.00     0.049 A 
ATOM     40  H   UNL A   1      44.627  27.609  27.048  1.00  0.00     0.167 HD
ATOM     41  C   UNL A   1      48.919  28.015  26.383  1.00  0.00     0.037 A 
ATOM     42  C   UNL A   1      42.162  28.440  28.058  1.00  0.00     0.037 A 
ATOM     43  C   UNL A   1      48.511  29.285  26.917  1.00  0.00     0.049 A 
ATOM     44  C   UNL A   1      43.125  29.566  28.347  1.00  0.00     0.074 A 
ATOM     45  C   UNL A   1      49.272  30.426  27.102  1.00  0.00     0.029 A 
ATOM     46  N   UNL A   1      47.234  29.575  27.371  1.00  0.00    -0.354 N 
ATOM     47  N   UNL A   1      44.398  29.665  28.049  1.00  0.00    -0.248 NA
ATOM     48  C   UNL A   1      42.589  30.734  29.063  1.00  0.00     0.031 C 
ATOM     49  C   UNL A   1      48.468  31.390  27.718  1.00  0.00     0.029 A 
ATOM     50  C   UNL A   1      47.196  30.865  27.876  1.00  0.00     0.049 A 
ATOM     51  H   UNL A   1      46.468  28.957  27.339  1.00  0.00     0.167 HD
ATOM     52  C   UNL A   1      44.805  30.910  28.516  1.00  0.00     0.074 A 
ATOM     53  C   UNL A   1      43.644  31.536  29.110  1.00  0.00     0.031 C 
ATOM     54  C   UNL A   1      46.033  31.481  28.458  1.00  0.00     0.037 A 
BRANCH  41  55
ATOM     55  C   UNL A   1      50.365  27.828  26.043  1.00  0.00     0.064 A 
ATOM     56  C   UNL A   1      51.319  27.549  27.031  1.00  0.00     0.173 A 
ATOM     57  C   UNL A   1      50.792  27.886  24.709  1.00  0.00     0.173 A 
ATOM     58  F   UNL A   1      50.959  27.499  28.323  1.00  0.00    -0.203 F 
ATOM     59  C   UNL A   1      52.655  27.349  26.696  1.00  0.00     0.198 A 
ATOM     60  C   UNL A   1      52.124  27.663  24.375  1.00  0.00     0.198 A 
ATOM     61  F   UNL A   1      49.914  28.150  23.729  1.00  0.00    -0.203 F 
ATOM     62  F   UNL A   1      53.558  27.116  27.659  1.00  0.00    -0.200 F 
ATOM     63  C   UNL A   1      53.055  27.400  25.369  1.00  0.00     0.200 A 
ATOM     64  F   UNL A   1      52.507  27.704  23.092  1.00  0.00    -0.200 F 
ATOM     65  F   UNL A   1      54.340  27.200  25.047  1.00  0.00    -0.200 F 
ENDBRANCH  41  55
BRANCH  42  66
ATOM     66  C   UNL A   1      40.743  28.548  28.486  1.00  0.00     0.064 A 
ATOM     67  C   UNL A   1      39.761  29.045  27.619  1.00  0.00     0.173 A 
ATOM     68  C   UNL A   1      40.353  28.206  29.790  1.00  0.00     0.173 A 
ATOM     69  F   UNL A   1      40.094  29.417  26.374  1.00  0.00    -0.203 F 
ATOM     70  C   UNL A   1      38.445  29.218  28.045  1.00  0.00     0.198 A 
ATOM     71  C   UNL A   1      39.031  28.355  30.206  1.00  0.00     0.198 A 
ATOM     72  F   UNL A   1      41.256  27.734  30.660  1.00  0.00    -0.203 F 
ATOM     73  F   UNL A   1      37.538  29.748  27.214  1.00  0.00    -0.200 F 
ATOM     74  C   UNL A   1      38.082  28.870  29.338  1.00  0.00     0.200 A 
ATOM     75  F   UNL A   1      38.683  28.015  31.455  1.00  0.00    -0.200 F 
ATOM     76  F   UNL A   1      36.818  29.046  29.750  1.00  0.00    -0.200 F 
ENDBRANCH  42  66
BRANCH  54  77
ATOM     77  C   UNL A   1      46.190  32.860  29.028  1.00  0.00     0.064 A 
ATOM     78  C   UNL A   1      46.600  33.062  30.353  1.00  0.00     0.173 A 
ATOM     79  C   UNL A   1      45.997  33.991  28.220  1.00  0.00     0.173 A 
ATOM     80  F   UNL A   1      46.784  32.013  31.170  1.00  0.00    -0.203 F 
ATOM     81  C   UNL A   1      46.802  34.346  30.852  1.00  0.00     0.198 A 
ATOM     82  C   UNL A   1      46.224  35.272  28.713  1.00  0.00     0.198 A 
ATOM     83  F   UNL A   1      45.610  33.851  26.942  1.00  0.00    -0.203 F 
ATOM     84  F   UNL A   1      47.166  34.517  32.130  1.00  0.00    -0.200 F 
ATOM     85  C   UNL A   1      46.624  35.449  30.029  1.00  0.00     0.200 A 
ATOM     86  F   UNL A   1      46.064  36.336  27.914  1.00  0.00    -0.200 F 
ATOM     87  F   UNL A   1      46.833  36.684  30.507  1.00  0.00    -0.200 F 
ENDBRANCH  54  77
ENDBRANCH  28  29
ENDBRANCH  21  23
ENDBRANCH  20  21
ENDBRANCH  19  20
ENDBRANCH   1  19
TORSDOF 13
ENDMDL
