MODEL 1
REMARK VINA RESULT:     -12.1      0.000      0.000
REMARK SMILES C[C@H](NC(=O)N1CC[C@@H](C(=O)OCCOC(=O)c2ccc(-c3c4nc(c(-c5c(F)c(F)c(F)c(F)c5F)c5ccc([nH]5)c(-c5c(F)c(F)c(F)c(F)c5F)c5nc(c(-c6c(F)c(F)c(F)c(F)c6F)c6ccc3[nH]6)C=C5)C=C4)cc2)[C@@H]1C)c1cccc(Cl)c1
REMARK SMILES IDX 13 1 12 2 10 3 11 4 9 5 6 6 7 7 81 8 8 9 82 10 4 11 3 12
REMARK SMILES IDX 5 14 2 15 1 16 83 17 84 18 89 19 85 20 87 21 86 22 88 23
REMARK SMILES IDX 14 24 15 25 16 26 17 27 18 28 19 29 80 30 20 31 79 32 21 33
REMARK SMILES IDX 22 34 23 35 73 36 24 37 78 38 72 39 74 40 25 41 77 42 71 43
REMARK SMILES IDX 70 44 26 46 58 47 38 48 57 49 39 50 42 51 56 52 75 53 40 54
REMARK SMILES IDX 41 55 55 57 76 58 43 59 27 60 28 61 36 62 29 63 30 64 34 65
REMARK SMILES IDX 37 66 31 67 32 68 35 69 33 70 59 71 60 72 68 73 61 74 62 75
REMARK SMILES IDX 66 76 69 77 63 78 64 79 67 80 65 81 44 82 45 83 53 84 46 85
REMARK SMILES IDX 47 86 51 87 54 88 48 89 49 90 52 91 50 92
REMARK H PARENT 3 13 74 45 42 56
REMARK Flexibility Score: inf
ROOT
ATOM      1  C   UNL A   1      31.776  28.349  26.419  1.00  0.00     0.274 C 
ENDROOT
BRANCH   1   2
ATOM      2  O   UNL A   1      31.123  27.713  25.299  1.00  0.00    -0.462 OA
BRANCH   2   3
ATOM      3  C   UNL A   1      30.650  26.457  25.458  1.00  0.00     0.311 C 
ATOM      4  O   UNL A   1      30.158  26.029  26.496  1.00  0.00    -0.252 OA
BRANCH   3   5
ATOM      5  C   UNL A   1      30.822  25.586  24.226  1.00  0.00     0.123 C 
ATOM      6  N   UNL A   1      32.703  24.357  23.457  1.00  0.00    -0.321 N 
ATOM      7  C   UNL A   1      31.616  23.414  23.605  1.00  0.00     0.122 C 
ATOM      8  C   UNL A   1      32.161  25.718  23.456  1.00  0.00     0.098 C 
ATOM      9  C   UNL A   1      30.721  24.104  24.611  1.00  0.00     0.039 C 
ATOM     10  C   UNL A   1      31.937  26.202  22.015  1.00  0.00     0.032 C 
BRANCH   6  11
ATOM     11  C   UNL A   1      33.924  23.909  23.086  1.00  0.00     0.318 C 
ATOM     12  N   UNL A   1      34.995  23.956  23.893  1.00  0.00    -0.331 N 
ATOM     13  H   UNL A   1      35.828  23.848  23.380  1.00  0.00     0.165 HD
ATOM     14  O   UNL A   1      34.092  23.369  21.989  1.00  0.00    -0.249 OA
BRANCH  12  15
ATOM     15  C   UNL A   1      35.274  24.123  25.318  1.00  0.00     0.111 C 
ATOM     16  C   UNL A   1      34.213  23.717  26.336  1.00  0.00     0.036 C 
BRANCH  15  17
ATOM     17  C   UNL A   1      36.503  23.303  25.704  1.00  0.00    -0.024 A 
ATOM     18  C   UNL A   1      37.626  23.935  26.272  1.00  0.00     0.006 A 
ATOM     19  C   UNL A   1      36.610  21.965  25.297  1.00  0.00     0.026 A 
ATOM     20  C   UNL A   1      38.845  23.266  26.366  1.00  0.00     0.002 A 
ATOM     21  C   UNL A   1      37.832  21.301  25.401  1.00  0.00     0.041 A 
ATOM     22  C   UNL A   1      38.952  21.951  25.917  1.00  0.00     0.020 A 
ATOM     23  Cl  UNL A   1      37.973  19.685  24.825  1.00  0.00    -0.084 Cl
ENDBRANCH  15  17
ENDBRANCH  12  15
ENDBRANCH   6  11
ENDBRANCH   3   5
ENDBRANCH   2   3
ENDBRANCH   1   2
BRANCH   1  24
ATOM     24  C   UNL A   1      31.793  29.873  26.259  1.00  0.00     0.275 C 
BRANCH  24  25
ATOM     25  O   UNL A   1      33.144  30.364  26.173  1.00  0.00    -0.458 OA
BRANCH  25  26
ATOM     26  C   UNL A   1      33.445  31.353  27.045  1.00  0.00     0.338 C 
ATOM     27  O   UNL A   1      32.729  32.272  27.406  1.00  0.00    -0.246 OA
BRANCH  26  28
ATOM     28  C   UNL A   1      34.730  31.051  27.688  1.00  0.00     0.060 A 
ATOM     29  C   UNL A   1      34.890  29.767  28.210  1.00  0.00     0.016 A 
ATOM     30  C   UNL A   1      35.732  32.009  27.841  1.00  0.00     0.016 A 
ATOM     31  C   UNL A   1      36.034  29.427  28.909  1.00  0.00     0.010 A 
ATOM     32  C   UNL A   1      36.895  31.666  28.538  1.00  0.00     0.010 A 
ATOM     33  C   UNL A   1      37.041  30.378  29.087  1.00  0.00    -0.014 A 
BRANCH  33  34
ATOM     34  C   UNL A   1      38.206  30.019  29.922  1.00  0.00     0.031 A 
ATOM     35  C   UNL A   1      39.277  29.141  29.350  1.00  0.00     0.074 A 
ATOM     36  C   UNL A   1      38.336  30.553  31.149  1.00  0.00     0.049 A 
ATOM     37  N   UNL A   1      40.357  28.675  29.920  1.00  0.00    -0.248 NA
ATOM     38  C   UNL A   1      39.113  28.739  27.945  1.00  0.00     0.031 C 
ATOM     39  C   UNL A   1      37.394  31.487  31.767  1.00  0.00     0.029 A 
ATOM     40  N   UNL A   1      39.322  30.400  32.089  1.00  0.00    -0.354 N 
ATOM     41  C   UNL A   1      40.990  27.908  28.952  1.00  0.00     0.074 A 
ATOM     42  C   UNL A   1      40.169  27.961  27.762  1.00  0.00     0.031 C 
ATOM     43  C   UNL A   1      37.853  31.832  32.980  1.00  0.00     0.029 A 
ATOM     44  C   UNL A   1      39.093  31.107  33.242  1.00  0.00     0.049 A 
ATOM     45  H   UNL A   1      40.117  29.836  31.950  1.00  0.00     0.167 HD
ATOM     46  C   UNL A   1      42.154  27.224  29.054  1.00  0.00     0.037 A 
ATOM     47  C   UNL A   1      39.797  31.142  34.389  1.00  0.00     0.037 A 
ATOM     48  C   UNL A   1      42.968  27.189  30.240  1.00  0.00     0.049 A 
ATOM     49  C   UNL A   1      41.050  30.316  34.498  1.00  0.00     0.074 A 
ATOM     50  C   UNL A   1      44.152  26.508  30.458  1.00  0.00     0.029 A 
ATOM     51  N   UNL A   1      42.679  27.875  31.411  1.00  0.00    -0.354 N 
ATOM     52  N   UNL A   1      41.622  29.557  33.595  1.00  0.00    -0.248 NA
ATOM     53  C   UNL A   1      41.749  30.346  35.789  1.00  0.00     0.031 C 
ATOM     54  C   UNL A   1      44.562  26.756  31.773  1.00  0.00     0.029 A 
ATOM     55  C   UNL A   1      43.655  27.624  32.360  1.00  0.00     0.049 A 
ATOM     56  H   UNL A   1      41.895  28.455  31.547  1.00  0.00     0.167 HD
ATOM     57  C   UNL A   1      42.756  29.035  34.198  1.00  0.00     0.074 A 
ATOM     58  C   UNL A   1      42.800  29.576  35.541  1.00  0.00     0.031 C 
ATOM     59  C   UNL A   1      43.679  28.181  33.689  1.00  0.00     0.037 A 
BRANCH  46  60
ATOM     60  C   UNL A   1      42.587  26.425  27.861  1.00  0.00     0.064 A 
ATOM     61  C   UNL A   1      43.442  26.959  26.885  1.00  0.00     0.173 A 
ATOM     62  C   UNL A   1      42.143  25.105  27.695  1.00  0.00     0.173 A 
ATOM     63  F   UNL A   1      43.876  28.225  26.988  1.00  0.00    -0.203 F 
ATOM     64  C   UNL A   1      43.816  26.208  25.773  1.00  0.00     0.198 A 
ATOM     65  C   UNL A   1      42.540  24.348  26.596  1.00  0.00     0.198 A 
ATOM     66  F   UNL A   1      41.323  24.549  28.599  1.00  0.00    -0.203 F 
ATOM     67  F   UNL A   1      44.593  26.753  24.829  1.00  0.00    -0.200 F 
ATOM     68  C   UNL A   1      43.369  24.901  25.633  1.00  0.00     0.200 A 
ATOM     69  F   UNL A   1      42.112  23.085  26.465  1.00  0.00    -0.200 F 
ATOM     70  F   UNL A   1      43.730  24.180  24.563  1.00  0.00    -0.200 F 
ENDBRANCH  46  60
BRANCH  47  71
ATOM     71  C   UNL A   1      39.322  31.972  35.525  1.00  0.00     0.064 A 
ATOM     72  C   UNL A   1      39.733  33.303  35.669  1.00  0.00     0.173 A 
ATOM     73  C   UNL A   1      38.450  31.450  36.491  1.00  0.00     0.173 A 
ATOM     74  F   UNL A   1      40.587  33.839  34.784  1.00  0.00    -0.203 F 
ATOM     75  C   UNL A   1      39.298  34.078  36.742  1.00  0.00     0.198 A 
ATOM     76  C   UNL A   1      37.994  32.233  37.548  1.00  0.00     0.198 A 
ATOM     77  F   UNL A   1      38.029  30.179  36.400  1.00  0.00    -0.203 F 
ATOM     78  F   UNL A   1      39.736  35.337  36.878  1.00  0.00    -0.200 F 
ATOM     79  C   UNL A   1      38.423  33.544  37.677  1.00  0.00     0.200 A 
ATOM     80  F   UNL A   1      37.140  31.716  38.444  1.00  0.00    -0.200 F 
ATOM     81  F   UNL A   1      38.001  34.292  38.705  1.00  0.00    -0.200 F 
ENDBRANCH  47  71
BRANCH  59  82
ATOM     82  C   UNL A   1      44.825  27.810  34.579  1.00  0.00     0.064 A 
ATOM     83  C   UNL A   1      45.996  28.579  34.627  1.00  0.00     0.173 A 
ATOM     84  C   UNL A   1      44.738  26.687  35.417  1.00  0.00     0.173 A 
ATOM     85  F   UNL A   1      46.132  29.651  33.832  1.00  0.00    -0.203 F 
ATOM     86  C   UNL A   1      47.050  28.224  35.464  1.00  0.00     0.198 A 
ATOM     87  C   UNL A   1      45.783  26.349  36.271  1.00  0.00     0.198 A 
ATOM     88  F   UNL A   1      43.636  25.924  35.410  1.00  0.00    -0.203 F 
ATOM     89  F   UNL A   1      48.178  28.948  35.462  1.00  0.00    -0.200 F 
ATOM     90  C   UNL A   1      46.940  27.114  36.290  1.00  0.00     0.200 A 
ATOM     91  F   UNL A   1      45.672  25.283  37.075  1.00  0.00    -0.200 F 
ATOM     92  F   UNL A   1      47.954  26.775  37.097  1.00  0.00    -0.200 F 
ENDBRANCH  59  82
ENDBRANCH  33  34
ENDBRANCH  26  28
ENDBRANCH  25  26
ENDBRANCH  24  25
ENDBRANCH   1  24
TORSDOF 14
ENDMDL
MODEL 2
REMARK VINA RESULT:     -12.1      0.871      1.548
REMARK SMILES C[C@H](NC(=O)N1CC[C@@H](C(=O)OCCOC(=O)c2ccc(-c3c4nc(c(-c5c(F)c(F)c(F)c(F)c5F)c5ccc([nH]5)c(-c5c(F)c(F)c(F)c(F)c5F)c5nc(c(-c6c(F)c(F)c(F)c(F)c6F)c6ccc3[nH]6)C=C5)C=C4)cc2)[C@@H]1C)c1cccc(Cl)c1
REMARK SMILES IDX 13 1 12 2 10 3 11 4 9 5 6 6 7 7 81 8 8 9 82 10 4 11 3 12
REMARK SMILES IDX 5 14 2 15 1 16 83 17 84 18 89 19 85 20 87 21 86 22 88 23
REMARK SMILES IDX 14 24 15 25 16 26 17 27 18 28 19 29 80 30 20 31 79 32 21 33
REMARK SMILES IDX 22 34 23 35 73 36 24 37 78 38 72 39 74 40 25 41 77 42 71 43
REMARK SMILES IDX 70 44 26 46 58 47 38 48 57 49 39 50 42 51 56 52 75 53 40 54
REMARK SMILES IDX 41 55 55 57 76 58 43 59 27 60 28 61 36 62 29 63 30 64 34 65
REMARK SMILES IDX 37 66 31 67 32 68 35 69 33 70 59 71 60 72 68 73 61 74 62 75
REMARK SMILES IDX 66 76 69 77 63 78 64 79 67 80 65 81 44 82 45 83 53 84 46 85
REMARK SMILES IDX 47 86 51 87 54 88 48 89 49 90 52 91 50 92
REMARK H PARENT 3 13 74 45 42 56
REMARK Flexibility Score: inf
ROOT
ATOM      1  C   UNL A   1      32.038  28.395  27.268  1.00  0.00     0.274 C 
ENDROOT
BRANCH   1   2
ATOM      2  O   UNL A   1      30.936  27.501  26.998  1.00  0.00    -0.462 OA
BRANCH   2   3
ATOM      3  C   UNL A   1      31.188  26.350  26.337  1.00  0.00     0.311 C 
ATOM      4  O   UNL A   1      31.317  25.256  26.876  1.00  0.00    -0.252 OA
BRANCH   3   5
ATOM      5  C   UNL A   1      31.346  26.534  24.838  1.00  0.00     0.123 C 
ATOM      6  N   UNL A   1      32.447  25.182  23.226  1.00  0.00    -0.321 N 
ATOM      7  C   UNL A   1      31.071  25.315  22.795  1.00  0.00     0.122 C 
ATOM      8  C   UNL A   1      32.735  26.204  24.234  1.00  0.00     0.098 C 
ATOM      9  C   UNL A   1      30.354  25.633  24.089  1.00  0.00     0.039 C 
ATOM     10  C   UNL A   1      33.370  27.438  23.576  1.00  0.00     0.032 C 
BRANCH   6  11
ATOM     11  C   UNL A   1      33.292  24.403  22.513  1.00  0.00     0.318 C 
ATOM     12  N   UNL A   1      34.132  23.526  23.085  1.00  0.00    -0.331 N 
ATOM     13  H   UNL A   1      34.841  23.258  22.456  1.00  0.00     0.165 HD
ATOM     14  O   UNL A   1      33.278  24.420  21.279  1.00  0.00    -0.249 OA
BRANCH  12  15
ATOM     15  C   UNL A   1      34.295  22.860  24.375  1.00  0.00     0.111 C 
ATOM     16  C   UNL A   1      33.710  21.465  24.569  1.00  0.00     0.036 C 
BRANCH  15  17
ATOM     17  C   UNL A   1      35.781  22.695  24.689  1.00  0.00    -0.024 A 
ATOM     18  C   UNL A   1      36.414  21.455  24.479  1.00  0.00     0.006 A 
ATOM     19  C   UNL A   1      36.466  23.698  25.390  1.00  0.00     0.026 A 
ATOM     20  C   UNL A   1      37.675  21.202  25.018  1.00  0.00     0.002 A 
ATOM     21  C   UNL A   1      37.729  23.439  25.918  1.00  0.00     0.041 A 
ATOM     22  C   UNL A   1      38.328  22.191  25.750  1.00  0.00     0.020 A 
ATOM     23  Cl  UNL A   1      38.528  24.651  26.845  1.00  0.00    -0.084 Cl
ENDBRANCH  15  17
ENDBRANCH  12  15
ENDBRANCH   6  11
ENDBRANCH   3   5
ENDBRANCH   2   3
ENDBRANCH   1   2
BRANCH   1  24
ATOM     24  C   UNL A   1      31.934  29.674  26.430  1.00  0.00     0.275 C 
BRANCH  24  25
ATOM     25  O   UNL A   1      33.236  30.246  26.207  1.00  0.00    -0.458 OA
BRANCH  25  26
ATOM     26  C   UNL A   1      33.550  31.278  27.023  1.00  0.00     0.338 C 
ATOM     27  O   UNL A   1      32.847  32.226  27.330  1.00  0.00    -0.246 OA
BRANCH  26  28
ATOM     28  C   UNL A   1      34.828  30.992  27.688  1.00  0.00     0.060 A 
ATOM     29  C   UNL A   1      35.065  29.669  28.060  1.00  0.00     0.016 A 
ATOM     30  C   UNL A   1      35.747  31.992  28.001  1.00  0.00     0.016 A 
ATOM     31  C   UNL A   1      36.203  29.328  28.769  1.00  0.00     0.010 A 
ATOM     32  C   UNL A   1      36.904  31.650  28.708  1.00  0.00     0.010 A 
ATOM     33  C   UNL A   1      37.127  30.319  29.107  1.00  0.00    -0.014 A 
BRANCH  33  34
ATOM     34  C   UNL A   1      38.282  29.946  29.948  1.00  0.00     0.031 A 
ATOM     35  C   UNL A   1      39.333  29.034  29.391  1.00  0.00     0.074 A 
ATOM     36  C   UNL A   1      38.423  30.494  31.168  1.00  0.00     0.049 A 
ATOM     37  N   UNL A   1      40.401  28.551  29.969  1.00  0.00    -0.248 NA
ATOM     38  C   UNL A   1      39.161  28.616  27.991  1.00  0.00     0.031 C 
ATOM     39  C   UNL A   1      37.502  31.458  31.771  1.00  0.00     0.029 A 
ATOM     40  N   UNL A   1      39.404  30.331  32.112  1.00  0.00    -0.354 N 
ATOM     41  C   UNL A   1      41.017  27.755  29.013  1.00  0.00     0.074 A 
ATOM     42  C   UNL A   1      40.199  27.810  27.821  1.00  0.00     0.031 C 
ATOM     43  C   UNL A   1      37.968  31.810  32.980  1.00  0.00     0.029 A 
ATOM     44  C   UNL A   1      39.190  31.060  33.254  1.00  0.00     0.049 A 
ATOM     45  H   UNL A   1      40.186  29.747  31.982  1.00  0.00     0.167 HD
ATOM     46  C   UNL A   1      42.164  27.046  29.127  1.00  0.00     0.037 A 
ATOM     47  C   UNL A   1      39.893  31.095  34.401  1.00  0.00     0.037 A 
ATOM     48  C   UNL A   1      42.976  27.009  30.314  1.00  0.00     0.049 A 
ATOM     49  C   UNL A   1      41.126  30.241  34.524  1.00  0.00     0.074 A 
ATOM     50  C   UNL A   1      44.143  26.304  30.544  1.00  0.00     0.029 A 
ATOM     51  N   UNL A   1      42.701  27.719  31.476  1.00  0.00    -0.354 N 
ATOM     52  N   UNL A   1      41.681  29.456  33.633  1.00  0.00    -0.248 NA
ATOM     53  C   UNL A   1      41.825  30.273  35.816  1.00  0.00     0.031 C 
ATOM     54  C   UNL A   1      44.557  26.561  31.856  1.00  0.00     0.029 A 
ATOM     55  C   UNL A   1      43.671  27.458  32.429  1.00  0.00     0.049 A 
ATOM     56  H   UNL A   1      41.931  28.319  31.602  1.00  0.00     0.167 HD
ATOM     57  C   UNL A   1      42.802  28.916  34.246  1.00  0.00     0.074 A 
ATOM     58  C   UNL A   1      42.857  29.475  35.581  1.00  0.00     0.031 C 
ATOM     59  C   UNL A   1      43.705  28.034  33.750  1.00  0.00     0.037 A 
BRANCH  46  60
ATOM     60  C   UNL A   1      42.580  26.220  27.946  1.00  0.00     0.064 A 
ATOM     61  C   UNL A   1      43.500  26.695  27.000  1.00  0.00     0.173 A 
ATOM     62  C   UNL A   1      42.052  24.934  27.762  1.00  0.00     0.173 A 
ATOM     63  F   UNL A   1      44.016  27.928  27.120  1.00  0.00    -0.203 F 
ATOM     64  C   UNL A   1      43.858  25.920  25.899  1.00  0.00     0.198 A 
ATOM     65  C   UNL A   1      42.432  24.152  26.675  1.00  0.00     0.198 A 
ATOM     66  F   UNL A   1      41.167  24.435  28.638  1.00  0.00    -0.203 F 
ATOM     67  F   UNL A   1      44.701  26.412  24.981  1.00  0.00    -0.200 F 
ATOM     68  C   UNL A   1      43.327  24.648  25.740  1.00  0.00     0.200 A 
ATOM     69  F   UNL A   1      41.923  22.921  26.526  1.00  0.00    -0.200 F 
ATOM     70  F   UNL A   1      43.673  23.904  24.680  1.00  0.00    -0.200 F 
ENDBRANCH  46  60
BRANCH  47  71
ATOM     71  C   UNL A   1      39.437  31.951  35.525  1.00  0.00     0.064 A 
ATOM     72  C   UNL A   1      38.532  31.469  36.480  1.00  0.00     0.173 A 
ATOM     73  C   UNL A   1      39.893  33.270  35.664  1.00  0.00     0.173 A 
ATOM     74  F   UNL A   1      38.048  30.223  36.374  1.00  0.00    -0.203 F 
ATOM     75  C   UNL A   1      38.094  32.277  37.526  1.00  0.00     0.198 A 
ATOM     76  C   UNL A   1      39.475  34.068  36.726  1.00  0.00     0.198 A 
ATOM     77  F   UNL A   1      40.758  33.780  34.774  1.00  0.00    -0.203 F 
ATOM     78  F   UNL A   1      37.199  31.805  38.405  1.00  0.00    -0.200 F 
ATOM     79  C   UNL A   1      38.571  33.574  37.653  1.00  0.00     0.200 A 
ATOM     80  F   UNL A   1      39.947  35.317  36.850  1.00  0.00    -0.200 F 
ATOM     81  F   UNL A   1      38.153  34.348  38.663  1.00  0.00    -0.200 F 
ENDBRANCH  47  71
BRANCH  59  82
ATOM     82  C   UNL A   1      44.842  27.649  34.648  1.00  0.00     0.064 A 
ATOM     83  C   UNL A   1      46.029  28.393  34.689  1.00  0.00     0.173 A 
ATOM     84  C   UNL A   1      44.729  26.538  35.498  1.00  0.00     0.173 A 
ATOM     85  F   UNL A   1      46.189  29.452  33.882  1.00  0.00    -0.203 F 
ATOM     86  C   UNL A   1      47.073  28.025  35.533  1.00  0.00     0.198 A 
ATOM     87  C   UNL A   1      45.765  26.188  36.359  1.00  0.00     0.198 A 
ATOM     88  F   UNL A   1      43.610  25.798  35.498  1.00  0.00    -0.203 F 
ATOM     89  F   UNL A   1      48.217  28.724  35.525  1.00  0.00    -0.200 F 
ATOM     90  C   UNL A   1      46.937  26.927  36.371  1.00  0.00     0.200 A 
ATOM     91  F   UNL A   1      45.629  25.134  37.174  1.00  0.00    -0.200 F 
ATOM     92  F   UNL A   1      47.942  26.577  37.185  1.00  0.00    -0.200 F 
ENDBRANCH  59  82
ENDBRANCH  33  34
ENDBRANCH  26  28
ENDBRANCH  25  26
ENDBRANCH  24  25
ENDBRANCH   1  24
TORSDOF 14
ENDMDL
MODEL 3
REMARK VINA RESULT:     -12.1      1.455      2.449
REMARK SMILES C[C@H](NC(=O)N1CC[C@@H](C(=O)OCCOC(=O)c2ccc(-c3c4nc(c(-c5c(F)c(F)c(F)c(F)c5F)c5ccc([nH]5)c(-c5c(F)c(F)c(F)c(F)c5F)c5nc(c(-c6c(F)c(F)c(F)c(F)c6F)c6ccc3[nH]6)C=C5)C=C4)cc2)[C@@H]1C)c1cccc(Cl)c1
REMARK SMILES IDX 13 1 12 2 10 3 11 4 9 5 6 6 7 7 81 8 8 9 82 10 4 11 3 12
REMARK SMILES IDX 5 14 2 15 1 16 83 17 84 18 89 19 85 20 87 21 86 22 88 23
REMARK SMILES IDX 14 24 15 25 16 26 17 27 18 28 19 29 80 30 20 31 79 32 21 33
REMARK SMILES IDX 22 34 23 35 73 36 24 37 78 38 72 39 74 40 25 41 77 42 71 43
REMARK SMILES IDX 70 44 26 46 58 47 38 48 57 49 39 50 42 51 56 52 75 53 40 54
REMARK SMILES IDX 41 55 55 57 76 58 43 59 27 60 28 61 36 62 29 63 30 64 34 65
REMARK SMILES IDX 37 66 31 67 32 68 35 69 33 70 59 71 60 72 68 73 61 74 62 75
REMARK SMILES IDX 66 76 69 77 63 78 64 79 67 80 65 81 44 82 45 83 53 84 46 85
REMARK SMILES IDX 47 86 51 87 54 88 48 89 49 90 52 91 50 92
REMARK H PARENT 3 13 74 45 42 56
REMARK Flexibility Score: inf
ROOT
ATOM      1  C   UNL A   1      31.284  29.391  24.296  1.00  0.00     0.274 C 
ENDROOT
BRANCH   1   2
ATOM      2  O   UNL A   1      31.361  28.033  23.811  1.00  0.00    -0.462 OA
BRANCH   2   3
ATOM      3  C   UNL A   1      30.764  27.733  22.636  1.00  0.00     0.311 C 
ATOM      4  O   UNL A   1      30.050  28.506  22.006  1.00  0.00    -0.252 OA
BRANCH   3   5
ATOM      5  C   UNL A   1      31.022  26.311  22.171  1.00  0.00     0.123 C 
ATOM      6  N   UNL A   1      32.805  24.825  22.673  1.00  0.00    -0.321 N 
ATOM      7  C   UNL A   1      31.579  24.158  23.057  1.00  0.00     0.122 C 
ATOM      8  C   UNL A   1      32.483  25.953  21.795  1.00  0.00     0.098 C 
ATOM      9  C   UNL A   1      30.631  25.317  23.272  1.00  0.00     0.039 C 
ATOM     10  C   UNL A   1      32.599  25.531  20.323  1.00  0.00     0.032 C 
BRANCH   6  11
ATOM     11  C   UNL A   1      33.991  24.219  22.909  1.00  0.00     0.318 C 
ATOM     12  N   UNL A   1      34.747  24.491  23.984  1.00  0.00    -0.331 N 
ATOM     13  H   UNL A   1      35.670  24.174  23.854  1.00  0.00     0.165 HD
ATOM     14  O   UNL A   1      34.405  23.327  22.163  1.00  0.00    -0.249 OA
BRANCH  12  15
ATOM     15  C   UNL A   1      34.589  25.125  25.291  1.00  0.00     0.111 C 
ATOM     16  C   UNL A   1      33.784  26.417  25.398  1.00  0.00     0.036 C 
BRANCH  15  17
ATOM     17  C   UNL A   1      33.892  24.164  26.252  1.00  0.00    -0.024 A 
ATOM     18  C   UNL A   1      34.623  23.137  26.879  1.00  0.00     0.006 A 
ATOM     19  C   UNL A   1      32.492  24.156  26.345  1.00  0.00     0.026 A 
ATOM     20  C   UNL A   1      33.966  22.091  27.524  1.00  0.00     0.002 A 
ATOM     21  C   UNL A   1      31.844  23.110  26.998  1.00  0.00     0.041 A 
ATOM     22  C   UNL A   1      32.573  22.069  27.573  1.00  0.00     0.020 A 
ATOM     23  Cl  UNL A   1      30.123  23.068  27.037  1.00  0.00    -0.084 Cl
ENDBRANCH  15  17
ENDBRANCH  12  15
ENDBRANCH   6  11
ENDBRANCH   3   5
ENDBRANCH   2   3
ENDBRANCH   1   2
BRANCH   1  24
ATOM     24  C   UNL A   1      31.762  29.489  25.749  1.00  0.00     0.275 C 
BRANCH  24  25
ATOM     25  O   UNL A   1      33.081  30.061  25.816  1.00  0.00    -0.458 OA
BRANCH  25  26
ATOM     26  C   UNL A   1      33.254  30.976  26.797  1.00  0.00     0.338 C 
ATOM     27  O   UNL A   1      32.436  31.774  27.225  1.00  0.00    -0.246 OA
BRANCH  26  28
ATOM     28  C   UNL A   1      34.545  30.737  27.454  1.00  0.00     0.060 A 
ATOM     29  C   UNL A   1      34.808  29.434  27.875  1.00  0.00     0.016 A 
ATOM     30  C   UNL A   1      35.451  31.764  27.714  1.00  0.00     0.016 A 
ATOM     31  C   UNL A   1      35.962  29.140  28.581  1.00  0.00     0.010 A 
ATOM     32  C   UNL A   1      36.624  31.469  28.418  1.00  0.00     0.010 A 
ATOM     33  C   UNL A   1      36.873  30.158  28.866  1.00  0.00    -0.014 A 
BRANCH  33  34
ATOM     34  C   UNL A   1      38.046  29.837  29.705  1.00  0.00     0.031 A 
ATOM     35  C   UNL A   1      39.127  28.958  29.152  1.00  0.00     0.074 A 
ATOM     36  C   UNL A   1      38.174  30.403  30.918  1.00  0.00     0.049 A 
ATOM     37  N   UNL A   1      40.215  28.520  29.730  1.00  0.00    -0.248 NA
ATOM     38  C   UNL A   1      38.963  28.518  27.758  1.00  0.00     0.031 C 
ATOM     39  C   UNL A   1      37.221  31.340  31.515  1.00  0.00     0.029 A 
ATOM     40  N   UNL A   1      39.164  30.287  31.858  1.00  0.00    -0.354 N 
ATOM     41  C   UNL A   1      40.855  27.738  28.779  1.00  0.00     0.074 A 
ATOM     42  C   UNL A   1      40.029  27.749  27.591  1.00  0.00     0.031 C 
ATOM     43  C   UNL A   1      37.680  31.723  32.717  1.00  0.00     0.029 A 
ATOM     44  C   UNL A   1      38.930  31.021  32.994  1.00  0.00     0.049 A 
ATOM     45  H   UNL A   1      39.966  29.731  31.730  1.00  0.00     0.167 HD
ATOM     46  C   UNL A   1      42.028  27.072  28.894  1.00  0.00     0.037 A 
ATOM     47  C   UNL A   1      39.637  31.094  34.136  1.00  0.00     0.037 A 
ATOM     48  C   UNL A   1      42.846  27.078  30.078  1.00  0.00     0.049 A 
ATOM     49  C   UNL A   1      40.901  30.288  34.261  1.00  0.00     0.074 A 
ATOM     50  C   UNL A   1      44.040  26.419  30.309  1.00  0.00     0.029 A 
ATOM     51  N   UNL A   1      42.552  27.790  31.232  1.00  0.00    -0.354 N 
ATOM     52  N   UNL A   1      41.480  29.514  33.376  1.00  0.00    -0.248 NA
ATOM     53  C   UNL A   1      41.605  30.360  35.548  1.00  0.00     0.031 C 
ATOM     54  C   UNL A   1      44.451  26.705  31.616  1.00  0.00     0.029 A 
ATOM     55  C   UNL A   1      43.535  27.576  32.184  1.00  0.00     0.049 A 
ATOM     56  H   UNL A   1      41.761  28.363  31.356  1.00  0.00     0.167 HD
ATOM     57  C   UNL A   1      42.623  29.022  33.988  1.00  0.00     0.074 A 
ATOM     58  C   UNL A   1      42.665  29.598  35.317  1.00  0.00     0.031 C 
ATOM     59  C   UNL A   1      43.555  28.168  33.498  1.00  0.00     0.037 A 
BRANCH  46  60
ATOM     60  C   UNL A   1      42.467  26.249  27.721  1.00  0.00     0.064 A 
ATOM     61  C   UNL A   1      43.419  26.719  26.803  1.00  0.00     0.173 A 
ATOM     62  C   UNL A   1      41.931  24.969  27.514  1.00  0.00     0.173 A 
ATOM     63  F   UNL A   1      43.944  27.945  26.945  1.00  0.00    -0.203 F 
ATOM     64  C   UNL A   1      43.798  25.947  25.708  1.00  0.00     0.198 A 
ATOM     65  C   UNL A   1      42.333  24.189  26.433  1.00  0.00     0.198 A 
ATOM     66  F   UNL A   1      41.017  24.474  28.362  1.00  0.00    -0.203 F 
ATOM     67  F   UNL A   1      44.672  26.435  24.817  1.00  0.00    -0.200 F 
ATOM     68  C   UNL A   1      43.259  24.681  25.527  1.00  0.00     0.200 A 
ATOM     69  F   UNL A   1      41.815  22.965  26.263  1.00  0.00    -0.200 F 
ATOM     70  F   UNL A   1      43.626  23.940  24.472  1.00  0.00    -0.200 F 
ENDBRANCH  46  60
BRANCH  47  71
ATOM     71  C   UNL A   1      39.155  31.946  35.252  1.00  0.00     0.064 A 
ATOM     72  C   UNL A   1      38.414  31.402  36.309  1.00  0.00     0.173 A 
ATOM     73  C   UNL A   1      39.424  33.323  35.284  1.00  0.00     0.173 A 
ATOM     74  F   UNL A   1      38.110  30.096  36.310  1.00  0.00    -0.203 F 
ATOM     75  C   UNL A   1      37.950  32.204  37.349  1.00  0.00     0.198 A 
ATOM     76  C   UNL A   1      38.984  34.118  36.338  1.00  0.00     0.198 A 
ATOM     77  F   UNL A   1      40.128  33.893  34.294  1.00  0.00    -0.203 F 
ATOM     78  F   UNL A   1      37.211  31.666  38.329  1.00  0.00    -0.200 F 
ATOM     79  C   UNL A   1      38.242  33.560  37.367  1.00  0.00     0.200 A 
ATOM     80  F   UNL A   1      39.277  35.427  36.356  1.00  0.00    -0.200 F 
ATOM     81  F   UNL A   1      37.800  34.329  38.372  1.00  0.00    -0.200 F 
ENDBRANCH  47  71
BRANCH  59  82
ATOM     82  C   UNL A   1      44.710  27.835  34.393  1.00  0.00     0.064 A 
ATOM     83  C   UNL A   1      44.683  26.720  35.242  1.00  0.00     0.173 A 
ATOM     84  C   UNL A   1      45.869  28.626  34.379  1.00  0.00     0.173 A 
ATOM     85  F   UNL A   1      43.590  25.945  35.302  1.00  0.00    -0.203 F 
ATOM     86  C   UNL A   1      45.766  26.421  36.063  1.00  0.00     0.198 A 
ATOM     87  C   UNL A   1      46.960  28.311  35.182  1.00  0.00     0.198 A 
ATOM     88  F   UNL A   1      45.944  29.700  33.579  1.00  0.00    -0.203 F 
ATOM     89  F   UNL A   1      45.703  25.376  36.900  1.00  0.00    -0.200 F 
ATOM     90  C   UNL A   1      46.906  27.213  36.028  1.00  0.00     0.200 A 
ATOM     91  F   UNL A   1      48.063  29.069  35.140  1.00  0.00    -0.200 F 
ATOM     92  F   UNL A   1      47.949  26.922  36.817  1.00  0.00    -0.200 F 
ENDBRANCH  59  82
ENDBRANCH  33  34
ENDBRANCH  26  28
ENDBRANCH  25  26
ENDBRANCH  24  25
ENDBRANCH   1  24
TORSDOF 14
ENDMDL
