MODEL 1
REMARK VINA RESULT:     -12.6      0.000      0.000
REMARK SMILES Cc1cccc2c(C(=O)OCCOC(=O)c3ccc(-c4c5nc(c(-c6c(F)c(F)c(F)c(F)c6F)c6ccc([nH]6)c(-c6c(F)c(F)c(F)c(F)c6F)c6nc(c(-c7c(F)c(F)c(F)c(F)c7F)c7ccc4[nH]7)C=C6)C=C5)cc3)cc(=O)[nH]c12
REMARK SMILES IDX 12 1 11 2 10 3 8 4 9 5 7 6 1 7 2 8 3 9 83 10 4 11 6 12 82 13
REMARK SMILES IDX 5 14 80 15 79 17 81 18 13 19 14 20 15 21 16 22 17 23 78 24
REMARK SMILES IDX 18 25 77 26 19 27 20 28 21 29 71 30 22 31 76 32 70 33 72 34
REMARK SMILES IDX 23 35 75 36 69 37 68 38 24 40 56 41 36 42 55 43 37 44 40 45
REMARK SMILES IDX 54 46 73 47 38 48 39 49 53 51 74 52 41 53 25 54 26 55 34 56
REMARK SMILES IDX 27 57 28 58 32 59 35 60 29 61 30 62 33 63 31 64 57 65 58 66
REMARK SMILES IDX 66 67 59 68 60 69 64 70 67 71 61 72 62 73 65 74 63 75 42 76
REMARK SMILES IDX 43 77 51 78 44 79 45 80 49 81 52 82 46 83 47 84 50 85 48 86
REMARK H PARENT 82 16 72 39 40 50
REMARK Flexibility Score: inf
ROOT
ATOM      1  C   UNL A   1      31.428  30.262  25.639  1.00  0.00     0.275 C 
ENDROOT
BRANCH   1   2
ATOM      2  C   UNL A   1      31.356  29.140  24.604  1.00  0.00     0.275 C 
BRANCH   2   3
ATOM      3  O   UNL A   1      31.846  27.905  25.176  1.00  0.00    -0.458 OA
BRANCH   3   4
ATOM      4  C   UNL A   1      31.674  26.766  24.452  1.00  0.00     0.339 C 
ATOM      5  O   UNL A   1      31.485  26.709  23.247  1.00  0.00    -0.246 OA
BRANCH   4   6
ATOM      6  C   UNL A   1      31.776  25.568  25.334  1.00  0.00     0.074 A 
ATOM      7  C   UNL A   1      34.192  21.693  27.518  1.00  0.00     0.046 C 
ATOM      8  C   UNL A   1      34.172  22.949  26.693  1.00  0.00    -0.027 A 
ATOM      9  C   UNL A   1      35.380  23.359  26.110  1.00  0.00     0.005 A 
ATOM     10  C   UNL A   1      32.999  23.679  26.410  1.00  0.00     0.052 A 
ATOM     11  C   UNL A   1      35.413  24.441  25.242  1.00  0.00     0.001 A 
ATOM     12  C   UNL A   1      33.021  24.794  25.548  1.00  0.00     0.013 A 
ATOM     13  N   UNL A   1      31.773  23.304  26.977  1.00  0.00    -0.322 N 
ATOM     14  C   UNL A   1      34.236  25.129  24.943  1.00  0.00     0.011 A 
ATOM     15  C   UNL A   1      30.599  23.967  26.779  1.00  0.00     0.249 A 
ATOM     16  H   UNL A   1      31.759  22.508  27.557  1.00  0.00     0.170 HD
ATOM     17  C   UNL A   1      30.638  25.160  25.917  1.00  0.00     0.088 A 
ATOM     18  O   UNL A   1      29.545  23.602  27.289  1.00  0.00    -0.270 OA
ENDBRANCH   4   6
ENDBRANCH   3   4
ENDBRANCH   2   3
ENDBRANCH   1   2
BRANCH   1  19
ATOM     19  O   UNL A   1      32.785  30.336  26.103  1.00  0.00    -0.458 OA
BRANCH  19  20
ATOM     20  C   UNL A   1      33.104  31.348  26.937  1.00  0.00     0.338 C 
ATOM     21  O   UNL A   1      32.431  32.334  27.203  1.00  0.00    -0.246 OA
BRANCH  20  22
ATOM     22  C   UNL A   1      34.424  31.057  27.532  1.00  0.00     0.060 A 
ATOM     23  C   UNL A   1      35.280  32.086  27.917  1.00  0.00     0.016 A 
ATOM     24  C   UNL A   1      34.788  29.736  27.779  1.00  0.00     0.016 A 
ATOM     25  C   UNL A   1      36.503  31.773  28.529  1.00  0.00     0.010 A 
ATOM     26  C   UNL A   1      35.947  29.437  28.494  1.00  0.00     0.010 A 
ATOM     27  C   UNL A   1      36.839  30.445  28.869  1.00  0.00    -0.014 A 
BRANCH  27  28
ATOM     28  C   UNL A   1      38.081  30.121  29.640  1.00  0.00     0.031 A 
ATOM     29  C   UNL A   1      38.280  30.564  31.075  1.00  0.00     0.074 A 
ATOM     30  C   UNL A   1      39.091  29.469  29.026  1.00  0.00     0.049 A 
ATOM     31  N   UNL A   1      39.305  30.352  31.870  1.00  0.00    -0.248 NA
ATOM     32  C   UNL A   1      37.232  31.396  31.683  1.00  0.00     0.031 C 
ATOM     33  C   UNL A   1      39.127  29.106  27.607  1.00  0.00     0.029 A 
ATOM     34  N   UNL A   1      40.275  28.972  29.519  1.00  0.00    -0.354 N 
ATOM     35  C   UNL A   1      39.042  31.064  33.035  1.00  0.00     0.074 A 
ATOM     36  C   UNL A   1      37.797  31.764  32.824  1.00  0.00     0.031 C 
ATOM     37  C   UNL A   1      40.213  28.355  27.370  1.00  0.00     0.029 A 
ATOM     38  C   UNL A   1      40.974  28.217  28.608  1.00  0.00     0.049 A 
ATOM     39  H   UNL A   1      40.591  29.141  30.436  1.00  0.00     0.167 HD
ATOM     40  C   UNL A   1      39.746  31.101  34.193  1.00  0.00     0.037 A 
ATOM     41  C   UNL A   1      42.081  27.463  28.755  1.00  0.00     0.037 A 
ATOM     42  C   UNL A   1      40.932  30.326  34.453  1.00  0.00     0.049 A 
ATOM     43  C   UNL A   1      42.757  27.385  30.094  1.00  0.00     0.074 A 
ATOM     44  C   UNL A   1      41.654  30.218  35.630  1.00  0.00     0.029 A 
ATOM     45  N   UNL A   1      41.553  29.501  33.528  1.00  0.00    -0.354 N 
ATOM     46  N   UNL A   1      42.449  27.996  31.210  1.00  0.00    -0.248 NA
ATOM     47  C   UNL A   1      43.929  26.502  30.195  1.00  0.00     0.031 C 
ATOM     48  C   UNL A   1      42.719  29.338  35.415  1.00  0.00     0.029 A 
ATOM     49  C   UNL A   1      42.640  28.872  34.113  1.00  0.00     0.049 A 
ATOM     50  H   UNL A   1      41.265  29.381  32.595  1.00  0.00     0.167 HD
ATOM     51  C   UNL A   1      43.371  27.558  32.150  1.00  0.00     0.074 A 
ATOM     52  C   UNL A   1      44.240  26.614  31.480  1.00  0.00     0.031 C 
ATOM     53  C   UNL A   1      43.486  27.916  33.450  1.00  0.00     0.037 A 
BRANCH  40  54
ATOM     54  C   UNL A   1      39.226  31.967  35.308  1.00  0.00     0.064 A 
ATOM     55  C   UNL A   1      38.442  31.434  36.343  1.00  0.00     0.173 A 
ATOM     56  C   UNL A   1      39.574  33.324  35.384  1.00  0.00     0.173 A 
ATOM     57  F   UNL A   1      38.080  30.142  36.318  1.00  0.00    -0.203 F 
ATOM     58  C   UNL A   1      38.000  32.233  37.393  1.00  0.00     0.198 A 
ATOM     59  C   UNL A   1      39.157  34.113  36.454  1.00  0.00     0.198 A 
ATOM     60  F   UNL A   1      40.336  33.883  34.432  1.00  0.00    -0.203 F 
ATOM     61  F   UNL A   1      37.213  31.710  38.344  1.00  0.00    -0.200 F 
ATOM     62  C   UNL A   1      38.364  33.569  37.454  1.00  0.00     0.200 A 
ATOM     63  F   UNL A   1      39.528  35.399  36.523  1.00  0.00    -0.200 F 
ATOM     64  F   UNL A   1      37.951  34.332  38.474  1.00  0.00    -0.200 F 
ENDBRANCH  40  54
BRANCH  41  65
ATOM     65  C   UNL A   1      42.552  26.632  27.618  1.00  0.00     0.064 A 
ATOM     66  C   UNL A   1      43.524  27.128  26.736  1.00  0.00     0.173 A 
ATOM     67  C   UNL A   1      42.076  25.332  27.405  1.00  0.00     0.173 A 
ATOM     68  F   UNL A   1      43.995  28.374  26.893  1.00  0.00    -0.203 F 
ATOM     69  C   UNL A   1      43.992  26.359  25.674  1.00  0.00     0.198 A 
ATOM     70  C   UNL A   1      42.563  24.555  26.356  1.00  0.00     0.198 A 
ATOM     71  F   UNL A   1      41.155  24.812  28.228  1.00  0.00    -0.203 F 
ATOM     72  F   UNL A   1      44.896  26.869  24.828  1.00  0.00    -0.200 F 
ATOM     73  C   UNL A   1      43.517  25.070  25.489  1.00  0.00     0.200 A 
ATOM     74  F   UNL A   1      42.114  23.304  26.189  1.00  0.00    -0.200 F 
ATOM     75  F   UNL A   1      43.976  24.325  24.475  1.00  0.00    -0.200 F 
ENDBRANCH  41  65
BRANCH  53  76
ATOM     76  C   UNL A   1      44.567  27.263  34.260  1.00  0.00     0.064 A 
ATOM     77  C   UNL A   1      45.835  27.846  34.397  1.00  0.00     0.173 A 
ATOM     78  C   UNL A   1      44.308  26.075  34.959  1.00  0.00     0.173 A 
ATOM     79  F   UNL A   1      46.132  28.977  33.739  1.00  0.00    -0.203 F 
ATOM     80  C   UNL A   1      46.810  27.254  35.194  1.00  0.00     0.198 A 
ATOM     81  C   UNL A   1      45.279  25.497  35.772  1.00  0.00     0.198 A 
ATOM     82  F   UNL A   1      43.108  25.482  34.865  1.00  0.00    -0.203 F 
ATOM     83  F   UNL A   1      48.025  27.810  35.286  1.00  0.00    -0.200 F 
ATOM     84  C   UNL A   1      46.530  26.085  35.886  1.00  0.00     0.200 A 
ATOM     85  F   UNL A   1      45.002  24.374  36.450  1.00  0.00    -0.200 F 
ATOM     86  F   UNL A   1      47.468  25.522  36.661  1.00  0.00    -0.200 F 
ENDBRANCH  53  76
ENDBRANCH  27  28
ENDBRANCH  20  22
ENDBRANCH  19  20
ENDBRANCH   1  19
TORSDOF 11
ENDMDL
MODEL 2
REMARK VINA RESULT:     -12.6      0.274      1.198
REMARK SMILES Cc1cccc2c(C(=O)OCCOC(=O)c3ccc(-c4c5nc(c(-c6c(F)c(F)c(F)c(F)c6F)c6ccc([nH]6)c(-c6c(F)c(F)c(F)c(F)c6F)c6nc(c(-c7c(F)c(F)c(F)c(F)c7F)c7ccc4[nH]7)C=C6)C=C5)cc3)cc(=O)[nH]c12
REMARK SMILES IDX 12 1 11 2 10 3 8 4 9 5 7 6 1 7 2 8 3 9 83 10 4 11 6 12 82 13
REMARK SMILES IDX 5 14 80 15 79 17 81 18 13 19 14 20 15 21 16 22 17 23 78 24
REMARK SMILES IDX 18 25 77 26 19 27 20 28 21 29 71 30 22 31 76 32 70 33 72 34
REMARK SMILES IDX 23 35 75 36 69 37 68 38 24 40 56 41 36 42 55 43 37 44 40 45
REMARK SMILES IDX 54 46 73 47 38 48 39 49 53 51 74 52 41 53 25 54 26 55 34 56
REMARK SMILES IDX 27 57 28 58 32 59 35 60 29 61 30 62 33 63 31 64 57 65 58 66
REMARK SMILES IDX 66 67 59 68 60 69 64 70 67 71 61 72 62 73 65 74 63 75 42 76
REMARK SMILES IDX 43 77 51 78 44 79 45 80 49 81 52 82 46 83 47 84 50 85 48 86
REMARK H PARENT 82 16 72 39 40 50
REMARK Flexibility Score: inf
ROOT
ATOM      1  C   UNL A   1      31.509  30.208  25.715  1.00  0.00     0.275 C 
ENDROOT
BRANCH   1   2
ATOM      2  C   UNL A   1      31.414  29.068  24.701  1.00  0.00     0.275 C 
BRANCH   2   3
ATOM      3  O   UNL A   1      31.469  27.793  25.381  1.00  0.00    -0.458 OA
BRANCH   3   4
ATOM      4  C   UNL A   1      31.388  26.670  24.618  1.00  0.00     0.339 C 
ATOM      5  O   UNL A   1      31.222  26.641  23.408  1.00  0.00    -0.246 OA
BRANCH   4   6
ATOM      6  C   UNL A   1      31.561  25.453  25.461  1.00  0.00     0.074 A 
ATOM      7  C   UNL A   1      34.190  21.633  27.489  1.00  0.00     0.046 C 
ATOM      8  C   UNL A   1      34.098  22.910  26.702  1.00  0.00    -0.027 A 
ATOM      9  C   UNL A   1      35.276  23.393  26.114  1.00  0.00     0.005 A 
ATOM     10  C   UNL A   1      32.888  23.592  26.460  1.00  0.00     0.052 A 
ATOM     11  C   UNL A   1      35.244  24.501  25.278  1.00  0.00     0.001 A 
ATOM     12  C   UNL A   1      32.844  24.732  25.632  1.00  0.00     0.013 A 
ATOM     13  N   UNL A   1      31.690  23.144  27.035  1.00  0.00    -0.322 N 
ATOM     14  C   UNL A   1      34.032  25.141  25.018  1.00  0.00     0.011 A 
ATOM     15  C   UNL A   1      30.484  23.756  26.876  1.00  0.00     0.249 A 
ATOM     16  H   UNL A   1      31.723  22.331  27.590  1.00  0.00     0.170 HD
ATOM     17  C   UNL A   1      30.453  24.975  26.050  1.00  0.00     0.088 A 
ATOM     18  O   UNL A   1      29.457  23.328  27.390  1.00  0.00    -0.270 OA
ENDBRANCH   4   6
ENDBRANCH   3   4
ENDBRANCH   2   3
ENDBRANCH   1   2
BRANCH   1  19
ATOM     19  O   UNL A   1      32.892  30.353  26.075  1.00  0.00    -0.458 OA
BRANCH  19  20
ATOM     20  C   UNL A   1      33.204  31.305  26.979  1.00  0.00     0.338 C 
ATOM     21  O   UNL A   1      32.531  32.273  27.303  1.00  0.00    -0.246 OA
BRANCH  20  22
ATOM     22  C   UNL A   1      34.516  30.971  27.567  1.00  0.00     0.060 A 
ATOM     23  C   UNL A   1      35.454  31.963  27.840  1.00  0.00     0.016 A 
ATOM     24  C   UNL A   1      34.791  29.653  27.925  1.00  0.00     0.016 A 
ATOM     25  C   UNL A   1      36.669  31.615  28.449  1.00  0.00     0.010 A 
ATOM     26  C   UNL A   1      35.946  29.333  28.637  1.00  0.00     0.010 A 
ATOM     27  C   UNL A   1      36.918  30.301  28.900  1.00  0.00    -0.014 A 
BRANCH  27  28
ATOM     28  C   UNL A   1      38.156  29.955  29.669  1.00  0.00     0.031 A 
ATOM     29  C   UNL A   1      38.373  30.408  31.098  1.00  0.00     0.074 A 
ATOM     30  C   UNL A   1      39.147  29.272  29.057  1.00  0.00     0.049 A 
ATOM     31  N   UNL A   1      39.396  30.180  31.891  1.00  0.00    -0.248 NA
ATOM     32  C   UNL A   1      37.348  31.272  31.702  1.00  0.00     0.031 C 
ATOM     33  C   UNL A   1      39.168  28.893  27.642  1.00  0.00     0.029 A 
ATOM     34  N   UNL A   1      40.321  28.751  29.551  1.00  0.00    -0.354 N 
ATOM     35  C   UNL A   1      39.156  30.910  33.049  1.00  0.00     0.074 A 
ATOM     36  C   UNL A   1      37.927  31.639  32.836  1.00  0.00     0.031 C 
ATOM     37  C   UNL A   1      40.234  28.114  27.409  1.00  0.00     0.029 A 
ATOM     38  C   UNL A   1      40.997  27.970  28.645  1.00  0.00     0.049 A 
ATOM     39  H   UNL A   1      40.645  28.923  30.464  1.00  0.00     0.167 HD
ATOM     40  C   UNL A   1      39.866  30.942  34.204  1.00  0.00     0.037 A 
ATOM     41  C   UNL A   1      42.086  27.191  28.794  1.00  0.00     0.037 A 
ATOM     42  C   UNL A   1      41.034  30.141  34.466  1.00  0.00     0.049 A 
ATOM     43  C   UNL A   1      42.766  27.110  30.131  1.00  0.00     0.074 A 
ATOM     44  C   UNL A   1      41.759  30.028  35.642  1.00  0.00     0.029 A 
ATOM     45  N   UNL A   1      41.630  29.292  33.548  1.00  0.00    -0.354 N 
ATOM     46  N   UNL A   1      42.478  27.741  31.242  1.00  0.00    -0.248 NA
ATOM     47  C   UNL A   1      43.916  26.200  30.237  1.00  0.00     0.031 C 
ATOM     48  C   UNL A   1      42.800  29.120  35.431  1.00  0.00     0.029 A 
ATOM     49  C   UNL A   1      42.704  28.643  34.135  1.00  0.00     0.049 A 
ATOM     50  H   UNL A   1      41.335  29.169  32.617  1.00  0.00     0.167 HD
ATOM     51  C   UNL A   1      43.394  27.290  32.182  1.00  0.00     0.074 A 
ATOM     52  C   UNL A   1      44.236  26.318  31.519  1.00  0.00     0.031 C 
ATOM     53  C   UNL A   1      43.524  27.659  33.479  1.00  0.00     0.037 A 
BRANCH  40  54
ATOM     54  C   UNL A   1      39.373  31.833  35.312  1.00  0.00     0.064 A 
ATOM     55  C   UNL A   1      38.530  31.344  36.322  1.00  0.00     0.173 A 
ATOM     56  C   UNL A   1      39.803  33.165  35.407  1.00  0.00     0.173 A 
ATOM     57  F   UNL A   1      38.087  30.078  36.277  1.00  0.00    -0.203 F 
ATOM     58  C   UNL A   1      38.111  32.163  37.366  1.00  0.00     0.198 A 
ATOM     59  C   UNL A   1      39.410  33.971  36.472  1.00  0.00     0.198 A 
ATOM     60  F   UNL A   1      40.625  33.680  34.480  1.00  0.00    -0.203 F 
ATOM     61  F   UNL A   1      37.268  31.685  38.292  1.00  0.00    -0.200 F 
ATOM     62  C   UNL A   1      38.558  33.473  37.447  1.00  0.00     0.200 A 
ATOM     63  F   UNL A   1      39.859  35.231  36.560  1.00  0.00    -0.200 F 
ATOM     64  F   UNL A   1      38.166  34.255  38.462  1.00  0.00    -0.200 F 
ENDBRANCH  40  54
BRANCH  41  65
ATOM     65  C   UNL A   1      42.531  26.336  27.665  1.00  0.00     0.064 A 
ATOM     66  C   UNL A   1      43.554  26.774  26.809  1.00  0.00     0.173 A 
ATOM     67  C   UNL A   1      41.979  25.070  27.432  1.00  0.00     0.173 A 
ATOM     68  F   UNL A   1      44.100  27.986  26.986  1.00  0.00    -0.203 F 
ATOM     69  C   UNL A   1      43.998  25.980  25.755  1.00  0.00     0.198 A 
ATOM     70  C   UNL A   1      42.441  24.268  26.391  1.00  0.00     0.198 A 
ATOM     71  F   UNL A   1      41.006  24.606  28.230  1.00  0.00    -0.203 F 
ATOM     72  F   UNL A   1      44.954  26.436  24.934  1.00  0.00    -0.200 F 
ATOM     73  C   UNL A   1      43.447  24.725  25.551  1.00  0.00     0.200 A 
ATOM     74  F   UNL A   1      41.918  23.049  26.205  1.00  0.00    -0.200 F 
ATOM     75  F   UNL A   1      43.882  23.957  24.544  1.00  0.00    -0.200 F 
ENDBRANCH  41  65
BRANCH  53  76
ATOM     76  C   UNL A   1      44.592  26.988  34.290  1.00  0.00     0.064 A 
ATOM     77  C   UNL A   1      44.352  25.782  34.963  1.00  0.00     0.173 A 
ATOM     78  C   UNL A   1      45.886  27.525  34.339  1.00  0.00     0.173 A 
ATOM     79  F   UNL A   1      43.127  25.236  34.954  1.00  0.00    -0.203 F 
ATOM     80  C   UNL A   1      45.368  25.146  35.670  1.00  0.00     0.198 A 
ATOM     81  C   UNL A   1      46.906  26.875  35.028  1.00  0.00     0.198 A 
ATOM     82  F   UNL A   1      46.167  28.674  33.705  1.00  0.00    -0.203 F 
ATOM     83  F   UNL A   1      45.111  24.010  36.333  1.00  0.00    -0.200 F 
ATOM     84  C   UNL A   1      46.645  25.687  35.696  1.00  0.00     0.200 A 
ATOM     85  F   UNL A   1      48.141  27.393  35.042  1.00  0.00    -0.200 F 
ATOM     86  F   UNL A   1      47.624  25.067  36.369  1.00  0.00    -0.200 F 
ENDBRANCH  53  76
ENDBRANCH  27  28
ENDBRANCH  20  22
ENDBRANCH  19  20
ENDBRANCH   1  19
TORSDOF 11
ENDMDL
MODEL 3
REMARK VINA RESULT:     -12.5      1.300      2.139
REMARK SMILES Cc1cccc2c(C(=O)OCCOC(=O)c3ccc(-c4c5nc(c(-c6c(F)c(F)c(F)c(F)c6F)c6ccc([nH]6)c(-c6c(F)c(F)c(F)c(F)c6F)c6nc(c(-c7c(F)c(F)c(F)c(F)c7F)c7ccc4[nH]7)C=C6)C=C5)cc3)cc(=O)[nH]c12
REMARK SMILES IDX 12 1 11 2 10 3 8 4 9 5 7 6 1 7 2 8 3 9 83 10 4 11 6 12 82 13
REMARK SMILES IDX 5 14 80 15 79 17 81 18 13 19 14 20 15 21 16 22 17 23 78 24
REMARK SMILES IDX 18 25 77 26 19 27 20 28 21 29 71 30 22 31 76 32 70 33 72 34
REMARK SMILES IDX 23 35 75 36 69 37 68 38 24 40 56 41 36 42 55 43 37 44 40 45
REMARK SMILES IDX 54 46 73 47 38 48 39 49 53 51 74 52 41 53 25 54 26 55 34 56
REMARK SMILES IDX 27 57 28 58 32 59 35 60 29 61 30 62 33 63 31 64 57 65 58 66
REMARK SMILES IDX 66 67 59 68 60 69 64 70 67 71 61 72 62 73 65 74 63 75 42 76
REMARK SMILES IDX 43 77 51 78 44 79 45 80 49 81 52 82 46 83 47 84 50 85 48 86
REMARK H PARENT 82 16 72 39 40 50
REMARK Flexibility Score: inf
ROOT
ATOM      1  C   UNL A   1      31.554  30.123  25.388  1.00  0.00     0.275 C 
ENDROOT
BRANCH   1   2
ATOM      2  C   UNL A   1      31.385  28.655  24.997  1.00  0.00     0.275 C 
BRANCH   2   3
ATOM      3  O   UNL A   1      30.744  28.557  23.705  1.00  0.00    -0.458 OA
BRANCH   3   4
ATOM      4  C   UNL A   1      30.010  27.440  23.451  1.00  0.00     0.339 C 
ATOM      5  O   UNL A   1      28.795  27.351  23.534  1.00  0.00    -0.246 OA
BRANCH   4   6
ATOM      6  C   UNL A   1      30.896  26.321  23.021  1.00  0.00     0.074 A 
ATOM      7  C   UNL A   1      33.193  21.842  23.561  1.00  0.00     0.046 C 
ATOM      8  C   UNL A   1      32.215  22.894  24.003  1.00  0.00    -0.027 A 
ATOM      9  C   UNL A   1      31.547  22.686  25.219  1.00  0.00     0.005 A 
ATOM     10  C   UNL A   1      31.999  24.101  23.308  1.00  0.00     0.052 A 
ATOM     11  C   UNL A   1      30.719  23.666  25.746  1.00  0.00     0.001 A 
ATOM     12  C   UNL A   1      31.142  25.097  23.820  1.00  0.00     0.013 A 
ATOM     13  N   UNL A   1      32.643  24.345  22.086  1.00  0.00    -0.322 N 
ATOM     14  C   UNL A   1      30.547  24.871  25.064  1.00  0.00     0.011 A 
ATOM     15  C   UNL A   1      32.472  25.470  21.337  1.00  0.00     0.249 A 
ATOM     16  H   UNL A   1      33.261  23.657  21.747  1.00  0.00     0.170 HD
ATOM     17  C   UNL A   1      31.537  26.485  21.853  1.00  0.00     0.088 A 
ATOM     18  O   UNL A   1      33.059  25.648  20.276  1.00  0.00    -0.270 OA
ENDBRANCH   4   6
ENDBRANCH   3   4
ENDBRANCH   2   3
ENDBRANCH   1   2
BRANCH   1  19
ATOM     19  O   UNL A   1      32.898  30.291  25.867  1.00  0.00    -0.458 OA
BRANCH  19  20
ATOM     20  C   UNL A   1      33.100  31.192  26.851  1.00  0.00     0.338 C 
ATOM     21  O   UNL A   1      32.335  32.069  27.227  1.00  0.00    -0.246 OA
BRANCH  20  22
ATOM     22  C   UNL A   1      34.422  30.928  27.455  1.00  0.00     0.060 A 
ATOM     23  C   UNL A   1      35.243  31.972  27.869  1.00  0.00     0.016 A 
ATOM     24  C   UNL A   1      34.821  29.613  27.681  1.00  0.00     0.016 A 
ATOM     25  C   UNL A   1      36.469  31.683  28.488  1.00  0.00     0.010 A 
ATOM     26  C   UNL A   1      35.980  29.333  28.403  1.00  0.00     0.010 A 
ATOM     27  C   UNL A   1      36.839  30.358  28.807  1.00  0.00    -0.014 A 
BRANCH  27  28
ATOM     28  C   UNL A   1      38.082  30.056  29.585  1.00  0.00     0.031 A 
ATOM     29  C   UNL A   1      38.272  30.516  31.015  1.00  0.00     0.074 A 
ATOM     30  C   UNL A   1      39.100  29.407  28.981  1.00  0.00     0.049 A 
ATOM     31  N   UNL A   1      39.296  30.323  31.816  1.00  0.00    -0.248 NA
ATOM     32  C   UNL A   1      37.213  31.344  31.611  1.00  0.00     0.031 C 
ATOM     33  C   UNL A   1      39.144  29.028  27.567  1.00  0.00     0.029 A 
ATOM     34  N   UNL A   1      40.287  28.927  29.484  1.00  0.00    -0.354 N 
ATOM     35  C   UNL A   1      39.023  31.045  32.973  1.00  0.00     0.074 A 
ATOM     36  C   UNL A   1      37.771  31.731  32.749  1.00  0.00     0.031 C 
ATOM     37  C   UNL A   1      40.238  28.286  27.342  1.00  0.00     0.029 A 
ATOM     38  C   UNL A   1      40.996  28.168  28.583  1.00  0.00     0.049 A 
ATOM     39  H   UNL A   1      40.598  29.109  30.400  1.00  0.00     0.167 HD
ATOM     40  C   UNL A   1      39.723  31.101  34.133  1.00  0.00     0.037 A 
ATOM     41  C   UNL A   1      42.110  27.428  28.741  1.00  0.00     0.037 A 
ATOM     42  C   UNL A   1      40.915  30.341  34.404  1.00  0.00     0.049 A 
ATOM     43  C   UNL A   1      42.783  27.370  30.083  1.00  0.00     0.074 A 
ATOM     44  C   UNL A   1      41.634  30.253  35.585  1.00  0.00     0.029 A 
ATOM     45  N   UNL A   1      41.547  29.512  33.490  1.00  0.00    -0.354 N 
ATOM     46  N   UNL A   1      42.465  27.991  31.191  1.00  0.00    -0.248 NA
ATOM     47  C   UNL A   1      43.962  26.500  30.198  1.00  0.00     0.031 C 
ATOM     48  C   UNL A   1      42.708  29.381  35.382  1.00  0.00     0.029 A 
ATOM     49  C   UNL A   1      42.638  28.901  34.086  1.00  0.00     0.049 A 
ATOM     50  H   UNL A   1      41.263  29.379  32.557  1.00  0.00     0.167 HD
ATOM     51  C   UNL A   1      43.389  27.572  32.139  1.00  0.00     0.074 A 
ATOM     52  C   UNL A   1      44.269  26.630  31.482  1.00  0.00     0.031 C 
ATOM     53  C   UNL A   1      43.496  27.945  33.436  1.00  0.00     0.037 A 
BRANCH  40  54
ATOM     54  C   UNL A   1      39.190  31.975  35.236  1.00  0.00     0.064 A 
ATOM     55  C   UNL A   1      38.422  31.443  36.283  1.00  0.00     0.173 A 
ATOM     56  C   UNL A   1      39.511  33.340  35.289  1.00  0.00     0.173 A 
ATOM     57  F   UNL A   1      38.085  30.144  36.279  1.00  0.00    -0.203 F 
ATOM     58  C   UNL A   1      37.969  32.249  37.323  1.00  0.00     0.198 A 
ATOM     59  C   UNL A   1      39.084  34.136  36.349  1.00  0.00     0.198 A 
ATOM     60  F   UNL A   1      40.259  33.898  34.325  1.00  0.00    -0.203 F 
ATOM     61  F   UNL A   1      37.197  31.726  38.285  1.00  0.00    -0.200 F 
ATOM     62  C   UNL A   1      38.307  33.593  37.360  1.00  0.00     0.200 A 
ATOM     63  F   UNL A   1      39.430  35.430  36.395  1.00  0.00    -0.200 F 
ATOM     64  F   UNL A   1      37.883  34.364  38.371  1.00  0.00    -0.200 F 
ENDBRANCH  40  54
BRANCH  41  65
ATOM     65  C   UNL A   1      42.593  26.588  27.615  1.00  0.00     0.064 A 
ATOM     66  C   UNL A   1      42.044  25.316  27.398  1.00  0.00     0.173 A 
ATOM     67  C   UNL A   1      43.576  27.039  26.725  1.00  0.00     0.173 A 
ATOM     68  F   UNL A   1      41.112  24.838  28.236  1.00  0.00    -0.203 F 
ATOM     69  C   UNL A   1      42.470  24.520  26.338  1.00  0.00     0.198 A 
ATOM     70  C   UNL A   1      43.984  26.251  25.651  1.00  0.00     0.198 A 
ATOM     71  F   UNL A   1      44.122  28.253  26.887  1.00  0.00    -0.203 F 
ATOM     72  F   UNL A   1      41.952  23.296  26.172  1.00  0.00    -0.200 F 
ATOM     73  C   UNL A   1      43.434  24.991  25.461  1.00  0.00     0.200 A 
ATOM     74  F   UNL A   1      44.904  26.714  24.795  1.00  0.00    -0.200 F 
ATOM     75  F   UNL A   1      43.836  24.230  24.434  1.00  0.00    -0.200 F 
ENDBRANCH  41  65
BRANCH  53  76
ATOM     76  C   UNL A   1      44.580  27.312  34.256  1.00  0.00     0.064 A 
ATOM     77  C   UNL A   1      45.838  27.915  34.400  1.00  0.00     0.173 A 
ATOM     78  C   UNL A   1      44.334  26.123  34.958  1.00  0.00     0.173 A 
ATOM     79  F   UNL A   1      46.123  29.047  33.740  1.00  0.00    -0.203 F 
ATOM     80  C   UNL A   1      46.816  27.340  35.206  1.00  0.00     0.198 A 
ATOM     81  C   UNL A   1      45.307  25.563  35.781  1.00  0.00     0.198 A 
ATOM     82  F   UNL A   1      43.144  25.512  34.858  1.00  0.00    -0.203 F 
ATOM     83  F   UNL A   1      48.023  27.915  35.305  1.00  0.00    -0.200 F 
ATOM     84  C   UNL A   1      46.549  26.170  35.901  1.00  0.00     0.200 A 
ATOM     85  F   UNL A   1      45.042  24.439  36.461  1.00  0.00    -0.200 F 
ATOM     86  F   UNL A   1      47.489  25.624  36.685  1.00  0.00    -0.200 F 
ENDBRANCH  53  76
ENDBRANCH  27  28
ENDBRANCH  20  22
ENDBRANCH  19  20
ENDBRANCH   1  19
TORSDOF 11
ENDMDL
