MODEL 1
REMARK VINA RESULT:     -13.3      0.000      0.000
REMARK SMILES C[NH2+][C@]1(C(=O)OCCOC(=O)c2ccc(-c3c4nc(c(-c5c(F)c(F)c(F)c(F)c5F)c5ccc([nH]5)c(-c5c(F)c(F)c(F)c(F)c5F)c5nc(c(-c6c(F)c(F)c(F)c(F)c6F)c6ccc3[nH]6)C=C5)C=C4)cc2)CC[C@@H](OCCCc2ccccc2)C1
REMARK SMILES IDX 6 1 4 2 5 3 3 4 75 5 88 6 76 7 77 8 2 9 1 10 78 13 79 14
REMARK SMILES IDX 80 15 81 16 82 17 83 18 87 19 84 20 86 21 85 22 7 23 8 24
REMARK SMILES IDX 9 25 10 26 11 27 12 28 13 29 74 30 14 31 73 32 15 33 16 34
REMARK SMILES IDX 17 35 67 36 18 37 72 38 66 39 68 40 19 41 71 42 65 43 64 44
REMARK SMILES IDX 20 46 52 47 32 48 51 49 33 50 36 51 50 52 69 53 34 54 35 55
REMARK SMILES IDX 49 57 70 58 37 59 21 60 22 61 30 62 23 63 24 64 28 65 31 66
REMARK SMILES IDX 25 67 26 68 29 69 27 70 53 71 54 72 62 73 55 74 56 75 60 76
REMARK SMILES IDX 63 77 57 78 58 79 61 80 59 81 38 82 39 83 47 84 40 85 41 86
REMARK SMILES IDX 45 87 48 88 42 89 43 90 46 91 44 92
REMARK H PARENT 2 11 2 12 68 45 36 56
REMARK Flexibility Score: inf
ROOT
ATOM      1  O   UNL A   1      32.355  26.429  26.506  1.00  0.00    -0.457 OA
ENDROOT
BRANCH   1   2
ATOM      2  C   UNL A   1      32.273  24.539  26.613  1.00  0.00     0.368 C 
ATOM      3  O   UNL A   1      31.376  23.863  27.217  1.00  0.00    -0.245 OA
BRANCH   2   4
ATOM      4  C   UNL A   1      33.217  23.396  25.718  1.00  0.00     0.196 C 
ATOM      5  C   UNL A   1      33.073  22.426  24.519  1.00  0.00     0.084 C 
ATOM      6  C   UNL A   1      34.332  24.396  25.190  1.00  0.00     0.113 C 
ATOM      7  C   UNL A   1      34.280  22.606  23.606  1.00  0.00     0.039 C 
ATOM      8  C   UNL A   1      34.663  24.063  23.749  1.00  0.00     0.125 C 
BRANCH   4   9
ATOM      9  N   UNL A   1      33.980  22.587  26.783  1.00  0.00    -0.334 N 
ATOM     10  C   UNL A   1      33.757  21.150  26.837  1.00  0.00     0.331 C 
ATOM     11  H   UNL A   1      34.977  22.734  26.621  1.00  0.00     0.347 HD
ATOM     12  H   UNL A   1      33.622  22.935  27.673  1.00  0.00     0.347 HD
ENDBRANCH   4   9
BRANCH   8  13
ATOM     13  O   UNL A   1      34.036  24.742  22.670  1.00  0.00    -0.378 OA
BRANCH  13  14
ATOM     14  C   UNL A   1      33.322  25.944  22.848  1.00  0.00     0.161 C 
BRANCH  14  15
ATOM     15  C   UNL A   1      31.833  25.717  22.581  1.00  0.00     0.033 C 
BRANCH  15  16
ATOM     16  C   UNL A   1      30.794  26.208  23.605  1.00  0.00     0.038 C 
BRANCH  16  17
ATOM     17  C   UNL A   1      29.893  27.367  23.237  1.00  0.00    -0.048 A 
ATOM     18  C   UNL A   1      30.583  28.786  22.379  1.00  0.00     0.004 A 
ATOM     19  C   UNL A   1      28.111  27.293  23.602  1.00  0.00     0.004 A 
ATOM     20  C   UNL A   1      29.556  30.165  21.879  1.00  0.00     0.000 A 
ATOM     21  C   UNL A   1      27.062  28.721  23.204  1.00  0.00     0.000 A 
ATOM     22  C   UNL A   1      27.786  30.172  22.311  1.00  0.00     0.000 A 
ENDBRANCH  16  17
ENDBRANCH  15  16
ENDBRANCH  14  15
ENDBRANCH  13  14
ENDBRANCH   8  13
ENDBRANCH   2   4
ENDBRANCH   1   2
BRANCH   1  23
ATOM     23  C   UNL A   1      31.690  27.986  26.906  1.00  0.00     0.274 C 
BRANCH  23  24
ATOM     24  C   UNL A   1      31.731  29.196  25.820  1.00  0.00     0.275 C 
BRANCH  24  25
ATOM     25  O   UNL A   1      32.944  30.058  25.765  1.00  0.00    -0.458 OA
BRANCH  25  26
ATOM     26  C   UNL A   1      33.084  31.064  26.685  1.00  0.00     0.338 C 
ATOM     27  O   UNL A   1      32.224  31.909  26.893  1.00  0.00    -0.246 OA
BRANCH  26  28
ATOM     28  C   UNL A   1      34.315  30.970  27.596  1.00  0.00     0.060 A 
ATOM     29  C   UNL A   1      35.179  32.030  27.883  1.00  0.00     0.016 A 
ATOM     30  C   UNL A   1      34.758  29.709  28.017  1.00  0.00     0.016 A 
ATOM     31  C   UNL A   1      36.461  31.847  28.440  1.00  0.00     0.010 A 
ATOM     32  C   UNL A   1      35.998  29.539  28.691  1.00  0.00     0.010 A 
ATOM     33  C   UNL A   1      36.890  30.606  28.901  1.00  0.00    -0.014 A 
BRANCH  33  34
ATOM     34  C   UNL A   1      38.210  30.416  29.609  1.00  0.00     0.031 A 
ATOM     35  C   UNL A   1      39.280  29.511  29.034  1.00  0.00     0.074 A 
ATOM     36  C   UNL A   1      38.469  30.997  30.804  1.00  0.00     0.049 A 
ATOM     37  N   UNL A   1      40.286  28.916  29.633  1.00  0.00    -0.248 NA
ATOM     38  C   UNL A   1      39.200  29.235  27.592  1.00  0.00     0.031 C 
ATOM     39  C   UNL A   1      37.631  31.984  31.484  1.00  0.00     0.029 A 
ATOM     40  N   UNL A   1      39.514  30.803  31.688  1.00  0.00    -0.354 N 
ATOM     41  C   UNL A   1      40.909  28.136  28.662  1.00  0.00     0.074 A 
ATOM     42  C   UNL A   1      40.177  28.350  27.429  1.00  0.00     0.031 C 
ATOM     43  C   UNL A   1      38.177  32.300  32.666  1.00  0.00     0.029 A 
ATOM     44  C   UNL A   1      39.340  31.452  32.891  1.00  0.00     0.049 A 
ATOM     45  H   UNL A   1      40.305  30.254  31.480  1.00  0.00     0.167 HD
ATOM     46  C   UNL A   1      41.978  27.308  28.793  1.00  0.00     0.037 A 
ATOM     47  C   UNL A   1      39.968  31.330  34.078  1.00  0.00     0.037 A 
ATOM     48  C   UNL A   1      42.746  27.142  30.005  1.00  0.00     0.049 A 
ATOM     49  C   UNL A   1      41.088  30.341  34.235  1.00  0.00     0.074 A 
ATOM     50  C   UNL A   1      43.853  26.337  30.224  1.00  0.00     0.029 A 
ATOM     51  N   UNL A   1      42.497  27.799  31.200  1.00  0.00    -0.354 N 
ATOM     52  N   UNL A   1      41.609  29.534  33.346  1.00  0.00    -0.248 NA
ATOM     53  C   UNL A   1      41.696  30.235  35.571  1.00  0.00     0.031 C 
ATOM     54  C   UNL A   1      44.237  26.462  31.563  1.00  0.00     0.029 A 
ATOM     55  C   UNL A   1      43.413  27.397  32.165  1.00  0.00     0.049 A 
ATOM     56  H   UNL A   1      41.777  28.454  31.346  1.00  0.00     0.167 HD
ATOM     57  C   UNL A   1      42.622  28.846  34.003  1.00  0.00     0.074 A 
ATOM     58  C   UNL A   1      42.651  29.340  35.363  1.00  0.00     0.031 C 
ATOM     59  C   UNL A   1      43.450  27.890  33.518  1.00  0.00     0.037 A 
BRANCH  46  60
ATOM     60  C   UNL A   1      42.369  26.459  27.610  1.00  0.00     0.064 A 
ATOM     61  C   UNL A   1      43.392  26.824  26.724  1.00  0.00     0.173 A 
ATOM     62  C   UNL A   1      41.747  25.213  27.408  1.00  0.00     0.173 A 
ATOM     63  F   UNL A   1      44.019  28.001  26.867  1.00  0.00    -0.203 F 
ATOM     64  C   UNL A   1      43.758  25.991  25.667  1.00  0.00     0.198 A 
ATOM     65  C   UNL A   1      42.140  24.369  26.372  1.00  0.00     0.198 A 
ATOM     66  F   UNL A   1      40.773  24.801  28.234  1.00  0.00    -0.203 F 
ATOM     67  F   UNL A   1      44.709  26.382  24.807  1.00  0.00    -0.200 F 
ATOM     68  C   UNL A   1      43.138  24.762  25.497  1.00  0.00     0.200 A 
ATOM     69  F   UNL A   1      41.554  23.172  26.227  1.00  0.00    -0.200 F 
ATOM     70  F   UNL A   1      43.503  23.958  24.489  1.00  0.00    -0.200 F 
ENDBRANCH  46  60
BRANCH  47  71
ATOM     71  C   UNL A   1      39.494  32.123  35.247  1.00  0.00     0.064 A 
ATOM     72  C   UNL A   1      39.925  33.441  35.450  1.00  0.00     0.173 A 
ATOM     73  C   UNL A   1      38.598  31.581  36.183  1.00  0.00     0.173 A 
ATOM     74  F   UNL A   1      40.810  33.992  34.606  1.00  0.00    -0.203 F 
ATOM     75  C   UNL A   1      39.485  34.183  36.544  1.00  0.00     0.198 A 
ATOM     76  C   UNL A   1      38.128  32.337  37.254  1.00  0.00     0.198 A 
ATOM     77  F   UNL A   1      38.159  30.322  36.043  1.00  0.00    -0.203 F 
ATOM     78  F   UNL A   1      39.949  35.424  36.740  1.00  0.00    -0.200 F 
ATOM     79  C   UNL A   1      38.576  33.635  37.438  1.00  0.00     0.200 A 
ATOM     80  F   UNL A   1      37.236  31.809  38.105  1.00  0.00    -0.200 F 
ATOM     81  F   UNL A   1      38.140  34.356  38.479  1.00  0.00    -0.200 F 
ENDBRANCH  47  71
BRANCH  59  82
ATOM     82  C   UNL A   1      44.502  27.350  34.446  1.00  0.00     0.064 A 
ATOM     83  C   UNL A   1      44.292  26.198  35.216  1.00  0.00     0.173 A 
ATOM     84  C   UNL A   1      45.747  27.993  34.556  1.00  0.00     0.173 A 
ATOM     85  F   UNL A   1      43.115  25.556  35.164  1.00  0.00    -0.203 F 
ATOM     86  C   UNL A   1      45.274  25.726  36.085  1.00  0.00     0.198 A 
ATOM     87  C   UNL A   1      46.738  27.499  35.399  1.00  0.00     0.198 A 
ATOM     88  F   UNL A   1      46.004  29.097  33.839  1.00  0.00    -0.203 F 
ATOM     89  F   UNL A   1      45.029  24.656  36.854  1.00  0.00    -0.200 F 
ATOM     90  C   UNL A   1      46.498  26.373  36.170  1.00  0.00     0.200 A 
ATOM     91  F   UNL A   1      47.924  28.118  35.472  1.00  0.00    -0.200 F 
ATOM     92  F   UNL A   1      47.443  25.916  37.004  1.00  0.00    -0.200 F 
ENDBRANCH  59  82
ENDBRANCH  33  34
ENDBRANCH  26  28
ENDBRANCH  25  26
ENDBRANCH  24  25
ENDBRANCH  23  24
ENDBRANCH   1  23
TORSDOF 17
ENDMDL
MODEL 2
REMARK VINA RESULT:     -12.6      4.300      9.804
REMARK SMILES C[NH2+][C@]1(C(=O)OCCOC(=O)c2ccc(-c3c4nc(c(-c5c(F)c(F)c(F)c(F)c5F)c5ccc([nH]5)c(-c5c(F)c(F)c(F)c(F)c5F)c5nc(c(-c6c(F)c(F)c(F)c(F)c6F)c6ccc3[nH]6)C=C5)C=C4)cc2)CC[C@@H](OCCCc2ccccc2)C1
REMARK SMILES IDX 6 1 4 2 5 3 3 4 75 5 88 6 76 7 77 8 2 9 1 10 78 13 79 14
REMARK SMILES IDX 80 15 81 16 82 17 83 18 87 19 84 20 86 21 85 22 7 23 8 24
REMARK SMILES IDX 9 25 10 26 11 27 12 28 13 29 74 30 14 31 73 32 15 33 16 34
REMARK SMILES IDX 17 35 67 36 18 37 72 38 66 39 68 40 19 41 71 42 65 43 64 44
REMARK SMILES IDX 20 46 52 47 32 48 51 49 33 50 36 51 50 52 69 53 34 54 35 55
REMARK SMILES IDX 49 57 70 58 37 59 21 60 22 61 30 62 23 63 24 64 28 65 31 66
REMARK SMILES IDX 25 67 26 68 29 69 27 70 53 71 54 72 62 73 55 74 56 75 60 76
REMARK SMILES IDX 63 77 57 78 58 79 61 80 59 81 38 82 39 83 47 84 40 85 41 86
REMARK SMILES IDX 45 87 48 88 42 89 43 90 46 91 44 92
REMARK H PARENT 2 11 2 12 68 45 36 56
REMARK Flexibility Score: inf
ROOT
ATOM      1  O   UNL A   1      34.872  24.336  23.382  1.00  0.00    -0.457 OA
ENDROOT
BRANCH   1   2
ATOM      2  C   UNL A   1      33.655  25.671  22.808  1.00  0.00     0.368 C 
ATOM      3  O   UNL A   1      33.552  26.128  21.623  1.00  0.00    -0.245 OA
BRANCH   2   4
ATOM      4  C   UNL A   1      32.312  26.315  23.692  1.00  0.00     0.196 C 
ATOM      5  C   UNL A   1      30.834  25.976  24.010  1.00  0.00     0.084 C 
ATOM      6  C   UNL A   1      32.966  26.289  25.138  1.00  0.00     0.113 C 
ATOM      7  C   UNL A   1      30.607  26.170  25.504  1.00  0.00     0.039 C 
ATOM      8  C   UNL A   1      31.933  25.830  26.148  1.00  0.00     0.125 C 
BRANCH   4   9
ATOM      9  N   UNL A   1      32.303  27.820  23.363  1.00  0.00    -0.334 N 
ATOM     10  C   UNL A   1      32.980  28.723  24.283  1.00  0.00     0.331 C 
ATOM     11  H   UNL A   1      32.740  27.934  22.448  1.00  0.00     0.347 HD
ATOM     12  H   UNL A   1      31.320  28.088  23.419  1.00  0.00     0.347 HD
ENDBRANCH   4   9
BRANCH   8  13
ATOM     13  O   UNL A   1      31.841  24.469  26.545  1.00  0.00    -0.378 OA
BRANCH  13  14
ATOM     14  C   UNL A   1      32.768  23.495  26.122  1.00  0.00     0.161 C 
BRANCH  14  15
ATOM     15  C   UNL A   1      32.031  22.278  25.558  1.00  0.00     0.033 C 
BRANCH  15  16
ATOM     16  C   UNL A   1      32.333  21.805  24.124  1.00  0.00     0.038 C 
BRANCH  16  17
ATOM     17  C   UNL A   1      32.841  20.397  23.908  1.00  0.00    -0.048 A 
ATOM     18  C   UNL A   1      32.075  19.362  22.656  1.00  0.00     0.004 A 
ATOM     19  C   UNL A   1      34.264  19.780  24.863  1.00  0.00     0.004 A 
ATOM     20  C   UNL A   1      32.665  17.705  22.325  1.00  0.00     0.000 A 
ATOM     21  C   UNL A   1      34.817  18.066  24.626  1.00  0.00     0.000 A 
ATOM     22  C   UNL A   1      34.024  17.016  23.325  1.00  0.00     0.000 A 
ENDBRANCH  16  17
ENDBRANCH  15  16
ENDBRANCH  14  15
ENDBRANCH  13  14
ENDBRANCH   8  13
ENDBRANCH   2   4
ENDBRANCH   1   2
BRANCH   1  23
ATOM     23  C   UNL A   1      35.579  22.760  23.176  1.00  0.00     0.274 C 
BRANCH  23  24
ATOM     24  C   UNL A   1      37.029  22.423  23.833  1.00  0.00     0.275 C 
BRANCH  24  25
ATOM     25  O   UNL A   1      37.065  21.756  25.163  1.00  0.00    -0.458 OA
BRANCH  25  26
ATOM     26  C   UNL A   1      38.281  21.518  25.751  1.00  0.00     0.338 C 
ATOM     27  O   UNL A   1      38.903  20.474  25.609  1.00  0.00    -0.246 OA
BRANCH  26  28
ATOM     28  C   UNL A   1      38.928  22.717  26.457  1.00  0.00     0.060 A 
ATOM     29  C   UNL A   1      38.558  24.050  26.264  1.00  0.00     0.016 A 
ATOM     30  C   UNL A   1      40.107  22.525  27.187  1.00  0.00     0.016 A 
ATOM     31  C   UNL A   1      39.366  25.136  26.659  1.00  0.00     0.010 A 
ATOM     32  C   UNL A   1      40.860  23.619  27.694  1.00  0.00     0.010 A 
ATOM     33  C   UNL A   1      40.516  24.956  27.422  1.00  0.00    -0.014 A 
BRANCH  33  34
ATOM     34  C   UNL A   1      41.326  26.114  27.954  1.00  0.00     0.031 A 
ATOM     35  C   UNL A   1      40.674  27.208  28.775  1.00  0.00     0.074 A 
ATOM     36  C   UNL A   1      42.644  26.251  27.676  1.00  0.00     0.049 A 
ATOM     37  N   UNL A   1      41.071  28.440  28.994  1.00  0.00    -0.248 NA
ATOM     38  C   UNL A   1      39.404  26.868  29.430  1.00  0.00     0.031 C 
ATOM     39  C   UNL A   1      43.490  25.269  26.999  1.00  0.00     0.029 A 
ATOM     40  N   UNL A   1      43.502  27.311  27.901  1.00  0.00    -0.354 N 
ATOM     41  C   UNL A   1      40.064  29.044  29.743  1.00  0.00     0.074 A 
ATOM     42  C   UNL A   1      39.047  28.034  29.957  1.00  0.00     0.031 C 
ATOM     43  C   UNL A   1      44.726  25.765  26.854  1.00  0.00     0.029 A 
ATOM     44  C   UNL A   1      44.738  27.147  27.315  1.00  0.00     0.049 A 
ATOM     45  H   UNL A   1      43.255  28.106  28.427  1.00  0.00     0.167 HD
ATOM     46  C   UNL A   1      39.989  30.323  30.193  1.00  0.00     0.037 A 
ATOM     47  C   UNL A   1      45.744  28.013  27.080  1.00  0.00     0.037 A 
ATOM     48  C   UNL A   1      41.029  31.314  30.033  1.00  0.00     0.049 A 
ATOM     49  C   UNL A   1      45.609  29.450  27.499  1.00  0.00     0.074 A 
ATOM     50  C   UNL A   1      41.046  32.629  30.471  1.00  0.00     0.029 A 
ATOM     51  N   UNL A   1      42.243  31.097  29.399  1.00  0.00    -0.354 N 
ATOM     52  N   UNL A   1      44.618  30.042  28.116  1.00  0.00    -0.248 NA
ATOM     53  C   UNL A   1      46.731  30.344  27.170  1.00  0.00     0.031 C 
ATOM     54  C   UNL A   1      42.240  33.223  30.050  1.00  0.00     0.029 A 
ATOM     55  C   UNL A   1      43.001  32.261  29.411  1.00  0.00     0.049 A 
ATOM     56  H   UNL A   1      42.526  30.244  28.998  1.00  0.00     0.167 HD
ATOM     57  C   UNL A   1      45.006  31.366  28.275  1.00  0.00     0.074 A 
ATOM     58  C   UNL A   1      46.328  31.489  27.702  1.00  0.00     0.031 C 
ATOM     59  C   UNL A   1      44.321  32.387  28.846  1.00  0.00     0.037 A 
BRANCH  46  60
ATOM     60  C   UNL A   1      38.714  30.769  30.862  1.00  0.00     0.064 A 
ATOM     61  C   UNL A   1      38.559  30.786  32.255  1.00  0.00     0.173 A 
ATOM     62  C   UNL A   1      37.650  31.260  30.083  1.00  0.00     0.173 A 
ATOM     63  F   UNL A   1      39.539  30.329  33.048  1.00  0.00    -0.203 F 
ATOM     64  C   UNL A   1      37.381  31.248  32.841  1.00  0.00     0.198 A 
ATOM     65  C   UNL A   1      36.489  31.753  30.674  1.00  0.00     0.198 A 
ATOM     66  F   UNL A   1      37.747  31.285  28.745  1.00  0.00    -0.203 F 
ATOM     67  F   UNL A   1      37.239  31.212  34.174  1.00  0.00    -0.200 F 
ATOM     68  C   UNL A   1      36.352  31.738  32.052  1.00  0.00     0.200 A 
ATOM     69  F   UNL A   1      35.507  32.248  29.907  1.00  0.00    -0.200 F 
ATOM     70  F   UNL A   1      35.226  32.195  32.619  1.00  0.00    -0.200 F 
ENDBRANCH  46  60
BRANCH  47  71
ATOM     71  C   UNL A   1      46.952  27.556  26.337  1.00  0.00     0.064 A 
ATOM     72  C   UNL A   1      47.019  27.649  24.940  1.00  0.00     0.173 A 
ATOM     73  C   UNL A   1      48.064  27.019  27.006  1.00  0.00     0.173 A 
ATOM     74  F   UNL A   1      45.969  28.119  24.250  1.00  0.00    -0.203 F 
ATOM     75  C   UNL A   1      48.146  27.219  24.242  1.00  0.00     0.198 A 
ATOM     76  C   UNL A   1      49.205  26.627  26.311  1.00  0.00     0.198 A 
ATOM     77  F   UNL A   1      48.051  26.899  28.341  1.00  0.00    -0.203 F 
ATOM     78  F   UNL A   1      48.165  27.276  22.904  1.00  0.00    -0.200 F 
ATOM     79  C   UNL A   1      49.243  26.722  24.929  1.00  0.00     0.200 A 
ATOM     80  F   UNL A   1      50.270  26.163  26.981  1.00  0.00    -0.200 F 
ATOM     81  F   UNL A   1      50.333  26.325  24.258  1.00  0.00    -0.200 F 
ENDBRANCH  47  71
BRANCH  59  82
ATOM     82  C   UNL A   1      45.011  33.719  28.934  1.00  0.00     0.064 A 
ATOM     83  C   UNL A   1      45.838  34.057  30.015  1.00  0.00     0.173 A 
ATOM     84  C   UNL A   1      44.850  34.669  27.912  1.00  0.00     0.173 A 
ATOM     85  F   UNL A   1      46.012  33.196  31.028  1.00  0.00    -0.203 F 
ATOM     86  C   UNL A   1      46.452  35.306  30.085  1.00  0.00     0.198 A 
ATOM     87  C   UNL A   1      45.492  35.903  27.969  1.00  0.00     0.198 A 
ATOM     88  F   UNL A   1      44.073  34.397  26.852  1.00  0.00    -0.203 F 
ATOM     89  F   UNL A   1      47.191  35.628  31.156  1.00  0.00    -0.200 F 
ATOM     90  C   UNL A   1      46.284  36.224  29.060  1.00  0.00     0.200 A 
ATOM     91  F   UNL A   1      45.338  36.784  26.971  1.00  0.00    -0.200 F 
ATOM     92  F   UNL A   1      46.878  37.424  29.127  1.00  0.00    -0.200 F 
ENDBRANCH  59  82
ENDBRANCH  33  34
ENDBRANCH  26  28
ENDBRANCH  25  26
ENDBRANCH  24  25
ENDBRANCH  23  24
ENDBRANCH   1  23
TORSDOF 17
ENDMDL
MODEL 3
REMARK VINA RESULT:     -12.5      4.122      9.287
REMARK SMILES C[NH2+][C@]1(C(=O)OCCOC(=O)c2ccc(-c3c4nc(c(-c5c(F)c(F)c(F)c(F)c5F)c5ccc([nH]5)c(-c5c(F)c(F)c(F)c(F)c5F)c5nc(c(-c6c(F)c(F)c(F)c(F)c6F)c6ccc3[nH]6)C=C5)C=C4)cc2)CC[C@@H](OCCCc2ccccc2)C1
REMARK SMILES IDX 6 1 4 2 5 3 3 4 75 5 88 6 76 7 77 8 2 9 1 10 78 13 79 14
REMARK SMILES IDX 80 15 81 16 82 17 83 18 87 19 84 20 86 21 85 22 7 23 8 24
REMARK SMILES IDX 9 25 10 26 11 27 12 28 13 29 74 30 14 31 73 32 15 33 16 34
REMARK SMILES IDX 17 35 67 36 18 37 72 38 66 39 68 40 19 41 71 42 65 43 64 44
REMARK SMILES IDX 20 46 52 47 32 48 51 49 33 50 36 51 50 52 69 53 34 54 35 55
REMARK SMILES IDX 49 57 70 58 37 59 21 60 22 61 30 62 23 63 24 64 28 65 31 66
REMARK SMILES IDX 25 67 26 68 29 69 27 70 53 71 54 72 62 73 55 74 56 75 60 76
REMARK SMILES IDX 63 77 57 78 58 79 61 80 59 81 38 82 39 83 47 84 40 85 41 86
REMARK SMILES IDX 45 87 48 88 42 89 43 90 46 91 44 92
REMARK H PARENT 2 11 2 12 68 45 36 56
REMARK Flexibility Score: inf
ROOT
ATOM      1  O   UNL A   1      34.539  23.599  25.896  1.00  0.00    -0.457 OA
ENDROOT
BRANCH   1   2
ATOM      2  C   UNL A   1      33.419  25.116  26.086  1.00  0.00     0.368 C 
ATOM      3  O   UNL A   1      33.807  26.302  26.349  1.00  0.00    -0.245 OA
BRANCH   2   4
ATOM      4  C   UNL A   1      31.738  25.234  25.689  1.00  0.00     0.196 C 
ATOM      5  C   UNL A   1      30.721  26.271  25.150  1.00  0.00     0.084 C 
ATOM      6  C   UNL A   1      31.701  24.127  24.553  1.00  0.00     0.113 C 
ATOM      7  C   UNL A   1      29.891  25.608  24.057  1.00  0.00     0.039 C 
ATOM      8  C   UNL A   1      30.824  24.606  23.413  1.00  0.00     0.125 C 
BRANCH   4   9
ATOM      9  N   UNL A   1      31.004  24.538  26.850  1.00  0.00    -0.334 N 
ATOM     10  C   UNL A   1      30.738  23.112  26.731  1.00  0.00     0.331 C 
ATOM     11  H   UNL A   1      31.567  24.672  27.691  1.00  0.00     0.347 HD
ATOM     12  H   UNL A   1      30.080  24.970  26.865  1.00  0.00     0.347 HD
ENDBRANCH   4   9
BRANCH   8  13
ATOM     13  O   UNL A   1      31.376  25.257  22.277  1.00  0.00    -0.378 OA
BRANCH  13  14
ATOM     14  C   UNL A   1      32.677  24.981  21.808  1.00  0.00     0.161 C 
BRANCH  14  15
ATOM     15  C   UNL A   1      33.668  25.999  22.377  1.00  0.00     0.033 C 
BRANCH  15  16
ATOM     16  C   UNL A   1      33.500  27.492  22.041  1.00  0.00     0.038 C 
BRANCH  16  17
ATOM     17  C   UNL A   1      32.744  28.380  23.003  1.00  0.00    -0.048 A 
ATOM     18  C   UNL A   1      33.550  28.944  24.506  1.00  0.00     0.004 A 
ATOM     19  C   UNL A   1      31.053  28.929  22.609  1.00  0.00     0.004 A 
ATOM     20  C   UNL A   1      32.721  30.034  25.659  1.00  0.00     0.000 A 
ATOM     21  C   UNL A   1      30.146  29.947  23.809  1.00  0.00     0.000 A 
ATOM     22  C   UNL A   1      30.995  30.528  25.347  1.00  0.00     0.000 A 
ENDBRANCH  16  17
ENDBRANCH  15  16
ENDBRANCH  14  15
ENDBRANCH  13  14
ENDBRANCH   8  13
ENDBRANCH   2   4
ENDBRANCH   1   2
BRANCH   1  23
ATOM     23  C   UNL A   1      34.983  21.989  26.384  1.00  0.00     0.274 C 
BRANCH  23  24
ATOM     24  C   UNL A   1      35.858  21.045  25.390  1.00  0.00     0.275 C 
BRANCH  24  25
ATOM     25  O   UNL A   1      37.168  21.555  24.901  1.00  0.00    -0.458 OA
BRANCH  25  26
ATOM     26  C   UNL A   1      38.300  21.276  25.623  1.00  0.00     0.338 C 
ATOM     27  O   UNL A   1      38.864  20.190  25.595  1.00  0.00    -0.246 OA
BRANCH  26  28
ATOM     28  C   UNL A   1      38.950  22.470  26.334  1.00  0.00     0.060 A 
ATOM     29  C   UNL A   1      38.581  23.805  26.151  1.00  0.00     0.016 A 
ATOM     30  C   UNL A   1      40.132  22.272  27.060  1.00  0.00     0.016 A 
ATOM     31  C   UNL A   1      39.391  24.887  26.550  1.00  0.00     0.010 A 
ATOM     32  C   UNL A   1      40.887  23.362  27.572  1.00  0.00     0.010 A 
ATOM     33  C   UNL A   1      40.543  24.701  27.310  1.00  0.00    -0.014 A 
BRANCH  33  34
ATOM     34  C   UNL A   1      41.355  25.855  27.847  1.00  0.00     0.031 A 
ATOM     35  C   UNL A   1      40.709  26.938  28.687  1.00  0.00     0.074 A 
ATOM     36  C   UNL A   1      42.670  25.999  27.557  1.00  0.00     0.049 A 
ATOM     37  N   UNL A   1      41.105  28.168  28.917  1.00  0.00    -0.248 NA
ATOM     38  C   UNL A   1      39.446  26.586  29.352  1.00  0.00     0.031 C 
ATOM     39  C   UNL A   1      43.512  25.027  26.860  1.00  0.00     0.029 A 
ATOM     40  N   UNL A   1      43.528  27.059  27.785  1.00  0.00    -0.354 N 
ATOM     41  C   UNL A   1      40.105  28.760  29.683  1.00  0.00     0.074 A 
ATOM     42  C   UNL A   1      39.092  27.745  29.896  1.00  0.00     0.031 C 
ATOM     43  C   UNL A   1      44.745  25.528  26.709  1.00  0.00     0.029 A 
ATOM     44  C   UNL A   1      44.758  26.905  27.185  1.00  0.00     0.049 A 
ATOM     45  H   UNL A   1      43.284  27.846  28.323  1.00  0.00     0.167 HD
ATOM     46  C   UNL A   1      40.031  30.034  30.149  1.00  0.00     0.037 A 
ATOM     47  C   UNL A   1      45.760  27.776  26.951  1.00  0.00     0.037 A 
ATOM     48  C   UNL A   1      41.067  31.029  29.990  1.00  0.00     0.049 A 
ATOM     49  C   UNL A   1      45.625  29.208  27.387  1.00  0.00     0.074 A 
ATOM     50  C   UNL A   1      41.084  32.339  30.443  1.00  0.00     0.029 A 
ATOM     51  N   UNL A   1      42.274  30.823  29.341  1.00  0.00    -0.354 N 
ATOM     52  N   UNL A   1      44.639  29.790  28.021  1.00  0.00    -0.248 NA
ATOM     53  C   UNL A   1      46.741  30.108  27.058  1.00  0.00     0.031 C 
ATOM     54  C   UNL A   1      42.273  32.942  30.017  1.00  0.00     0.029 A 
ATOM     55  C   UNL A   1      43.030  31.989  29.359  1.00  0.00     0.049 A 
ATOM     56  H   UNL A   1      42.556  29.976  28.927  1.00  0.00     0.167 HD
ATOM     57  C   UNL A   1      45.025  31.113  28.192  1.00  0.00     0.074 A 
ATOM     58  C   UNL A   1      46.341  31.246  27.607  1.00  0.00     0.031 C 
ATOM     59  C   UNL A   1      44.343  32.125  28.782  1.00  0.00     0.037 A 
BRANCH  46  60
ATOM     60  C   UNL A   1      38.761  30.468  30.836  1.00  0.00     0.064 A 
ATOM     61  C   UNL A   1      38.623  30.475  32.231  1.00  0.00     0.173 A 
ATOM     62  C   UNL A   1      37.686  30.958  30.073  1.00  0.00     0.173 A 
ATOM     63  F   UNL A   1      39.616  30.019  33.009  1.00  0.00    -0.203 F 
ATOM     64  C   UNL A   1      37.450  30.928  32.834  1.00  0.00     0.198 A 
ATOM     65  C   UNL A   1      36.529  31.442  30.681  1.00  0.00     0.198 A 
ATOM     66  F   UNL A   1      37.766  30.993  28.735  1.00  0.00    -0.203 F 
ATOM     67  F   UNL A   1      37.324  30.882  34.168  1.00  0.00    -0.200 F 
ATOM     68  C   UNL A   1      36.408  31.417  32.061  1.00  0.00     0.200 A 
ATOM     69  F   UNL A   1      35.535  31.936  29.930  1.00  0.00    -0.200 F 
ATOM     70  F   UNL A   1      35.288  31.864  32.644  1.00  0.00    -0.200 F 
ENDBRANCH  46  60
BRANCH  47  71
ATOM     71  C   UNL A   1      46.960  27.331  26.189  1.00  0.00     0.064 A 
ATOM     72  C   UNL A   1      47.047  27.516  24.802  1.00  0.00     0.173 A 
ATOM     73  C   UNL A   1      48.047  26.714  26.831  1.00  0.00     0.173 A 
ATOM     74  F   UNL A   1      46.021  28.066  24.137  1.00  0.00    -0.203 F 
ATOM     75  C   UNL A   1      48.168  27.098  24.088  1.00  0.00     0.198 A 
ATOM     76  C   UNL A   1      49.183  26.332  26.122  1.00  0.00     0.198 A 
ATOM     77  F   UNL A   1      48.014  26.503  28.155  1.00  0.00    -0.203 F 
ATOM     78  F   UNL A   1      48.205  27.245  22.757  1.00  0.00    -0.200 F 
ATOM     79  C   UNL A   1      49.241  26.519  24.751  1.00  0.00     0.200 A 
ATOM     80  F   UNL A   1      50.224  25.789  26.769  1.00  0.00    -0.200 F 
ATOM     81  F   UNL A   1      50.325  26.133  24.065  1.00  0.00    -0.200 F 
ENDBRANCH  47  71
BRANCH  59  82
ATOM     82  C   UNL A   1      45.031  33.458  28.879  1.00  0.00     0.064 A 
ATOM     83  C   UNL A   1      45.900  33.770  29.934  1.00  0.00     0.173 A 
ATOM     84  C   UNL A   1      44.823  34.435  27.891  1.00  0.00     0.173 A 
ATOM     85  F   UNL A   1      46.120  32.882  30.914  1.00  0.00    -0.203 F 
ATOM     86  C   UNL A   1      46.512  35.020  30.013  1.00  0.00     0.198 A 
ATOM     87  C   UNL A   1      45.462  35.670  27.956  1.00  0.00     0.198 A 
ATOM     88  F   UNL A   1      44.004  34.189  26.857  1.00  0.00    -0.203 F 
ATOM     89  F   UNL A   1      47.293  35.316  31.061  1.00  0.00    -0.200 F 
ATOM     90  C   UNL A   1      46.298  35.965  29.021  1.00  0.00     0.200 A 
ATOM     91  F   UNL A   1      45.263  36.578  26.991  1.00  0.00    -0.200 F 
ATOM     92  F   UNL A   1      46.889  37.166  29.098  1.00  0.00    -0.200 F 
ENDBRANCH  59  82
ENDBRANCH  33  34
ENDBRANCH  26  28
ENDBRANCH  25  26
ENDBRANCH  24  25
ENDBRANCH  23  24
ENDBRANCH   1  23
TORSDOF 17
ENDMDL
