MODEL 1
REMARK VINA RESULT:     -10.7      0.000      0.000
REMARK SMILES C[C@@H](NS(=O)(=O)c1ccc2c(c1)CCC2)C(=O)OCCOC(=O)c1ccc(-c2c3nc(c(-c4c(F)c(F)c(F)c(F)c4F)c4ccc([nH]4)c(-c4c(F)c(F)c(F)c(F)c4F)c4nc(c(-c5c(F)c(F)c(F)c(F)c5F)c5ccc2[nH]5)C=C4)C=C3)cc1
REMARK SMILES IDX 19 1 18 2 16 3 17 4 2 5 1 6 3 7 4 9 5 10 6 11 7 12 8 13
REMARK SMILES IDX 12 14 9 15 11 16 10 17 13 18 15 19 14 20 20 21 21 22 22 23
REMARK SMILES IDX 23 24 24 25 25 26 86 27 26 28 85 29 27 30 28 31 29 32 79 33
REMARK SMILES IDX 30 34 84 35 78 36 80 37 31 38 83 39 77 40 76 41 32 43 64 44
REMARK SMILES IDX 44 45 63 46 45 47 48 48 62 49 81 50 46 51 47 52 61 54 82 55
REMARK SMILES IDX 49 56 33 57 34 58 42 59 35 60 36 61 40 62 43 63 37 64 38 65
REMARK SMILES IDX 41 66 39 67 65 68 66 69 74 70 67 71 68 72 72 73 75 74 69 75
REMARK SMILES IDX 70 76 73 77 71 78 50 79 51 80 59 81 52 82 53 83 57 84 60 85
REMARK SMILES IDX 54 86 55 87 58 88 56 89
REMARK H PARENT 3 8 80 42 48 53
REMARK Flexibility Score: inf
ROOT
ATOM      1  C   UNL A   1      33.347  34.581  28.476  1.00  0.00     0.274 C 
ENDROOT
BRANCH   1   2
ATOM      2  O   UNL A   1      32.880  34.586  29.841  1.00  0.00    -0.461 OA
BRANCH   2   3
ATOM      3  C   UNL A   1      32.862  35.802  30.452  1.00  0.00     0.324 C 
ATOM      4  O   UNL A   1      32.888  36.870  29.852  1.00  0.00    -0.250 OA
BRANCH   3   5
ATOM      5  C   UNL A   1      32.882  35.723  31.973  1.00  0.00     0.176 C 
ATOM      6  C   UNL A   1      31.504  35.920  32.593  1.00  0.00     0.038 C 
BRANCH   5   7
ATOM      7  N   UNL A   1      33.469  34.449  32.445  1.00  0.00    -0.197 NA
ATOM      8  H   UNL A   1      33.819  33.955  31.624  1.00  0.00     0.142 HD
BRANCH   7   9
ATOM      9  S   UNL A   1      34.734  34.511  33.568  1.00  0.00     0.241 S 
ATOM     10  O   UNL A   1      34.735  35.843  34.138  1.00  0.00    -0.207 OA
ATOM     11  O   UNL A   1      34.580  33.337  34.394  1.00  0.00    -0.207 OA
BRANCH   9  12
ATOM     12  C   UNL A   1      36.194  34.279  32.590  1.00  0.00     0.082 A 
ATOM     13  C   UNL A   1      37.448  34.625  33.128  1.00  0.00     0.022 A 
ATOM     14  C   UNL A   1      36.058  33.876  31.256  1.00  0.00     0.025 A 
ATOM     15  C   UNL A   1      38.579  34.647  32.312  1.00  0.00     0.005 A 
ATOM     16  C   UNL A   1      37.196  33.878  30.467  1.00  0.00    -0.043 A 
ATOM     17  C   UNL A   1      38.435  34.282  30.984  1.00  0.00    -0.045 A 
ATOM     18  C   UNL A   1      37.301  33.583  29.004  1.00  0.00     0.036 C 
ATOM     19  C   UNL A   1      39.465  34.348  29.899  1.00  0.00     0.036 C 
ATOM     20  C   UNL A   1      38.823  33.457  28.829  1.00  0.00     0.010 C 
ENDBRANCH   9  12
ENDBRANCH   7   9
ENDBRANCH   5   7
ENDBRANCH   3   5
ENDBRANCH   2   3
ENDBRANCH   1   2
BRANCH   1  21
ATOM     21  C   UNL A   1      33.272  33.202  27.805  1.00  0.00     0.275 C 
BRANCH  21  22
ATOM     22  O   UNL A   1      34.132  32.231  28.433  1.00  0.00    -0.458 OA
BRANCH  22  23
ATOM     23  C   UNL A   1      34.310  31.087  27.730  1.00  0.00     0.338 C 
ATOM     24  O   UNL A   1      33.649  30.704  26.777  1.00  0.00    -0.246 OA
BRANCH  23  25
ATOM     25  C   UNL A   1      35.555  30.413  28.150  1.00  0.00     0.060 A 
ATOM     26  C   UNL A   1      35.607  29.906  29.456  1.00  0.00     0.016 A 
ATOM     27  C   UNL A   1      36.670  30.325  27.315  1.00  0.00     0.016 A 
ATOM     28  C   UNL A   1      36.771  29.323  29.942  1.00  0.00     0.010 A 
ATOM     29  C   UNL A   1      37.851  29.763  27.812  1.00  0.00     0.010 A 
ATOM     30  C   UNL A   1      37.910  29.284  29.134  1.00  0.00    -0.014 A 
BRANCH  30  31
ATOM     31  C   UNL A   1      39.206  28.891  29.731  1.00  0.00     0.031 A 
ATOM     32  C   UNL A   1      39.718  29.669  30.907  1.00  0.00     0.074 A 
ATOM     33  C   UNL A   1      39.893  27.838  29.258  1.00  0.00     0.049 A 
ATOM     34  N   UNL A   1      40.868  29.588  31.523  1.00  0.00    -0.248 NA
ATOM     35  C   UNL A   1      38.804  30.679  31.465  1.00  0.00     0.031 C 
ATOM     36  C   UNL A   1      39.451  26.957  28.178  1.00  0.00     0.029 A 
ATOM     37  N   UNL A   1      41.116  27.339  29.626  1.00  0.00    -0.354 N 
ATOM     38  C   UNL A   1      40.826  30.548  32.524  1.00  0.00     0.074 A 
ATOM     39  C   UNL A   1      39.542  31.209  32.428  1.00  0.00     0.031 C 
ATOM     40  C   UNL A   1      40.401  26.032  27.958  1.00  0.00     0.029 A 
ATOM     41  C   UNL A   1      41.532  26.286  28.849  1.00  0.00     0.049 A 
ATOM     42  H   UNL A   1      41.644  27.699  30.374  1.00  0.00     0.167 HD
ATOM     43  C   UNL A   1      41.778  30.851  33.438  1.00  0.00     0.037 A 
ATOM     44  C   UNL A   1      42.709  25.631  28.839  1.00  0.00     0.037 A 
ATOM     45  C   UNL A   1      43.047  30.182  33.530  1.00  0.00     0.049 A 
ATOM     46  C   UNL A   1      43.782  26.036  29.815  1.00  0.00     0.074 A 
ATOM     47  C   UNL A   1      44.085  30.415  34.413  1.00  0.00     0.029 A 
ATOM     48  N   UNL A   1      43.448  29.143  32.703  1.00  0.00    -0.354 N 
ATOM     49  N   UNL A   1      43.753  26.965  30.742  1.00  0.00    -0.248 NA
ATOM     50  C   UNL A   1      45.056  25.307  29.739  1.00  0.00     0.031 C 
ATOM     51  C   UNL A   1      45.133  29.544  34.094  1.00  0.00     0.029 A 
ATOM     52  C   UNL A   1      44.728  28.736  33.043  1.00  0.00     0.049 A 
ATOM     53  H   UNL A   1      42.905  28.752  31.982  1.00  0.00     0.167 HD
ATOM     54  C   UNL A   1      44.987  26.914  31.374  1.00  0.00     0.074 A 
ATOM     55  C   UNL A   1      45.742  25.858  30.731  1.00  0.00     0.031 C 
ATOM     56  C   UNL A   1      45.456  27.673  32.396  1.00  0.00     0.037 A 
BRANCH  43  57
ATOM     57  C   UNL A   1      41.493  31.986  34.376  1.00  0.00     0.064 A 
ATOM     58  C   UNL A   1      40.929  31.778  35.643  1.00  0.00     0.173 A 
ATOM     59  C   UNL A   1      41.796  33.304  33.999  1.00  0.00     0.173 A 
ATOM     60  F   UNL A   1      40.602  30.539  36.041  1.00  0.00    -0.203 F 
ATOM     61  C   UNL A   1      40.654  32.850  36.488  1.00  0.00     0.198 A 
ATOM     62  C   UNL A   1      41.545  34.370  34.858  1.00  0.00     0.198 A 
ATOM     63  F   UNL A   1      42.335  33.557  32.797  1.00  0.00    -0.203 F 
ATOM     64  F   UNL A   1      40.068  32.633  37.674  1.00  0.00    -0.200 F 
ATOM     65  C   UNL A   1      40.967  34.144  36.098  1.00  0.00     0.200 A 
ATOM     66  F   UNL A   1      41.854  35.618  34.482  1.00  0.00    -0.200 F 
ATOM     67  F   UNL A   1      40.702  35.174  36.913  1.00  0.00    -0.200 F 
ENDBRANCH  43  57
BRANCH  44  68
ATOM     68  C   UNL A   1      42.942  24.545  27.853  1.00  0.00     0.064 A 
ATOM     69  C   UNL A   1      42.626  23.214  28.152  1.00  0.00     0.173 A 
ATOM     70  C   UNL A   1      43.493  24.819  26.591  1.00  0.00     0.173 A 
ATOM     71  F   UNL A   1      42.125  22.899  29.356  1.00  0.00    -0.203 F 
ATOM     72  C   UNL A   1      42.862  22.195  27.230  1.00  0.00     0.198 A 
ATOM     73  C   UNL A   1      43.703  23.804  25.661  1.00  0.00     0.198 A 
ATOM     74  F   UNL A   1      43.820  26.076  26.259  1.00  0.00    -0.203 F 
ATOM     75  F   UNL A   1      42.589  20.924  27.557  1.00  0.00    -0.200 F 
ATOM     76  C   UNL A   1      43.392  22.491  25.984  1.00  0.00     0.200 A 
ATOM     77  F   UNL A   1      44.209  24.096  24.456  1.00  0.00    -0.200 F 
ATOM     78  F   UNL A   1      43.616  21.512  25.097  1.00  0.00    -0.200 F 
ENDBRANCH  44  68
BRANCH  56  79
ATOM     79  C   UNL A   1      46.830  27.363  32.911  1.00  0.00     0.064 A 
ATOM     80  C   UNL A   1      47.963  28.041  32.440  1.00  0.00     0.173 A 
ATOM     81  C   UNL A   1      47.005  26.410  33.926  1.00  0.00     0.173 A 
ATOM     82  F   UNL A   1      47.846  28.950  31.460  1.00  0.00    -0.203 F 
ATOM     83  C   UNL A   1      49.227  27.762  32.954  1.00  0.00     0.198 A 
ATOM     84  C   UNL A   1      48.267  26.153  34.457  1.00  0.00     0.198 A 
ATOM     85  F   UNL A   1      45.951  25.740  34.416  1.00  0.00    -0.203 F 
ATOM     86  F   UNL A   1      50.302  28.394  32.463  1.00  0.00    -0.200 F 
ATOM     87  C   UNL A   1      49.376  26.825  33.966  1.00  0.00     0.200 A 
ATOM     88  F   UNL A   1      48.407  25.257  35.443  1.00  0.00    -0.200 F 
ATOM     89  F   UNL A   1      50.593  26.565  34.466  1.00  0.00    -0.200 F 
ENDBRANCH  56  79
ENDBRANCH  30  31
ENDBRANCH  23  25
ENDBRANCH  22  23
ENDBRANCH  21  22
ENDBRANCH   1  21
TORSDOF 14
ENDMDL
MODEL 2
REMARK VINA RESULT:     -10.7      4.441      9.996
REMARK SMILES C[C@@H](NS(=O)(=O)c1ccc2c(c1)CCC2)C(=O)OCCOC(=O)c1ccc(-c2c3nc(c(-c4c(F)c(F)c(F)c(F)c4F)c4ccc([nH]4)c(-c4c(F)c(F)c(F)c(F)c4F)c4nc(c(-c5c(F)c(F)c(F)c(F)c5F)c5ccc2[nH]5)C=C4)C=C3)cc1
REMARK SMILES IDX 19 1 18 2 16 3 17 4 2 5 1 6 3 7 4 9 5 10 6 11 7 12 8 13
REMARK SMILES IDX 12 14 9 15 11 16 10 17 13 18 15 19 14 20 20 21 21 22 22 23
REMARK SMILES IDX 23 24 24 25 25 26 86 27 26 28 85 29 27 30 28 31 29 32 79 33
REMARK SMILES IDX 30 34 84 35 78 36 80 37 31 38 83 39 77 40 76 41 32 43 64 44
REMARK SMILES IDX 44 45 63 46 45 47 48 48 62 49 81 50 46 51 47 52 61 54 82 55
REMARK SMILES IDX 49 56 33 57 34 58 42 59 35 60 36 61 40 62 43 63 37 64 38 65
REMARK SMILES IDX 41 66 39 67 65 68 66 69 74 70 67 71 68 72 72 73 75 74 69 75
REMARK SMILES IDX 70 76 73 77 71 78 50 79 51 80 59 81 52 82 53 83 57 84 60 85
REMARK SMILES IDX 54 86 55 87 58 88 56 89
REMARK H PARENT 3 8 80 42 48 53
REMARK Flexibility Score: inf
ROOT
ATOM      1  C   UNL A   1      31.724  29.504  24.537  1.00  0.00     0.274 C 
ENDROOT
BRANCH   1   2
ATOM      2  O   UNL A   1      30.443  29.396  23.883  1.00  0.00    -0.461 OA
BRANCH   2   3
ATOM      3  C   UNL A   1      30.429  28.666  22.734  1.00  0.00     0.324 C 
ATOM      4  O   UNL A   1      29.959  29.065  21.675  1.00  0.00    -0.250 OA
BRANCH   3   5
ATOM      5  C   UNL A   1      30.992  27.260  22.895  1.00  0.00     0.176 C 
ATOM      6  C   UNL A   1      30.072  26.342  23.693  1.00  0.00     0.038 C 
BRANCH   5   7
ATOM      7  N   UNL A   1      31.303  26.644  21.586  1.00  0.00    -0.197 NA
ATOM      8  H   UNL A   1      31.097  27.339  20.869  1.00  0.00     0.142 HD
BRANCH   7   9
ATOM      9  S   UNL A   1      32.879  26.091  21.309  1.00  0.00     0.241 S 
ATOM     10  O   UNL A   1      32.922  25.584  19.953  1.00  0.00    -0.207 OA
ATOM     11  O   UNL A   1      33.749  27.159  21.743  1.00  0.00    -0.207 OA
BRANCH   9  12
ATOM     12  C   UNL A   1      33.077  24.753  22.454  1.00  0.00     0.082 A 
ATOM     13  C   UNL A   1      34.023  24.866  23.491  1.00  0.00     0.022 A 
ATOM     14  C   UNL A   1      32.379  23.560  22.230  1.00  0.00     0.025 A 
ATOM     15  C   UNL A   1      34.341  23.754  24.273  1.00  0.00     0.005 A 
ATOM     16  C   UNL A   1      32.689  22.475  23.032  1.00  0.00    -0.043 A 
ATOM     17  C   UNL A   1      33.675  22.566  24.023  1.00  0.00    -0.045 A 
ATOM     18  C   UNL A   1      32.160  21.079  22.935  1.00  0.00     0.036 C 
ATOM     19  C   UNL A   1      33.933  21.225  24.638  1.00  0.00     0.036 C 
ATOM     20  C   UNL A   1      32.649  20.478  24.261  1.00  0.00     0.010 C 
ENDBRANCH   9  12
ENDBRANCH   7   9
ENDBRANCH   5   7
ENDBRANCH   3   5
ENDBRANCH   2   3
ENDBRANCH   1   2
BRANCH   1  21
ATOM     21  C   UNL A   1      31.711  30.422  25.767  1.00  0.00     0.275 C 
BRANCH  21  22
ATOM     22  O   UNL A   1      32.849  30.215  26.627  1.00  0.00    -0.458 OA
BRANCH  22  23
ATOM     23  C   UNL A   1      33.384  31.345  27.149  1.00  0.00     0.338 C 
ATOM     24  O   UNL A   1      32.825  32.422  27.287  1.00  0.00    -0.246 OA
BRANCH  23  25
ATOM     25  C   UNL A   1      34.717  31.067  27.720  1.00  0.00     0.060 A 
ATOM     26  C   UNL A   1      35.021  29.734  28.032  1.00  0.00     0.016 A 
ATOM     27  C   UNL A   1      35.632  32.082  27.999  1.00  0.00     0.016 A 
ATOM     28  C   UNL A   1      36.228  29.408  28.638  1.00  0.00     0.010 A 
ATOM     29  C   UNL A   1      36.836  31.758  28.634  1.00  0.00     0.010 A 
ATOM     30  C   UNL A   1      37.125  30.424  28.976  1.00  0.00    -0.014 A 
BRANCH  30  31
ATOM     31  C   UNL A   1      38.288  30.106  29.833  1.00  0.00     0.031 A 
ATOM     32  C   UNL A   1      39.345  29.187  29.293  1.00  0.00     0.074 A 
ATOM     33  C   UNL A   1      38.419  30.654  31.052  1.00  0.00     0.049 A 
ATOM     34  N   UNL A   1      40.388  28.674  29.892  1.00  0.00    -0.248 NA
ATOM     35  C   UNL A   1      39.204  28.792  27.883  1.00  0.00     0.031 C 
ATOM     36  C   UNL A   1      37.502  31.627  31.644  1.00  0.00     0.029 A 
ATOM     37  N   UNL A   1      39.378  30.462  32.014  1.00  0.00    -0.354 N 
ATOM     38  C   UNL A   1      41.014  27.881  28.941  1.00  0.00     0.074 A 
ATOM     39  C   UNL A   1      40.229  27.969  27.728  1.00  0.00     0.031 C 
ATOM     40  C   UNL A   1      37.934  31.934  32.879  1.00  0.00     0.029 A 
ATOM     41  C   UNL A   1      39.128  31.146  33.177  1.00  0.00     0.049 A 
ATOM     42  H   UNL A   1      40.168  29.890  31.883  1.00  0.00     0.167 HD
ATOM     43  C   UNL A   1      42.141  27.143  29.072  1.00  0.00     0.037 A 
ATOM     44  C   UNL A   1      39.775  31.107  34.358  1.00  0.00     0.037 A 
ATOM     45  C   UNL A   1      42.920  27.070  30.279  1.00  0.00     0.049 A 
ATOM     46  C   UNL A   1      40.983  30.221  34.505  1.00  0.00     0.074 A 
ATOM     47  C   UNL A   1      44.073  26.348  30.522  1.00  0.00     0.029 A 
ATOM     48  N   UNL A   1      42.617  27.750  31.450  1.00  0.00    -0.354 N 
ATOM     49  N   UNL A   1      41.556  29.446  33.614  1.00  0.00    -0.248 NA
ATOM     50  C   UNL A   1      41.630  30.195  35.824  1.00  0.00     0.031 C 
ATOM     51  C   UNL A   1      44.447  26.558  31.854  1.00  0.00     0.029 A 
ATOM     52  C   UNL A   1      43.553  27.449  32.426  1.00  0.00     0.049 A 
ATOM     53  H   UNL A   1      41.851  28.357  31.570  1.00  0.00     0.167 HD
ATOM     54  C   UNL A   1      42.642  28.865  34.253  1.00  0.00     0.074 A 
ATOM     55  C   UNL A   1      42.654  29.380  35.607  1.00  0.00     0.031 C 
ATOM     56  C   UNL A   1      43.551  27.984  33.765  1.00  0.00     0.037 A 
BRANCH  43  57
ATOM     57  C   UNL A   1      42.567  26.323  27.892  1.00  0.00     0.064 A 
ATOM     58  C   UNL A   1      43.519  26.786  26.971  1.00  0.00     0.173 A 
ATOM     59  C   UNL A   1      42.015  25.049  27.683  1.00  0.00     0.173 A 
ATOM     60  F   UNL A   1      44.059  28.005  27.114  1.00  0.00    -0.203 F 
ATOM     61  C   UNL A   1      43.883  26.014  25.870  1.00  0.00     0.198 A 
ATOM     62  C   UNL A   1      42.402  24.270  26.596  1.00  0.00     0.198 A 
ATOM     63  F   UNL A   1      41.100  24.561  28.533  1.00  0.00    -0.203 F 
ATOM     64  F   UNL A   1      44.756  26.497  24.975  1.00  0.00    -0.200 F 
ATOM     65  C   UNL A   1      43.329  24.755  25.686  1.00  0.00     0.200 A 
ATOM     66  F   UNL A   1      41.871  23.052  26.425  1.00  0.00    -0.200 F 
ATOM     67  F   UNL A   1      43.680  24.015  24.626  1.00  0.00    -0.200 F 
ENDBRANCH  43  57
BRANCH  44  68
ATOM     68  C   UNL A   1      39.273  31.911  35.502  1.00  0.00     0.064 A 
ATOM     69  C   UNL A   1      38.411  31.354  36.456  1.00  0.00     0.173 A 
ATOM     70  C   UNL A   1      39.642  33.255  35.661  1.00  0.00     0.173 A 
ATOM     71  F   UNL A   1      38.006  30.081  36.331  1.00  0.00    -0.203 F 
ATOM     72  C   UNL A   1      37.928  32.115  37.520  1.00  0.00     0.198 A 
ATOM     73  C   UNL A   1      39.181  34.007  36.739  1.00  0.00     0.198 A 
ATOM     74  F   UNL A   1      40.459  33.837  34.772  1.00  0.00    -0.203 F 
ATOM     75  F   UNL A   1      37.072  31.570  38.395  1.00  0.00    -0.200 F 
ATOM     76  C   UNL A   1      38.319  33.437  37.665  1.00  0.00     0.200 A 
ATOM     77  F   UNL A   1      39.566  35.282  36.879  1.00  0.00    -0.200 F 
ATOM     78  F   UNL A   1      37.857  34.167  38.689  1.00  0.00    -0.200 F 
ENDBRANCH  44  68
BRANCH  56  79
ATOM     79  C   UNL A   1      44.655  27.553  34.683  1.00  0.00     0.064 A 
ATOM     80  C   UNL A   1      44.546  26.404  35.478  1.00  0.00     0.173 A 
ATOM     81  C   UNL A   1      45.859  28.273  34.726  1.00  0.00     0.173 A 
ATOM     82  F   UNL A   1      43.409  25.691  35.481  1.00  0.00    -0.203 F 
ATOM     83  C   UNL A   1      45.596  26.002  36.300  1.00  0.00     0.198 A 
ATOM     84  C   UNL A   1      46.916  27.853  35.528  1.00  0.00     0.198 A 
ATOM     85  F   UNL A   1      46.016  29.375  33.978  1.00  0.00    -0.203 F 
ATOM     86  F   UNL A   1      45.456  24.922  37.081  1.00  0.00    -0.200 F 
ATOM     87  C   UNL A   1      46.781  26.721  36.318  1.00  0.00     0.200 A 
ATOM     88  F   UNL A   1      48.065  28.542  35.535  1.00  0.00    -0.200 F 
ATOM     89  F   UNL A   1      47.794  26.326  37.103  1.00  0.00    -0.200 F 
ENDBRANCH  56  79
ENDBRANCH  30  31
ENDBRANCH  23  25
ENDBRANCH  22  23
ENDBRANCH  21  22
ENDBRANCH   1  21
TORSDOF 14
ENDMDL
MODEL 3
REMARK VINA RESULT:     -10.6      5.825     11.994
REMARK SMILES C[C@@H](NS(=O)(=O)c1ccc2c(c1)CCC2)C(=O)OCCOC(=O)c1ccc(-c2c3nc(c(-c4c(F)c(F)c(F)c(F)c4F)c4ccc([nH]4)c(-c4c(F)c(F)c(F)c(F)c4F)c4nc(c(-c5c(F)c(F)c(F)c(F)c5F)c5ccc2[nH]5)C=C4)C=C3)cc1
REMARK SMILES IDX 19 1 18 2 16 3 17 4 2 5 1 6 3 7 4 9 5 10 6 11 7 12 8 13
REMARK SMILES IDX 12 14 9 15 11 16 10 17 13 18 15 19 14 20 20 21 21 22 22 23
REMARK SMILES IDX 23 24 24 25 25 26 86 27 26 28 85 29 27 30 28 31 29 32 79 33
REMARK SMILES IDX 30 34 84 35 78 36 80 37 31 38 83 39 77 40 76 41 32 43 64 44
REMARK SMILES IDX 44 45 63 46 45 47 48 48 62 49 81 50 46 51 47 52 61 54 82 55
REMARK SMILES IDX 49 56 33 57 34 58 42 59 35 60 36 61 40 62 43 63 37 64 38 65
REMARK SMILES IDX 41 66 39 67 65 68 66 69 74 70 67 71 68 72 72 73 75 74 69 75
REMARK SMILES IDX 70 76 73 77 71 78 50 79 51 80 59 81 52 82 53 83 57 84 60 85
REMARK SMILES IDX 54 86 55 87 58 88 56 89
REMARK H PARENT 3 8 80 42 48 53
REMARK Flexibility Score: inf
ROOT
ATOM      1  C   UNL A   1      41.944  19.994  26.092  1.00  0.00     0.274 C 
ENDROOT
BRANCH   1   2
ATOM      2  O   UNL A   1      42.651  19.154  25.155  1.00  0.00    -0.461 OA
BRANCH   2   3
ATOM      3  C   UNL A   1      43.731  18.495  25.656  1.00  0.00     0.324 C 
ATOM      4  O   UNL A   1      43.672  17.676  26.566  1.00  0.00    -0.250 OA
BRANCH   3   5
ATOM      5  C   UNL A   1      45.053  18.920  25.030  1.00  0.00     0.176 C 
ATOM      6  C   UNL A   1      44.931  19.225  23.541  1.00  0.00     0.038 C 
BRANCH   5   7
ATOM      7  N   UNL A   1      45.641  20.081  25.734  1.00  0.00    -0.197 NA
ATOM      8  H   UNL A   1      46.629  19.876  25.881  1.00  0.00     0.142 HD
BRANCH   7   9
ATOM      9  S   UNL A   1      45.550  21.602  24.998  1.00  0.00     0.241 S 
ATOM     10  O   UNL A   1      46.778  21.790  24.251  1.00  0.00    -0.207 OA
ATOM     11  O   UNL A   1      44.260  21.647  24.351  1.00  0.00    -0.207 OA
BRANCH   9  12
ATOM     12  C   UNL A   1      45.498  22.739  26.357  1.00  0.00     0.082 A 
ATOM     13  C   UNL A   1      46.519  23.699  26.494  1.00  0.00     0.022 A 
ATOM     14  C   UNL A   1      44.512  22.578  27.337  1.00  0.00     0.025 A 
ATOM     15  C   UNL A   1      46.611  24.462  27.658  1.00  0.00     0.005 A 
ATOM     16  C   UNL A   1      44.604  23.363  28.475  1.00  0.00    -0.043 A 
ATOM     17  C   UNL A   1      45.655  24.274  28.642  1.00  0.00    -0.045 A 
ATOM     18  C   UNL A   1      43.740  23.317  29.695  1.00  0.00     0.036 C 
ATOM     19  C   UNL A   1      45.620  24.878  30.012  1.00  0.00     0.036 C 
ATOM     20  C   UNL A   1      44.165  24.607  30.414  1.00  0.00     0.010 C 
ENDBRANCH   9  12
ENDBRANCH   7   9
ENDBRANCH   5   7
ENDBRANCH   3   5
ENDBRANCH   2   3
ENDBRANCH   1   2
BRANCH   1  21
ATOM     21  C   UNL A   1      40.423  19.785  26.078  1.00  0.00     0.275 C 
BRANCH  21  22
ATOM     22  O   UNL A   1      39.723  20.746  26.892  1.00  0.00    -0.458 OA
BRANCH  22  23
ATOM     23  C   UNL A   1      39.150  21.765  26.209  1.00  0.00     0.338 C 
ATOM     24  O   UNL A   1      38.281  21.675  25.355  1.00  0.00    -0.246 OA
BRANCH  23  25
ATOM     25  C   UNL A   1      39.582  23.064  26.762  1.00  0.00     0.060 A 
ATOM     26  C   UNL A   1      38.998  24.221  26.227  1.00  0.00     0.016 A 
ATOM     27  C   UNL A   1      40.573  23.163  27.739  1.00  0.00     0.016 A 
ATOM     28  C   UNL A   1      39.408  25.480  26.649  1.00  0.00     0.010 A 
ATOM     29  C   UNL A   1      41.006  24.430  28.145  1.00  0.00     0.010 A 
ATOM     30  C   UNL A   1      40.441  25.590  27.583  1.00  0.00    -0.014 A 
BRANCH  30  31
ATOM     31  C   UNL A   1      41.039  26.917  27.846  1.00  0.00     0.031 A 
ATOM     32  C   UNL A   1      42.450  27.167  27.402  1.00  0.00     0.074 A 
ATOM     33  C   UNL A   1      40.326  27.891  28.434  1.00  0.00     0.049 A 
ATOM     34  N   UNL A   1      43.221  28.200  27.620  1.00  0.00    -0.248 NA
ATOM     35  C   UNL A   1      43.078  26.104  26.602  1.00  0.00     0.031 C 
ATOM     36  C   UNL A   1      38.921  27.791  28.828  1.00  0.00     0.029 A 
ATOM     37  N   UNL A   1      40.694  29.159  28.809  1.00  0.00    -0.354 N 
ATOM     38  C   UNL A   1      44.429  27.902  27.005  1.00  0.00     0.074 A 
ATOM     39  C   UNL A   1      44.295  26.589  26.414  1.00  0.00     0.031 C 
ATOM     40  C   UNL A   1      38.550  28.946  29.407  1.00  0.00     0.029 A 
ATOM     41  C   UNL A   1      39.701  29.844  29.464  1.00  0.00     0.049 A 
ATOM     42  H   UNL A   1      41.583  29.540  28.625  1.00  0.00     0.167 HD
ATOM     43  C   UNL A   1      45.550  28.660  26.944  1.00  0.00     0.037 A 
ATOM     44  C   UNL A   1      39.737  31.046  30.071  1.00  0.00     0.037 A 
ATOM     45  C   UNL A   1      45.669  29.970  27.526  1.00  0.00     0.049 A 
ATOM     46  C   UNL A   1      41.017  31.838  30.056  1.00  0.00     0.074 A 
ATOM     47  C   UNL A   1      46.761  30.818  27.528  1.00  0.00     0.029 A 
ATOM     48  N   UNL A   1      44.653  30.618  28.213  1.00  0.00    -0.354 N 
ATOM     49  N   UNL A   1      42.169  31.543  29.500  1.00  0.00    -0.248 NA
ATOM     50  C   UNL A   1      41.007  33.129  30.759  1.00  0.00     0.031 C 
ATOM     51  C   UNL A   1      46.419  31.965  28.253  1.00  0.00     0.029 A 
ATOM     52  C   UNL A   1      45.099  31.851  28.661  1.00  0.00     0.049 A 
ATOM     53  H   UNL A   1      43.750  30.257  28.361  1.00  0.00     0.167 HD
ATOM     54  C   UNL A   1      43.008  32.617  29.762  1.00  0.00     0.074 A 
ATOM     55  C   UNL A   1      42.232  33.576  30.521  1.00  0.00     0.031 C 
ATOM     56  C   UNL A   1      44.304  32.795  29.406  1.00  0.00     0.037 A 
BRANCH  43  57
ATOM     57  C   UNL A   1      46.745  28.065  26.261  1.00  0.00     0.064 A 
ATOM     58  C   UNL A   1      46.858  28.027  24.863  1.00  0.00     0.173 A 
ATOM     59  C   UNL A   1      47.795  27.528  27.021  1.00  0.00     0.173 A 
ATOM     60  F   UNL A   1      45.872  28.508  24.093  1.00  0.00    -0.203 F 
ATOM     61  C   UNL A   1      47.969  27.450  24.252  1.00  0.00     0.198 A 
ATOM     62  C   UNL A   1      48.915  26.976  26.406  1.00  0.00     0.198 A 
ATOM     63  F   UNL A   1      47.735  27.538  28.361  1.00  0.00    -0.203 F 
ATOM     64  F   UNL A   1      48.034  27.379  22.915  1.00  0.00    -0.200 F 
ATOM     65  C   UNL A   1      48.998  26.930  25.023  1.00  0.00     0.200 A 
ATOM     66  F   UNL A   1      49.912  26.481  27.152  1.00  0.00    -0.200 F 
ATOM     67  F   UNL A   1      50.066  26.375  24.432  1.00  0.00    -0.200 F 
ENDBRANCH  43  57
BRANCH  44  68
ATOM     68  C   UNL A   1      38.530  31.557  30.769  1.00  0.00     0.064 A 
ATOM     69  C   UNL A   1      38.344  31.348  32.142  1.00  0.00     0.173 A 
ATOM     70  C   UNL A   1      37.535  32.263  30.075  1.00  0.00     0.173 A 
ATOM     71  F   UNL A   1      39.252  30.653  32.842  1.00  0.00    -0.203 F 
ATOM     72  C   UNL A   1      37.201  31.814  32.791  1.00  0.00     0.198 A 
ATOM     73  C   UNL A   1      36.408  32.752  30.730  1.00  0.00     0.198 A 
ATOM     74  F   UNL A   1      37.663  32.483  28.759  1.00  0.00    -0.203 F 
ATOM     75  F   UNL A   1      37.027  31.564  34.096  1.00  0.00    -0.200 F 
ATOM     76  C   UNL A   1      36.239  32.522  32.088  1.00  0.00     0.200 A 
ATOM     77  F   UNL A   1      35.484  33.441  30.047  1.00  0.00    -0.200 F 
ATOM     78  F   UNL A   1      35.144  32.973  32.713  1.00  0.00    -0.200 F 
ENDBRANCH  44  68
BRANCH  56  79
ATOM     79  C   UNL A   1      44.954  34.090  29.795  1.00  0.00     0.064 A 
ATOM     80  C   UNL A   1      45.602  34.246  31.029  1.00  0.00     0.173 A 
ATOM     81  C   UNL A   1      44.972  35.169  28.899  1.00  0.00     0.173 A 
ATOM     82  F   UNL A   1      45.600  33.247  31.924  1.00  0.00    -0.203 F 
ATOM     83  C   UNL A   1      46.228  35.446  31.359  1.00  0.00     0.198 A 
ATOM     84  C   UNL A   1      45.622  36.357  29.221  1.00  0.00     0.198 A 
ATOM     85  F   UNL A   1      44.373  35.066  27.703  1.00  0.00    -0.203 F 
ATOM     86  F   UNL A   1      46.809  35.588  32.559  1.00  0.00    -0.200 F 
ATOM     87  C   UNL A   1      46.244  36.496  30.453  1.00  0.00     0.200 A 
ATOM     88  F   UNL A   1      45.647  37.366  28.340  1.00  0.00    -0.200 F 
ATOM     89  F   UNL A   1      46.856  37.646  30.770  1.00  0.00    -0.200 F 
ENDBRANCH  56  79
ENDBRANCH  30  31
ENDBRANCH  23  25
ENDBRANCH  22  23
ENDBRANCH  21  22
ENDBRANCH   1  21
TORSDOF 14
ENDMDL
