MODEL 1
REMARK VINA RESULT:     -12.0      0.000      0.000
REMARK SMILES C[C@H]([C@@H](C)C(=O)OCCOC(=O)c1ccc(-c2c3nc(c(-c4c(F)c(F)c(F)c(F)c4F)c4ccc([nH]4)c(-c4c(F)c(F)c(F)c(F)c4F)c4nc(c(-c5c(F)c(F)c(F)c(F)c5F)c5ccc2[nH]5)C=C4)C=C3)cc1)[S@@](=O)c1ccc2ccccc2c1
REMARK SMILES IDX 8 1 7 2 5 3 6 4 3 5 4 6 2 7 1 8 76 9 77 10 78 11 79 12 87 13
REMARK SMILES IDX 80 14 86 15 81 16 85 17 82 18 84 19 83 20 9 21 10 22 11 23
REMARK SMILES IDX 12 24 13 25 14 26 75 27 15 28 74 29 16 30 17 31 18 32 68 33
REMARK SMILES IDX 19 34 73 35 67 36 69 37 20 38 72 39 66 40 65 41 21 43 53 44
REMARK SMILES IDX 33 45 52 46 34 47 37 48 51 49 70 50 35 51 36 52 50 54 71 55
REMARK SMILES IDX 38 56 22 57 23 58 31 59 24 60 25 61 29 62 32 63 26 64 27 65
REMARK SMILES IDX 30 66 28 67 54 68 55 69 63 70 56 71 57 72 61 73 64 74 58 75
REMARK SMILES IDX 59 76 62 77 60 78 39 79 40 80 48 81 41 82 42 83 46 84 49 85
REMARK SMILES IDX 43 86 44 87 47 88 45 89
REMARK H PARENT 69 42 37 53
REMARK Flexibility Score: inf
ROOT
ATOM      1  C   UNL A   1      31.545  29.091  26.776  1.00  0.00     0.274 C 
ENDROOT
BRANCH   1   2
ATOM      2  O   UNL A   1      31.230  28.052  25.825  1.00  0.00    -0.462 OA
BRANCH   2   3
ATOM      3  C   UNL A   1      31.683  26.815  26.140  1.00  0.00     0.309 C 
ATOM      4  O   UNL A   1      31.384  26.198  27.158  1.00  0.00    -0.252 OA
BRANCH   3   5
ATOM      5  C   UNL A   1      32.669  26.242  25.134  1.00  0.00     0.112 C 
ATOM      6  C   UNL A   1      34.048  26.313  25.801  1.00  0.00     0.021 C 
BRANCH   5   7
ATOM      7  C   UNL A   1      32.665  26.867  23.725  1.00  0.00     0.095 C 
ATOM      8  C   UNL A   1      33.745  27.926  23.502  1.00  0.00     0.023 C 
BRANCH   7   9
ATOM      9  S   UNL A   1      32.622  25.635  22.373  1.00  0.00     0.057 S 
ATOM     10  O   UNL A   1      33.517  26.148  21.281  1.00  0.00    -0.254 OA
BRANCH   9  11
ATOM     11  C   UNL A   1      33.408  24.116  22.961  1.00  0.00     0.040 A 
ATOM     12  C   UNL A   1      32.560  23.102  23.429  1.00  0.00     0.018 A 
ATOM     13  C   UNL A   1      34.785  23.939  23.118  1.00  0.00     0.026 A 
ATOM     14  C   UNL A   1      33.066  21.955  24.048  1.00  0.00     0.010 A 
ATOM     15  C   UNL A   1      35.317  22.794  23.747  1.00  0.00    -0.017 A 
ATOM     16  C   UNL A   1      34.444  21.794  24.226  1.00  0.00    -0.018 A 
ATOM     17  C   UNL A   1      36.701  22.638  23.933  1.00  0.00     0.009 A 
ATOM     18  C   UNL A   1      34.973  20.671  24.881  1.00  0.00     0.009 A 
ATOM     19  C   UNL A   1      37.212  21.526  24.603  1.00  0.00     0.001 A 
ATOM     20  C   UNL A   1      36.350  20.543  25.074  1.00  0.00     0.001 A 
ENDBRANCH   9  11
ENDBRANCH   7   9
ENDBRANCH   5   7
ENDBRANCH   3   5
ENDBRANCH   2   3
ENDBRANCH   1   2
BRANCH   1  21
ATOM     21  C   UNL A   1      31.795  30.431  26.084  1.00  0.00     0.275 C 
BRANCH  21  22
ATOM     22  O   UNL A   1      33.193  30.766  26.145  1.00  0.00    -0.458 OA
BRANCH  22  23
ATOM     23  C   UNL A   1      33.556  31.596  27.146  1.00  0.00     0.338 C 
ATOM     24  O   UNL A   1      32.946  32.563  27.572  1.00  0.00    -0.246 OA
BRANCH  23  25
ATOM     25  C   UNL A   1      34.851  31.172  27.700  1.00  0.00     0.060 A 
ATOM     26  C   UNL A   1      35.041  29.849  28.100  1.00  0.00     0.016 A 
ATOM     27  C   UNL A   1      35.834  32.131  27.946  1.00  0.00     0.016 A 
ATOM     28  C   UNL A   1      36.186  29.499  28.812  1.00  0.00     0.010 A 
ATOM     29  C   UNL A   1      37.008  31.763  28.609  1.00  0.00     0.010 A 
ATOM     30  C   UNL A   1      37.175  30.454  29.088  1.00  0.00    -0.014 A 
BRANCH  30  31
ATOM     31  C   UNL A   1      38.354  30.089  29.918  1.00  0.00     0.031 A 
ATOM     32  C   UNL A   1      39.398  29.146  29.382  1.00  0.00     0.074 A 
ATOM     33  C   UNL A   1      38.505  30.619  31.147  1.00  0.00     0.049 A 
ATOM     34  N   UNL A   1      40.460  28.663  29.978  1.00  0.00    -0.248 NA
ATOM     35  C   UNL A   1      39.227  28.684  27.996  1.00  0.00     0.031 C 
ATOM     36  C   UNL A   1      37.588  31.570  31.773  1.00  0.00     0.029 A 
ATOM     37  N   UNL A   1      39.484  30.428  32.089  1.00  0.00    -0.354 N 
ATOM     38  C   UNL A   1      41.082  27.847  29.042  1.00  0.00     0.074 A 
ATOM     39  C   UNL A   1      40.258  27.863  27.853  1.00  0.00     0.031 C 
ATOM     40  C   UNL A   1      38.051  31.887  32.991  1.00  0.00     0.029 A 
ATOM     41  C   UNL A   1      39.264  31.118  33.255  1.00  0.00     0.049 A 
ATOM     42  H   UNL A   1      40.269  29.852  31.944  1.00  0.00     0.167 HD
ATOM     43  C   UNL A   1      42.247  27.165  29.155  1.00  0.00     0.037 A 
ATOM     44  C   UNL A   1      39.940  31.107  34.420  1.00  0.00     0.037 A 
ATOM     45  C   UNL A   1      43.077  27.150  30.328  1.00  0.00     0.049 A 
ATOM     46  C   UNL A   1      41.159  30.240  34.562  1.00  0.00     0.074 A 
ATOM     47  C   UNL A   1      44.294  26.517  30.519  1.00  0.00     0.029 A 
ATOM     48  N   UNL A   1      42.770  27.791  31.518  1.00  0.00    -0.354 N 
ATOM     49  N   UNL A   1      41.745  29.487  33.665  1.00  0.00    -0.248 NA
ATOM     50  C   UNL A   1      41.799  30.209  35.886  1.00  0.00     0.031 C 
ATOM     51  C   UNL A   1      44.703  26.743  31.839  1.00  0.00     0.029 A 
ATOM     52  C   UNL A   1      43.757  27.541  32.459  1.00  0.00     0.049 A 
ATOM     53  H   UNL A   1      41.969  28.341  31.674  1.00  0.00     0.167 HD
ATOM     54  C   UNL A   1      42.827  28.900  34.309  1.00  0.00     0.074 A 
ATOM     55  C   UNL A   1      42.825  29.398  35.669  1.00  0.00     0.031 C 
ATOM     56  C   UNL A   1      43.738  28.029  33.814  1.00  0.00     0.037 A 
BRANCH  43  57
ATOM     57  C   UNL A   1      42.699  26.375  27.964  1.00  0.00     0.064 A 
ATOM     58  C   UNL A   1      43.542  26.937  26.995  1.00  0.00     0.173 A 
ATOM     59  C   UNL A   1      42.322  25.033  27.811  1.00  0.00     0.173 A 
ATOM     60  F   UNL A   1      43.926  28.219  27.096  1.00  0.00    -0.203 F 
ATOM     61  C   UNL A   1      43.977  26.191  25.903  1.00  0.00     0.198 A 
ATOM     62  C   UNL A   1      42.775  24.283  26.729  1.00  0.00     0.198 A 
ATOM     63  F   UNL A   1      41.522  24.448  28.715  1.00  0.00    -0.203 F 
ATOM     64  F   UNL A   1      44.756  26.759  24.973  1.00  0.00    -0.200 F 
ATOM     65  C   UNL A   1      43.597  24.863  25.774  1.00  0.00     0.200 A 
ATOM     66  F   UNL A   1      42.415  22.998  26.608  1.00  0.00    -0.200 F 
ATOM     67  F   UNL A   1      44.021  24.144  24.725  1.00  0.00    -0.200 F 
ENDBRANCH  43  57
BRANCH  44  68
ATOM     68  C   UNL A   1      39.448  31.923  35.559  1.00  0.00     0.064 A 
ATOM     69  C   UNL A   1      38.521  31.404  36.472  1.00  0.00     0.173 A 
ATOM     70  C   UNL A   1      39.904  33.234  35.761  1.00  0.00     0.173 A 
ATOM     71  F   UNL A   1      38.036  30.165  36.302  1.00  0.00    -0.203 F 
ATOM     72  C   UNL A   1      38.067  32.167  37.545  1.00  0.00     0.198 A 
ATOM     73  C   UNL A   1      39.469  33.987  36.849  1.00  0.00     0.198 A 
ATOM     74  F   UNL A   1      40.787  33.777  34.910  1.00  0.00    -0.203 F 
ATOM     75  F   UNL A   1      37.157  31.660  38.388  1.00  0.00    -0.200 F 
ATOM     76  C   UNL A   1      38.548  33.455  37.738  1.00  0.00     0.200 A 
ATOM     77  F   UNL A   1      39.943  35.226  37.036  1.00  0.00    -0.200 F 
ATOM     78  F   UNL A   1      38.118  34.184  38.776  1.00  0.00    -0.200 F 
ENDBRANCH  44  68
BRANCH  56  79
ATOM     79  C   UNL A   1      44.813  27.559  34.747  1.00  0.00     0.064 A 
ATOM     80  C   UNL A   1      44.658  26.389  35.504  1.00  0.00     0.173 A 
ATOM     81  C   UNL A   1      46.018  28.267  34.865  1.00  0.00     0.173 A 
ATOM     82  F   UNL A   1      43.515  25.689  35.439  1.00  0.00    -0.203 F 
ATOM     83  C   UNL A   1      45.666  25.953  36.359  1.00  0.00     0.198 A 
ATOM     84  C   UNL A   1      47.032  27.816  35.706  1.00  0.00     0.198 A 
ATOM     85  F   UNL A   1      46.213  29.391  34.161  1.00  0.00    -0.203 F 
ATOM     86  F   UNL A   1      45.483  24.852  37.103  1.00  0.00    -0.200 F 
ATOM     87  C   UNL A   1      46.854  26.662  36.455  1.00  0.00     0.200 A 
ATOM     88  F   UNL A   1      48.182  28.498  35.791  1.00  0.00    -0.200 F 
ATOM     89  F   UNL A   1      47.825  26.240  37.277  1.00  0.00    -0.200 F 
ENDBRANCH  56  79
ENDBRANCH  30  31
ENDBRANCH  23  25
ENDBRANCH  22  23
ENDBRANCH  21  22
ENDBRANCH   1  21
TORSDOF 14
ENDMDL
MODEL 2
REMARK VINA RESULT:     -11.9      0.978      2.144
REMARK SMILES C[C@H]([C@@H](C)C(=O)OCCOC(=O)c1ccc(-c2c3nc(c(-c4c(F)c(F)c(F)c(F)c4F)c4ccc([nH]4)c(-c4c(F)c(F)c(F)c(F)c4F)c4nc(c(-c5c(F)c(F)c(F)c(F)c5F)c5ccc2[nH]5)C=C4)C=C3)cc1)[S@@](=O)c1ccc2ccccc2c1
REMARK SMILES IDX 8 1 7 2 5 3 6 4 3 5 4 6 2 7 1 8 76 9 77 10 78 11 79 12 87 13
REMARK SMILES IDX 80 14 86 15 81 16 85 17 82 18 84 19 83 20 9 21 10 22 11 23
REMARK SMILES IDX 12 24 13 25 14 26 75 27 15 28 74 29 16 30 17 31 18 32 68 33
REMARK SMILES IDX 19 34 73 35 67 36 69 37 20 38 72 39 66 40 65 41 21 43 53 44
REMARK SMILES IDX 33 45 52 46 34 47 37 48 51 49 70 50 35 51 36 52 50 54 71 55
REMARK SMILES IDX 38 56 22 57 23 58 31 59 24 60 25 61 29 62 32 63 26 64 27 65
REMARK SMILES IDX 30 66 28 67 54 68 55 69 63 70 56 71 57 72 61 73 64 74 58 75
REMARK SMILES IDX 59 76 62 77 60 78 39 79 40 80 48 81 41 82 42 83 46 84 49 85
REMARK SMILES IDX 43 86 44 87 47 88 45 89
REMARK H PARENT 69 42 37 53
REMARK Flexibility Score: inf
ROOT
ATOM      1  C   UNL A   1      31.454  29.258  25.194  1.00  0.00     0.274 C 
ENDROOT
BRANCH   1   2
ATOM      2  O   UNL A   1      32.273  28.115  25.523  1.00  0.00    -0.462 OA
BRANCH   2   3
ATOM      3  C   UNL A   1      31.669  27.160  26.272  1.00  0.00     0.309 C 
ATOM      4  O   UNL A   1      31.393  27.275  27.461  1.00  0.00    -0.252 OA
BRANCH   3   5
ATOM      5  C   UNL A   1      31.397  25.866  25.522  1.00  0.00     0.112 C 
ATOM      6  C   UNL A   1      29.921  25.533  25.769  1.00  0.00     0.021 C 
BRANCH   5   7
ATOM      7  C   UNL A   1      32.328  24.676  25.832  1.00  0.00     0.095 C 
ATOM      8  C   UNL A   1      31.779  23.703  26.876  1.00  0.00     0.023 C 
BRANCH   7   9
ATOM      9  S   UNL A   1      32.937  23.811  24.340  1.00  0.00     0.057 S 
ATOM     10  O   UNL A   1      33.045  24.836  23.248  1.00  0.00    -0.254 OA
BRANCH   9  11
ATOM     11  C   UNL A   1      34.633  23.265  24.651  1.00  0.00     0.040 A 
ATOM     12  C   UNL A   1      34.943  21.936  24.325  1.00  0.00     0.018 A 
ATOM     13  C   UNL A   1      35.603  24.015  25.320  1.00  0.00     0.026 A 
ATOM     14  C   UNL A   1      36.174  21.369  24.667  1.00  0.00     0.010 A 
ATOM     15  C   UNL A   1      36.848  23.461  25.682  1.00  0.00    -0.017 A 
ATOM     16  C   UNL A   1      37.133  22.116  25.360  1.00  0.00    -0.018 A 
ATOM     17  C   UNL A   1      37.806  24.210  26.386  1.00  0.00     0.009 A 
ATOM     18  C   UNL A   1      38.359  21.556  25.751  1.00  0.00     0.009 A 
ATOM     19  C   UNL A   1      39.014  23.635  26.785  1.00  0.00     0.001 A 
ATOM     20  C   UNL A   1      39.290  22.311  26.466  1.00  0.00     0.001 A 
ENDBRANCH   9  11
ENDBRANCH   7   9
ENDBRANCH   5   7
ENDBRANCH   3   5
ENDBRANCH   2   3
ENDBRANCH   1   2
BRANCH   1  21
ATOM     21  C   UNL A   1      31.772  30.454  26.092  1.00  0.00     0.275 C 
BRANCH  21  22
ATOM     22  O   UNL A   1      33.195  30.574  26.270  1.00  0.00    -0.458 OA
BRANCH  22  23
ATOM     23  C   UNL A   1      33.599  31.466  27.199  1.00  0.00     0.338 C 
ATOM     24  O   UNL A   1      33.019  32.474  27.568  1.00  0.00    -0.246 OA
BRANCH  23  25
ATOM     25  C   UNL A   1      34.898  31.054  27.753  1.00  0.00     0.060 A 
ATOM     26  C   UNL A   1      35.113  29.724  28.116  1.00  0.00     0.016 A 
ATOM     27  C   UNL A   1      35.856  32.026  28.037  1.00  0.00     0.016 A 
ATOM     28  C   UNL A   1      36.260  29.378  28.829  1.00  0.00     0.010 A 
ATOM     29  C   UNL A   1      37.032  31.665  28.701  1.00  0.00     0.010 A 
ATOM     30  C   UNL A   1      37.224  30.346  29.142  1.00  0.00    -0.014 A 
BRANCH  30  31
ATOM     31  C   UNL A   1      38.403  29.983  29.972  1.00  0.00     0.031 A 
ATOM     32  C   UNL A   1      39.450  29.042  29.436  1.00  0.00     0.074 A 
ATOM     33  C   UNL A   1      38.552  30.511  31.202  1.00  0.00     0.049 A 
ATOM     34  N   UNL A   1      40.512  28.561  30.032  1.00  0.00    -0.248 NA
ATOM     35  C   UNL A   1      39.280  28.582  28.049  1.00  0.00     0.031 C 
ATOM     36  C   UNL A   1      37.633  31.459  31.829  1.00  0.00     0.029 A 
ATOM     37  N   UNL A   1      39.531  30.321  32.145  1.00  0.00    -0.354 N 
ATOM     38  C   UNL A   1      41.137  27.747  29.096  1.00  0.00     0.074 A 
ATOM     39  C   UNL A   1      40.313  27.763  27.906  1.00  0.00     0.031 C 
ATOM     40  C   UNL A   1      38.094  31.776  33.048  1.00  0.00     0.029 A 
ATOM     41  C   UNL A   1      39.309  31.009  33.312  1.00  0.00     0.049 A 
ATOM     42  H   UNL A   1      40.318  29.747  31.999  1.00  0.00     0.167 HD
ATOM     43  C   UNL A   1      42.303  27.068  29.208  1.00  0.00     0.037 A 
ATOM     44  C   UNL A   1      39.984  30.998  34.477  1.00  0.00     0.037 A 
ATOM     45  C   UNL A   1      43.133  27.052  30.382  1.00  0.00     0.049 A 
ATOM     46  C   UNL A   1      41.204  30.133  34.619  1.00  0.00     0.074 A 
ATOM     47  C   UNL A   1      44.350  26.422  30.574  1.00  0.00     0.029 A 
ATOM     48  N   UNL A   1      42.823  27.691  31.573  1.00  0.00    -0.354 N 
ATOM     49  N   UNL A   1      41.793  29.382  33.722  1.00  0.00    -0.248 NA
ATOM     50  C   UNL A   1      41.843  30.102  35.943  1.00  0.00     0.031 C 
ATOM     51  C   UNL A   1      44.758  26.647  31.893  1.00  0.00     0.029 A 
ATOM     52  C   UNL A   1      43.810  27.443  32.514  1.00  0.00     0.049 A 
ATOM     53  H   UNL A   1      42.021  28.240  31.728  1.00  0.00     0.167 HD
ATOM     54  C   UNL A   1      42.876  28.797  34.365  1.00  0.00     0.074 A 
ATOM     55  C   UNL A   1      42.871  29.293  35.726  1.00  0.00     0.031 C 
ATOM     56  C   UNL A   1      43.788  27.928  33.870  1.00  0.00     0.037 A 
BRANCH  43  57
ATOM     57  C   UNL A   1      42.757  26.280  28.017  1.00  0.00     0.064 A 
ATOM     58  C   UNL A   1      42.361  24.947  27.833  1.00  0.00     0.173 A 
ATOM     59  C   UNL A   1      43.558  26.872  27.030  1.00  0.00     0.173 A 
ATOM     60  F   UNL A   1      41.598  24.336  28.752  1.00  0.00    -0.203 F 
ATOM     61  C   UNL A   1      42.768  24.228  26.713  1.00  0.00     0.198 A 
ATOM     62  C   UNL A   1      43.947  26.155  25.901  1.00  0.00     0.198 A 
ATOM     63  F   UNL A   1      43.957  28.146  27.157  1.00  0.00    -0.203 F 
ATOM     64  F   UNL A   1      42.403  22.946  26.574  1.00  0.00    -0.200 F 
ATOM     65  C   UNL A   1      43.555  24.834  25.745  1.00  0.00     0.200 A 
ATOM     66  F   UNL A   1      44.701  26.744  24.962  1.00  0.00    -0.200 F 
ATOM     67  F   UNL A   1      43.941  24.141  24.664  1.00  0.00    -0.200 F 
ENDBRANCH  43  57
BRANCH  44  68
ATOM     68  C   UNL A   1      39.489  31.811  35.617  1.00  0.00     0.064 A 
ATOM     69  C   UNL A   1      38.534  31.303  36.505  1.00  0.00     0.173 A 
ATOM     70  C   UNL A   1      39.972  33.109  35.844  1.00  0.00     0.173 A 
ATOM     71  F   UNL A   1      38.023  30.078  36.311  1.00  0.00    -0.203 F 
ATOM     72  C   UNL A   1      38.076  32.064  37.579  1.00  0.00     0.198 A 
ATOM     73  C   UNL A   1      39.534  33.858  36.933  1.00  0.00     0.198 A 
ATOM     74  F   UNL A   1      40.884  33.641  35.017  1.00  0.00    -0.203 F 
ATOM     75  F   UNL A   1      37.139  31.568  38.398  1.00  0.00    -0.200 F 
ATOM     76  C   UNL A   1      38.584  33.337  37.797  1.00  0.00     0.200 A 
ATOM     77  F   UNL A   1      40.033  35.083  37.144  1.00  0.00    -0.200 F 
ATOM     78  F   UNL A   1      38.152  34.063  38.836  1.00  0.00    -0.200 F 
ENDBRANCH  44  68
BRANCH  56  79
ATOM     79  C   UNL A   1      44.864  27.460  34.803  1.00  0.00     0.064 A 
ATOM     80  C   UNL A   1      46.052  28.187  34.966  1.00  0.00     0.173 A 
ATOM     81  C   UNL A   1      44.695  26.292  35.561  1.00  0.00     0.173 A 
ATOM     82  F   UNL A   1      46.267  29.299  34.248  1.00  0.00    -0.203 F 
ATOM     83  C   UNL A   1      47.041  27.751  35.844  1.00  0.00     0.198 A 
ATOM     84  C   UNL A   1      45.677  25.871  36.454  1.00  0.00     0.198 A 
ATOM     85  F   UNL A   1      43.575  25.564  35.441  1.00  0.00    -0.203 F 
ATOM     86  F   UNL A   1      48.186  28.439  35.956  1.00  0.00    -0.200 F 
ATOM     87  C   UNL A   1      46.851  26.599  36.591  1.00  0.00     0.200 A 
ATOM     88  F   UNL A   1      45.489  24.762  37.181  1.00  0.00    -0.200 F 
ATOM     89  F   UNL A   1      47.802  26.181  37.438  1.00  0.00    -0.200 F 
ENDBRANCH  56  79
ENDBRANCH  30  31
ENDBRANCH  23  25
ENDBRANCH  22  23
ENDBRANCH  21  22
ENDBRANCH   1  21
TORSDOF 14
ENDMDL
MODEL 3
REMARK VINA RESULT:     -11.8      4.296      9.797
REMARK SMILES C[C@H]([C@@H](C)C(=O)OCCOC(=O)c1ccc(-c2c3nc(c(-c4c(F)c(F)c(F)c(F)c4F)c4ccc([nH]4)c(-c4c(F)c(F)c(F)c(F)c4F)c4nc(c(-c5c(F)c(F)c(F)c(F)c5F)c5ccc2[nH]5)C=C4)C=C3)cc1)[S@@](=O)c1ccc2ccccc2c1
REMARK SMILES IDX 8 1 7 2 5 3 6 4 3 5 4 6 2 7 1 8 76 9 77 10 78 11 79 12 87 13
REMARK SMILES IDX 80 14 86 15 81 16 85 17 82 18 84 19 83 20 9 21 10 22 11 23
REMARK SMILES IDX 12 24 13 25 14 26 75 27 15 28 74 29 16 30 17 31 18 32 68 33
REMARK SMILES IDX 19 34 73 35 67 36 69 37 20 38 72 39 66 40 65 41 21 43 53 44
REMARK SMILES IDX 33 45 52 46 34 47 37 48 51 49 70 50 35 51 36 52 50 54 71 55
REMARK SMILES IDX 38 56 22 57 23 58 31 59 24 60 25 61 29 62 32 63 26 64 27 65
REMARK SMILES IDX 30 66 28 67 54 68 55 69 63 70 56 71 57 72 61 73 64 74 58 75
REMARK SMILES IDX 59 76 62 77 60 78 39 79 40 80 48 81 41 82 42 83 46 84 49 85
REMARK SMILES IDX 43 86 44 87 47 88 45 89
REMARK H PARENT 69 42 37 53
REMARK Flexibility Score: inf
ROOT
ATOM      1  C   UNL A   1      35.377  21.244  24.650  1.00  0.00     0.274 C 
ENDROOT
BRANCH   1   2
ATOM      2  O   UNL A   1      35.300  22.562  24.066  1.00  0.00    -0.462 OA
BRANCH   2   3
ATOM      3  C   UNL A   1      34.053  22.988  23.750  1.00  0.00     0.309 C 
ATOM      4  O   UNL A   1      33.500  22.795  22.672  1.00  0.00    -0.252 OA
BRANCH   3   5
ATOM      5  C   UNL A   1      33.381  23.802  24.844  1.00  0.00     0.112 C 
ATOM      6  C   UNL A   1      34.499  24.589  25.538  1.00  0.00     0.021 C 
BRANCH   5   7
ATOM      7  C   UNL A   1      32.500  23.027  25.844  1.00  0.00     0.095 C 
ATOM      8  C   UNL A   1      33.125  22.848  27.228  1.00  0.00     0.023 C 
BRANCH   7   9
ATOM      9  S   UNL A   1      30.780  23.643  25.943  1.00  0.00     0.057 S 
ATOM     10  O   UNL A   1      30.300  23.390  27.343  1.00  0.00    -0.254 OA
BRANCH   9  11
ATOM     11  C   UNL A   1      30.809  25.443  25.766  1.00  0.00     0.040 A 
ATOM     12  C   UNL A   1      30.422  25.966  24.524  1.00  0.00     0.018 A 
ATOM     13  C   UNL A   1      31.322  26.330  26.716  1.00  0.00     0.026 A 
ATOM     14  C   UNL A   1      30.555  27.327  24.231  1.00  0.00     0.010 A 
ATOM     15  C   UNL A   1      31.474  27.704  26.439  1.00  0.00    -0.017 A 
ATOM     16  C   UNL A   1      31.094  28.207  25.176  1.00  0.00    -0.018 A 
ATOM     17  C   UNL A   1      32.024  28.585  27.386  1.00  0.00     0.009 A 
ATOM     18  C   UNL A   1      31.277  29.569  24.890  1.00  0.00     0.009 A 
ATOM     19  C   UNL A   1      32.218  29.934  27.082  1.00  0.00     0.001 A 
ATOM     20  C   UNL A   1      31.842  30.425  25.837  1.00  0.00     0.001 A 
ENDBRANCH   9  11
ENDBRANCH   7   9
ENDBRANCH   5   7
ENDBRANCH   3   5
ENDBRANCH   2   3
ENDBRANCH   1   2
BRANCH   1  21
ATOM     21  C   UNL A   1      36.453  21.171  25.734  1.00  0.00     0.275 C 
BRANCH  21  22
ATOM     22  O   UNL A   1      37.697  21.692  25.230  1.00  0.00    -0.458 OA
BRANCH  22  23
ATOM     23  C   UNL A   1      38.795  21.401  25.960  1.00  0.00     0.338 C 
ATOM     24  O   UNL A   1      39.294  20.305  26.152  1.00  0.00    -0.246 OA
BRANCH  23  25
ATOM     25  C   UNL A   1      39.356  22.636  26.529  1.00  0.00     0.060 A 
ATOM     26  C   UNL A   1      38.862  23.878  26.129  1.00  0.00     0.016 A 
ATOM     27  C   UNL A   1      40.471  22.556  27.363  1.00  0.00     0.016 A 
ATOM     28  C   UNL A   1      39.528  25.042  26.506  1.00  0.00     0.010 A 
ATOM     29  C   UNL A   1      41.102  23.729  27.788  1.00  0.00     0.010 A 
ATOM     30  C   UNL A   1      40.663  24.981  27.327  1.00  0.00    -0.014 A 
BRANCH  30  31
ATOM     31  C   UNL A   1      41.414  26.221  27.657  1.00  0.00     0.031 A 
ATOM     32  C   UNL A   1      40.753  27.323  28.443  1.00  0.00     0.074 A 
ATOM     33  C   UNL A   1      42.697  26.357  27.272  1.00  0.00     0.049 A 
ATOM     34  N   UNL A   1      41.224  28.500  28.773  1.00  0.00    -0.248 NA
ATOM     35  C   UNL A   1      39.385  27.068  28.921  1.00  0.00     0.031 C 
ATOM     36  C   UNL A   1      43.467  25.356  26.536  1.00  0.00     0.029 A 
ATOM     37  N   UNL A   1      43.578  27.396  27.443  1.00  0.00    -0.354 N 
ATOM     38  C   UNL A   1      40.214  29.123  29.496  1.00  0.00     0.074 A 
ATOM     39  C   UNL A   1      39.089  28.213  29.521  1.00  0.00     0.031 C 
ATOM     40  C   UNL A   1      44.707  25.823  26.327  1.00  0.00     0.029 A 
ATOM     41  C   UNL A   1      44.801  27.179  26.861  1.00  0.00     0.049 A 
ATOM     42  H   UNL A   1      43.353  28.218  27.938  1.00  0.00     0.167 HD
ATOM     43  C   UNL A   1      40.232  30.332  30.105  1.00  0.00     0.037 A 
ATOM     44  C   UNL A   1      45.868  27.991  26.737  1.00  0.00     0.037 A 
ATOM     45  C   UNL A   1      41.348  31.239  30.093  1.00  0.00     0.049 A 
ATOM     46  C   UNL A   1      45.814  29.379  27.310  1.00  0.00     0.074 A 
ATOM     47  C   UNL A   1      41.469  32.471  30.715  1.00  0.00     0.029 A 
ATOM     48  N   UNL A   1      42.536  31.017  29.415  1.00  0.00    -0.354 N 
ATOM     49  N   UNL A   1      44.862  29.949  28.006  1.00  0.00    -0.248 NA
ATOM     50  C   UNL A   1      46.980  30.242  27.064  1.00  0.00     0.031 C 
ATOM     51  C   UNL A   1      42.715  33.011  30.379  1.00  0.00     0.029 A 
ATOM     52  C   UNL A   1      43.383  32.103  29.574  1.00  0.00     0.049 A 
ATOM     53  H   UNL A   1      42.747  30.208  28.895  1.00  0.00     0.167 HD
ATOM     54  C   UNL A   1      45.313  31.231  28.290  1.00  0.00     0.074 A 
ATOM     55  C   UNL A   1      46.633  31.350  27.705  1.00  0.00     0.031 C 
ATOM     56  C   UNL A   1      44.687  32.218  28.975  1.00  0.00     0.037 A 
BRANCH  43  57
ATOM     57  C   UNL A   1      38.997  30.747  30.846  1.00  0.00     0.064 A 
ATOM     58  C   UNL A   1      37.919  31.350  30.182  1.00  0.00     0.173 A 
ATOM     59  C   UNL A   1      38.871  30.502  32.221  1.00  0.00     0.173 A 
ATOM     60  F   UNL A   1      37.995  31.608  28.868  1.00  0.00    -0.203 F 
ATOM     61  C   UNL A   1      36.766  31.712  30.872  1.00  0.00     0.198 A 
ATOM     62  C   UNL A   1      37.708  30.848  32.904  1.00  0.00     0.198 A 
ATOM     63  F   UNL A   1      39.872  29.921  32.899  1.00  0.00    -0.203 F 
ATOM     64  F   UNL A   1      35.761  32.316  30.223  1.00  0.00    -0.200 F 
ATOM     65  C   UNL A   1      36.659  31.456  32.230  1.00  0.00     0.200 A 
ATOM     66  F   UNL A   1      37.601  30.592  34.215  1.00  0.00    -0.200 F 
ATOM     67  F   UNL A   1      35.545  31.800  32.892  1.00  0.00    -0.200 F 
ENDBRANCH  43  57
BRANCH  44  68
ATOM     68  C   UNL A   1      47.068  27.517  26.002  1.00  0.00     0.064 A 
ATOM     69  C   UNL A   1      47.154  27.634  24.609  1.00  0.00     0.173 A 
ATOM     70  C   UNL A   1      48.155  26.945  26.681  1.00  0.00     0.173 A 
ATOM     71  F   UNL A   1      46.127  28.148  23.915  1.00  0.00    -0.203 F 
ATOM     72  C   UNL A   1      48.283  27.195  23.921  1.00  0.00     0.198 A 
ATOM     73  C   UNL A   1      49.293  26.532  25.995  1.00  0.00     0.198 A 
ATOM     74  F   UNL A   1      48.115  26.806  28.014  1.00  0.00    -0.203 F 
ATOM     75  F   UNL A   1      48.330  27.290  22.585  1.00  0.00    -0.200 F 
ATOM     76  C   UNL A   1      49.355  26.653  24.615  1.00  0.00     0.200 A 
ATOM     77  F   UNL A   1      50.330  26.017  26.670  1.00  0.00    -0.200 F 
ATOM     78  F   UNL A   1      50.445  26.242  23.954  1.00  0.00    -0.200 F 
ENDBRANCH  44  68
BRANCH  56  79
ATOM     79  C   UNL A   1      45.424  33.514  29.134  1.00  0.00     0.064 A 
ATOM     80  C   UNL A   1      45.246  34.567  28.225  1.00  0.00     0.173 A 
ATOM     81  C   UNL A   1      46.291  33.716  30.218  1.00  0.00     0.173 A 
ATOM     82  F   UNL A   1      44.442  34.412  27.162  1.00  0.00    -0.203 F 
ATOM     83  C   UNL A   1      45.925  35.771  28.387  1.00  0.00     0.198 A 
ATOM     84  C   UNL A   1      46.951  34.930  30.388  1.00  0.00     0.198 A 
ATOM     85  F   UNL A   1      46.491  32.740  31.115  1.00  0.00    -0.203 F 
ATOM     86  F   UNL A   1      45.771  36.752  27.484  1.00  0.00    -0.200 F 
ATOM     87  C   UNL A   1      46.771  35.955  29.470  1.00  0.00     0.200 A 
ATOM     88  F   UNL A   1      47.762  35.109  31.439  1.00  0.00    -0.200 F 
ATOM     89  F   UNL A   1      47.422  37.116  29.626  1.00  0.00    -0.200 F 
ENDBRANCH  56  79
ENDBRANCH  30  31
ENDBRANCH  23  25
ENDBRANCH  22  23
ENDBRANCH  21  22
ENDBRANCH   1  21
TORSDOF 14
ENDMDL
