MODEL 1
REMARK VINA RESULT:     -13.0      0.000      0.000
REMARK SMILES COc1cc([C@@H]2CC(=O)Nc3c(C(=O)OCCOC(=O)c4ccc(-c5c6nc(c(-c7c(F)c(F)c(F)c(F)c7F)c7ccc([nH]7)c(-c7c(F)c(F)c(F)c(F)c7F)c7nc(c(-c8c(F)c(F)c(F)c(F)c8F)c8ccc5[nH]8)C=C7)C=C6)cc4)cn(-c4ccc(F)cc4)c32)c(OC)c2c1OCO2
REMARK SMILES IDX 16 1 15 2 13 3 14 4 12 5 6 6 7 7 93 8 8 9 11 10 85 11 9 12
REMARK SMILES IDX 10 13 84 14 5 16 3 17 4 18 98 19 97 20 99 21 94 22 101 23
REMARK SMILES IDX 100 24 2 25 1 26 95 27 96 28 86 29 87 30 92 31 88 32 91 33
REMARK SMILES IDX 89 34 90 35 17 36 18 37 19 38 20 39 21 40 22 41 83 42 23 43
REMARK SMILES IDX 82 44 24 45 25 46 26 47 76 48 27 49 81 50 75 51 77 52 28 53
REMARK SMILES IDX 80 54 74 55 73 56 29 58 61 59 41 60 60 61 42 62 45 63 59 64
REMARK SMILES IDX 78 65 43 66 44 67 58 69 79 70 46 71 30 72 31 73 39 74 32 75
REMARK SMILES IDX 33 76 37 77 40 78 34 79 35 80 38 81 36 82 62 83 63 84 71 85
REMARK SMILES IDX 64 86 65 87 69 88 72 89 66 90 67 91 70 92 68 93 47 94 48 95
REMARK SMILES IDX 56 96 49 97 50 98 54 99 57 100 51 101 52 102 55 103 53 104
REMARK H PARENT 10 15 77 57 45 68
REMARK Flexibility Score: inf
ROOT
ATOM      1  C   UNL A   1      33.250  28.031  26.845  1.00  0.00     0.275 C 
ENDROOT
BRANCH   1   2
ATOM      2  O   UNL A   1      32.564  27.737  25.621  1.00  0.00    -0.458 OA
BRANCH   2   3
ATOM      3  C   UNL A   1      33.276  27.028  24.694  1.00  0.00     0.341 C 
ATOM      4  O   UNL A   1      33.517  27.418  23.554  1.00  0.00    -0.246 OA
BRANCH   3   5
ATOM      5  C   UNL A   1      33.757  25.764  25.219  1.00  0.00     0.102 A 
ATOM      6  C   UNL A   1      33.343  22.331  26.508  1.00  0.00     0.082 C 
ATOM      7  C   UNL A   1      32.140  22.553  27.443  1.00  0.00     0.115 C 
ATOM      8  C   UNL A   1      33.842  23.654  26.016  1.00  0.00     0.055 A 
ATOM      9  C   UNL A   1      31.204  23.685  27.036  1.00  0.00     0.225 C 
ATOM     10  C   UNL A   1      33.054  24.778  25.941  1.00  0.00     0.078 A 
ATOM     11  N   UNL A   1      35.105  23.994  25.581  1.00  0.00    -0.317 N 
ATOM     12  O   UNL A   1      30.013  23.682  27.348  1.00  0.00    -0.275 OA
ATOM     13  N   UNL A   1      31.759  24.771  26.407  1.00  0.00    -0.324 N 
ATOM     14  C   UNL A   1      35.058  25.290  25.113  1.00  0.00     0.109 A 
ATOM     15  H   UNL A   1      31.209  25.578  26.284  1.00  0.00     0.170 HD
BRANCH   6  16
ATOM     16  C   UNL A   1      33.016  21.345  25.377  1.00  0.00     0.012 A 
ATOM     17  C   UNL A   1      33.137  19.005  24.619  1.00  0.00     0.165 A 
ATOM     18  C   UNL A   1      33.276  19.971  25.620  1.00  0.00     0.059 A 
ATOM     19  C   UNL A   1      32.653  19.421  23.394  1.00  0.00     0.211 A 
ATOM     20  C   UNL A   1      32.346  20.746  23.149  1.00  0.00     0.211 A 
ATOM     21  O   UNL A   1      32.407  18.633  22.308  1.00  0.00    -0.449 OA
ATOM     22  C   UNL A   1      32.518  21.732  24.109  1.00  0.00     0.168 A 
ATOM     23  O   UNL A   1      31.890  20.927  21.875  1.00  0.00    -0.449 OA
ATOM     24  C   UNL A   1      31.834  19.578  21.394  1.00  0.00     0.468 C 
BRANCH  17  25
ATOM     25  O   UNL A   1      33.480  17.736  24.980  1.00  0.00    -0.493 OA
ATOM     26  C   UNL A   1      34.728  17.277  24.468  1.00  0.00     0.278 C 
ENDBRANCH  17  25
BRANCH  22  27
ATOM     27  O   UNL A   1      32.268  23.056  23.931  1.00  0.00    -0.492 OA
ATOM     28  C   UNL A   1      31.005  23.489  23.456  1.00  0.00     0.278 C 
ENDBRANCH  22  27
ENDBRANCH   6  16
BRANCH  11  29
ATOM     29  C   UNL A   1      36.260  23.186  25.570  1.00  0.00     0.046 A 
ATOM     30  C   UNL A   1      36.226  21.945  24.929  1.00  0.00     0.029 A 
ATOM     31  C   UNL A   1      37.425  23.637  26.200  1.00  0.00     0.029 A 
ATOM     32  C   UNL A   1      37.343  21.114  24.974  1.00  0.00     0.041 A 
ATOM     33  C   UNL A   1      38.540  22.795  26.245  1.00  0.00     0.041 A 
ATOM     34  C   UNL A   1      38.484  21.541  25.642  1.00  0.00     0.123 A 
ATOM     35  F   UNL A   1      39.551  20.732  25.701  1.00  0.00    -0.207 F 
ENDBRANCH  11  29
ENDBRANCH   3   5
ENDBRANCH   2   3
ENDBRANCH   1   2
BRANCH   1  36
ATOM     36  C   UNL A   1      34.234  29.175  26.653  1.00  0.00     0.275 C 
BRANCH  36  37
ATOM     37  O   UNL A   1      35.518  28.865  27.192  1.00  0.00    -0.458 OA
BRANCH  37  38
ATOM     38  C   UNL A   1      35.898  29.622  28.246  1.00  0.00     0.338 C 
ATOM     39  O   UNL A   1      35.240  30.463  28.834  1.00  0.00    -0.246 OA
BRANCH  38  40
ATOM     40  C   UNL A   1      37.338  29.456  28.446  1.00  0.00     0.060 A 
ATOM     41  C   UNL A   1      38.196  29.817  27.405  1.00  0.00     0.016 A 
ATOM     42  C   UNL A   1      37.782  28.710  29.548  1.00  0.00     0.016 A 
ATOM     43  C   UNL A   1      39.486  29.323  27.418  1.00  0.00     0.010 A 
ATOM     44  C   UNL A   1      39.060  28.207  29.551  1.00  0.00     0.010 A 
ATOM     45  C   UNL A   1      39.882  28.474  28.462  1.00  0.00    -0.014 A 
BRANCH  45  46
ATOM     46  C   UNL A   1      41.264  28.037  28.507  1.00  0.00     0.031 A 
ATOM     47  C   UNL A   1      41.455  26.787  27.739  1.00  0.00     0.074 A 
ATOM     48  C   UNL A   1      42.264  28.767  29.041  1.00  0.00     0.049 A 
ATOM     49  N   UNL A   1      41.735  25.622  28.215  1.00  0.00    -0.248 NA
ATOM     50  C   UNL A   1      41.114  26.779  26.305  1.00  0.00     0.031 C 
ATOM     51  C   UNL A   1      42.174  30.146  29.529  1.00  0.00     0.029 A 
ATOM     52  N   UNL A   1      43.596  28.482  29.167  1.00  0.00    -0.354 N 
ATOM     53  C   UNL A   1      41.890  24.805  27.100  1.00  0.00     0.074 A 
ATOM     54  C   UNL A   1      41.275  25.490  25.999  1.00  0.00     0.031 C 
ATOM     55  C   UNL A   1      43.419  30.653  29.671  1.00  0.00     0.029 A 
ATOM     56  C   UNL A   1      44.388  29.598  29.425  1.00  0.00     0.049 A 
ATOM     57  H   UNL A   1      43.962  27.572  29.082  1.00  0.00     0.167 HD
ATOM     58  C   UNL A   1      42.859  23.851  27.119  1.00  0.00     0.037 A 
ATOM     59  C   UNL A   1      45.743  29.662  29.402  1.00  0.00     0.037 A 
ATOM     60  C   UNL A   1      43.289  23.594  28.471  1.00  0.00     0.049 A 
ATOM     61  C   UNL A   1      46.268  28.288  29.561  1.00  0.00     0.074 A 
ATOM     62  C   UNL A   1      42.825  22.915  29.574  1.00  0.00     0.029 A 
ATOM     63  N   UNL A   1      44.233  24.482  28.910  1.00  0.00    -0.354 N 
ATOM     64  N   UNL A   1      46.171  27.609  30.670  1.00  0.00    -0.248 NA
ATOM     65  C   UNL A   1      46.613  27.508  28.374  1.00  0.00     0.031 C 
ATOM     66  C   UNL A   1      43.501  23.466  30.704  1.00  0.00     0.029 A 
ATOM     67  C   UNL A   1      44.390  24.441  30.265  1.00  0.00     0.049 A 
ATOM     68  H   UNL A   1      44.741  25.080  28.317  1.00  0.00     0.167 HD
ATOM     69  C   UNL A   1      46.001  26.308  30.248  1.00  0.00     0.074 A 
ATOM     70  C   UNL A   1      46.467  26.276  28.869  1.00  0.00     0.031 C 
ATOM     71  C   UNL A   1      45.159  25.471  30.918  1.00  0.00     0.037 A 
BRANCH  58  72
ATOM     72  C   UNL A   1      43.816  23.597  25.968  1.00  0.00     0.064 A 
ATOM     73  C   UNL A   1      43.941  22.278  25.482  1.00  0.00     0.173 A 
ATOM     74  C   UNL A   1      44.842  24.485  25.571  1.00  0.00     0.173 A 
ATOM     75  F   UNL A   1      43.040  21.342  25.816  1.00  0.00    -0.203 F 
ATOM     76  C   UNL A   1      45.045  21.869  24.727  1.00  0.00     0.198 A 
ATOM     77  C   UNL A   1      45.914  24.084  24.777  1.00  0.00     0.198 A 
ATOM     78  F   UNL A   1      44.925  25.740  26.026  1.00  0.00    -0.203 F 
ATOM     79  F   UNL A   1      45.182  20.578  24.397  1.00  0.00    -0.200 F 
ATOM     80  C   UNL A   1      46.032  22.771  24.380  1.00  0.00     0.200 A 
ATOM     81  F   UNL A   1      46.876  24.969  24.477  1.00  0.00    -0.200 F 
ATOM     82  F   UNL A   1      47.121  22.369  23.711  1.00  0.00    -0.200 F 
ENDBRANCH  58  72
BRANCH  59  83
ATOM     83  C   UNL A   1      46.629  30.796  29.055  1.00  0.00     0.064 A 
ATOM     84  C   UNL A   1      46.775  31.229  27.725  1.00  0.00     0.173 A 
ATOM     85  C   UNL A   1      47.123  31.659  30.051  1.00  0.00     0.173 A 
ATOM     86  F   UNL A   1      46.297  30.485  26.716  1.00  0.00    -0.203 F 
ATOM     87  C   UNL A   1      47.347  32.467  27.413  1.00  0.00     0.198 A 
ATOM     88  C   UNL A   1      47.699  32.892  29.739  1.00  0.00     0.198 A 
ATOM     89  F   UNL A   1      46.966  31.365  31.350  1.00  0.00    -0.203 F 
ATOM     90  F   UNL A   1      47.407  32.874  26.138  1.00  0.00    -0.200 F 
ATOM     91  C   UNL A   1      47.796  33.303  28.421  1.00  0.00     0.200 A 
ATOM     92  F   UNL A   1      48.096  33.709  30.725  1.00  0.00    -0.200 F 
ATOM     93  F   UNL A   1      48.281  34.517  28.129  1.00  0.00    -0.200 F 
ENDBRANCH  59  83
BRANCH  71  94
ATOM     94  C   UNL A   1      44.929  25.739  32.367  1.00  0.00     0.064 A 
ATOM     95  C   UNL A   1      45.756  25.286  33.406  1.00  0.00     0.173 A 
ATOM     96  C   UNL A   1      43.832  26.542  32.707  1.00  0.00     0.173 A 
ATOM     97  F   UNL A   1      46.861  24.572  33.147  1.00  0.00    -0.203 F 
ATOM     98  C   UNL A   1      45.468  25.598  34.734  1.00  0.00     0.198 A 
ATOM     99  C   UNL A   1      43.568  26.880  34.027  1.00  0.00     0.198 A 
ATOM    100  F   UNL A   1      43.030  27.025  31.744  1.00  0.00    -0.203 F 
ATOM    101  F   UNL A   1      46.255  25.140  35.719  1.00  0.00    -0.200 F 
ATOM    102  C   UNL A   1      44.379  26.400  35.042  1.00  0.00     0.200 A 
ATOM    103  F   UNL A   1      42.536  27.687  34.312  1.00  0.00    -0.200 F 
ATOM    104  F   UNL A   1      44.118  26.724  36.315  1.00  0.00    -0.200 F 
ENDBRANCH  71  94
ENDBRANCH  45  46
ENDBRANCH  38  40
ENDBRANCH  37  38
ENDBRANCH  36  37
ENDBRANCH   1  36
TORSDOF 15
ENDMDL
MODEL 2
REMARK VINA RESULT:     -13.0      1.862      6.887
REMARK SMILES COc1cc([C@@H]2CC(=O)Nc3c(C(=O)OCCOC(=O)c4ccc(-c5c6nc(c(-c7c(F)c(F)c(F)c(F)c7F)c7ccc([nH]7)c(-c7c(F)c(F)c(F)c(F)c7F)c7nc(c(-c8c(F)c(F)c(F)c(F)c8F)c8ccc5[nH]8)C=C7)C=C6)cc4)cn(-c4ccc(F)cc4)c32)c(OC)c2c1OCO2
REMARK SMILES IDX 16 1 15 2 13 3 14 4 12 5 6 6 7 7 93 8 8 9 11 10 85 11 9 12
REMARK SMILES IDX 10 13 84 14 5 16 3 17 4 18 98 19 97 20 99 21 94 22 101 23
REMARK SMILES IDX 100 24 2 25 1 26 95 27 96 28 86 29 87 30 92 31 88 32 91 33
REMARK SMILES IDX 89 34 90 35 17 36 18 37 19 38 20 39 21 40 22 41 83 42 23 43
REMARK SMILES IDX 82 44 24 45 25 46 26 47 76 48 27 49 81 50 75 51 77 52 28 53
REMARK SMILES IDX 80 54 74 55 73 56 29 58 61 59 41 60 60 61 42 62 45 63 59 64
REMARK SMILES IDX 78 65 43 66 44 67 58 69 79 70 46 71 30 72 31 73 39 74 32 75
REMARK SMILES IDX 33 76 37 77 40 78 34 79 35 80 38 81 36 82 62 83 63 84 71 85
REMARK SMILES IDX 64 86 65 87 69 88 72 89 66 90 67 91 70 92 68 93 47 94 48 95
REMARK SMILES IDX 56 96 49 97 50 98 54 99 57 100 51 101 52 102 55 103 53 104
REMARK H PARENT 10 15 77 57 45 68
REMARK Flexibility Score: inf
ROOT
ATOM      1  C   UNL A   1      31.914  28.880  26.177  1.00  0.00     0.275 C 
ENDROOT
BRANCH   1   2
ATOM      2  O   UNL A   1      33.021  28.330  25.450  1.00  0.00    -0.458 OA
BRANCH   2   3
ATOM      3  C   UNL A   1      32.738  27.250  24.661  1.00  0.00     0.341 C 
ATOM      4  O   UNL A   1      32.098  27.301  23.614  1.00  0.00    -0.246 OA
BRANCH   3   5
ATOM      5  C   UNL A   1      33.317  26.024  25.178  1.00  0.00     0.102 A 
ATOM      6  C   UNL A   1      33.169  22.574  26.480  1.00  0.00     0.082 C 
ATOM      7  C   UNL A   1      31.972  22.715  27.439  1.00  0.00     0.115 C 
ATOM      8  C   UNL A   1      33.565  23.928  25.977  1.00  0.00     0.055 A 
ATOM      9  C   UNL A   1      30.952  23.777  27.048  1.00  0.00     0.225 C 
ATOM     10  C   UNL A   1      32.699  24.994  25.915  1.00  0.00     0.078 A 
ATOM     11  N   UNL A   1      34.792  24.353  25.516  1.00  0.00    -0.317 N 
ATOM     12  O   UNL A   1      29.770  23.692  27.383  1.00  0.00    -0.275 OA
ATOM     13  N   UNL A   1      31.417  24.897  26.407  1.00  0.00    -0.324 N 
ATOM     14  C   UNL A   1      34.645  25.642  25.047  1.00  0.00     0.109 A 
ATOM     15  H   UNL A   1      30.809  25.664  26.294  1.00  0.00     0.170 HD
BRANCH   6  16
ATOM     16  C   UNL A   1      32.890  21.565  25.357  1.00  0.00     0.012 A 
ATOM     17  C   UNL A   1      33.116  19.226  24.621  1.00  0.00     0.165 A 
ATOM     18  C   UNL A   1      33.209  20.206  25.613  1.00  0.00     0.059 A 
ATOM     19  C   UNL A   1      32.618  19.609  23.391  1.00  0.00     0.211 A 
ATOM     20  C   UNL A   1      32.254  20.917  23.133  1.00  0.00     0.211 A 
ATOM     21  O   UNL A   1      32.411  18.802  22.311  1.00  0.00    -0.449 OA
ATOM     22  C   UNL A   1      32.379  21.918  24.085  1.00  0.00     0.168 A 
ATOM     23  O   UNL A   1      31.795  21.066  21.855  1.00  0.00    -0.449 OA
ATOM     24  C   UNL A   1      31.800  19.712  21.387  1.00  0.00     0.468 C 
BRANCH  17  25
ATOM     25  O   UNL A   1      33.514  17.976  24.995  1.00  0.00    -0.493 OA
ATOM     26  C   UNL A   1      34.726  17.524  24.400  1.00  0.00     0.278 C 
ENDBRANCH  17  25
BRANCH  22  27
ATOM     27  O   UNL A   1      32.072  23.228  23.893  1.00  0.00    -0.492 OA
ATOM     28  C   UNL A   1      30.817  23.598  23.348  1.00  0.00     0.278 C 
ENDBRANCH  22  27
ENDBRANCH   6  16
BRANCH  11  29
ATOM     29  C   UNL A   1      36.000  23.628  25.483  1.00  0.00     0.046 A 
ATOM     30  C   UNL A   1      36.113  22.517  24.645  1.00  0.00     0.029 A 
ATOM     31  C   UNL A   1      37.071  24.031  26.290  1.00  0.00     0.029 A 
ATOM     32  C   UNL A   1      37.281  21.757  24.659  1.00  0.00     0.041 A 
ATOM     33  C   UNL A   1      38.236  23.260  26.303  1.00  0.00     0.041 A 
ATOM     34  C   UNL A   1      38.325  22.127  25.498  1.00  0.00     0.123 A 
ATOM     35  F   UNL A   1      39.440  21.384  25.524  1.00  0.00    -0.207 F 
ENDBRANCH  11  29
ENDBRANCH   3   5
ENDBRANCH   2   3
ENDBRANCH   1   2
BRANCH   1  36
ATOM     36  C   UNL A   1      32.384  29.953  27.148  1.00  0.00     0.275 C 
BRANCH  36  37
ATOM     37  O   UNL A   1      33.657  30.481  26.778  1.00  0.00    -0.458 OA
BRANCH  37  38
ATOM     38  C   UNL A   1      34.242  31.275  27.702  1.00  0.00     0.338 C 
ATOM     39  O   UNL A   1      33.780  32.276  28.223  1.00  0.00    -0.246 OA
BRANCH  38  40
ATOM     40  C   UNL A   1      35.648  30.890  27.828  1.00  0.00     0.060 A 
ATOM     41  C   UNL A   1      35.976  29.537  27.707  1.00  0.00     0.016 A 
ATOM     42  C   UNL A   1      36.562  31.833  28.318  1.00  0.00     0.016 A 
ATOM     43  C   UNL A   1      37.197  29.113  28.194  1.00  0.00     0.010 A 
ATOM     44  C   UNL A   1      37.770  31.408  28.815  1.00  0.00     0.010 A 
ATOM     45  C   UNL A   1      38.054  30.047  28.797  1.00  0.00    -0.014 A 
BRANCH  45  46
ATOM     46  C   UNL A   1      39.367  29.602  29.221  1.00  0.00     0.031 A 
ATOM     47  C   UNL A   1      39.550  29.784  30.677  1.00  0.00     0.074 A 
ATOM     48  C   UNL A   1      40.236  28.957  28.416  1.00  0.00     0.049 A 
ATOM     49  N   UNL A   1      40.343  30.618  31.259  1.00  0.00    -0.248 NA
ATOM     50  C   UNL A   1      38.618  29.107  31.596  1.00  0.00     0.031 C 
ATOM     51  C   UNL A   1      39.975  28.475  27.057  1.00  0.00     0.029 A 
ATOM     52  N   UNL A   1      41.499  28.496  28.668  1.00  0.00    -0.354 N 
ATOM     53  C   UNL A   1      40.211  30.352  32.618  1.00  0.00     0.074 A 
ATOM     54  C   UNL A   1      38.995  29.606  32.776  1.00  0.00     0.031 C 
ATOM     55  C   UNL A   1      40.938  27.597  26.699  1.00  0.00     0.029 A 
ATOM     56  C   UNL A   1      41.955  27.565  27.738  1.00  0.00     0.049 A 
ATOM     57  H   UNL A   1      42.037  28.794  29.437  1.00  0.00     0.167 HD
ATOM     58  C   UNL A   1      41.317  30.418  33.407  1.00  0.00     0.037 A 
ATOM     59  C   UNL A   1      43.067  26.795  27.830  1.00  0.00     0.037 A 
ATOM     60  C   UNL A   1      42.365  31.157  32.747  1.00  0.00     0.049 A 
ATOM     61  C   UNL A   1      43.985  27.432  28.799  1.00  0.00     0.074 A 
ATOM     62  C   UNL A   1      42.671  32.473  32.484  1.00  0.00     0.029 A 
ATOM     63  N   UNL A   1      43.097  30.391  31.882  1.00  0.00    -0.354 N 
ATOM     64  N   UNL A   1      44.604  28.555  28.566  1.00  0.00    -0.248 NA
ATOM     65  C   UNL A   1      43.971  27.000  30.195  1.00  0.00     0.031 C 
ATOM     66  C   UNL A   1      43.588  32.466  31.390  1.00  0.00     0.029 A 
ATOM     67  C   UNL A   1      43.852  31.148  31.034  1.00  0.00     0.049 A 
ATOM     68  H   UNL A   1      43.081  29.408  31.874  1.00  0.00     0.167 HD
ATOM     69  C   UNL A   1      44.653  29.169  29.800  1.00  0.00     0.074 A 
ATOM     70  C   UNL A   1      44.433  28.110  30.776  1.00  0.00     0.031 C 
ATOM     71  C   UNL A   1      44.492  30.518  29.906  1.00  0.00     0.037 A 
BRANCH  58  72
ATOM     72  C   UNL A   1      41.679  29.370  34.443  1.00  0.00     0.064 A 
ATOM     73  C   UNL A   1      42.326  29.792  35.623  1.00  0.00     0.173 A 
ATOM     74  C   UNL A   1      41.742  27.981  34.186  1.00  0.00     0.173 A 
ATOM     75  F   UNL A   1      42.354  31.091  35.956  1.00  0.00    -0.203 F 
ATOM     76  C   UNL A   1      43.042  28.905  36.434  1.00  0.00     0.198 A 
ATOM     77  C   UNL A   1      42.415  27.094  35.023  1.00  0.00     0.198 A 
ATOM     78  F   UNL A   1      41.267  27.434  33.062  1.00  0.00    -0.203 F 
ATOM     79  F   UNL A   1      43.745  29.374  37.473  1.00  0.00    -0.200 F 
ATOM     80  C   UNL A   1      43.090  27.558  36.130  1.00  0.00     0.200 A 
ATOM     81  F   UNL A   1      42.474  25.796  34.693  1.00  0.00    -0.200 F 
ATOM     82  F   UNL A   1      43.825  26.717  36.868  1.00  0.00    -0.200 F 
ENDBRANCH  58  72
BRANCH  59  83
ATOM     83  C   UNL A   1      43.324  25.438  27.294  1.00  0.00     0.064 A 
ATOM     84  C   UNL A   1      42.568  24.331  27.716  1.00  0.00     0.173 A 
ATOM     85  C   UNL A   1      44.118  25.253  26.147  1.00  0.00     0.173 A 
ATOM     86  F   UNL A   1      41.755  24.433  28.779  1.00  0.00    -0.203 F 
ATOM     87  C   UNL A   1      42.578  23.122  27.013  1.00  0.00     0.198 A 
ATOM     88  C   UNL A   1      44.131  24.044  25.448  1.00  0.00     0.198 A 
ATOM     89  F   UNL A   1      44.818  26.271  25.627  1.00  0.00    -0.203 F 
ATOM     90  F   UNL A   1      41.792  22.111  27.408  1.00  0.00    -0.200 F 
ATOM     91  C   UNL A   1      43.349  22.984  25.871  1.00  0.00     0.200 A 
ATOM     92  F   UNL A   1      44.853  23.936  24.322  1.00  0.00    -0.200 F 
ATOM     93  F   UNL A   1      43.308  21.851  25.157  1.00  0.00    -0.200 F 
ENDBRANCH  59  83
BRANCH  71  94
ATOM     94  C   UNL A   1      44.872  31.353  28.730  1.00  0.00     0.064 A 
ATOM     95  C   UNL A   1      44.063  31.564  27.603  1.00  0.00     0.173 A 
ATOM     96  C   UNL A   1      46.108  32.012  28.781  1.00  0.00     0.173 A 
ATOM     97  F   UNL A   1      42.840  31.021  27.519  1.00  0.00    -0.203 F 
ATOM     98  C   UNL A   1      44.498  32.374  26.555  1.00  0.00     0.198 A 
ATOM     99  C   UNL A   1      46.522  32.847  27.752  1.00  0.00     0.198 A 
ATOM    100  F   UNL A   1      46.902  31.866  29.854  1.00  0.00    -0.203 F 
ATOM    101  F   UNL A   1      43.724  32.549  25.473  1.00  0.00    -0.200 F 
ATOM    102  C   UNL A   1      45.724  33.019  26.634  1.00  0.00     0.200 A 
ATOM    103  F   UNL A   1      47.690  33.496  27.854  1.00  0.00    -0.200 F 
ATOM    104  F   UNL A   1      46.129  33.821  25.640  1.00  0.00    -0.200 F 
ENDBRANCH  71  94
ENDBRANCH  45  46
ENDBRANCH  38  40
ENDBRANCH  37  38
ENDBRANCH  36  37
ENDBRANCH   1  36
TORSDOF 15
ENDMDL
MODEL 3
REMARK VINA RESULT:     -12.9      1.620      6.563
REMARK SMILES COc1cc([C@@H]2CC(=O)Nc3c(C(=O)OCCOC(=O)c4ccc(-c5c6nc(c(-c7c(F)c(F)c(F)c(F)c7F)c7ccc([nH]7)c(-c7c(F)c(F)c(F)c(F)c7F)c7nc(c(-c8c(F)c(F)c(F)c(F)c8F)c8ccc5[nH]8)C=C7)C=C6)cc4)cn(-c4ccc(F)cc4)c32)c(OC)c2c1OCO2
REMARK SMILES IDX 16 1 15 2 13 3 14 4 12 5 6 6 7 7 93 8 8 9 11 10 85 11 9 12
REMARK SMILES IDX 10 13 84 14 5 16 3 17 4 18 98 19 97 20 99 21 94 22 101 23
REMARK SMILES IDX 100 24 2 25 1 26 95 27 96 28 86 29 87 30 92 31 88 32 91 33
REMARK SMILES IDX 89 34 90 35 17 36 18 37 19 38 20 39 21 40 22 41 83 42 23 43
REMARK SMILES IDX 82 44 24 45 25 46 26 47 76 48 27 49 81 50 75 51 77 52 28 53
REMARK SMILES IDX 80 54 74 55 73 56 29 58 61 59 41 60 60 61 42 62 45 63 59 64
REMARK SMILES IDX 78 65 43 66 44 67 58 69 79 70 46 71 30 72 31 73 39 74 32 75
REMARK SMILES IDX 33 76 37 77 40 78 34 79 35 80 38 81 36 82 62 83 63 84 71 85
REMARK SMILES IDX 64 86 65 87 69 88 72 89 66 90 67 91 70 92 68 93 47 94 48 95
REMARK SMILES IDX 56 96 49 97 50 98 54 99 57 100 51 101 52 102 55 103 53 104
REMARK H PARENT 10 15 77 57 45 68
REMARK Flexibility Score: inf
ROOT
ATOM      1  C   UNL A   1      33.027  28.529  26.620  1.00  0.00     0.275 C 
ENDROOT
BRANCH   1   2
ATOM      2  O   UNL A   1      33.474  28.274  25.281  1.00  0.00    -0.458 OA
BRANCH   2   3
ATOM      3  C   UNL A   1      32.936  27.174  24.672  1.00  0.00     0.341 C 
ATOM      4  O   UNL A   1      32.112  27.216  23.762  1.00  0.00    -0.246 OA
BRANCH   3   5
ATOM      5  C   UNL A   1      33.478  25.935  25.196  1.00  0.00     0.102 A 
ATOM      6  C   UNL A   1      33.232  22.491  26.497  1.00  0.00     0.082 C 
ATOM      7  C   UNL A   1      32.029  22.662  27.444  1.00  0.00     0.115 C 
ATOM      8  C   UNL A   1      33.666  23.833  25.997  1.00  0.00     0.055 A 
ATOM      9  C   UNL A   1      31.040  23.749  27.043  1.00  0.00     0.225 C 
ATOM     10  C   UNL A   1      32.828  24.921  25.927  1.00  0.00     0.078 A 
ATOM     11  N   UNL A   1      34.908  24.228  25.549  1.00  0.00    -0.317 N 
ATOM     12  O   UNL A   1      29.853  23.694  27.367  1.00  0.00    -0.275 OA
ATOM     13  N   UNL A   1      31.540  24.857  26.406  1.00  0.00    -0.324 N 
ATOM     14  C   UNL A   1      34.798  25.520  25.077  1.00  0.00     0.109 A 
ATOM     15  H   UNL A   1      30.952  25.638  26.286  1.00  0.00     0.170 HD
BRANCH   6  16
ATOM     16  C   UNL A   1      32.939  21.488  25.372  1.00  0.00     0.012 A 
ATOM     17  C   UNL A   1      33.134  19.149  24.629  1.00  0.00     0.165 A 
ATOM     18  C   UNL A   1      33.241  20.124  25.624  1.00  0.00     0.059 A 
ATOM     19  C   UNL A   1      32.640  19.541  23.401  1.00  0.00     0.211 A 
ATOM     20  C   UNL A   1      32.291  20.854  23.147  1.00  0.00     0.211 A 
ATOM     21  O   UNL A   1      32.421  18.739  22.319  1.00  0.00    -0.449 OA
ATOM     22  C   UNL A   1      32.430  21.851  24.101  1.00  0.00     0.168 A 
ATOM     23  O   UNL A   1      31.833  21.013  21.870  1.00  0.00    -0.449 OA
ATOM     24  C   UNL A   1      31.820  19.660  21.398  1.00  0.00     0.468 C 
BRANCH  17  25
ATOM     25  O   UNL A   1      33.517  17.893  24.999  1.00  0.00    -0.493 OA
ATOM     26  C   UNL A   1      32.498  17.103  25.605  1.00  0.00     0.278 C 
ENDBRANCH  17  25
BRANCH  22  27
ATOM     27  O   UNL A   1      32.140  23.166  23.913  1.00  0.00    -0.492 OA
ATOM     28  C   UNL A   1      30.912  23.550  23.320  1.00  0.00     0.278 C 
ENDBRANCH  22  27
ENDBRANCH   6  16
BRANCH  11  29
ATOM     29  C   UNL A   1      36.098  23.473  25.528  1.00  0.00     0.046 A 
ATOM     30  C   UNL A   1      36.159  22.305  24.764  1.00  0.00     0.029 A 
ATOM     31  C   UNL A   1      37.203  23.903  26.272  1.00  0.00     0.029 A 
ATOM     32  C   UNL A   1      37.309  21.520  24.794  1.00  0.00     0.041 A 
ATOM     33  C   UNL A   1      38.350  23.106  26.301  1.00  0.00     0.041 A 
ATOM     34  C   UNL A   1      38.388  21.920  25.572  1.00  0.00     0.123 A 
ATOM     35  F   UNL A   1      39.486  21.153  25.615  1.00  0.00    -0.207 F 
ENDBRANCH  11  29
ENDBRANCH   3   5
ENDBRANCH   2   3
ENDBRANCH   1   2
BRANCH   1  36
ATOM     36  C   UNL A   1      33.090  30.016  26.938  1.00  0.00     0.275 C 
BRANCH  36  37
ATOM     37  O   UNL A   1      34.422  30.519  26.848  1.00  0.00    -0.458 OA
BRANCH  37  38
ATOM     38  C   UNL A   1      34.807  31.315  27.871  1.00  0.00     0.338 C 
ATOM     39  O   UNL A   1      34.349  32.401  28.182  1.00  0.00    -0.246 OA
BRANCH  38  40
ATOM     40  C   UNL A   1      36.047  30.784  28.436  1.00  0.00     0.060 A 
ATOM     41  C   UNL A   1      37.008  31.690  28.891  1.00  0.00     0.016 A 
ATOM     42  C   UNL A   1      36.336  29.422  28.263  1.00  0.00     0.016 A 
ATOM     43  C   UNL A   1      38.303  31.242  29.062  1.00  0.00     0.010 A 
ATOM     44  C   UNL A   1      37.628  28.982  28.420  1.00  0.00     0.010 A 
ATOM     45  C   UNL A   1      38.608  29.905  28.765  1.00  0.00    -0.014 A 
BRANCH  45  46
ATOM     46  C   UNL A   1      39.951  29.430  29.035  1.00  0.00     0.031 A 
ATOM     47  C   UNL A   1      40.237  29.426  30.486  1.00  0.00     0.074 A 
ATOM     48  C   UNL A   1      40.764  28.908  28.093  1.00  0.00     0.049 A 
ATOM     49  N   UNL A   1      41.064  30.190  31.113  1.00  0.00    -0.248 NA
ATOM     50  C   UNL A   1      39.378  28.621  31.373  1.00  0.00     0.031 C 
ATOM     51  C   UNL A   1      40.409  28.601  26.705  1.00  0.00     0.029 A 
ATOM     52  N   UNL A   1      42.045  28.439  28.194  1.00  0.00    -0.354 N 
ATOM     53  C   UNL A   1      41.033  29.750  32.432  1.00  0.00     0.074 A 
ATOM     54  C   UNL A   1      39.836  28.970  32.577  1.00  0.00     0.031 C 
ATOM     55  C   UNL A   1      41.350  27.792  26.170  1.00  0.00     0.029 A 
ATOM     56  C   UNL A   1      42.439  27.643  27.121  1.00  0.00     0.049 A 
ATOM     57  H   UNL A   1      42.635  28.644  28.955  1.00  0.00     0.167 HD
ATOM     58  C   UNL A   1      42.193  29.732  33.143  1.00  0.00     0.037 A 
ATOM     59  C   UNL A   1      43.560  26.884  27.034  1.00  0.00     0.037 A 
ATOM     60  C   UNL A   1      43.185  30.566  32.512  1.00  0.00     0.049 A 
ATOM     61  C   UNL A   1      44.541  27.406  28.010  1.00  0.00     0.074 A 
ATOM     62  C   UNL A   1      43.462  31.909  32.401  1.00  0.00     0.029 A 
ATOM     63  N   UNL A   1      43.857  29.930  31.505  1.00  0.00    -0.354 N 
ATOM     64  N   UNL A   1      45.134  28.560  27.881  1.00  0.00    -0.248 NA
ATOM     65  C   UNL A   1      44.631  26.798  29.336  1.00  0.00     0.031 C 
ATOM     66  C   UNL A   1      44.298  32.058  31.253  1.00  0.00     0.029 A 
ATOM     67  C   UNL A   1      44.544  30.801  30.711  1.00  0.00     0.049 A 
ATOM     68  H   UNL A   1      43.848  28.955  31.371  1.00  0.00     0.167 HD
ATOM     69  C   UNL A   1      45.267  29.011  29.177  1.00  0.00     0.074 A 
ATOM     70  C   UNL A   1      45.126  27.832  30.021  1.00  0.00     0.031 C 
ATOM     71  C   UNL A   1      45.105  30.332  29.468  1.00  0.00     0.037 A 
BRANCH  58  72
ATOM     72  C   UNL A   1      42.635  28.564  34.006  1.00  0.00     0.064 A 
ATOM     73  C   UNL A   1      42.984  28.821  35.349  1.00  0.00     0.173 A 
ATOM     74  C   UNL A   1      43.060  27.314  33.502  1.00  0.00     0.173 A 
ATOM     75  F   UNL A   1      42.656  29.987  35.926  1.00  0.00    -0.203 F 
ATOM     76  C   UNL A   1      43.762  27.930  36.095  1.00  0.00     0.198 A 
ATOM     77  C   UNL A   1      43.794  26.408  34.266  1.00  0.00     0.198 A 
ATOM     78  F   UNL A   1      42.898  26.959  32.223  1.00  0.00    -0.203 F 
ATOM     79  F   UNL A   1      44.175  28.275  37.322  1.00  0.00    -0.200 F 
ATOM     80  C   UNL A   1      44.170  26.728  35.551  1.00  0.00     0.200 A 
ATOM     81  F   UNL A   1      44.204  25.260  33.708  1.00  0.00    -0.200 F 
ATOM     82  F   UNL A   1      44.967  25.900  36.241  1.00  0.00    -0.200 F 
ENDBRANCH  58  72
BRANCH  59  83
ATOM     83  C   UNL A   1      43.786  25.613  26.310  1.00  0.00     0.064 A 
ATOM     84  C   UNL A   1      44.890  25.445  25.455  1.00  0.00     0.173 A 
ATOM     85  C   UNL A   1      43.088  24.444  26.667  1.00  0.00     0.173 A 
ATOM     86  F   UNL A   1      45.633  26.502  25.096  1.00  0.00    -0.203 F 
ATOM     87  C   UNL A   1      45.291  24.180  25.012  1.00  0.00     0.198 A 
ATOM     88  C   UNL A   1      43.488  23.182  26.221  1.00  0.00     0.198 A 
ATOM     89  F   UNL A   1      42.068  24.494  27.535  1.00  0.00    -0.203 F 
ATOM     90  F   UNL A   1      46.388  24.054  24.252  1.00  0.00    -0.200 F 
ATOM     91  C   UNL A   1      44.598  23.049  25.407  1.00  0.00     0.200 A 
ATOM     92  F   UNL A   1      42.831  22.091  26.641  1.00  0.00    -0.200 F 
ATOM     93  F   UNL A   1      45.022  21.831  25.042  1.00  0.00    -0.200 F 
ENDBRANCH  59  83
BRANCH  71  94
ATOM     94  C   UNL A   1      45.394  31.317  28.387  1.00  0.00     0.064 A 
ATOM     95  C   UNL A   1      44.486  31.697  27.386  1.00  0.00     0.173 A 
ATOM     96  C   UNL A   1      46.648  31.943  28.404  1.00  0.00     0.173 A 
ATOM     97  F   UNL A   1      43.246  31.190  27.351  1.00  0.00    -0.203 F 
ATOM     98  C   UNL A   1      44.842  32.639  26.422  1.00  0.00     0.198 A 
ATOM     99  C   UNL A   1      46.985  32.907  27.464  1.00  0.00     0.198 A 
ATOM    100  F   UNL A   1      47.538  31.636  29.361  1.00  0.00    -0.203 F 
ATOM    101  F   UNL A   1      43.971  32.976  25.458  1.00  0.00    -0.200 F 
ATOM    102  C   UNL A   1      46.087  33.247  26.466  1.00  0.00     0.200 A 
ATOM    103  F   UNL A   1      48.176  33.518  27.536  1.00  0.00    -0.200 F 
ATOM    104  F   UNL A   1      46.418  34.174  25.557  1.00  0.00    -0.200 F 
ENDBRANCH  71  94
ENDBRANCH  45  46
ENDBRANCH  38  40
ENDBRANCH  37  38
ENDBRANCH  36  37
ENDBRANCH   1  36
TORSDOF 15
ENDMDL
