MODEL 1
REMARK VINA RESULT:     -11.2      0.000      0.000
REMARK SMILES CC#CC[C@H](C(=O)OCCOC(=O)c1ccc(-c2c3nc(c(-c4c(F)c(F)c(F)c(F)c4F)c4ccc([nH]4)c(-c4c(F)c(F)c(F)c(F)c4F)c4nc(c(-c5c(F)c(F)c(F)c(F)c5F)c5ccc2[nH]5)C=C4)C=C3)cc1)c1cccc(Br)c1
REMARK SMILES IDX 9 1 8 2 6 3 7 4 5 5 4 6 3 7 1 8 2 9 77 10 78 11 83 12 79 13
REMARK SMILES IDX 81 14 80 15 82 16 10 17 11 18 12 19 13 20 14 21 15 22 76 23
REMARK SMILES IDX 16 24 75 25 17 26 18 27 19 28 69 29 20 30 74 31 68 32 70 33
REMARK SMILES IDX 21 34 73 35 67 36 66 37 22 39 54 40 34 41 53 42 35 43 38 44
REMARK SMILES IDX 52 45 71 46 36 47 37 48 51 50 72 51 39 52 23 53 24 54 32 55
REMARK SMILES IDX 25 56 26 57 30 58 33 59 27 60 28 61 31 62 29 63 55 64 56 65
REMARK SMILES IDX 64 66 57 67 58 68 62 69 65 70 59 71 60 72 63 73 61 74 40 75
REMARK SMILES IDX 41 76 49 77 42 78 43 79 47 80 50 81 44 82 45 83 48 84 46 85
REMARK H PARENT 70 38 38 49
REMARK Flexibility Score: inf
ROOT
ATOM      1  C   UNL A   1      32.907  29.342  25.039  1.00  0.00     0.274 C 
ENDROOT
BRANCH   1   2
ATOM      2  O   UNL A   1      32.062  28.324  24.462  1.00  0.00    -0.462 OA
BRANCH   2   3
ATOM      3  C   UNL A   1      32.009  28.278  23.100  1.00  0.00     0.314 C 
ATOM      4  O   UNL A   1      32.926  28.642  22.373  1.00  0.00    -0.252 OA
BRANCH   3   5
ATOM      5  C   UNL A   1      30.723  27.602  22.602  1.00  0.00     0.141 C 
BRANCH   5   6
ATOM      6  C   UNL A   1      30.522  26.243  23.251  1.00  0.00     0.109 C 
BRANCH   6   7
ATOM      7  C   UNL A   1      31.569  25.225  22.833  1.00  0.00    -0.102 C 
ATOM      8  C   UNL A   1      33.517  23.334  22.056  1.00  0.00     0.107 C 
ATOM      9  C   UNL A   1      32.469  24.351  22.474  1.00  0.00    -0.107 C 
ENDBRANCH   6   7
ENDBRANCH   5   6
BRANCH   5  10
ATOM     10  C   UNL A   1      29.506  28.519  22.747  1.00  0.00    -0.032 A 
ATOM     11  C   UNL A   1      28.249  28.021  23.127  1.00  0.00     0.005 A 
ATOM     12  C   UNL A   1      29.638  29.898  22.512  1.00  0.00     0.020 A 
ATOM     13  C   UNL A   1      27.164  28.885  23.298  1.00  0.00     0.001 A 
ATOM     14  C   UNL A   1      28.554  30.755  22.700  1.00  0.00     0.018 A 
ATOM     15  C   UNL A   1      27.317  30.255  23.094  1.00  0.00     0.016 A 
ATOM     16  Br  UNL A   1      28.780  32.615  22.438  1.00  0.00    -0.051 Br
ENDBRANCH   5  10
ENDBRANCH   3   5
ENDBRANCH   2   3
ENDBRANCH   1   2
BRANCH   1  17
ATOM     17  C   UNL A   1      32.076  30.394  25.780  1.00  0.00     0.275 C 
BRANCH  17  18
ATOM     18  O   UNL A   1      32.542  30.581  27.132  1.00  0.00    -0.458 OA
BRANCH  18  19
ATOM     19  C   UNL A   1      33.259  31.710  27.333  1.00  0.00     0.338 C 
ATOM     20  O   UNL A   1      32.876  32.863  27.227  1.00  0.00    -0.246 OA
BRANCH  19  21
ATOM     21  C   UNL A   1      34.574  31.375  27.900  1.00  0.00     0.060 A 
ATOM     22  C   UNL A   1      34.747  30.071  28.358  1.00  0.00     0.016 A 
ATOM     23  C   UNL A   1      35.571  32.325  28.101  1.00  0.00     0.016 A 
ATOM     24  C   UNL A   1      35.881  29.705  29.060  1.00  0.00     0.010 A 
ATOM     25  C   UNL A   1      36.740  31.949  28.777  1.00  0.00     0.010 A 
ATOM     26  C   UNL A   1      36.893  30.641  29.276  1.00  0.00    -0.014 A 
BRANCH  26  27
ATOM     27  C   UNL A   1      38.066  30.232  30.082  1.00  0.00     0.031 A 
ATOM     28  C   UNL A   1      39.116  29.351  29.472  1.00  0.00     0.074 A 
ATOM     29  C   UNL A   1      38.237  30.732  31.320  1.00  0.00     0.049 A 
ATOM     30  N   UNL A   1      40.161  28.802  30.033  1.00  0.00    -0.248 NA
ATOM     31  C   UNL A   1      38.974  29.054  28.038  1.00  0.00     0.031 C 
ATOM     32  C   UNL A   1      37.340  31.682  31.978  1.00  0.00     0.029 A 
ATOM     33  N   UNL A   1      39.238  30.528  32.234  1.00  0.00    -0.354 N 
ATOM     34  C   UNL A   1      40.777  28.061  29.036  1.00  0.00     0.074 A 
ATOM     35  C   UNL A   1      39.996  28.235  27.830  1.00  0.00     0.031 C 
ATOM     36  C   UNL A   1      37.844  31.999  33.181  1.00  0.00     0.029 A 
ATOM     37  C   UNL A   1      39.060  31.222  33.404  1.00  0.00     0.049 A 
ATOM     38  H   UNL A   1      40.010  29.941  32.067  1.00  0.00     0.167 HD
ATOM     39  C   UNL A   1      41.892  27.298  29.125  1.00  0.00     0.037 A 
ATOM     40  C   UNL A   1      39.778  31.205  34.542  1.00  0.00     0.037 A 
ATOM     41  C   UNL A   1      42.687  27.161  30.317  1.00  0.00     0.049 A 
ATOM     42  C   UNL A   1      40.979  30.307  34.634  1.00  0.00     0.074 A 
ATOM     43  C   UNL A   1      43.815  26.388  30.521  1.00  0.00     0.029 A 
ATOM     44  N   UNL A   1      42.441  27.834  31.505  1.00  0.00    -0.354 N 
ATOM     45  N   UNL A   1      41.504  29.534  33.716  1.00  0.00    -0.248 NA
ATOM     46  C   UNL A   1      41.673  30.262  35.928  1.00  0.00     0.031 C 
ATOM     47  C   UNL A   1      44.240  26.574  31.841  1.00  0.00     0.029 A 
ATOM     48  C   UNL A   1      43.393  27.487  32.449  1.00  0.00     0.049 A 
ATOM     49  H   UNL A   1      41.700  28.464  31.655  1.00  0.00     0.167 HD
ATOM     50  C   UNL A   1      42.590  28.914  34.316  1.00  0.00     0.074 A 
ATOM     51  C   UNL A   1      42.662  29.416  35.672  1.00  0.00     0.031 C 
ATOM     52  C   UNL A   1      43.445  28.002  33.792  1.00  0.00     0.037 A 
BRANCH  39  53
ATOM     53  C   UNL A   1      42.287  26.513  27.913  1.00  0.00     0.064 A 
ATOM     54  C   UNL A   1      43.232  26.994  26.997  1.00  0.00     0.173 A 
ATOM     55  C   UNL A   1      41.725  25.249  27.682  1.00  0.00     0.173 A 
ATOM     56  F   UNL A   1      43.782  28.206  27.165  1.00  0.00    -0.203 F 
ATOM     57  C   UNL A   1      43.588  26.241  25.879  1.00  0.00     0.198 A 
ATOM     58  C   UNL A   1      42.098  24.491  26.576  1.00  0.00     0.198 A 
ATOM     59  F   UNL A   1      40.815  24.749  28.531  1.00  0.00    -0.203 F 
ATOM     60  F   UNL A   1      44.467  26.732  24.995  1.00  0.00    -0.200 F 
ATOM     61  C   UNL A   1      43.026  24.989  25.674  1.00  0.00     0.200 A 
ATOM     62  F   UNL A   1      41.557  23.281  26.381  1.00  0.00    -0.200 F 
ATOM     63  F   UNL A   1      43.372  24.266  24.600  1.00  0.00    -0.200 F 
ENDBRANCH  39  53
BRANCH  40  64
ATOM     64  C   UNL A   1      39.348  32.029  35.699  1.00  0.00     0.064 A 
ATOM     65  C   UNL A   1      38.404  31.550  36.617  1.00  0.00     0.173 A 
ATOM     66  C   UNL A   1      39.873  33.313  35.911  1.00  0.00     0.173 A 
ATOM     67  F   UNL A   1      37.852  30.341  36.440  1.00  0.00    -0.203 F 
ATOM     68  C   UNL A   1      37.997  32.327  37.700  1.00  0.00     0.198 A 
ATOM     69  C   UNL A   1      39.485  34.078  37.008  1.00  0.00     0.198 A 
ATOM     70  F   UNL A   1      40.776  33.818  35.057  1.00  0.00    -0.203 F 
ATOM     71  F   UNL A   1      37.066  31.861  38.543  1.00  0.00    -0.200 F 
ATOM     72  C   UNL A   1      38.543  33.586  37.899  1.00  0.00     0.200 A 
ATOM     73  F   UNL A   1      40.022  35.290  37.200  1.00  0.00    -0.200 F 
ATOM     74  F   UNL A   1      38.154  34.331  38.943  1.00  0.00    -0.200 F 
ENDBRANCH  40  64
BRANCH  52  75
ATOM     75  C   UNL A   1      44.538  27.504  34.687  1.00  0.00     0.064 A 
ATOM     76  C   UNL A   1      45.764  28.177  34.781  1.00  0.00     0.173 A 
ATOM     77  C   UNL A   1      44.343  26.368  35.485  1.00  0.00     0.173 A 
ATOM     78  F   UNL A   1      46.000  29.258  34.023  1.00  0.00    -0.203 F 
ATOM     79  C   UNL A   1      46.765  27.718  35.632  1.00  0.00     0.198 A 
ATOM     80  C   UNL A   1      45.337  25.925  36.351  1.00  0.00     0.198 A 
ATOM     81  F   UNL A   1      43.183  25.695  35.430  1.00  0.00    -0.203 F 
ATOM     82  F   UNL A   1      47.944  28.355  35.683  1.00  0.00    -0.200 F 
ATOM     83  C   UNL A   1      46.549  26.597  36.420  1.00  0.00     0.200 A 
ATOM     84  F   UNL A   1      45.126  24.845  37.115  1.00  0.00    -0.200 F 
ATOM     85  F   UNL A   1      47.512  26.159  37.242  1.00  0.00    -0.200 F 
ENDBRANCH  52  75
ENDBRANCH  26  27
ENDBRANCH  19  21
ENDBRANCH  18  19
ENDBRANCH  17  18
ENDBRANCH   1  17
TORSDOF 14
ENDMDL
MODEL 2
REMARK VINA RESULT:     -11.2      3.796      9.463
REMARK SMILES CC#CC[C@H](C(=O)OCCOC(=O)c1ccc(-c2c3nc(c(-c4c(F)c(F)c(F)c(F)c4F)c4ccc([nH]4)c(-c4c(F)c(F)c(F)c(F)c4F)c4nc(c(-c5c(F)c(F)c(F)c(F)c5F)c5ccc2[nH]5)C=C4)C=C3)cc1)c1cccc(Br)c1
REMARK SMILES IDX 9 1 8 2 6 3 7 4 5 5 4 6 3 7 1 8 2 9 77 10 78 11 83 12 79 13
REMARK SMILES IDX 81 14 80 15 82 16 10 17 11 18 12 19 13 20 14 21 15 22 76 23
REMARK SMILES IDX 16 24 75 25 17 26 18 27 19 28 69 29 20 30 74 31 68 32 70 33
REMARK SMILES IDX 21 34 73 35 67 36 66 37 22 39 54 40 34 41 53 42 35 43 38 44
REMARK SMILES IDX 52 45 71 46 36 47 37 48 51 50 72 51 39 52 23 53 24 54 32 55
REMARK SMILES IDX 25 56 26 57 30 58 33 59 27 60 28 61 31 62 29 63 55 64 56 65
REMARK SMILES IDX 64 66 57 67 58 68 62 69 65 70 59 71 60 72 63 73 61 74 40 75
REMARK SMILES IDX 41 76 49 77 42 78 43 79 47 80 50 81 44 82 45 83 48 84 46 85
REMARK H PARENT 70 38 38 49
REMARK Flexibility Score: inf
ROOT
ATOM      1  C   UNL A   1      32.938  34.981  29.466  1.00  0.00     0.274 C 
ENDROOT
BRANCH   1   2
ATOM      2  O   UNL A   1      34.359  34.739  29.409  1.00  0.00    -0.462 OA
BRANCH   2   3
ATOM      3  C   UNL A   1      34.873  34.419  28.186  1.00  0.00     0.314 C 
ATOM      4  O   UNL A   1      34.406  34.823  27.128  1.00  0.00    -0.252 OA
BRANCH   3   5
ATOM      5  C   UNL A   1      36.170  33.605  28.308  1.00  0.00     0.141 C 
BRANCH   5   6
ATOM      6  C   UNL A   1      36.841  33.827  29.652  1.00  0.00     0.109 C 
BRANCH   6   7
ATOM      7  C   UNL A   1      38.297  34.246  29.527  1.00  0.00    -0.102 C 
ATOM      8  C   UNL A   1      41.001  35.025  29.292  1.00  0.00     0.107 C 
ATOM      9  C   UNL A   1      39.545  34.606  29.419  1.00  0.00    -0.107 C 
ENDBRANCH   6   7
ENDBRANCH   5   6
BRANCH   5  10
ATOM     10  C   UNL A   1      35.943  32.125  27.992  1.00  0.00    -0.032 A 
ATOM     11  C   UNL A   1      37.002  31.202  27.981  1.00  0.00     0.005 A 
ATOM     12  C   UNL A   1      34.646  31.660  27.716  1.00  0.00     0.020 A 
ATOM     13  C   UNL A   1      36.763  29.848  27.735  1.00  0.00     0.001 A 
ATOM     14  C   UNL A   1      34.414  30.304  27.486  1.00  0.00     0.018 A 
ATOM     15  C   UNL A   1      35.467  29.394  27.496  1.00  0.00     0.016 A 
ATOM     16  Br  UNL A   1      32.648  29.698  27.182  1.00  0.00    -0.051 Br
ENDBRANCH   5  10
ENDBRANCH   3   5
ENDBRANCH   2   3
ENDBRANCH   1   2
BRANCH   1  17
ATOM     17  C   UNL A   1      32.638  36.399  29.963  1.00  0.00     0.275 C 
BRANCH  17  18
ATOM     18  O   UNL A   1      33.166  36.619  31.286  1.00  0.00    -0.458 OA
BRANCH  18  19
ATOM     19  C   UNL A   1      32.715  35.758  32.227  1.00  0.00     0.338 C 
ATOM     20  O   UNL A   1      31.556  35.492  32.497  1.00  0.00    -0.246 OA
BRANCH  19  21
ATOM     21  C   UNL A   1      33.841  35.003  32.796  1.00  0.00     0.060 A 
ATOM     22  C   UNL A   1      35.091  35.617  32.762  1.00  0.00     0.016 A 
ATOM     23  C   UNL A   1      33.720  33.688  33.235  1.00  0.00     0.016 A 
ATOM     24  C   UNL A   1      36.236  34.925  33.113  1.00  0.00     0.010 A 
ATOM     25  C   UNL A   1      34.873  32.995  33.631  1.00  0.00     0.010 A 
ATOM     26  C   UNL A   1      36.139  33.606  33.554  1.00  0.00    -0.014 A 
BRANCH  26  27
ATOM     27  C   UNL A   1      37.390  32.877  33.866  1.00  0.00     0.031 A 
ATOM     28  C   UNL A   1      38.063  33.088  35.190  1.00  0.00     0.074 A 
ATOM     29  C   UNL A   1      37.862  31.956  33.005  1.00  0.00     0.049 A 
ATOM     30  N   UNL A   1      39.210  32.627  35.617  1.00  0.00    -0.248 NA
ATOM     31  C   UNL A   1      37.346  33.923  36.167  1.00  0.00     0.031 C 
ATOM     32  C   UNL A   1      37.235  31.586  31.736  1.00  0.00     0.029 A 
ATOM     33  N   UNL A   1      38.966  31.147  33.081  1.00  0.00    -0.354 N 
ATOM     34  C   UNL A   1      39.374  33.148  36.891  1.00  0.00     0.074 A 
ATOM     35  C   UNL A   1      38.206  33.955  37.176  1.00  0.00     0.031 C 
ATOM     36  C   UNL A   1      37.949  30.604  31.164  1.00  0.00     0.029 A 
ATOM     37  C   UNL A   1      39.120  30.327  31.991  1.00  0.00     0.049 A 
ATOM     38  H   UNL A   1      39.589  31.153  33.844  1.00  0.00     0.167 HD
ATOM     39  C   UNL A   1      40.412  32.973  37.741  1.00  0.00     0.037 A 
ATOM     40  C   UNL A   1      40.113  29.474  31.679  1.00  0.00     0.037 A 
ATOM     41  C   UNL A   1      41.551  32.138  37.468  1.00  0.00     0.049 A 
ATOM     42  C   UNL A   1      41.282  29.340  32.614  1.00  0.00     0.074 A 
ATOM     43  C   UNL A   1      42.671  31.918  38.249  1.00  0.00     0.029 A 
ATOM     44  N   UNL A   1      41.702  31.367  36.324  1.00  0.00    -0.354 N 
ATOM     45  N   UNL A   1      41.477  29.910  33.778  1.00  0.00    -0.248 NA
ATOM     46  C   UNL A   1      42.378  28.463  32.182  1.00  0.00     0.031 C 
ATOM     47  C   UNL A   1      43.513  31.032  37.568  1.00  0.00     0.029 A 
ATOM     48  C   UNL A   1      42.902  30.677  36.375  1.00  0.00     0.049 A 
ATOM     49  H   UNL A   1      41.054  31.319  35.585  1.00  0.00     0.167 HD
ATOM     50  C   UNL A   1      42.713  29.460  34.219  1.00  0.00     0.074 A 
ATOM     51  C   UNL A   1      43.213  28.552  33.208  1.00  0.00     0.031 C 
ATOM     52  C   UNL A   1      43.378  29.778  35.357  1.00  0.00     0.037 A 
BRANCH  39  53
ATOM     53  C   UNL A   1      40.386  33.741  39.026  1.00  0.00     0.064 A 
ATOM     54  C   UNL A   1      39.735  33.251  40.167  1.00  0.00     0.173 A 
ATOM     55  C   UNL A   1      41.044  34.975  39.120  1.00  0.00     0.173 A 
ATOM     56  F   UNL A   1      39.074  32.084  40.120  1.00  0.00    -0.203 F 
ATOM     57  C   UNL A   1      39.730  33.982  41.354  1.00  0.00     0.198 A 
ATOM     58  C   UNL A   1      41.055  35.693  40.312  1.00  0.00     0.198 A 
ATOM     59  F   UNL A   1      41.679  35.485  38.054  1.00  0.00    -0.203 F 
ATOM     60  F   UNL A   1      39.072  33.515  42.424  1.00  0.00    -0.200 F 
ATOM     61  C   UNL A   1      40.395  35.197  41.426  1.00  0.00     0.200 A 
ATOM     62  F   UNL A   1      41.700  36.865  40.382  1.00  0.00    -0.200 F 
ATOM     63  F   UNL A   1      40.391  35.897  42.569  1.00  0.00    -0.200 F 
ENDBRANCH  39  53
BRANCH  40  64
ATOM     64  C   UNL A   1      40.066  28.721  30.401  1.00  0.00     0.064 A 
ATOM     65  C   UNL A   1      40.627  29.249  29.231  1.00  0.00     0.173 A 
ATOM     66  C   UNL A   1      39.458  27.458  30.325  1.00  0.00     0.173 A 
ATOM     67  F   UNL A   1      41.191  30.464  29.247  1.00  0.00    -0.203 F 
ATOM     68  C   UNL A   1      40.576  28.543  28.030  1.00  0.00     0.198 A 
ATOM     69  C   UNL A   1      39.432  26.744  29.131  1.00  0.00     0.198 A 
ATOM     70  F   UNL A   1      38.903  26.914  31.418  1.00  0.00    -0.203 F 
ATOM     71  F   UNL A   1      41.087  29.084  26.915  1.00  0.00    -0.200 F 
ATOM     72  C   UNL A   1      39.986  27.288  27.982  1.00  0.00     0.200 A 
ATOM     73  F   UNL A   1      38.868  25.529  29.092  1.00  0.00    -0.200 F 
ATOM     74  F   UNL A   1      39.942  26.608  26.828  1.00  0.00    -0.200 F 
ENDBRANCH  40  64
BRANCH  52  75
ATOM     75  C   UNL A   1      44.709  29.126  35.570  1.00  0.00     0.064 A 
ATOM     76  C   UNL A   1      45.893  29.730  35.126  1.00  0.00     0.173 A 
ATOM     77  C   UNL A   1      44.803  27.907  36.255  1.00  0.00     0.173 A 
ATOM     78  F   UNL A   1      45.848  30.888  34.451  1.00  0.00    -0.203 F 
ATOM     79  C   UNL A   1      47.128  29.126  35.348  1.00  0.00     0.198 A 
ATOM     80  C   UNL A   1      46.040  27.316  36.494  1.00  0.00     0.198 A 
ATOM     81  F   UNL A   1      43.695  27.294  36.701  1.00  0.00    -0.203 F 
ATOM     82  F   UNL A   1      48.246  29.702  34.886  1.00  0.00    -0.200 F 
ATOM     83  C   UNL A   1      47.200  27.924  36.036  1.00  0.00     0.200 A 
ATOM     84  F   UNL A   1      46.110  26.158  37.164  1.00  0.00    -0.200 F 
ATOM     85  F   UNL A   1      48.389  27.345  36.252  1.00  0.00    -0.200 F 
ENDBRANCH  52  75
ENDBRANCH  26  27
ENDBRANCH  19  21
ENDBRANCH  18  19
ENDBRANCH  17  18
ENDBRANCH   1  17
TORSDOF 14
ENDMDL
MODEL 3
REMARK VINA RESULT:     -11.1      5.363     10.558
REMARK SMILES CC#CC[C@H](C(=O)OCCOC(=O)c1ccc(-c2c3nc(c(-c4c(F)c(F)c(F)c(F)c4F)c4ccc([nH]4)c(-c4c(F)c(F)c(F)c(F)c4F)c4nc(c(-c5c(F)c(F)c(F)c(F)c5F)c5ccc2[nH]5)C=C4)C=C3)cc1)c1cccc(Br)c1
REMARK SMILES IDX 9 1 8 2 6 3 7 4 5 5 4 6 3 7 1 8 2 9 77 10 78 11 83 12 79 13
REMARK SMILES IDX 81 14 80 15 82 16 10 17 11 18 12 19 13 20 14 21 15 22 76 23
REMARK SMILES IDX 16 24 75 25 17 26 18 27 19 28 69 29 20 30 74 31 68 32 70 33
REMARK SMILES IDX 21 34 73 35 67 36 66 37 22 39 54 40 34 41 53 42 35 43 38 44
REMARK SMILES IDX 52 45 71 46 36 47 37 48 51 50 72 51 39 52 23 53 24 54 32 55
REMARK SMILES IDX 25 56 26 57 30 58 33 59 27 60 28 61 31 62 29 63 55 64 56 65
REMARK SMILES IDX 64 66 57 67 58 68 62 69 65 70 59 71 60 72 63 73 61 74 40 75
REMARK SMILES IDX 41 76 49 77 42 78 43 79 47 80 50 81 44 82 45 83 48 84 46 85
REMARK H PARENT 70 38 38 49
REMARK Flexibility Score: inf
ROOT
ATOM      1  C   UNL A   1      35.823  22.010  25.921  1.00  0.00     0.274 C 
ENDROOT
BRANCH   1   2
ATOM      2  O   UNL A   1      34.579  21.903  25.197  1.00  0.00    -0.462 OA
BRANCH   2   3
ATOM      3  C   UNL A   1      33.516  21.395  25.886  1.00  0.00     0.314 C 
ATOM      4  O   UNL A   1      33.448  21.378  27.109  1.00  0.00    -0.252 OA
BRANCH   3   5
ATOM      5  C   UNL A   1      32.377  20.973  24.946  1.00  0.00     0.141 C 
BRANCH   5   6
ATOM      6  C   UNL A   1      32.023  22.080  23.968  1.00  0.00     0.109 C 
BRANCH   6   7
ATOM      7  C   UNL A   1      31.373  23.279  24.639  1.00  0.00    -0.102 C 
ATOM      8  C   UNL A   1      30.167  25.507  25.885  1.00  0.00     0.107 C 
ATOM      9  C   UNL A   1      30.816  24.308  25.215  1.00  0.00    -0.107 C 
ENDBRANCH   6   7
ENDBRANCH   5   6
BRANCH   5  10
ATOM     10  C   UNL A   1      32.676  19.640  24.256  1.00  0.00    -0.032 A 
ATOM     11  C   UNL A   1      32.207  19.359  22.962  1.00  0.00     0.005 A 
ATOM     12  C   UNL A   1      33.448  18.669  24.915  1.00  0.00     0.020 A 
ATOM     13  C   UNL A   1      32.531  18.153  22.335  1.00  0.00     0.001 A 
ATOM     14  C   UNL A   1      33.780  17.474  24.276  1.00  0.00     0.018 A 
ATOM     15  C   UNL A   1      33.327  17.212  22.987  1.00  0.00     0.016 A 
ATOM     16  Br  UNL A   1      34.875  16.214  25.165  1.00  0.00    -0.051 Br
ENDBRANCH   5  10
ENDBRANCH   3   5
ENDBRANCH   2   3
ENDBRANCH   1   2
BRANCH   1  17
ATOM     17  C   UNL A   1      36.870  21.039  25.366  1.00  0.00     0.275 C 
BRANCH  17  18
ATOM     18  O   UNL A   1      38.150  21.680  25.197  1.00  0.00    -0.458 OA
BRANCH  18  19
ATOM     19  C   UNL A   1      39.079  21.345  26.121  1.00  0.00     0.338 C 
ATOM     20  O   UNL A   1      39.488  20.228  26.392  1.00  0.00    -0.246 OA
BRANCH  19  21
ATOM     21  C   UNL A   1      39.706  22.558  26.666  1.00  0.00     0.060 A 
ATOM     22  C   UNL A   1      39.280  23.775  26.142  1.00  0.00     0.016 A 
ATOM     23  C   UNL A   1      40.766  22.517  27.567  1.00  0.00     0.016 A 
ATOM     24  C   UNL A   1      39.925  24.956  26.462  1.00  0.00     0.010 A 
ATOM     25  C   UNL A   1      41.398  23.715  27.927  1.00  0.00     0.010 A 
ATOM     26  C   UNL A   1      40.992  24.939  27.361  1.00  0.00    -0.014 A 
BRANCH  26  27
ATOM     27  C   UNL A   1      41.696  26.212  27.636  1.00  0.00     0.031 A 
ATOM     28  C   UNL A   1      41.041  27.255  28.493  1.00  0.00     0.074 A 
ATOM     29  C   UNL A   1      42.959  26.387  27.203  1.00  0.00     0.049 A 
ATOM     30  N   UNL A   1      41.442  28.468  28.770  1.00  0.00    -0.248 NA
ATOM     31  C   UNL A   1      39.768  26.880  29.127  1.00  0.00     0.031 C 
ATOM     32  C   UNL A   1      43.740  25.401  26.455  1.00  0.00     0.029 A 
ATOM     33  N   UNL A   1      43.815  27.448  27.353  1.00  0.00    -0.354 N 
ATOM     34  C   UNL A   1      40.454  29.016  29.574  1.00  0.00     0.074 A 
ATOM     35  C   UNL A   1      39.435  28.003  29.749  1.00  0.00     0.031 C 
ATOM     36  C   UNL A   1      44.968  25.893  26.233  1.00  0.00     0.029 A 
ATOM     37  C   UNL A   1      45.037  27.252  26.761  1.00  0.00     0.049 A 
ATOM     38  H   UNL A   1      43.576  28.270  27.838  1.00  0.00     0.167 HD
ATOM     39  C   UNL A   1      40.402  30.258  30.109  1.00  0.00     0.037 A 
ATOM     40  C   UNL A   1      46.082  28.090  26.628  1.00  0.00     0.037 A 
ATOM     41  C   UNL A   1      41.437  31.247  29.964  1.00  0.00     0.049 A 
ATOM     42  C   UNL A   1      45.977  29.482  27.183  1.00  0.00     0.074 A 
ATOM     43  C   UNL A   1      41.467  32.545  30.440  1.00  0.00     0.029 A 
ATOM     44  N   UNL A   1      42.639  31.034  29.304  1.00  0.00    -0.354 N 
ATOM     45  N   UNL A   1      44.998  30.028  27.863  1.00  0.00    -0.248 NA
ATOM     46  C   UNL A   1      47.111  30.381  26.933  1.00  0.00     0.031 C 
ATOM     47  C   UNL A   1      42.678  33.127  30.048  1.00  0.00     0.029 A 
ATOM     48  C   UNL A   1      43.414  32.180  29.353  1.00  0.00     0.049 A 
ATOM     49  H   UNL A   1      42.901  30.192  28.866  1.00  0.00     0.167 HD
ATOM     50  C   UNL A   1      45.397  31.330  28.125  1.00  0.00     0.074 A 
ATOM     51  C   UNL A   1      46.717  31.487  27.550  1.00  0.00     0.031 C 
ATOM     52  C   UNL A   1      44.726  32.312  28.776  1.00  0.00     0.037 A 
BRANCH  39  53
ATOM     53  C   UNL A   1      39.161  30.633  30.858  1.00  0.00     0.064 A 
ATOM     54  C   UNL A   1      38.053  31.203  30.216  1.00  0.00     0.173 A 
ATOM     55  C   UNL A   1      39.075  30.395  32.237  1.00  0.00     0.173 A 
ATOM     56  F   UNL A   1      38.097  31.468  28.901  1.00  0.00    -0.203 F 
ATOM     57  C   UNL A   1      36.907  31.537  30.934  1.00  0.00     0.198 A 
ATOM     58  C   UNL A   1      37.921  30.711  32.948  1.00  0.00     0.198 A 
ATOM     59  F   UNL A   1      40.111  29.853  32.896  1.00  0.00    -0.203 F 
ATOM     60  F   UNL A   1      35.871  32.114  30.310  1.00  0.00    -0.200 F 
ATOM     61  C   UNL A   1      36.841  31.285  32.297  1.00  0.00     0.200 A 
ATOM     62  F   UNL A   1      37.857  30.463  34.263  1.00  0.00    -0.200 F 
ATOM     63  F   UNL A   1      35.736  31.605  32.985  1.00  0.00    -0.200 F 
ENDBRANCH  39  53
BRANCH  40  64
ATOM     64  C   UNL A   1      47.296  27.647  25.898  1.00  0.00     0.064 A 
ATOM     65  C   UNL A   1      47.377  27.750  24.503  1.00  0.00     0.173 A 
ATOM     66  C   UNL A   1      48.399  27.112  26.580  1.00  0.00     0.173 A 
ATOM     67  F   UNL A   1      46.338  28.228  23.805  1.00  0.00    -0.203 F 
ATOM     68  C   UNL A   1      48.515  27.329  23.818  1.00  0.00     0.198 A 
ATOM     69  C   UNL A   1      49.545  26.715  25.896  1.00  0.00     0.198 A 
ATOM     70  F   UNL A   1      48.366  26.987  27.915  1.00  0.00    -0.203 F 
ATOM     71  F   UNL A   1      48.556  27.404  22.480  1.00  0.00    -0.200 F 
ATOM     72  C   UNL A   1      49.601  26.819  24.515  1.00  0.00     0.200 A 
ATOM     73  F   UNL A   1      50.594  26.231  26.575  1.00  0.00    -0.200 F 
ATOM     74  F   UNL A   1      50.696  26.419  23.855  1.00  0.00    -0.200 F 
ENDBRANCH  40  64
BRANCH  52  75
ATOM     75  C   UNL A   1      45.417  33.633  28.910  1.00  0.00     0.064 A 
ATOM     76  C   UNL A   1      45.235  34.649  27.963  1.00  0.00     0.173 A 
ATOM     77  C   UNL A   1      46.239  33.897  30.016  1.00  0.00     0.173 A 
ATOM     78  F   UNL A   1      44.471  34.434  26.881  1.00  0.00    -0.203 F 
ATOM     79  C   UNL A   1      45.866  35.882  28.109  1.00  0.00     0.198 A 
ATOM     80  C   UNL A   1      46.851  35.136  30.170  1.00  0.00     0.198 A 
ATOM     81  F   UNL A   1      46.439  32.954  30.949  1.00  0.00    -0.203 F 
ATOM     82  F   UNL A   1      45.706  36.829  27.175  1.00  0.00    -0.200 F 
ATOM     83  C   UNL A   1      46.667  36.126  29.214  1.00  0.00     0.200 A 
ATOM     84  F   UNL A   1      47.620  35.374  31.241  1.00  0.00    -0.200 F 
ATOM     85  F   UNL A   1      47.271  37.314  29.356  1.00  0.00    -0.200 F 
ENDBRANCH  52  75
ENDBRANCH  26  27
ENDBRANCH  19  21
ENDBRANCH  18  19
ENDBRANCH  17  18
ENDBRANCH   1  17
TORSDOF 14
ENDMDL
