MODEL 1
REMARK VINA RESULT:     -11.6      0.000      0.000
REMARK SMILES CCCCNC(=O)c1c(Cl)c(Cl)c(Cl)c(Cl)c1C(=O)OCCOC(=O)c1ccc(-c2c3nc(c(-c4c(F)c(F)c(F)c(F)c4F)c4ccc([nH]4)c(-c4c(F)c(F)c(F)c(F)c4F)c4nc(c(-c5c(F)c(F)c(F)c(F)c5F)c5ccc2[nH]5)C=C4)C=C3)cc1
REMARK SMILES IDX 21 1 20 2 18 3 19 4 17 5 8 6 9 7 10 8 11 9 15 10 12 11 13 12
REMARK SMILES IDX 16 13 14 14 6 15 5 16 7 18 4 19 3 20 2 21 1 22 22 23 23 24
REMARK SMILES IDX 24 25 25 26 26 27 27 28 88 29 28 30 87 31 29 32 30 33 31 34
REMARK SMILES IDX 81 35 32 36 86 37 80 38 82 39 33 40 85 41 79 42 78 43 34 45
REMARK SMILES IDX 66 46 46 47 65 48 47 49 50 50 64 51 83 52 48 53 49 54 63 56
REMARK SMILES IDX 84 57 51 58 35 59 36 60 44 61 37 62 38 63 42 64 45 65 39 66
REMARK SMILES IDX 40 67 43 68 41 69 67 70 68 71 76 72 69 73 70 74 74 75 77 76
REMARK SMILES IDX 71 77 72 78 75 79 73 80 52 81 53 82 61 83 54 84 55 85 59 86
REMARK SMILES IDX 62 87 56 88 57 89 60 90 58 91
REMARK H PARENT 5 17 82 44 50 55
REMARK Flexibility Score: inf
ROOT
ATOM      1  C   UNL A   1      31.888  28.209  27.118  1.00  0.00     0.275 C 
ENDROOT
BRANCH   1   2
ATOM      2  O   UNL A   1      32.274  26.944  26.530  1.00  0.00    -0.458 OA
BRANCH   2   3
ATOM      3  C   UNL A   1      31.252  26.099  26.223  1.00  0.00     0.340 C 
ATOM      4  O   UNL A   1      30.162  26.068  26.754  1.00  0.00    -0.246 OA
BRANCH   3   5
ATOM      5  C   UNL A   1      31.613  25.268  25.040  1.00  0.00     0.094 A 
ATOM      6  C   UNL A   1      32.101  23.955  25.190  1.00  0.00     0.076 A 
ATOM      7  C   UNL A   1      32.320  23.169  24.045  1.00  0.00     0.074 A 
ATOM      8  Cl  UNL A   1      32.338  21.430  24.153  1.00  0.00    -0.082 Cl
ATOM      9  C   UNL A   1      32.382  23.773  22.780  1.00  0.00     0.080 A 
ATOM     10  C   UNL A   1      31.420  25.778  23.740  1.00  0.00     0.076 A 
ATOM     11  Cl  UNL A   1      32.965  22.873  21.411  1.00  0.00    -0.081 Cl
ATOM     12  C   UNL A   1      31.954  25.095  22.633  1.00  0.00     0.080 A 
ATOM     13  Cl  UNL A   1      30.405  27.161  23.439  1.00  0.00    -0.082 Cl
ATOM     14  Cl  UNL A   1      32.076  25.893  21.090  1.00  0.00    -0.081 Cl
BRANCH   6  15
ATOM     15  C   UNL A   1      32.263  23.380  26.542  1.00  0.00     0.253 C 
ATOM     16  N   UNL A   1      33.517  23.178  27.073  1.00  0.00    -0.352 N 
ATOM     17  H   UNL A   1      33.532  22.896  28.016  1.00  0.00     0.163 HD
ATOM     18  O   UNL A   1      31.260  23.114  27.195  1.00  0.00    -0.269 OA
BRANCH  16  19
ATOM     19  C   UNL A   1      34.828  23.322  26.452  1.00  0.00     0.116 C 
BRANCH  19  20
ATOM     20  C   UNL A   1      35.504  22.006  26.084  1.00  0.00     0.021 C 
BRANCH  20  21
ATOM     21  C   UNL A   1      35.757  21.785  24.592  1.00  0.00    -0.002 C 
ATOM     22  C   UNL A   1      36.076  23.053  23.814  1.00  0.00     0.004 C 
ENDBRANCH  20  21
ENDBRANCH  19  20
ENDBRANCH  16  19
ENDBRANCH   6  15
ENDBRANCH   3   5
ENDBRANCH   2   3
ENDBRANCH   1   2
BRANCH   1  23
ATOM     23  C   UNL A   1      31.864  29.325  26.070  1.00  0.00     0.275 C 
BRANCH  23  24
ATOM     24  O   UNL A   1      33.149  29.970  25.993  1.00  0.00    -0.458 OA
BRANCH  24  25
ATOM     25  C   UNL A   1      33.321  31.000  26.852  1.00  0.00     0.338 C 
ATOM     26  O   UNL A   1      32.503  31.831  27.204  1.00  0.00    -0.246 OA
BRANCH  25  27
ATOM     27  C   UNL A   1      34.628  30.857  27.503  1.00  0.00     0.060 A 
ATOM     28  C   UNL A   1      34.971  29.574  27.915  1.00  0.00     0.016 A 
ATOM     29  C   UNL A   1      35.450  31.936  27.807  1.00  0.00     0.016 A 
ATOM     30  C   UNL A   1      36.123  29.351  28.661  1.00  0.00     0.010 A 
ATOM     31  C   UNL A   1      36.639  31.706  28.515  1.00  0.00     0.010 A 
ATOM     32  C   UNL A   1      36.984  30.412  28.956  1.00  0.00    -0.014 A 
BRANCH  32  33
ATOM     33  C   UNL A   1      38.221  30.166  29.747  1.00  0.00     0.031 A 
ATOM     34  C   UNL A   1      39.310  29.298  29.184  1.00  0.00     0.074 A 
ATOM     35  C   UNL A   1      38.381  30.733  30.959  1.00  0.00     0.049 A 
ATOM     36  N   UNL A   1      40.365  28.798  29.776  1.00  0.00    -0.248 NA
ATOM     37  C   UNL A   1      39.195  28.943  27.762  1.00  0.00     0.031 C 
ATOM     38  C   UNL A   1      37.449  31.671  31.588  1.00  0.00     0.029 A 
ATOM     39  N   UNL A   1      39.389  30.598  31.885  1.00  0.00    -0.354 N 
ATOM     40  C   UNL A   1      41.014  28.034  28.814  1.00  0.00     0.074 A 
ATOM     41  C   UNL A   1      40.232  28.133  27.600  1.00  0.00     0.031 C 
ATOM     42  C   UNL A   1      37.930  32.032  32.787  1.00  0.00     0.029 A 
ATOM     43  C   UNL A   1      39.152  31.282  33.054  1.00  0.00     0.049 A 
ATOM     44  H   UNL A   1      40.200  30.064  31.728  1.00  0.00     0.167 HD
ATOM     45  C   UNL A   1      42.154  27.314  28.942  1.00  0.00     0.037 A 
ATOM     46  C   UNL A   1      39.808  31.261  34.231  1.00  0.00     0.037 A 
ATOM     47  C   UNL A   1      42.940  27.251  30.148  1.00  0.00     0.049 A 
ATOM     48  C   UNL A   1      41.013  30.372  34.380  1.00  0.00     0.074 A 
ATOM     49  C   UNL A   1      44.116  26.556  30.376  1.00  0.00     0.029 A 
ATOM     50  N   UNL A   1      42.632  27.911  31.328  1.00  0.00    -0.354 N 
ATOM     51  N   UNL A   1      41.596  29.613  33.486  1.00  0.00    -0.248 NA
ATOM     52  C   UNL A   1      41.638  30.320  35.710  1.00  0.00     0.031 C 
ATOM     53  C   UNL A   1      44.485  26.747  31.711  1.00  0.00     0.029 A 
ATOM     54  C   UNL A   1      43.574  27.611  32.299  1.00  0.00     0.049 A 
ATOM     55  H   UNL A   1      41.858  28.504  31.458  1.00  0.00     0.167 HD
ATOM     56  C   UNL A   1      42.663  29.007  34.135  1.00  0.00     0.074 A 
ATOM     57  C   UNL A   1      42.660  29.502  35.495  1.00  0.00     0.031 C 
ATOM     58  C   UNL A   1      43.561  28.116  33.648  1.00  0.00     0.037 A 
BRANCH  45  59
ATOM     59  C   UNL A   1      42.596  26.490  27.766  1.00  0.00     0.064 A 
ATOM     60  C   UNL A   1      42.088  25.207  27.518  1.00  0.00     0.173 A 
ATOM     61  C   UNL A   1      43.523  27.015  26.850  1.00  0.00     0.173 A 
ATOM     62  F   UNL A   1      41.209  24.653  28.367  1.00  0.00    -0.203 F 
ATOM     63  C   UNL A   1      42.510  24.471  26.413  1.00  0.00     0.198 A 
ATOM     64  C   UNL A   1      43.918  26.290  25.729  1.00  0.00     0.198 A 
ATOM     65  F   UNL A   1      44.037  28.240  27.035  1.00  0.00    -0.203 F 
ATOM     66  F   UNL A   1      42.048  23.227  26.222  1.00  0.00    -0.200 F 
ATOM     67  C   UNL A   1      43.418  25.014  25.516  1.00  0.00     0.200 A 
ATOM     68  F   UNL A   1      44.784  26.824  24.857  1.00  0.00    -0.200 F 
ATOM     69  F   UNL A   1      43.817  24.307  24.450  1.00  0.00    -0.200 F 
ENDBRANCH  45  59
BRANCH  46  70
ATOM     70  C   UNL A   1      39.297  32.055  35.382  1.00  0.00     0.064 A 
ATOM     71  C   UNL A   1      39.636  33.406  35.540  1.00  0.00     0.173 A 
ATOM     72  C   UNL A   1      38.468  31.475  36.356  1.00  0.00     0.173 A 
ATOM     73  F   UNL A   1      40.451  33.999  34.655  1.00  0.00    -0.203 F 
ATOM     74  C   UNL A   1      39.176  34.141  36.631  1.00  0.00     0.198 A 
ATOM     75  C   UNL A   1      37.979  32.221  37.427  1.00  0.00     0.198 A 
ATOM     76  F   UNL A   1      38.120  30.183  36.260  1.00  0.00    -0.203 F 
ATOM     77  F   UNL A   1      39.556  35.416  36.785  1.00  0.00    -0.200 F 
ATOM     78  C   UNL A   1      38.341  33.551  37.569  1.00  0.00     0.200 A 
ATOM     79  F   UNL A   1      37.163  31.648  38.321  1.00  0.00    -0.200 F 
ATOM     80  F   UNL A   1      37.893  34.261  38.614  1.00  0.00    -0.200 F 
ENDBRANCH  46  70
BRANCH  58  81
ATOM     81  C   UNL A   1      44.637  27.640  34.582  1.00  0.00     0.064 A 
ATOM     82  C   UNL A   1      45.832  28.354  34.751  1.00  0.00     0.173 A 
ATOM     83  C   UNL A   1      44.444  26.488  35.358  1.00  0.00     0.173 A 
ATOM     84  F   UNL A   1      46.072  29.452  34.020  1.00  0.00    -0.203 F 
ATOM     85  C   UNL A   1      46.802  27.921  35.652  1.00  0.00     0.198 A 
ATOM     86  C   UNL A   1      45.401  26.076  36.280  1.00  0.00     0.198 A 
ATOM     87  F   UNL A   1      43.316  25.772  35.238  1.00  0.00    -0.203 F 
ATOM     88  F   UNL A   1      47.954  28.596  35.768  1.00  0.00    -0.200 F 
ATOM     89  C   UNL A   1      46.581  26.789  36.423  1.00  0.00     0.200 A 
ATOM     90  F   UNL A   1      45.180  24.991  37.035  1.00  0.00    -0.200 F 
ATOM     91  F   UNL A   1      47.509  26.383  37.300  1.00  0.00    -0.200 F 
ENDBRANCH  58  81
ENDBRANCH  32  33
ENDBRANCH  25  27
ENDBRANCH  24  25
ENDBRANCH  23  24
ENDBRANCH   1  23
TORSDOF 15
ENDMDL
MODEL 2
REMARK VINA RESULT:     -11.5      1.489      2.757
REMARK SMILES CCCCNC(=O)c1c(Cl)c(Cl)c(Cl)c(Cl)c1C(=O)OCCOC(=O)c1ccc(-c2c3nc(c(-c4c(F)c(F)c(F)c(F)c4F)c4ccc([nH]4)c(-c4c(F)c(F)c(F)c(F)c4F)c4nc(c(-c5c(F)c(F)c(F)c(F)c5F)c5ccc2[nH]5)C=C4)C=C3)cc1
REMARK SMILES IDX 21 1 20 2 18 3 19 4 17 5 8 6 9 7 10 8 11 9 15 10 12 11 13 12
REMARK SMILES IDX 16 13 14 14 6 15 5 16 7 18 4 19 3 20 2 21 1 22 22 23 23 24
REMARK SMILES IDX 24 25 25 26 26 27 27 28 88 29 28 30 87 31 29 32 30 33 31 34
REMARK SMILES IDX 81 35 32 36 86 37 80 38 82 39 33 40 85 41 79 42 78 43 34 45
REMARK SMILES IDX 66 46 46 47 65 48 47 49 50 50 64 51 83 52 48 53 49 54 63 56
REMARK SMILES IDX 84 57 51 58 35 59 36 60 44 61 37 62 38 63 42 64 45 65 39 66
REMARK SMILES IDX 40 67 43 68 41 69 67 70 68 71 76 72 69 73 70 74 74 75 77 76
REMARK SMILES IDX 71 77 72 78 75 79 73 80 52 81 53 82 61 83 54 84 55 85 59 86
REMARK SMILES IDX 62 87 56 88 57 89 60 90 58 91
REMARK H PARENT 5 17 82 44 50 55
REMARK Flexibility Score: inf
ROOT
ATOM      1  C   UNL A   1      31.987  29.459  25.355  1.00  0.00     0.275 C 
ENDROOT
BRANCH   1   2
ATOM      2  O   UNL A   1      31.056  28.447  25.809  1.00  0.00    -0.458 OA
BRANCH   2   3
ATOM      3  C   UNL A   1      31.539  27.571  26.731  1.00  0.00     0.340 C 
ATOM      4  O   UNL A   1      31.486  27.695  27.937  1.00  0.00    -0.246 OA
BRANCH   3   5
ATOM      5  C   UNL A   1      32.058  26.349  26.054  1.00  0.00     0.094 A 
ATOM      6  C   UNL A   1      31.185  25.373  25.538  1.00  0.00     0.076 A 
ATOM      7  C   UNL A   1      31.715  24.294  24.806  1.00  0.00     0.074 A 
ATOM      8  Cl  UNL A   1      30.723  23.417  23.674  1.00  0.00    -0.082 Cl
ATOM      9  C   UNL A   1      33.086  24.007  24.876  1.00  0.00     0.080 A 
ATOM     10  C   UNL A   1      33.446  26.183  25.877  1.00  0.00     0.076 A 
ATOM     11  Cl  UNL A   1      33.696  22.505  24.245  1.00  0.00    -0.081 Cl
ATOM     12  C   UNL A   1      33.954  24.947  25.439  1.00  0.00     0.080 A 
ATOM     13  Cl  UNL A   1      34.558  27.513  26.041  1.00  0.00    -0.082 Cl
ATOM     14  Cl  UNL A   1      35.652  24.594  25.596  1.00  0.00    -0.081 Cl
BRANCH   6  15
ATOM     15  C   UNL A   1      29.723  25.551  25.665  1.00  0.00     0.253 C 
ATOM     16  N   UNL A   1      29.003  26.177  24.673  1.00  0.00    -0.352 N 
ATOM     17  H   UNL A   1      28.025  26.155  24.788  1.00  0.00     0.163 HD
ATOM     18  O   UNL A   1      29.158  25.103  26.657  1.00  0.00    -0.269 OA
BRANCH  16  19
ATOM     19  C   UNL A   1      29.468  26.865  23.476  1.00  0.00     0.116 C 
BRANCH  19  20
ATOM     20  C   UNL A   1      28.685  28.125  23.124  1.00  0.00     0.021 C 
BRANCH  20  21
ATOM     21  C   UNL A   1      29.525  29.326  22.682  1.00  0.00    -0.002 C 
ATOM     22  C   UNL A   1      29.089  30.653  23.284  1.00  0.00     0.004 C 
ENDBRANCH  20  21
ENDBRANCH  19  20
ENDBRANCH  16  19
ENDBRANCH   6  15
ENDBRANCH   3   5
ENDBRANCH   2   3
ENDBRANCH   1   2
BRANCH   1  23
ATOM     23  C   UNL A   1      31.805  30.769  26.126  1.00  0.00     0.275 C 
BRANCH  23  24
ATOM     24  O   UNL A   1      32.706  30.823  27.246  1.00  0.00    -0.458 OA
BRANCH  24  25
ATOM     25  C   UNL A   1      33.414  31.971  27.353  1.00  0.00     0.338 C 
ATOM     26  O   UNL A   1      33.029  33.112  27.168  1.00  0.00    -0.246 OA
BRANCH  25  27
ATOM     27  C   UNL A   1      34.715  31.667  27.959  1.00  0.00     0.060 A 
ATOM     28  C   UNL A   1      34.868  30.385  28.473  1.00  0.00     0.016 A 
ATOM     29  C   UNL A   1      35.717  32.616  28.126  1.00  0.00     0.016 A 
ATOM     30  C   UNL A   1      36.009  30.038  29.188  1.00  0.00     0.010 A 
ATOM     31  C   UNL A   1      36.892  32.252  28.802  1.00  0.00     0.010 A 
ATOM     32  C   UNL A   1      37.046  30.961  29.346  1.00  0.00    -0.014 A 
BRANCH  32  33
ATOM     33  C   UNL A   1      38.270  30.581  30.103  1.00  0.00     0.031 A 
ATOM     34  C   UNL A   1      39.282  29.661  29.480  1.00  0.00     0.074 A 
ATOM     35  C   UNL A   1      38.489  31.070  31.340  1.00  0.00     0.049 A 
ATOM     36  N   UNL A   1      40.302  29.052  30.029  1.00  0.00    -0.248 NA
ATOM     37  C   UNL A   1      39.122  29.389  28.044  1.00  0.00     0.031 C 
ATOM     38  C   UNL A   1      37.641  32.044  32.029  1.00  0.00     0.029 A 
ATOM     39  N   UNL A   1      39.494  30.811  32.241  1.00  0.00    -0.354 N 
ATOM     40  C   UNL A   1      40.877  28.290  29.020  1.00  0.00     0.074 A 
ATOM     41  C   UNL A   1      40.091  28.511  27.825  1.00  0.00     0.031 C 
ATOM     42  C   UNL A   1      38.163  32.305  33.237  1.00  0.00     0.029 A 
ATOM     43  C   UNL A   1      39.326  31.450  33.447  1.00  0.00     0.049 A 
ATOM     44  H   UNL A   1      40.260  30.224  32.044  1.00  0.00     0.167 HD
ATOM     45  C   UNL A   1      41.960  27.479  29.092  1.00  0.00     0.037 A 
ATOM     46  C   UNL A   1      39.993  31.319  34.610  1.00  0.00     0.037 A 
ATOM     47  C   UNL A   1      42.753  27.294  30.280  1.00  0.00     0.049 A 
ATOM     48  C   UNL A   1      41.127  30.333  34.695  1.00  0.00     0.074 A 
ATOM     49  C   UNL A   1      43.874  26.500  30.454  1.00  0.00     0.029 A 
ATOM     50  N   UNL A   1      42.511  27.914  31.498  1.00  0.00    -0.354 N 
ATOM     51  N   UNL A   1      41.638  29.578  33.754  1.00  0.00    -0.248 NA
ATOM     52  C   UNL A   1      41.763  30.165  36.010  1.00  0.00     0.031 C 
ATOM     53  C   UNL A   1      44.274  26.593  31.791  1.00  0.00     0.029 A 
ATOM     54  C   UNL A   1      43.440  27.493  32.436  1.00  0.00     0.049 A 
ATOM     55  H   UNL A   1      41.788  28.558  31.670  1.00  0.00     0.167 HD
ATOM     56  C   UNL A   1      42.663  28.859  34.355  1.00  0.00     0.074 A 
ATOM     57  C   UNL A   1      42.715  29.283  35.738  1.00  0.00     0.031 C 
ATOM     58  C   UNL A   1      43.483  27.928  33.809  1.00  0.00     0.037 A 
BRANCH  45  59
ATOM     59  C   UNL A   1      42.322  26.685  27.870  1.00  0.00     0.064 A 
ATOM     60  C   UNL A   1      43.261  27.139  26.933  1.00  0.00     0.173 A 
ATOM     61  C   UNL A   1      41.739  25.425  27.653  1.00  0.00     0.173 A 
ATOM     62  F   UNL A   1      43.839  28.340  27.085  1.00  0.00    -0.203 F 
ATOM     63  C   UNL A   1      43.583  26.375  25.813  1.00  0.00     0.198 A 
ATOM     64  C   UNL A   1      42.087  24.650  26.550  1.00  0.00     0.198 A 
ATOM     65  F   UNL A   1      40.838  24.939  28.520  1.00  0.00    -0.203 F 
ATOM     66  F   UNL A   1      44.447  26.852  24.905  1.00  0.00    -0.200 F 
ATOM     67  C   UNL A   1      43.003  25.130  25.626  1.00  0.00     0.200 A 
ATOM     68  F   UNL A   1      41.535  23.441  26.381  1.00  0.00    -0.200 F 
ATOM     69  F   UNL A   1      43.320  24.394  24.552  1.00  0.00    -0.200 F 
ENDBRANCH  45  59
BRANCH  46  70
ATOM     70  C   UNL A   1      39.560  32.089  35.808  1.00  0.00     0.064 A 
ATOM     71  C   UNL A   1      40.173  33.302  36.152  1.00  0.00     0.173 A 
ATOM     72  C   UNL A   1      38.530  31.623  36.641  1.00  0.00     0.173 A 
ATOM     73  F   UNL A   1      41.183  33.776  35.408  1.00  0.00    -0.203 F 
ATOM     74  C   UNL A   1      39.782  34.011  37.287  1.00  0.00     0.198 A 
ATOM     75  C   UNL A   1      38.116  32.350  37.755  1.00  0.00     0.198 A 
ATOM     76  F   UNL A   1      37.914  30.464  36.365  1.00  0.00    -0.203 F 
ATOM     77  F   UNL A   1      40.419  35.140  37.621  1.00  0.00    -0.200 F 
ATOM     78  C   UNL A   1      38.748  33.539  38.083  1.00  0.00     0.200 A 
ATOM     79  F   UNL A   1      37.107  31.896  38.511  1.00  0.00    -0.200 F 
ATOM     80  F   UNL A   1      38.368  34.224  39.169  1.00  0.00    -0.200 F 
ENDBRANCH  46  70
BRANCH  58  81
ATOM     81  C   UNL A   1      44.530  27.323  34.700  1.00  0.00     0.064 A 
ATOM     82  C   UNL A   1      45.786  27.923  34.872  1.00  0.00     0.173 A 
ATOM     83  C   UNL A   1      44.251  26.162  35.436  1.00  0.00     0.173 A 
ATOM     84  F   UNL A   1      46.107  29.026  34.178  1.00  0.00    -0.203 F 
ATOM     85  C   UNL A   1      46.730  27.372  35.733  1.00  0.00     0.198 A 
ATOM     86  C   UNL A   1      45.185  25.631  36.320  1.00  0.00     0.198 A 
ATOM     87  F   UNL A   1      43.063  25.551  35.312  1.00  0.00    -0.203 F 
ATOM     88  F   UNL A   1      47.939  27.939  35.850  1.00  0.00    -0.200 F 
ATOM     89  C   UNL A   1      46.426  26.234  36.465  1.00  0.00     0.200 A 
ATOM     90  F   UNL A   1      44.884  24.540  37.037  1.00  0.00    -0.200 F 
ATOM     91  F   UNL A   1      47.330  25.713  37.305  1.00  0.00    -0.200 F 
ENDBRANCH  58  81
ENDBRANCH  32  33
ENDBRANCH  25  27
ENDBRANCH  24  25
ENDBRANCH  23  24
ENDBRANCH   1  23
TORSDOF 15
ENDMDL
MODEL 3
REMARK VINA RESULT:     -11.3      1.398      2.636
REMARK SMILES CCCCNC(=O)c1c(Cl)c(Cl)c(Cl)c(Cl)c1C(=O)OCCOC(=O)c1ccc(-c2c3nc(c(-c4c(F)c(F)c(F)c(F)c4F)c4ccc([nH]4)c(-c4c(F)c(F)c(F)c(F)c4F)c4nc(c(-c5c(F)c(F)c(F)c(F)c5F)c5ccc2[nH]5)C=C4)C=C3)cc1
REMARK SMILES IDX 21 1 20 2 18 3 19 4 17 5 8 6 9 7 10 8 11 9 15 10 12 11 13 12
REMARK SMILES IDX 16 13 14 14 6 15 5 16 7 18 4 19 3 20 2 21 1 22 22 23 23 24
REMARK SMILES IDX 24 25 25 26 26 27 27 28 88 29 28 30 87 31 29 32 30 33 31 34
REMARK SMILES IDX 81 35 32 36 86 37 80 38 82 39 33 40 85 41 79 42 78 43 34 45
REMARK SMILES IDX 66 46 46 47 65 48 47 49 50 50 64 51 83 52 48 53 49 54 63 56
REMARK SMILES IDX 84 57 51 58 35 59 36 60 44 61 37 62 38 63 42 64 45 65 39 66
REMARK SMILES IDX 40 67 43 68 41 69 67 70 68 71 76 72 69 73 70 74 74 75 77 76
REMARK SMILES IDX 71 77 72 78 75 79 73 80 52 81 53 82 61 83 54 84 55 85 59 86
REMARK SMILES IDX 62 87 56 88 57 89 60 90 58 91
REMARK H PARENT 5 17 82 44 50 55
REMARK Flexibility Score: inf
ROOT
ATOM      1  C   UNL A   1      31.789  27.884  26.715  1.00  0.00     0.275 C 
ENDROOT
BRANCH   1   2
ATOM      2  O   UNL A   1      31.869  27.128  25.482  1.00  0.00    -0.458 OA
BRANCH   2   3
ATOM      3  C   UNL A   1      33.055  26.503  25.249  1.00  0.00     0.340 C 
ATOM      4  O   UNL A   1      34.144  26.853  25.655  1.00  0.00    -0.246 OA
BRANCH   3   5
ATOM      5  C   UNL A   1      32.826  25.233  24.504  1.00  0.00     0.094 A 
ATOM      6  C   UNL A   1      32.800  25.206  23.096  1.00  0.00     0.076 A 
ATOM      7  C   UNL A   1      32.696  23.969  22.434  1.00  0.00     0.074 A 
ATOM      8  Cl  UNL A   1      33.240  23.795  20.788  1.00  0.00    -0.082 Cl
ATOM      9  C   UNL A   1      32.286  22.829  23.140  1.00  0.00     0.080 A 
ATOM     10  C   UNL A   1      32.682  24.023  25.210  1.00  0.00     0.076 A 
ATOM     11  Cl  UNL A   1      31.846  21.382  22.282  1.00  0.00    -0.081 Cl
ATOM     12  C   UNL A   1      32.254  22.865  24.537  1.00  0.00     0.080 A 
ATOM     13  Cl  UNL A   1      33.164  23.871  26.877  1.00  0.00    -0.082 Cl
ATOM     14  Cl  UNL A   1      31.691  21.486  25.441  1.00  0.00    -0.081 Cl
BRANCH   6  15
ATOM     15  C   UNL A   1      33.001  26.455  22.332  1.00  0.00     0.253 C 
ATOM     16  N   UNL A   1      31.948  27.312  22.098  1.00  0.00    -0.352 N 
ATOM     17  H   UNL A   1      32.192  28.168  21.678  1.00  0.00     0.163 HD
ATOM     18  O   UNL A   1      34.128  26.731  21.936  1.00  0.00    -0.269 OA
BRANCH  16  19
ATOM     19  C   UNL A   1      30.528  27.144  22.379  1.00  0.00     0.116 C 
BRANCH  19  20
ATOM     20  C   UNL A   1      29.866  28.346  23.042  1.00  0.00     0.021 C 
BRANCH  20  21
ATOM     21  C   UNL A   1      29.687  29.578  22.152  1.00  0.00    -0.002 C 
ATOM     22  C   UNL A   1      28.243  30.018  21.972  1.00  0.00     0.004 C 
ENDBRANCH  20  21
ENDBRANCH  19  20
ENDBRANCH  16  19
ENDBRANCH   6  15
ENDBRANCH   3   5
ENDBRANCH   2   3
ENDBRANCH   1   2
BRANCH   1  23
ATOM     23  C   UNL A   1      31.714  29.388  26.442  1.00  0.00     0.275 C 
BRANCH  23  24
ATOM     24  O   UNL A   1      33.031  29.924  26.214  1.00  0.00    -0.458 OA
BRANCH  24  25
ATOM     25  C   UNL A   1      33.308  31.060  26.894  1.00  0.00     0.338 C 
ATOM     26  O   UNL A   1      32.570  32.003  27.118  1.00  0.00    -0.246 OA
BRANCH  25  27
ATOM     27  C   UNL A   1      34.615  30.911  27.544  1.00  0.00     0.060 A 
ATOM     28  C   UNL A   1      34.959  29.626  27.945  1.00  0.00     0.016 A 
ATOM     29  C   UNL A   1      35.436  31.989  27.858  1.00  0.00     0.016 A 
ATOM     30  C   UNL A   1      36.111  29.397  28.689  1.00  0.00     0.010 A 
ATOM     31  C   UNL A   1      36.625  31.754  28.564  1.00  0.00     0.010 A 
ATOM     32  C   UNL A   1      36.971  30.456  28.994  1.00  0.00    -0.014 A 
BRANCH  32  33
ATOM     33  C   UNL A   1      38.208  30.204  29.782  1.00  0.00     0.031 A 
ATOM     34  C   UNL A   1      39.292  29.331  29.219  1.00  0.00     0.074 A 
ATOM     35  C   UNL A   1      38.373  30.770  30.995  1.00  0.00     0.049 A 
ATOM     36  N   UNL A   1      40.345  28.826  29.809  1.00  0.00    -0.248 NA
ATOM     37  C   UNL A   1      39.173  28.976  27.796  1.00  0.00     0.031 C 
ATOM     38  C   UNL A   1      37.447  31.713  31.624  1.00  0.00     0.029 A 
ATOM     39  N   UNL A   1      39.381  30.630  31.919  1.00  0.00    -0.354 N 
ATOM     40  C   UNL A   1      40.989  28.058  28.846  1.00  0.00     0.074 A 
ATOM     41  C   UNL A   1      40.206  28.161  27.633  1.00  0.00     0.031 C 
ATOM     42  C   UNL A   1      37.931  32.072  32.823  1.00  0.00     0.029 A 
ATOM     43  C   UNL A   1      39.150  31.316  33.088  1.00  0.00     0.049 A 
ATOM     44  H   UNL A   1      40.190  30.092  31.761  1.00  0.00     0.167 HD
ATOM     45  C   UNL A   1      42.126  27.333  28.972  1.00  0.00     0.037 A 
ATOM     46  C   UNL A   1      39.807  31.292  34.264  1.00  0.00     0.037 A 
ATOM     47  C   UNL A   1      42.914  27.266  30.176  1.00  0.00     0.049 A 
ATOM     48  C   UNL A   1      41.008  30.397  34.412  1.00  0.00     0.074 A 
ATOM     49  C   UNL A   1      44.086  26.566  30.403  1.00  0.00     0.029 A 
ATOM     50  N   UNL A   1      42.610  27.927  31.357  1.00  0.00    -0.354 N 
ATOM     51  N   UNL A   1      41.586  29.635  33.516  1.00  0.00    -0.248 NA
ATOM     52  C   UNL A   1      41.635  30.342  35.740  1.00  0.00     0.031 C 
ATOM     53  C   UNL A   1      44.459  26.755  31.737  1.00  0.00     0.029 A 
ATOM     54  C   UNL A   1      43.553  27.623  32.326  1.00  0.00     0.049 A 
ATOM     55  H   UNL A   1      41.839  28.525  31.488  1.00  0.00     0.167 HD
ATOM     56  C   UNL A   1      42.651  29.024  34.164  1.00  0.00     0.074 A 
ATOM     57  C   UNL A   1      42.653  29.519  35.524  1.00  0.00     0.031 C 
ATOM     58  C   UNL A   1      43.544  28.128  33.676  1.00  0.00     0.037 A 
BRANCH  45  59
ATOM     59  C   UNL A   1      42.562  26.507  27.795  1.00  0.00     0.064 A 
ATOM     60  C   UNL A   1      42.064  25.217  27.560  1.00  0.00     0.173 A 
ATOM     61  C   UNL A   1      43.473  27.035  26.866  1.00  0.00     0.173 A 
ATOM     62  F   UNL A   1      41.201  24.659  28.423  1.00  0.00    -0.203 F 
ATOM     63  C   UNL A   1      42.480  24.479  26.454  1.00  0.00     0.198 A 
ATOM     64  C   UNL A   1      43.862  26.308  25.744  1.00  0.00     0.198 A 
ATOM     65  F   UNL A   1      43.977  28.267  27.038  1.00  0.00    -0.203 F 
ATOM     66  F   UNL A   1      42.028  23.230  26.276  1.00  0.00    -0.200 F 
ATOM     67  C   UNL A   1      43.371  25.026  25.544  1.00  0.00     0.200 A 
ATOM     68  F   UNL A   1      44.712  26.845  24.859  1.00  0.00    -0.200 F 
ATOM     69  F   UNL A   1      43.765  24.316  24.477  1.00  0.00    -0.200 F 
ENDBRANCH  45  59
BRANCH  46  70
ATOM     70  C   UNL A   1      39.302  32.088  35.416  1.00  0.00     0.064 A 
ATOM     71  C   UNL A   1      39.666  33.431  35.585  1.00  0.00     0.173 A 
ATOM     72  C   UNL A   1      38.454  31.519  36.379  1.00  0.00     0.173 A 
ATOM     73  F   UNL A   1      40.500  34.014  34.712  1.00  0.00    -0.203 F 
ATOM     74  C   UNL A   1      39.211  34.169  36.677  1.00  0.00     0.198 A 
ATOM     75  C   UNL A   1      37.970  32.267  37.450  1.00  0.00     0.198 A 
ATOM     76  F   UNL A   1      38.080  30.235  36.272  1.00  0.00    -0.203 F 
ATOM     77  F   UNL A   1      39.616  35.435  36.843  1.00  0.00    -0.200 F 
ATOM     78  C   UNL A   1      38.357  33.589  37.604  1.00  0.00     0.200 A 
ATOM     79  F   UNL A   1      37.135  31.705  38.334  1.00  0.00    -0.200 F 
ATOM     80  F   UNL A   1      37.914  34.301  38.650  1.00  0.00    -0.200 F 
ENDBRANCH  46  70
BRANCH  58  81
ATOM     81  C   UNL A   1      44.619  27.647  34.608  1.00  0.00     0.064 A 
ATOM     82  C   UNL A   1      45.820  28.353  34.772  1.00  0.00     0.173 A 
ATOM     83  C   UNL A   1      44.420  26.499  35.388  1.00  0.00     0.173 A 
ATOM     84  F   UNL A   1      46.066  29.448  34.037  1.00  0.00    -0.203 F 
ATOM     85  C   UNL A   1      46.789  27.916  35.671  1.00  0.00     0.198 A 
ATOM     86  C   UNL A   1      45.377  26.082  36.308  1.00  0.00     0.198 A 
ATOM     87  F   UNL A   1      43.287  25.790  35.272  1.00  0.00    -0.203 F 
ATOM     88  F   UNL A   1      47.947  28.582  35.782  1.00  0.00    -0.200 F 
ATOM     89  C   UNL A   1      46.563  26.788  36.446  1.00  0.00     0.200 A 
ATOM     90  F   UNL A   1      45.150  25.001  37.066  1.00  0.00    -0.200 F 
ATOM     91  F   UNL A   1      47.490  26.377  37.321  1.00  0.00    -0.200 F 
ENDBRANCH  58  81
ENDBRANCH  32  33
ENDBRANCH  25  27
ENDBRANCH  24  25
ENDBRANCH  23  24
ENDBRANCH   1  23
TORSDOF 15
ENDMDL
