MODEL 1
REMARK VINA RESULT:     -11.5      0.000      0.000
REMARK SMILES C[C@H](CNc1cccc(F)c1C(=O)OCCOC(=O)c1ccc(-c2c3nc(c(-c4c(F)c(F)c(F)c(F)c4F)c4ccc([nH]4)c(-c4c(F)c(F)c(F)c(F)c4F)c4nc(c(-c5c(F)c(F)c(F)c(F)c5F)c5ccc2[nH]5)C=C4)C=C3)cc1)C[NH+]1CCCC1
REMARK SMILES IDX 14 1 12 2 13 3 11 4 5 5 6 6 7 7 9 8 8 9 10 10 4 11 3 13 2 14
REMARK SMILES IDX 1 15 83 16 84 17 85 18 88 19 86 21 87 22 15 23 16 24 17 25
REMARK SMILES IDX 18 26 19 27 20 28 21 29 82 30 22 31 81 32 23 33 24 34 25 35
REMARK SMILES IDX 75 36 26 37 80 38 74 39 76 40 27 41 79 42 73 43 72 44 28 46
REMARK SMILES IDX 60 47 40 48 59 49 41 50 44 51 58 52 77 53 42 54 43 55 57 57
REMARK SMILES IDX 78 58 45 59 29 60 30 61 38 62 31 63 32 64 36 65 39 66 33 67
REMARK SMILES IDX 34 68 37 69 35 70 61 71 62 72 70 73 63 74 64 75 68 76 71 77
REMARK SMILES IDX 65 78 66 79 69 80 67 81 46 82 47 83 55 84 48 85 49 86 53 87
REMARK SMILES IDX 56 88 50 89 51 90 54 91 52 92
REMARK H PARENT 4 12 84 20 76 45 44 56
REMARK Flexibility Score: inf
ROOT
ATOM      1  O   UNL A   1      32.476  27.617  26.341  1.00  0.00    -0.458 OA
ENDROOT
BRANCH   1   2
ATOM      2  C   UNL A   1      32.026  26.344  26.193  1.00  0.00     0.343 C 
ATOM      3  O   UNL A   1      31.117  25.810  26.810  1.00  0.00    -0.246 OA
BRANCH   2   4
ATOM      4  C   UNL A   1      32.844  25.643  25.196  1.00  0.00     0.118 A 
ATOM      5  C   UNL A   1      32.905  26.060  23.855  1.00  0.00     0.052 A 
ATOM      6  C   UNL A   1      33.642  25.277  22.951  1.00  0.00     0.027 A 
ATOM      7  C   UNL A   1      34.318  24.128  23.371  1.00  0.00     0.005 A 
ATOM      8  C   UNL A   1      33.514  24.491  25.608  1.00  0.00     0.139 A 
ATOM      9  C   UNL A   1      34.262  23.741  24.706  1.00  0.00     0.040 A 
ATOM     10  F   UNL A   1      33.459  24.085  26.885  1.00  0.00    -0.206 F 
BRANCH   5  11
ATOM     11  N   UNL A   1      32.486  27.324  23.449  1.00  0.00    -0.384 N 
ATOM     12  H   UNL A   1      32.857  28.111  23.909  1.00  0.00     0.160 HD
BRANCH  11  13
ATOM     13  C   UNL A   1      31.527  27.536  22.377  1.00  0.00     0.122 C 
BRANCH  13  14
ATOM     14  C   UNL A   1      30.128  27.984  22.852  1.00  0.00     0.060 C 
ATOM     15  C   UNL A   1      29.325  26.959  23.665  1.00  0.00     0.015 C 
BRANCH  14  16
ATOM     16  C   UNL A   1      30.230  29.270  23.709  1.00  0.00     0.267 C 
BRANCH  16  17
ATOM     17  N   UNL A   1      29.922  30.467  22.915  1.00  0.00    -0.335 N 
ATOM     18  C   UNL A   1      29.152  31.456  23.686  1.00  0.00     0.262 C 
ATOM     19  C   UNL A   1      29.101  30.177  21.733  1.00  0.00     0.262 C 
ATOM     20  H   UNL A   1      30.838  30.822  22.642  1.00  0.00     0.348 HD
ATOM     21  C   UNL A   1      27.712  31.046  23.501  1.00  0.00     0.067 C 
ATOM     22  C   UNL A   1      27.652  30.407  22.130  1.00  0.00     0.067 C 
ENDBRANCH  16  17
ENDBRANCH  14  16
ENDBRANCH  13  14
ENDBRANCH  11  13
ENDBRANCH   5  11
ENDBRANCH   2   4
ENDBRANCH   1   2
BRANCH   1  23
ATOM     23  C   UNL A   1      31.778  28.404  27.324  1.00  0.00     0.275 C 
BRANCH  23  24
ATOM     24  C   UNL A   1      31.675  29.859  26.863  1.00  0.00     0.275 C 
BRANCH  24  25
ATOM     25  O   UNL A   1      32.968  30.338  26.434  1.00  0.00    -0.458 OA
BRANCH  25  26
ATOM     26  C   UNL A   1      33.422  31.444  27.073  1.00  0.00     0.338 C 
ATOM     27  O   UNL A   1      32.829  32.484  27.285  1.00  0.00    -0.246 OA
BRANCH  26  28
ATOM     28  C   UNL A   1      34.736  31.146  27.673  1.00  0.00     0.060 A 
ATOM     29  C   UNL A   1      34.972  29.818  27.998  1.00  0.00     0.016 A 
ATOM     30  C   UNL A   1      35.677  32.115  28.002  1.00  0.00     0.016 A 
ATOM     31  C   UNL A   1      36.167  29.424  28.606  1.00  0.00     0.010 A 
ATOM     32  C   UNL A   1      36.877  31.730  28.633  1.00  0.00     0.010 A 
ATOM     33  C   UNL A   1      37.137  30.380  28.930  1.00  0.00    -0.014 A 
BRANCH  33  34
ATOM     34  C   UNL A   1      38.360  29.942  29.663  1.00  0.00     0.031 A 
ATOM     35  C   UNL A   1      38.506  30.290  31.115  1.00  0.00     0.074 A 
ATOM     36  C   UNL A   1      39.310  29.199  29.060  1.00  0.00     0.049 A 
ATOM     37  N   UNL A   1      39.487  30.017  31.936  1.00  0.00    -0.248 NA
ATOM     38  C   UNL A   1      37.415  31.074  31.713  1.00  0.00     0.031 C 
ATOM     39  C   UNL A   1      39.275  28.801  27.658  1.00  0.00     0.029 A 
ATOM     40  N   UNL A   1      40.466  28.619  29.539  1.00  0.00    -0.354 N 
ATOM     41  C   UNL A   1      39.184  30.684  33.115  1.00  0.00     0.074 A 
ATOM     42  C   UNL A   1      37.893  31.310  32.927  1.00  0.00     0.031 C 
ATOM     43  C   UNL A   1      40.310  27.983  27.410  1.00  0.00     0.029 A 
ATOM     44  C   UNL A   1      41.114  27.816  28.620  1.00  0.00     0.049 A 
ATOM     45  H   UNL A   1      40.799  28.765  30.454  1.00  0.00     0.167 HD
ATOM     46  C   UNL A   1      39.951  30.809  34.223  1.00  0.00     0.037 A 
ATOM     47  C   UNL A   1      42.205  27.024  28.759  1.00  0.00     0.037 A 
ATOM     48  C   UNL A   1      41.223  30.159  34.408  1.00  0.00     0.049 A 
ATOM     49  C   UNL A   1      42.954  27.062  30.073  1.00  0.00     0.074 A 
ATOM     50  C   UNL A   1      42.084  30.245  35.488  1.00  0.00     0.029 A 
ATOM     51  N   UNL A   1      41.814  29.300  33.493  1.00  0.00    -0.354 N 
ATOM     52  N   UNL A   1      42.645  27.683  31.187  1.00  0.00    -0.248 NA
ATOM     53  C   UNL A   1      44.223  26.318  30.141  1.00  0.00     0.031 C 
ATOM     54  C   UNL A   1      43.225  29.492  35.200  1.00  0.00     0.029 A 
ATOM     55  C   UNL A   1      43.044  28.876  33.972  1.00  0.00     0.049 A 
ATOM     56  H   UNL A   1      41.419  29.032  32.633  1.00  0.00     0.167 HD
ATOM     57  C   UNL A   1      43.694  27.434  32.065  1.00  0.00     0.074 A 
ATOM     58  C   UNL A   1      44.594  26.521  31.396  1.00  0.00     0.031 C 
ATOM     59  C   UNL A   1      43.926  27.965  33.290  1.00  0.00     0.037 A 
BRANCH  46  60
ATOM     60  C   UNL A   1      39.498  31.785  35.269  1.00  0.00     0.064 A 
ATOM     61  C   UNL A   1      38.618  31.353  36.277  1.00  0.00     0.173 A 
ATOM     62  C   UNL A   1      39.900  33.126  35.281  1.00  0.00     0.173 A 
ATOM     63  F   UNL A   1      38.202  30.078  36.311  1.00  0.00    -0.203 F 
ATOM     64  C   UNL A   1      38.153  32.230  37.250  1.00  0.00     0.198 A 
ATOM     65  C   UNL A   1      39.458  33.993  36.278  1.00  0.00     0.198 A 
ATOM     66  F   UNL A   1      40.754  33.583  34.354  1.00  0.00    -0.203 F 
ATOM     67  F   UNL A   1      37.293  31.798  38.183  1.00  0.00    -0.200 F 
ATOM     68  C   UNL A   1      38.579  33.548  37.256  1.00  0.00     0.200 A 
ATOM     69  F   UNL A   1      39.897  35.260  36.303  1.00  0.00    -0.200 F 
ATOM     70  F   UNL A   1      38.152  34.387  38.210  1.00  0.00    -0.200 F 
ENDBRANCH  46  60
BRANCH  47  71
ATOM     71  C   UNL A   1      42.634  26.070  27.680  1.00  0.00     0.064 A 
ATOM     72  C   UNL A   1      43.616  26.376  26.728  1.00  0.00     0.173 A 
ATOM     73  C   UNL A   1      42.012  24.811  27.558  1.00  0.00     0.173 A 
ATOM     74  F   UNL A   1      44.290  27.532  26.802  1.00  0.00    -0.203 F 
ATOM     75  C   UNL A   1      43.896  25.512  25.666  1.00  0.00     0.198 A 
ATOM     76  C   UNL A   1      42.323  23.929  26.522  1.00  0.00     0.198 A 
ATOM     77  F   UNL A   1      41.076  24.436  28.442  1.00  0.00    -0.203 F 
ATOM     78  F   UNL A   1      44.782  25.875  24.728  1.00  0.00    -0.200 F 
ATOM     79  C   UNL A   1      43.248  24.291  25.561  1.00  0.00     0.200 A 
ATOM     80  F   UNL A   1      41.698  22.746  26.443  1.00  0.00    -0.200 F 
ATOM     81  F   UNL A   1      43.506  23.472  24.532  1.00  0.00    -0.200 F 
ENDBRANCH  47  71
BRANCH  59  82
ATOM     82  C   UNL A   1      45.225  27.619  33.963  1.00  0.00     0.064 A 
ATOM     83  C   UNL A   1      45.305  26.568  34.887  1.00  0.00     0.173 A 
ATOM     84  C   UNL A   1      46.376  28.399  33.756  1.00  0.00     0.173 A 
ATOM     85  F   UNL A   1      44.233  25.797  35.129  1.00  0.00    -0.203 F 
ATOM     86  C   UNL A   1      46.481  26.321  35.592  1.00  0.00     0.198 A 
ATOM     87  C   UNL A   1      47.558  28.127  34.439  1.00  0.00     0.198 A 
ATOM     88  F   UNL A   1      46.357  29.411  32.877  1.00  0.00    -0.203 F 
ATOM     89  F   UNL A   1      46.520  25.336  36.501  1.00  0.00    -0.200 F 
ATOM     90  C   UNL A   1      47.607  27.098  35.365  1.00  0.00     0.200 A 
ATOM     91  F   UNL A   1      48.652  28.864  34.198  1.00  0.00    -0.200 F 
ATOM     92  F   UNL A   1      48.738  26.853  36.038  1.00  0.00    -0.200 F 
ENDBRANCH  59  82
ENDBRANCH  33  34
ENDBRANCH  26  28
ENDBRANCH  25  26
ENDBRANCH  24  25
ENDBRANCH  23  24
ENDBRANCH   1  23
TORSDOF 16
ENDMDL
MODEL 2
REMARK VINA RESULT:     -11.2      4.948      7.817
REMARK SMILES C[C@H](CNc1cccc(F)c1C(=O)OCCOC(=O)c1ccc(-c2c3nc(c(-c4c(F)c(F)c(F)c(F)c4F)c4ccc([nH]4)c(-c4c(F)c(F)c(F)c(F)c4F)c4nc(c(-c5c(F)c(F)c(F)c(F)c5F)c5ccc2[nH]5)C=C4)C=C3)cc1)C[NH+]1CCCC1
REMARK SMILES IDX 14 1 12 2 13 3 11 4 5 5 6 6 7 7 9 8 8 9 10 10 4 11 3 13 2 14
REMARK SMILES IDX 1 15 83 16 84 17 85 18 88 19 86 21 87 22 15 23 16 24 17 25
REMARK SMILES IDX 18 26 19 27 20 28 21 29 82 30 22 31 81 32 23 33 24 34 25 35
REMARK SMILES IDX 75 36 26 37 80 38 74 39 76 40 27 41 79 42 73 43 72 44 28 46
REMARK SMILES IDX 60 47 40 48 59 49 41 50 44 51 58 52 77 53 42 54 43 55 57 57
REMARK SMILES IDX 78 58 45 59 29 60 30 61 38 62 31 63 32 64 36 65 39 66 33 67
REMARK SMILES IDX 34 68 37 69 35 70 61 71 62 72 70 73 63 74 64 75 68 76 71 77
REMARK SMILES IDX 65 78 66 79 69 80 67 81 46 82 47 83 55 84 48 85 49 86 53 87
REMARK SMILES IDX 56 88 50 89 51 90 54 91 52 92
REMARK H PARENT 4 12 84 20 76 45 44 56
REMARK Flexibility Score: inf
ROOT
ATOM      1  O   UNL A   1      35.501  21.594  24.067  1.00  0.00    -0.458 OA
ENDROOT
BRANCH   1   2
ATOM      2  C   UNL A   1      35.741  22.850  23.609  1.00  0.00     0.343 C 
ATOM      3  O   UNL A   1      36.740  23.240  23.024  1.00  0.00    -0.246 OA
BRANCH   2   4
ATOM      4  C   UNL A   1      34.625  23.731  23.971  1.00  0.00     0.118 A 
ATOM      5  C   UNL A   1      33.414  23.730  23.258  1.00  0.00     0.052 A 
ATOM      6  C   UNL A   1      32.432  24.670  23.619  1.00  0.00     0.027 A 
ATOM      7  C   UNL A   1      32.639  25.566  24.671  1.00  0.00     0.005 A 
ATOM      8  C   UNL A   1      34.830  24.633  25.015  1.00  0.00     0.139 A 
ATOM      9  C   UNL A   1      33.838  25.540  25.377  1.00  0.00     0.040 A 
ATOM     10  F   UNL A   1      35.983  24.642  25.697  1.00  0.00    -0.206 F 
BRANCH   5  11
ATOM     11  N   UNL A   1      33.055  22.695  22.400  1.00  0.00    -0.384 N 
ATOM     12  H   UNL A   1      33.431  22.689  21.490  1.00  0.00     0.160 HD
BRANCH  11  13
ATOM     13  C   UNL A   1      32.153  21.622  22.783  1.00  0.00     0.122 C 
BRANCH  13  14
ATOM     14  C   UNL A   1      32.571  20.862  24.061  1.00  0.00     0.060 C 
ATOM     15  C   UNL A   1      31.778  21.186  25.335  1.00  0.00     0.015 C 
BRANCH  14  16
ATOM     16  C   UNL A   1      32.477  19.332  23.840  1.00  0.00     0.267 C 
BRANCH  16  17
ATOM     17  N   UNL A   1      33.267  18.599  24.838  1.00  0.00    -0.335 N 
ATOM     18  C   UNL A   1      34.478  18.004  24.251  1.00  0.00     0.262 C 
ATOM     19  C   UNL A   1      32.539  17.475  25.438  1.00  0.00     0.262 C 
ATOM     20  H   UNL A   1      33.489  19.305  25.541  1.00  0.00     0.348 HD
ATOM     21  C   UNL A   1      34.028  16.664  23.725  1.00  0.00     0.067 C 
ATOM     22  C   UNL A   1      32.904  16.233  24.643  1.00  0.00     0.067 C 
ENDBRANCH  16  17
ENDBRANCH  14  16
ENDBRANCH  13  14
ENDBRANCH  11  13
ENDBRANCH   5  11
ENDBRANCH   2   4
ENDBRANCH   1   2
BRANCH   1  23
ATOM     23  C   UNL A   1      35.974  21.328  25.401  1.00  0.00     0.275 C 
BRANCH  23  24
ATOM     24  C   UNL A   1      37.281  20.535  25.352  1.00  0.00     0.275 C 
BRANCH  24  25
ATOM     25  O   UNL A   1      38.411  21.434  25.394  1.00  0.00    -0.458 OA
BRANCH  25  26
ATOM     26  C   UNL A   1      39.328  21.173  26.358  1.00  0.00     0.338 C 
ATOM     27  O   UNL A   1      39.707  20.089  26.758  1.00  0.00    -0.246 OA
BRANCH  26  28
ATOM     28  C   UNL A   1      39.977  22.435  26.758  1.00  0.00     0.060 A 
ATOM     29  C   UNL A   1      39.521  23.583  26.125  1.00  0.00     0.016 A 
ATOM     30  C   UNL A   1      41.051  22.511  27.639  1.00  0.00     0.016 A 
ATOM     31  C   UNL A   1      40.089  24.830  26.397  1.00  0.00     0.010 A 
ATOM     32  C   UNL A   1      41.642  23.762  27.904  1.00  0.00     0.010 A 
ATOM     33  C   UNL A   1      41.159  24.934  27.293  1.00  0.00    -0.014 A 
BRANCH  33  34
ATOM     34  C   UNL A   1      41.805  26.265  27.491  1.00  0.00     0.031 A 
ATOM     35  C   UNL A   1      41.185  27.243  28.443  1.00  0.00     0.074 A 
ATOM     36  C   UNL A   1      42.959  26.582  26.870  1.00  0.00     0.049 A 
ATOM     37  N   UNL A   1      41.576  28.452  28.757  1.00  0.00    -0.248 NA
ATOM     38  C   UNL A   1      39.946  26.815  29.109  1.00  0.00     0.031 C 
ATOM     39  C   UNL A   1      43.650  25.712  25.927  1.00  0.00     0.029 A 
ATOM     40  N   UNL A   1      43.772  27.693  26.952  1.00  0.00    -0.354 N 
ATOM     41  C   UNL A   1      40.577  28.968  29.571  1.00  0.00     0.074 A 
ATOM     42  C   UNL A   1      39.603  27.915  29.764  1.00  0.00     0.031 C 
ATOM     43  C   UNL A   1      44.815  26.283  25.578  1.00  0.00     0.029 A 
ATOM     44  C   UNL A   1      44.951  27.580  26.241  1.00  0.00     0.049 A 
ATOM     45  H   UNL A   1      43.533  28.494  27.471  1.00  0.00     0.167 HD
ATOM     46  C   UNL A   1      40.461  30.227  30.054  1.00  0.00     0.037 A 
ATOM     47  C   UNL A   1      46.017  28.414  26.166  1.00  0.00     0.037 A 
ATOM     48  C   UNL A   1      41.451  31.258  29.877  1.00  0.00     0.049 A 
ATOM     49  C   UNL A   1      45.924  29.757  26.856  1.00  0.00     0.074 A 
ATOM     50  C   UNL A   1      41.411  32.572  30.309  1.00  0.00     0.029 A 
ATOM     51  N   UNL A   1      42.660  31.091  29.217  1.00  0.00    -0.354 N 
ATOM     52  N   UNL A   1      44.981  30.225  27.639  1.00  0.00    -0.248 NA
ATOM     53  C   UNL A   1      47.026  30.706  26.623  1.00  0.00     0.031 C 
ATOM     54  C   UNL A   1      42.564  33.218  29.856  1.00  0.00     0.029 A 
ATOM     55  C   UNL A   1      43.358  32.289  29.204  1.00  0.00     0.049 A 
ATOM     56  H   UNL A   1      42.975  30.249  28.819  1.00  0.00     0.167 HD
ATOM     57  C   UNL A   1      45.358  31.524  27.957  1.00  0.00     0.074 A 
ATOM     58  C   UNL A   1      46.665  31.736  27.373  1.00  0.00     0.031 C 
ATOM     59  C   UNL A   1      44.660  32.479  28.617  1.00  0.00     0.037 A 
BRANCH  46  60
ATOM     60  C   UNL A   1      39.164  30.599  30.709  1.00  0.00     0.064 A 
ATOM     61  C   UNL A   1      39.053  30.523  32.108  1.00  0.00     0.173 A 
ATOM     62  C   UNL A   1      38.037  31.006  29.984  1.00  0.00     0.173 A 
ATOM     63  F   UNL A   1      40.103  30.138  32.849  1.00  0.00    -0.203 F 
ATOM     64  C   UNL A   1      37.862  30.833  32.754  1.00  0.00     0.198 A 
ATOM     65  C   UNL A   1      36.855  31.349  30.638  1.00  0.00     0.198 A 
ATOM     66  F   UNL A   1      38.096  31.114  28.648  1.00  0.00    -0.203 F 
ATOM     67  F   UNL A   1      37.777  30.725  34.087  1.00  0.00    -0.200 F 
ATOM     68  C   UNL A   1      36.766  31.254  32.020  1.00  0.00     0.200 A 
ATOM     69  F   UNL A   1      35.804  31.788  29.930  1.00  0.00    -0.200 F 
ATOM     70  F   UNL A   1      35.624  31.578  32.644  1.00  0.00    -0.200 F 
ENDBRANCH  46  60
BRANCH  47  71
ATOM     71  C   UNL A   1      47.295  28.008  25.487  1.00  0.00     0.064 A 
ATOM     72  C   UNL A   1      47.423  27.885  24.097  1.00  0.00     0.173 A 
ATOM     73  C   UNL A   1      48.433  27.684  26.253  1.00  0.00     0.173 A 
ATOM     74  F   UNL A   1      46.404  28.220  23.294  1.00  0.00    -0.203 F 
ATOM     75  C   UNL A   1      48.589  27.383  23.514  1.00  0.00     0.198 A 
ATOM     76  C   UNL A   1      49.613  27.225  25.667  1.00  0.00     0.198 A 
ATOM     77  F   UNL A   1      48.396  27.795  27.589  1.00  0.00    -0.203 F 
ATOM     78  F   UNL A   1      48.645  27.201  22.187  1.00  0.00    -0.200 F 
ATOM     79  C   UNL A   1      49.683  27.051  24.298  1.00  0.00     0.200 A 
ATOM     80  F   UNL A   1      50.667  26.920  26.439  1.00  0.00    -0.200 F 
ATOM     81  F   UNL A   1      50.794  26.554  23.737  1.00  0.00    -0.200 F 
ENDBRANCH  47  71
BRANCH  59  82
ATOM     82  C   UNL A   1      45.264  33.853  28.696  1.00  0.00     0.064 A 
ATOM     83  C   UNL A   1      45.075  34.788  27.668  1.00  0.00     0.173 A 
ATOM     84  C   UNL A   1      46.113  34.210  29.758  1.00  0.00     0.173 A 
ATOM     85  F   UNL A   1      44.281  34.496  26.627  1.00  0.00    -0.203 F 
ATOM     86  C   UNL A   1      45.725  36.020  27.690  1.00  0.00     0.198 A 
ATOM     87  C   UNL A   1      46.735  35.455  29.792  1.00  0.00     0.198 A 
ATOM     88  F   UNL A   1      46.321  33.358  30.772  1.00  0.00    -0.203 F 
ATOM     89  F   UNL A   1      45.561  36.880  26.675  1.00  0.00    -0.200 F 
ATOM     90  C   UNL A   1      46.551  36.353  28.753  1.00  0.00     0.200 A 
ATOM     91  F   UNL A   1      47.512  35.785  30.833  1.00  0.00    -0.200 F 
ATOM     92  F   UNL A   1      47.170  37.541  28.776  1.00  0.00    -0.200 F 
ENDBRANCH  59  82
ENDBRANCH  33  34
ENDBRANCH  26  28
ENDBRANCH  25  26
ENDBRANCH  24  25
ENDBRANCH  23  24
ENDBRANCH   1  23
TORSDOF 16
ENDMDL
MODEL 3
REMARK VINA RESULT:     -11.1      4.338      6.633
REMARK SMILES C[C@H](CNc1cccc(F)c1C(=O)OCCOC(=O)c1ccc(-c2c3nc(c(-c4c(F)c(F)c(F)c(F)c4F)c4ccc([nH]4)c(-c4c(F)c(F)c(F)c(F)c4F)c4nc(c(-c5c(F)c(F)c(F)c(F)c5F)c5ccc2[nH]5)C=C4)C=C3)cc1)C[NH+]1CCCC1
REMARK SMILES IDX 14 1 12 2 13 3 11 4 5 5 6 6 7 7 9 8 8 9 10 10 4 11 3 13 2 14
REMARK SMILES IDX 1 15 83 16 84 17 85 18 88 19 86 21 87 22 15 23 16 24 17 25
REMARK SMILES IDX 18 26 19 27 20 28 21 29 82 30 22 31 81 32 23 33 24 34 25 35
REMARK SMILES IDX 75 36 26 37 80 38 74 39 76 40 27 41 79 42 73 43 72 44 28 46
REMARK SMILES IDX 60 47 40 48 59 49 41 50 44 51 58 52 77 53 42 54 43 55 57 57
REMARK SMILES IDX 78 58 45 59 29 60 30 61 38 62 31 63 32 64 36 65 39 66 33 67
REMARK SMILES IDX 34 68 37 69 35 70 61 71 62 72 70 73 63 74 64 75 68 76 71 77
REMARK SMILES IDX 65 78 66 79 69 80 67 81 46 82 47 83 55 84 48 85 49 86 53 87
REMARK SMILES IDX 56 88 50 89 51 90 54 91 52 92
REMARK H PARENT 4 12 84 20 76 45 44 56
REMARK Flexibility Score: inf
ROOT
ATOM      1  O   UNL A   1      35.688  23.491  24.084  1.00  0.00    -0.458 OA
ENDROOT
BRANCH   1   2
ATOM      2  C   UNL A   1      34.475  23.590  23.481  1.00  0.00     0.343 C 
ATOM      3  O   UNL A   1      34.244  23.531  22.282  1.00  0.00    -0.246 OA
BRANCH   2   4
ATOM      4  C   UNL A   1      33.440  23.845  24.488  1.00  0.00     0.118 A 
ATOM      5  C   UNL A   1      33.324  25.086  25.139  1.00  0.00     0.052 A 
ATOM      6  C   UNL A   1      32.361  25.214  26.154  1.00  0.00     0.027 A 
ATOM      7  C   UNL A   1      31.521  24.149  26.495  1.00  0.00     0.005 A 
ATOM      8  C   UNL A   1      32.605  22.784  24.837  1.00  0.00     0.139 A 
ATOM      9  C   UNL A   1      31.638  22.934  25.826  1.00  0.00     0.040 A 
ATOM     10  F   UNL A   1      32.711  21.597  24.223  1.00  0.00    -0.206 F 
BRANCH   5  11
ATOM     11  N   UNL A   1      33.936  26.239  24.658  1.00  0.00    -0.384 N 
ATOM     12  H   UNL A   1      34.495  26.172  23.850  1.00  0.00     0.160 HD
BRANCH  11  13
ATOM     13  C   UNL A   1      33.788  27.540  25.291  1.00  0.00     0.122 C 
BRANCH  13  14
ATOM     14  C   UNL A   1      33.359  28.672  24.332  1.00  0.00     0.060 C 
ATOM     15  C   UNL A   1      33.857  28.563  22.884  1.00  0.00     0.015 C 
BRANCH  14  16
ATOM     16  C   UNL A   1      31.815  28.782  24.278  1.00  0.00     0.267 C 
BRANCH  16  17
ATOM     17  N   UNL A   1      31.275  28.131  23.077  1.00  0.00    -0.335 N 
ATOM     18  C   UNL A   1      30.302  28.984  22.378  1.00  0.00     0.262 C 
ATOM     19  C   UNL A   1      30.553  26.888  23.372  1.00  0.00     0.262 C 
ATOM     20  H   UNL A   1      32.101  27.945  22.507  1.00  0.00     0.348 HD
ATOM     21  C   UNL A   1      28.983  28.687  23.048  1.00  0.00     0.067 C 
ATOM     22  C   UNL A   1      29.082  27.246  23.500  1.00  0.00     0.067 C 
ENDBRANCH  16  17
ENDBRANCH  14  16
ENDBRANCH  13  14
ENDBRANCH  11  13
ENDBRANCH   5  11
ENDBRANCH   2   4
ENDBRANCH   1   2
BRANCH   1  23
ATOM     23  C   UNL A   1      36.486  22.364  23.677  1.00  0.00     0.275 C 
BRANCH  23  24
ATOM     24  C   UNL A   1      36.430  21.263  24.737  1.00  0.00     0.275 C 
BRANCH  24  25
ATOM     25  O   UNL A   1      37.096  21.697  25.942  1.00  0.00    -0.458 OA
BRANCH  25  26
ATOM     26  C   UNL A   1      38.396  21.331  26.055  1.00  0.00     0.338 C 
ATOM     27  O   UNL A   1      38.911  20.281  25.720  1.00  0.00    -0.246 OA
BRANCH  26  28
ATOM     28  C   UNL A   1      39.188  22.495  26.493  1.00  0.00     0.060 A 
ATOM     29  C   UNL A   1      38.696  23.740  26.126  1.00  0.00     0.016 A 
ATOM     30  C   UNL A   1      40.408  22.401  27.152  1.00  0.00     0.016 A 
ATOM     31  C   UNL A   1      39.383  24.912  26.453  1.00  0.00     0.010 A 
ATOM     32  C   UNL A   1      41.117  23.577  27.469  1.00  0.00     0.010 A 
ATOM     33  C   UNL A   1      40.605  24.844  27.132  1.00  0.00    -0.014 A 
BRANCH  33  34
ATOM     34  C   UNL A   1      41.360  26.106  27.384  1.00  0.00     0.031 A 
ATOM     35  C   UNL A   1      40.796  27.116  28.339  1.00  0.00     0.074 A 
ATOM     36  C   UNL A   1      42.559  26.331  26.809  1.00  0.00     0.049 A 
ATOM     37  N   UNL A   1      41.282  28.277  28.695  1.00  0.00    -0.248 NA
ATOM     38  C   UNL A   1      39.501  26.786  28.952  1.00  0.00     0.031 C 
ATOM     39  C   UNL A   1      43.202  25.424  25.868  1.00  0.00     0.029 A 
ATOM     40  N   UNL A   1      43.464  27.363  26.946  1.00  0.00    -0.354 N 
ATOM     41  C   UNL A   1      40.305  28.863  29.488  1.00  0.00     0.074 A 
ATOM     42  C   UNL A   1      39.235  27.898  29.622  1.00  0.00     0.031 C 
ATOM     43  C   UNL A   1      44.425  25.894  25.573  1.00  0.00     0.029 A 
ATOM     44  C   UNL A   1      44.653  27.159  26.272  1.00  0.00     0.049 A 
ATOM     45  H   UNL A   1      43.279  28.171  27.476  1.00  0.00     0.167 HD
ATOM     46  C   UNL A   1      40.286  30.117  29.998  1.00  0.00     0.037 A 
ATOM     47  C   UNL A   1      45.791  27.895  26.253  1.00  0.00     0.037 A 
ATOM     48  C   UNL A   1      41.369  31.059  29.878  1.00  0.00     0.049 A 
ATOM     49  C   UNL A   1      45.794  29.226  26.972  1.00  0.00     0.074 A 
ATOM     50  C   UNL A   1      41.431  32.361  30.342  1.00  0.00     0.029 A 
ATOM     51  N   UNL A   1      42.581  30.798  29.256  1.00  0.00    -0.354 N 
ATOM     52  N   UNL A   1      44.869  29.760  27.734  1.00  0.00    -0.248 NA
ATOM     53  C   UNL A   1      46.983  30.076  26.799  1.00  0.00     0.031 C 
ATOM     54  C   UNL A   1      42.653  32.910  29.942  1.00  0.00     0.029 A 
ATOM     55  C   UNL A   1      43.383  31.927  29.295  1.00  0.00     0.049 A 
ATOM     56  H   UNL A   1      42.833  29.939  28.847  1.00  0.00     0.167 HD
ATOM     57  C   UNL A   1      45.350  31.012  28.097  1.00  0.00     0.074 A 
ATOM     58  C   UNL A   1      46.690  31.119  27.562  1.00  0.00     0.031 C 
ATOM     59  C   UNL A   1      44.716  32.012  28.757  1.00  0.00     0.037 A 
BRANCH  46  60
ATOM     60  C   UNL A   1      39.004  30.590  30.618  1.00  0.00     0.064 A 
ATOM     61  C   UNL A   1      37.986  31.096  29.791  1.00  0.00     0.173 A 
ATOM     62  C   UNL A   1      38.777  30.571  31.999  1.00  0.00     0.173 A 
ATOM     63  F   UNL A   1      38.153  31.137  28.461  1.00  0.00    -0.203 F 
ATOM     64  C   UNL A   1      36.794  31.570  30.326  1.00  0.00     0.198 A 
ATOM     65  C   UNL A   1      37.567  31.015  32.529  1.00  0.00     0.198 A 
ATOM     66  F   UNL A   1      39.708  30.080  32.830  1.00  0.00    -0.203 F 
ATOM     67  F   UNL A   1      35.851  32.071  29.516  1.00  0.00    -0.200 F 
ATOM     68  C   UNL A   1      36.580  31.521  31.694  1.00  0.00     0.200 A 
ATOM     69  F   UNL A   1      37.347  30.938  33.849  1.00  0.00    -0.200 F 
ATOM     70  F   UNL A   1      35.420  31.954  32.207  1.00  0.00    -0.200 F 
ENDBRANCH  46  60
BRANCH  47  71
ATOM     71  C   UNL A   1      47.051  27.390  25.607  1.00  0.00     0.064 A 
ATOM     72  C   UNL A   1      48.040  26.681  26.300  1.00  0.00     0.173 A 
ATOM     73  C   UNL A   1      47.308  27.661  24.248  1.00  0.00     0.173 A 
ATOM     74  F   UNL A   1      47.852  26.340  27.582  1.00  0.00    -0.203 F 
ATOM     75  C   UNL A   1      49.253  26.340  25.695  1.00  0.00     0.198 A 
ATOM     76  C   UNL A   1      48.501  27.282  23.631  1.00  0.00     0.198 A 
ATOM     77  F   UNL A   1      46.401  28.319  23.511  1.00  0.00    -0.203 F 
ATOM     78  F   UNL A   1      50.209  25.735  26.413  1.00  0.00    -0.200 F 
ATOM     79  C   UNL A   1      49.484  26.643  24.362  1.00  0.00     0.200 A 
ATOM     80  F   UNL A   1      48.704  27.570  22.337  1.00  0.00    -0.200 F 
ATOM     81  F   UNL A   1      50.654  26.330  23.789  1.00  0.00    -0.200 F 
ENDBRANCH  47  71
BRANCH  59  82
ATOM     82  C   UNL A   1      45.438  33.325  28.890  1.00  0.00     0.064 A 
ATOM     83  C   UNL A   1      46.205  33.618  30.026  1.00  0.00     0.173 A 
ATOM     84  C   UNL A   1      45.288  34.333  27.922  1.00  0.00     0.173 A 
ATOM     85  F   UNL A   1      46.373  32.694  30.985  1.00  0.00    -0.203 F 
ATOM     86  C   UNL A   1      46.781  34.875  30.198  1.00  0.00     0.198 A 
ATOM     87  C   UNL A   1      45.893  35.576  28.082  1.00  0.00     0.198 A 
ATOM     88  F   UNL A   1      44.572  34.102  26.812  1.00  0.00    -0.203 F 
ATOM     89  F   UNL A   1      47.475  35.145  31.312  1.00  0.00    -0.200 F 
ATOM     90  C   UNL A   1      46.627  35.851  29.225  1.00  0.00     0.200 A 
ATOM     91  F   UNL A   1      45.764  36.509  27.128  1.00  0.00    -0.200 F 
ATOM     92  F   UNL A   1      47.188  37.056  29.388  1.00  0.00    -0.200 F 
ENDBRANCH  59  82
ENDBRANCH  33  34
ENDBRANCH  26  28
ENDBRANCH  25  26
ENDBRANCH  24  25
ENDBRANCH  23  24
ENDBRANCH   1  23
TORSDOF 16
ENDMDL
