MODEL 1
REMARK VINA RESULT:     -12.9      0.000      0.000
REMARK SMILES O=C(OCCOC(=O)c1cccc(NC(=O)c2cc3ccccc3[nH]2)c1)c1ccc(-c2c3nc(c(-c4c(F)c(F)c(F)c(F)c4F)c4ccc([nH]4)c(-c4c(F)c(F)c(F)c(F)c4F)c4nc(c(-c5c(F)c(F)c(F)c(F)c5F)c5ccc2[nH]5)C=C4)C=C3)cc1
REMARK SMILES IDX 4 1 3 2 2 3 1 4 27 5 28 6 89 7 29 8 88 9 30 10 31 11 32 12
REMARK SMILES IDX 82 13 33 14 87 15 81 16 83 17 34 18 86 19 80 20 79 21 35 23
REMARK SMILES IDX 67 24 47 25 66 26 48 27 51 28 65 29 84 30 49 31 50 32 64 34
REMARK SMILES IDX 85 35 52 36 36 37 37 38 45 39 38 40 39 41 43 42 46 43 40 44
REMARK SMILES IDX 41 45 44 46 42 47 68 48 69 49 77 50 70 51 71 52 75 53 78 54
REMARK SMILES IDX 72 55 73 56 76 57 74 58 53 59 54 60 62 61 55 62 56 63 60 64
REMARK SMILES IDX 63 65 57 66 58 67 61 68 59 69 5 70 6 71 7 72 8 73 9 74 10 75
REMARK SMILES IDX 26 76 11 77 13 78 12 79 14 80 15 81 16 83 17 84 18 85 25 86
REMARK SMILES IDX 19 87 24 88 20 90 23 91 21 92 22 93
REMARK H PARENT 83 22 51 33 14 82 25 89
REMARK Flexibility Score: inf
ROOT
ATOM      1  C   UNL A   1      31.582  32.242  27.051  1.00  0.00     0.275 C 
ENDROOT
BRANCH   1   2
ATOM      2  O   UNL A   1      32.259  33.511  27.128  1.00  0.00    -0.458 OA
BRANCH   2   3
ATOM      3  C   UNL A   1      32.931  34.098  28.145  1.00  0.00     0.338 C 
ATOM      4  O   UNL A   1      32.527  35.177  28.578  1.00  0.00    -0.246 OA
BRANCH   3   5
ATOM      5  C   UNL A   1      34.218  33.578  28.707  1.00  0.00     0.060 A 
ATOM      6  C   UNL A   1      35.494  33.890  28.240  1.00  0.00     0.016 A 
ATOM      7  C   UNL A   1      34.115  32.673  29.784  1.00  0.00     0.016 A 
ATOM      8  C   UNL A   1      36.632  33.377  28.865  1.00  0.00     0.010 A 
ATOM      9  C   UNL A   1      35.252  32.159  30.418  1.00  0.00     0.010 A 
ATOM     10  C   UNL A   1      36.522  32.511  29.957  1.00  0.00    -0.014 A 
BRANCH  10  11
ATOM     11  C   UNL A   1      37.754  31.916  30.516  1.00  0.00     0.031 A 
ATOM     12  C   UNL A   1      38.259  32.394  31.842  1.00  0.00     0.074 A 
ATOM     13  C   UNL A   1      38.344  30.876  29.900  1.00  0.00     0.049 A 
ATOM     14  N   UNL A   1      39.235  31.919  32.571  1.00  0.00    -0.248 NA
ATOM     15  C   UNL A   1      37.548  33.531  32.449  1.00  0.00     0.031 C 
ATOM     16  C   UNL A   1      37.893  30.278  28.645  1.00  0.00     0.029 A 
ATOM     17  N   UNL A   1      39.446  30.137  30.243  1.00  0.00    -0.354 N 
ATOM     18  C   UNL A   1      39.209  32.649  33.749  1.00  0.00     0.074 A 
ATOM     19  C   UNL A   1      38.179  33.655  33.607  1.00  0.00     0.031 C 
ATOM     20  C   UNL A   1      38.745  29.300  28.293  1.00  0.00     0.029 A 
ATOM     21  C   UNL A   1      39.792  29.201  29.300  1.00  0.00     0.049 A 
ATOM     22  H   UNL A   1      39.941  30.265  31.083  1.00  0.00     0.167 HD
ATOM     23  C   UNL A   1      39.951  32.463  34.866  1.00  0.00     0.037 A 
ATOM     24  C   UNL A   1      40.844  28.364  29.254  1.00  0.00     0.037 A 
ATOM     25  C   UNL A   1      41.009  31.495  34.980  1.00  0.00     0.049 A 
ATOM     26  C   UNL A   1      41.755  28.287  30.439  1.00  0.00     0.074 A 
ATOM     27  C   UNL A   1      41.848  31.252  36.052  1.00  0.00     0.029 A 
ATOM     28  N   UNL A   1      41.385  30.618  33.970  1.00  0.00    -0.354 N 
ATOM     29  N   UNL A   1      41.709  28.964  31.559  1.00  0.00    -0.248 NA
ATOM     30  C   UNL A   1      42.830  27.289  30.373  1.00  0.00     0.031 C 
ATOM     31  C   UNL A   1      42.760  30.259  35.676  1.00  0.00     0.029 A 
ATOM     32  C   UNL A   1      42.460  29.850  34.387  1.00  0.00     0.049 A 
ATOM     33  H   UNL A   1      40.951  30.553  33.089  1.00  0.00     0.167 HD
ATOM     34  C   UNL A   1      42.735  28.464  32.344  1.00  0.00     0.074 A 
ATOM     35  C   UNL A   1      43.377  27.417  31.574  1.00  0.00     0.031 C 
ATOM     36  C   UNL A   1      43.102  28.831  33.595  1.00  0.00     0.037 A 
BRANCH  23  37
ATOM     37  C   UNL A   1      39.629  33.332  36.043  1.00  0.00     0.064 A 
ATOM     38  C   UNL A   1      38.683  32.933  37.001  1.00  0.00     0.173 A 
ATOM     39  C   UNL A   1      40.266  34.567  36.220  1.00  0.00     0.173 A 
ATOM     40  F   UNL A   1      38.030  31.769  36.863  1.00  0.00    -0.203 F 
ATOM     41  C   UNL A   1      38.372  33.751  38.083  1.00  0.00     0.198 A 
ATOM     42  C   UNL A   1      39.969  35.372  37.317  1.00  0.00     0.198 A 
ATOM     43  F   UNL A   1      41.173  34.994  35.329  1.00  0.00    -0.203 F 
ATOM     44  F   UNL A   1      37.434  33.371  38.962  1.00  0.00    -0.200 F 
ATOM     45  C   UNL A   1      39.019  34.967  38.243  1.00  0.00     0.200 A 
ATOM     46  F   UNL A   1      40.596  36.546  37.472  1.00  0.00    -0.200 F 
ATOM     47  F   UNL A   1      38.718  35.756  39.284  1.00  0.00    -0.200 F 
ENDBRANCH  23  37
BRANCH  24  48
ATOM     48  C   UNL A   1      41.106  27.547  28.047  1.00  0.00     0.064 A 
ATOM     49  C   UNL A   1      40.585  26.257  27.903  1.00  0.00     0.173 A 
ATOM     50  C   UNL A   1      41.934  28.042  27.028  1.00  0.00     0.173 A 
ATOM     51  F   UNL A   1      39.840  25.721  28.880  1.00  0.00    -0.203 F 
ATOM     52  C   UNL A   1      40.873  25.492  26.773  1.00  0.00     0.198 A 
ATOM     53  C   UNL A   1      42.194  27.290  25.885  1.00  0.00     0.198 A 
ATOM     54  F   UNL A   1      42.518  29.241  27.171  1.00  0.00    -0.203 F 
ATOM     55  F   UNL A   1      40.406  24.239  26.678  1.00  0.00    -0.200 F 
ATOM     56  C   UNL A   1      41.665  26.014  25.760  1.00  0.00     0.200 A 
ATOM     57  F   UNL A   1      42.979  27.782  24.916  1.00  0.00    -0.200 F 
ATOM     58  F   UNL A   1      41.940  25.274  24.677  1.00  0.00    -0.200 F 
ENDBRANCH  24  48
BRANCH  36  59
ATOM     59  C   UNL A   1      44.247  28.079  34.202  1.00  0.00     0.064 A 
ATOM     60  C   UNL A   1      45.568  28.535  34.085  1.00  0.00     0.173 A 
ATOM     61  C   UNL A   1      44.018  26.884  34.900  1.00  0.00     0.173 A 
ATOM     62  F   UNL A   1      45.836  29.659  33.406  1.00  0.00    -0.203 F 
ATOM     63  C   UNL A   1      46.624  27.800  34.615  1.00  0.00     0.198 A 
ATOM     64  C   UNL A   1      45.073  26.170  35.457  1.00  0.00     0.198 A 
ATOM     65  F   UNL A   1      42.771  26.409  35.039  1.00  0.00    -0.203 F 
ATOM     66  F   UNL A   1      47.884  28.219  34.437  1.00  0.00    -0.200 F 
ATOM     67  C   UNL A   1      46.376  26.623  35.304  1.00  0.00     0.200 A 
ATOM     68  F   UNL A   1      44.831  25.037  36.131  1.00  0.00    -0.200 F 
ATOM     69  F   UNL A   1      47.394  25.915  35.812  1.00  0.00    -0.200 F 
ENDBRANCH  36  59
ENDBRANCH  10  11
ENDBRANCH   3   5
ENDBRANCH   2   3
ENDBRANCH   1   2
BRANCH   1  70
ATOM     70  C   UNL A   1      32.487  31.025  26.832  1.00  0.00     0.275 C 
BRANCH  70  71
ATOM     71  O   UNL A   1      31.826  29.776  27.061  1.00  0.00    -0.458 OA
BRANCH  71  72
ATOM     72  C   UNL A   1      32.502  28.686  26.597  1.00  0.00     0.338 C 
ATOM     73  O   UNL A   1      33.663  28.408  26.792  1.00  0.00    -0.246 OA
BRANCH  72  74
ATOM     74  C   UNL A   1      31.553  27.813  25.874  1.00  0.00     0.062 A 
ATOM     75  C   UNL A   1      31.193  28.115  24.563  1.00  0.00     0.016 A 
ATOM     76  C   UNL A   1      31.018  26.691  26.499  1.00  0.00     0.041 A 
ATOM     77  C   UNL A   1      30.315  27.269  23.878  1.00  0.00     0.003 A 
ATOM     78  C   UNL A   1      30.103  25.867  25.829  1.00  0.00     0.042 A 
ATOM     79  C   UNL A   1      29.759  26.148  24.511  1.00  0.00     0.026 A 
BRANCH  78  80
ATOM     80  N   UNL A   1      29.652  24.787  26.576  1.00  0.00    -0.321 N 
ATOM     81  C   UNL A   1      30.111  23.572  26.964  1.00  0.00     0.272 C 
ATOM     82  H   UNL A   1      28.745  24.950  26.921  1.00  0.00     0.170 HD
ATOM     83  O   UNL A   1      29.331  22.943  27.687  1.00  0.00    -0.267 OA
BRANCH  81  84
ATOM     84  C   UNL A   1      31.279  22.928  26.431  1.00  0.00     0.105 A 
ATOM     85  C   UNL A   1      31.486  22.413  25.155  1.00  0.00     0.042 A 
ATOM     86  N   UNL A   1      32.528  23.353  26.849  1.00  0.00    -0.351 N 
ATOM     87  C   UNL A   1      32.615  23.143  24.645  1.00  0.00     0.000 A 
ATOM     88  C   UNL A   1      33.179  23.819  25.725  1.00  0.00     0.046 A 
ATOM     89  H   UNL A   1      32.882  23.330  27.767  1.00  0.00     0.167 HD
ATOM     90  C   UNL A   1      33.093  23.430  23.352  1.00  0.00     0.010 A 
ATOM     91  C   UNL A   1      34.130  24.833  25.590  1.00  0.00     0.026 A 
ATOM     92  C   UNL A   1      34.015  24.475  23.192  1.00  0.00     0.001 A 
ATOM     93  C   UNL A   1      34.504  25.179  24.291  1.00  0.00     0.002 A 
ENDBRANCH  81  84
ENDBRANCH  78  80
ENDBRANCH  72  74
ENDBRANCH  71  72
ENDBRANCH  70  71
ENDBRANCH   1  70
TORSDOF 13
ENDMDL
MODEL 2
REMARK VINA RESULT:     -12.8      0.276      1.617
REMARK SMILES O=C(OCCOC(=O)c1cccc(NC(=O)c2cc3ccccc3[nH]2)c1)c1ccc(-c2c3nc(c(-c4c(F)c(F)c(F)c(F)c4F)c4ccc([nH]4)c(-c4c(F)c(F)c(F)c(F)c4F)c4nc(c(-c5c(F)c(F)c(F)c(F)c5F)c5ccc2[nH]5)C=C4)C=C3)cc1
REMARK SMILES IDX 4 1 3 2 2 3 1 4 27 5 28 6 89 7 29 8 88 9 30 10 31 11 32 12
REMARK SMILES IDX 82 13 33 14 87 15 81 16 83 17 34 18 86 19 80 20 79 21 35 23
REMARK SMILES IDX 67 24 47 25 66 26 48 27 51 28 65 29 84 30 49 31 50 32 64 34
REMARK SMILES IDX 85 35 52 36 36 37 37 38 45 39 38 40 39 41 43 42 46 43 40 44
REMARK SMILES IDX 41 45 44 46 42 47 68 48 69 49 77 50 70 51 71 52 75 53 78 54
REMARK SMILES IDX 72 55 73 56 76 57 74 58 53 59 54 60 62 61 55 62 56 63 60 64
REMARK SMILES IDX 63 65 57 66 58 67 61 68 59 69 5 70 6 71 7 72 8 73 9 74 10 75
REMARK SMILES IDX 26 76 11 77 13 78 12 79 14 80 15 81 16 83 17 84 18 85 25 86
REMARK SMILES IDX 19 87 24 88 20 90 23 91 21 92 22 93
REMARK H PARENT 83 22 51 33 14 82 25 89
REMARK Flexibility Score: inf
ROOT
ATOM      1  C   UNL A   1      31.626  32.336  27.004  1.00  0.00     0.275 C 
ENDROOT
BRANCH   1   2
ATOM      2  O   UNL A   1      32.289  33.605  27.164  1.00  0.00    -0.458 OA
BRANCH   2   3
ATOM      3  C   UNL A   1      32.939  34.138  28.224  1.00  0.00     0.338 C 
ATOM      4  O   UNL A   1      32.528  35.196  28.700  1.00  0.00    -0.246 OA
BRANCH   3   5
ATOM      5  C   UNL A   1      34.211  33.586  28.789  1.00  0.00     0.060 A 
ATOM      6  C   UNL A   1      35.496  33.864  28.324  1.00  0.00     0.016 A 
ATOM      7  C   UNL A   1      34.083  32.688  29.870  1.00  0.00     0.016 A 
ATOM      8  C   UNL A   1      36.619  33.323  28.952  1.00  0.00     0.010 A 
ATOM      9  C   UNL A   1      35.205  32.146  30.507  1.00  0.00     0.010 A 
ATOM     10  C   UNL A   1      36.484  32.464  30.046  1.00  0.00    -0.014 A 
BRANCH  10  11
ATOM     11  C   UNL A   1      37.700  31.839  30.609  1.00  0.00     0.031 A 
ATOM     12  C   UNL A   1      38.187  32.272  31.957  1.00  0.00     0.074 A 
ATOM     13  C   UNL A   1      38.289  30.809  29.973  1.00  0.00     0.049 A 
ATOM     14  N   UNL A   1      39.145  31.765  32.688  1.00  0.00    -0.248 NA
ATOM     15  C   UNL A   1      37.478  33.399  32.584  1.00  0.00     0.031 C 
ATOM     16  C   UNL A   1      37.853  30.253  28.694  1.00  0.00     0.029 A 
ATOM     17  N   UNL A   1      39.376  30.048  30.314  1.00  0.00    -0.354 N 
ATOM     18  C   UNL A   1      39.107  32.461  33.886  1.00  0.00     0.074 A 
ATOM     19  C   UNL A   1      38.090  33.483  33.756  1.00  0.00     0.031 C 
ATOM     20  C   UNL A   1      38.700  29.276  28.329  1.00  0.00     0.029 A 
ATOM     21  C   UNL A   1      39.728  29.135  29.350  1.00  0.00     0.049 A 
ATOM     22  H   UNL A   1      39.858  30.146  31.166  1.00  0.00     0.167 HD
ATOM     23  C   UNL A   1      39.827  32.235  35.009  1.00  0.00     0.037 A 
ATOM     24  C   UNL A   1      40.771  28.288  29.298  1.00  0.00     0.037 A 
ATOM     25  C   UNL A   1      40.871  31.251  35.114  1.00  0.00     0.049 A 
ATOM     26  C   UNL A   1      41.660  28.165  30.496  1.00  0.00     0.074 A 
ATOM     27  C   UNL A   1      41.688  30.967  36.192  1.00  0.00     0.029 A 
ATOM     28  N   UNL A   1      41.255  30.399  34.086  1.00  0.00    -0.354 N 
ATOM     29  N   UNL A   1      41.603  28.811  31.634  1.00  0.00    -0.248 NA
ATOM     30  C   UNL A   1      42.725  27.158  30.420  1.00  0.00     0.031 C 
ATOM     31  C   UNL A   1      42.596  29.975  35.804  1.00  0.00     0.029 A 
ATOM     32  C   UNL A   1      42.314  29.607  34.498  1.00  0.00     0.049 A 
ATOM     33  H   UNL A   1      40.836  30.365  33.196  1.00  0.00     0.167 HD
ATOM     34  C   UNL A   1      42.608  28.277  32.422  1.00  0.00     0.074 A 
ATOM     35  C   UNL A   1      43.252  27.244  31.633  1.00  0.00     0.031 C 
ATOM     36  C   UNL A   1      42.958  28.603  33.689  1.00  0.00     0.037 A 
BRANCH  23  37
ATOM     37  C   UNL A   1      39.494  33.073  36.206  1.00  0.00     0.064 A 
ATOM     38  C   UNL A   1      40.132  34.303  36.430  1.00  0.00     0.173 A 
ATOM     39  C   UNL A   1      38.533  32.651  37.134  1.00  0.00     0.173 A 
ATOM     40  F   UNL A   1      41.076  34.739  35.581  1.00  0.00    -0.203 F 
ATOM     41  C   UNL A   1      39.835  35.070  37.552  1.00  0.00     0.198 A 
ATOM     42  C   UNL A   1      38.222  33.432  38.244  1.00  0.00     0.198 A 
ATOM     43  F   UNL A   1      37.899  31.481  36.966  1.00  0.00    -0.203 F 
ATOM     44  F   UNL A   1      40.489  36.220  37.771  1.00  0.00    -0.200 F 
ATOM     45  C   UNL A   1      38.876  34.637  38.456  1.00  0.00     0.200 A 
ATOM     46  F   UNL A   1      37.292  33.014  39.115  1.00  0.00    -0.200 F 
ATOM     47  F   UNL A   1      38.591  35.374  39.538  1.00  0.00    -0.200 F 
ENDBRANCH  23  37
BRANCH  24  48
ATOM     48  C   UNL A   1      41.045  27.503  28.072  1.00  0.00     0.064 A 
ATOM     49  C   UNL A   1      40.535  26.212  27.895  1.00  0.00     0.173 A 
ATOM     50  C   UNL A   1      41.873  28.029  27.069  1.00  0.00     0.173 A 
ATOM     51  F   UNL A   1      39.792  25.646  28.856  1.00  0.00    -0.203 F 
ATOM     52  C   UNL A   1      40.835  25.477  26.748  1.00  0.00     0.198 A 
ATOM     53  C   UNL A   1      42.144  27.308  25.909  1.00  0.00     0.198 A 
ATOM     54  F   UNL A   1      42.446  29.229  27.244  1.00  0.00    -0.203 F 
ATOM     55  F   UNL A   1      40.379  24.223  26.621  1.00  0.00    -0.200 F 
ATOM     56  C   UNL A   1      41.626  26.031  25.751  1.00  0.00     0.200 A 
ATOM     57  F   UNL A   1      42.928  27.829  24.956  1.00  0.00    -0.200 F 
ATOM     58  F   UNL A   1      41.912  25.319  24.652  1.00  0.00    -0.200 F 
ENDBRANCH  24  48
BRANCH  36  59
ATOM     59  C   UNL A   1      44.083  27.820  34.293  1.00  0.00     0.064 A 
ATOM     60  C   UNL A   1      43.859  26.598  34.943  1.00  0.00     0.173 A 
ATOM     61  C   UNL A   1      45.398  28.305  34.229  1.00  0.00     0.173 A 
ATOM     62  F   UNL A   1      42.615  26.108  35.050  1.00  0.00    -0.203 F 
ATOM     63  C   UNL A   1      44.908  25.906  35.540  1.00  0.00     0.198 A 
ATOM     64  C   UNL A   1      46.449  27.593  34.798  1.00  0.00     0.198 A 
ATOM     65  F   UNL A   1      45.662  29.469  33.617  1.00  0.00    -0.203 F 
ATOM     66  F   UNL A   1      44.664  24.772  36.211  1.00  0.00    -0.200 F 
ATOM     67  C   UNL A   1      46.201  26.401  35.462  1.00  0.00     0.200 A 
ATOM     68  F   UNL A   1      47.699  28.068  34.714  1.00  0.00    -0.200 F 
ATOM     69  F   UNL A   1      47.210  25.734  36.039  1.00  0.00    -0.200 F 
ENDBRANCH  36  59
ENDBRANCH  10  11
ENDBRANCH   3   5
ENDBRANCH   2   3
ENDBRANCH   1   2
BRANCH   1  70
ATOM     70  C   UNL A   1      32.550  31.123  26.863  1.00  0.00     0.275 C 
BRANCH  70  71
ATOM     71  O   UNL A   1      32.013  30.092  26.026  1.00  0.00    -0.458 OA
BRANCH  71  72
ATOM     72  C   UNL A   1      32.314  28.824  26.429  1.00  0.00     0.338 C 
ATOM     73  O   UNL A   1      33.106  28.497  27.283  1.00  0.00    -0.246 OA
BRANCH  72  74
ATOM     74  C   UNL A   1      31.432  27.878  25.714  1.00  0.00     0.062 A 
ATOM     75  C   UNL A   1      31.090  28.117  24.385  1.00  0.00     0.016 A 
ATOM     76  C   UNL A   1      30.940  26.751  26.364  1.00  0.00     0.041 A 
ATOM     77  C   UNL A   1      30.276  27.203  23.708  1.00  0.00     0.003 A 
ATOM     78  C   UNL A   1      30.087  25.857  25.701  1.00  0.00     0.042 A 
ATOM     79  C   UNL A   1      29.764  26.076  24.366  1.00  0.00     0.026 A 
BRANCH  78  80
ATOM     80  N   UNL A   1      29.674  24.781  26.474  1.00  0.00    -0.321 N 
ATOM     81  C   UNL A   1      30.173  23.588  26.884  1.00  0.00     0.272 C 
ATOM     82  H   UNL A   1      28.764  24.923  26.822  1.00  0.00     0.170 HD
ATOM     83  O   UNL A   1      29.417  22.952  27.626  1.00  0.00    -0.267 OA
BRANCH  81  84
ATOM     84  C   UNL A   1      31.356  22.969  26.357  1.00  0.00     0.105 A 
ATOM     85  C   UNL A   1      31.554  22.385  25.110  1.00  0.00     0.042 A 
ATOM     86  N   UNL A   1      32.593  23.480  26.709  1.00  0.00    -0.351 N 
ATOM     87  C   UNL A   1      32.630  23.134  24.522  1.00  0.00     0.000 A 
ATOM     88  C   UNL A   1      33.189  23.904  25.539  1.00  0.00     0.046 A 
ATOM     89  H   UNL A   1      32.972  23.532  27.616  1.00  0.00     0.167 HD
ATOM     90  C   UNL A   1      33.057  23.361  23.198  1.00  0.00     0.010 A 
ATOM     91  C   UNL A   1      34.084  24.953  25.313  1.00  0.00     0.026 A 
ATOM     92  C   UNL A   1      33.921  24.437  22.946  1.00  0.00     0.001 A 
ATOM     93  C   UNL A   1      34.404  25.233  23.984  1.00  0.00     0.002 A 
ENDBRANCH  81  84
ENDBRANCH  78  80
ENDBRANCH  72  74
ENDBRANCH  71  72
ENDBRANCH  70  71
ENDBRANCH   1  70
TORSDOF 13
ENDMDL
MODEL 3
REMARK VINA RESULT:     -12.6      1.017      2.103
REMARK SMILES O=C(OCCOC(=O)c1cccc(NC(=O)c2cc3ccccc3[nH]2)c1)c1ccc(-c2c3nc(c(-c4c(F)c(F)c(F)c(F)c4F)c4ccc([nH]4)c(-c4c(F)c(F)c(F)c(F)c4F)c4nc(c(-c5c(F)c(F)c(F)c(F)c5F)c5ccc2[nH]5)C=C4)C=C3)cc1
REMARK SMILES IDX 4 1 3 2 2 3 1 4 27 5 28 6 89 7 29 8 88 9 30 10 31 11 32 12
REMARK SMILES IDX 82 13 33 14 87 15 81 16 83 17 34 18 86 19 80 20 79 21 35 23
REMARK SMILES IDX 67 24 47 25 66 26 48 27 51 28 65 29 84 30 49 31 50 32 64 34
REMARK SMILES IDX 85 35 52 36 36 37 37 38 45 39 38 40 39 41 43 42 46 43 40 44
REMARK SMILES IDX 41 45 44 46 42 47 68 48 69 49 77 50 70 51 71 52 75 53 78 54
REMARK SMILES IDX 72 55 73 56 76 57 74 58 53 59 54 60 62 61 55 62 56 63 60 64
REMARK SMILES IDX 63 65 57 66 58 67 61 68 59 69 5 70 6 71 7 72 8 73 9 74 10 75
REMARK SMILES IDX 26 76 11 77 13 78 12 79 14 80 15 81 16 83 17 84 18 85 25 86
REMARK SMILES IDX 19 87 24 88 20 90 23 91 21 92 22 93
REMARK H PARENT 83 22 51 33 14 82 25 89
REMARK Flexibility Score: inf
ROOT
ATOM      1  C   UNL A   1      31.673  32.060  26.985  1.00  0.00     0.275 C 
ENDROOT
BRANCH   1   2
ATOM      2  O   UNL A   1      32.687  33.083  26.979  1.00  0.00    -0.458 OA
BRANCH   2   3
ATOM      3  C   UNL A   1      33.410  33.622  27.988  1.00  0.00     0.338 C 
ATOM      4  O   UNL A   1      33.156  34.771  28.350  1.00  0.00    -0.246 OA
BRANCH   3   5
ATOM      5  C   UNL A   1      34.591  32.955  28.620  1.00  0.00     0.060 A 
ATOM      6  C   UNL A   1      34.538  31.916  29.549  1.00  0.00     0.016 A 
ATOM      7  C   UNL A   1      35.862  33.446  28.255  1.00  0.00     0.016 A 
ATOM      8  C   UNL A   1      35.707  31.339  30.047  1.00  0.00     0.010 A 
ATOM      9  C   UNL A   1      37.038  32.868  28.748  1.00  0.00     0.010 A 
ATOM     10  C   UNL A   1      36.963  31.807  29.652  1.00  0.00    -0.014 A 
BRANCH  10  11
ATOM     11  C   UNL A   1      38.166  31.228  30.287  1.00  0.00     0.031 A 
ATOM     12  C   UNL A   1      38.545  31.666  31.667  1.00  0.00     0.074 A 
ATOM     13  C   UNL A   1      38.841  30.235  29.680  1.00  0.00     0.049 A 
ATOM     14  N   UNL A   1      39.475  31.192  32.455  1.00  0.00    -0.248 NA
ATOM     15  C   UNL A   1      37.747  32.752  32.258  1.00  0.00     0.031 C 
ATOM     16  C   UNL A   1      38.514  29.677  28.370  1.00  0.00     0.029 A 
ATOM     17  N   UNL A   1      39.937  29.518  30.083  1.00  0.00    -0.354 N 
ATOM     18  C   UNL A   1      39.329  31.869  33.654  1.00  0.00     0.074 A 
ATOM     19  C   UNL A   1      38.278  32.847  33.468  1.00  0.00     0.031 C 
ATOM     20  C   UNL A   1      39.426  28.743  28.050  1.00  0.00     0.029 A 
ATOM     21  C   UNL A   1      40.391  28.635  29.135  1.00  0.00     0.049 A 
ATOM     22  H   UNL A   1      40.358  29.626  30.965  1.00  0.00     0.167 HD
ATOM     23  C   UNL A   1      39.984  31.660  34.820  1.00  0.00     0.037 A 
ATOM     24  C   UNL A   1      41.473  27.835  29.142  1.00  0.00     0.037 A 
ATOM     25  C   UNL A   1      41.063  30.723  34.982  1.00  0.00     0.049 A 
ATOM     26  C   UNL A   1      42.287  27.737  30.394  1.00  0.00     0.074 A 
ATOM     27  C   UNL A   1      41.821  30.462  36.109  1.00  0.00     0.029 A 
ATOM     28  N   UNL A   1      41.551  29.903  33.973  1.00  0.00    -0.354 N 
ATOM     29  N   UNL A   1      42.127  28.364  31.533  1.00  0.00    -0.248 NA
ATOM     30  C   UNL A   1      43.399  26.779  30.377  1.00  0.00     0.031 C 
ATOM     31  C   UNL A   1      42.796  29.515  35.770  1.00  0.00     0.029 A 
ATOM     32  C   UNL A   1      42.616  29.152  34.445  1.00  0.00     0.049 A 
ATOM     33  H   UNL A   1      41.192  29.861  33.057  1.00  0.00     0.167 HD
ATOM     34  C   UNL A   1      43.103  27.865  32.378  1.00  0.00     0.074 A 
ATOM     35  C   UNL A   1      43.842  26.872  31.623  1.00  0.00     0.031 C 
ATOM     36  C   UNL A   1      43.355  28.190  33.669  1.00  0.00     0.037 A 
BRANCH  23  37
ATOM     37  C   UNL A   1      39.537  32.467  36.000  1.00  0.00     0.064 A 
ATOM     38  C   UNL A   1      38.527  32.001  36.857  1.00  0.00     0.173 A 
ATOM     39  C   UNL A   1      40.118  33.710  36.282  1.00  0.00     0.173 A 
ATOM     40  F   UNL A   1      37.925  30.827  36.615  1.00  0.00    -0.203 F 
ATOM     41  C   UNL A   1      38.101  32.762  37.942  1.00  0.00     0.198 A 
ATOM     42  C   UNL A   1      39.705  34.458  37.382  1.00  0.00     0.198 A 
ATOM     43  F   UNL A   1      41.084  34.201  35.491  1.00  0.00    -0.203 F 
ATOM     44  F   UNL A   1      37.104  32.318  38.721  1.00  0.00    -0.200 F 
ATOM     45  C   UNL A   1      38.694  33.987  38.207  1.00  0.00     0.200 A 
ATOM     46  F   UNL A   1      40.281  35.641  37.640  1.00  0.00    -0.200 F 
ATOM     47  F   UNL A   1      38.282  34.721  39.250  1.00  0.00    -0.200 F 
ENDBRANCH  23  37
BRANCH  24  48
ATOM     48  C   UNL A   1      41.860  27.079  27.929  1.00  0.00     0.064 A 
ATOM     49  C   UNL A   1      42.692  27.633  26.950  1.00  0.00     0.173 A 
ATOM     50  C   UNL A   1      41.353  25.789  27.711  1.00  0.00     0.173 A 
ATOM     51  F   UNL A   1      43.148  28.886  27.087  1.00  0.00    -0.203 F 
ATOM     52  C   UNL A   1      43.015  26.916  25.798  1.00  0.00     0.198 A 
ATOM     53  C   UNL A   1      41.703  25.061  26.577  1.00  0.00     0.198 A 
ATOM     54  F   UNL A   1      40.486  25.261  28.588  1.00  0.00    -0.203 F 
ATOM     55  F   UNL A   1      43.773  27.484  24.849  1.00  0.00    -0.200 F 
ATOM     56  C   UNL A   1      42.533  25.627  25.620  1.00  0.00     0.200 A 
ATOM     57  F   UNL A   1      41.219  23.826  26.390  1.00  0.00    -0.200 F 
ATOM     58  F   UNL A   1      42.846  24.943  24.511  1.00  0.00    -0.200 F 
ENDBRANCH  24  48
BRANCH  36  59
ATOM     59  C   UNL A   1      44.473  27.449  34.337  1.00  0.00     0.064 A 
ATOM     60  C   UNL A   1      44.258  26.222  34.981  1.00  0.00     0.173 A 
ATOM     61  C   UNL A   1      45.771  27.980  34.341  1.00  0.00     0.173 A 
ATOM     62  F   UNL A   1      43.028  25.689  35.023  1.00  0.00    -0.203 F 
ATOM     63  C   UNL A   1      45.297  25.570  35.636  1.00  0.00     0.198 A 
ATOM     64  C   UNL A   1      46.814  27.309  34.969  1.00  0.00     0.198 A 
ATOM     65  F   UNL A   1      46.026  29.151  33.738  1.00  0.00    -0.203 F 
ATOM     66  F   UNL A   1      45.057  24.431  36.300  1.00  0.00    -0.200 F 
ATOM     67  C   UNL A   1      46.574  26.110  35.626  1.00  0.00     0.200 A 
ATOM     68  F   UNL A   1      48.050  27.827  34.951  1.00  0.00    -0.200 F 
ATOM     69  F   UNL A   1      47.573  25.482  36.260  1.00  0.00    -0.200 F 
ENDBRANCH  36  59
ENDBRANCH  10  11
ENDBRANCH   3   5
ENDBRANCH   2   3
ENDBRANCH   1   2
BRANCH   1  70
ATOM     70  C   UNL A   1      32.187  30.623  26.849  1.00  0.00     0.275 C 
BRANCH  70  71
ATOM     71  O   UNL A   1      32.467  30.246  25.496  1.00  0.00    -0.458 OA
BRANCH  71  72
ATOM     72  C   UNL A   1      31.647  29.275  25.000  1.00  0.00     0.338 C 
ATOM     73  O   UNL A   1      30.670  29.428  24.304  1.00  0.00    -0.246 OA
BRANCH  72  74
ATOM     74  C   UNL A   1      32.199  27.954  25.371  1.00  0.00     0.062 A 
ATOM     75  C   UNL A   1      33.545  27.677  25.146  1.00  0.00     0.016 A 
ATOM     76  C   UNL A   1      31.378  26.988  25.943  1.00  0.00     0.041 A 
ATOM     77  C   UNL A   1      34.065  26.435  25.524  1.00  0.00     0.003 A 
ATOM     78  C   UNL A   1      31.887  25.725  26.280  1.00  0.00     0.042 A 
ATOM     79  C   UNL A   1      33.236  25.451  26.083  1.00  0.00     0.026 A 
BRANCH  78  80
ATOM     80  N   UNL A   1      30.953  24.864  26.839  1.00  0.00    -0.321 N 
ATOM     81  C   UNL A   1      30.557  23.576  26.688  1.00  0.00     0.272 C 
ATOM     82  H   UNL A   1      30.433  25.314  27.543  1.00  0.00     0.170 HD
ATOM     83  O   UNL A   1      29.668  23.224  27.471  1.00  0.00    -0.267 OA
BRANCH  81  84
ATOM     84  C   UNL A   1      30.931  22.726  25.593  1.00  0.00     0.105 A 
ATOM     85  C   UNL A   1      31.045  23.042  24.242  1.00  0.00     0.042 A 
ATOM     86  N   UNL A   1      31.872  21.734  25.805  1.00  0.00    -0.351 N 
ATOM     87  C   UNL A   1      32.414  22.751  23.913  1.00  0.00     0.000 A 
ATOM     88  C   UNL A   1      32.939  22.023  24.979  1.00  0.00     0.046 A 
ATOM     89  H   UNL A   1      31.797  20.974  26.425  1.00  0.00     0.167 HD
ATOM     90  C   UNL A   1      33.293  23.189  22.904  1.00  0.00     0.010 A 
ATOM     91  C   UNL A   1      34.304  21.779  25.151  1.00  0.00     0.026 A 
ATOM     92  C   UNL A   1      34.671  22.993  23.080  1.00  0.00     0.001 A 
ATOM     93  C   UNL A   1      35.166  22.321  24.197  1.00  0.00     0.002 A 
ENDBRANCH  81  84
ENDBRANCH  78  80
ENDBRANCH  72  74
ENDBRANCH  71  72
ENDBRANCH  70  71
ENDBRANCH   1  70
TORSDOF 13
ENDMDL
