MODEL 1
REMARK VINA RESULT:     -12.9      0.000      0.000
REMARK SMILES O=C(OCCOC(=O)c1cc(S(=O)(=O)Nc2cc(F)ccc2F)cc2c1OCCO2)c1ccc(-c2c3nc(c(-c4c(F)c(F)c(F)c(F)c4F)c4ccc([nH]4)c(-c4c(F)c(F)c(F)c(F)c4F)c4nc(c(-c5c(F)c(F)c(F)c(F)c5F)c5ccc2[nH]5)C=C4)C=C3)cc1
REMARK SMILES IDX 5 1 4 2 3 3 2 4 1 5 31 6 32 7 93 8 33 9 92 10 34 11 35 12
REMARK SMILES IDX 36 13 86 14 37 15 91 16 85 17 87 18 38 19 90 20 84 21 83 22
REMARK SMILES IDX 39 24 71 25 51 26 70 27 52 28 55 29 69 30 88 31 53 32 54 33
REMARK SMILES IDX 68 35 89 36 56 37 40 38 41 39 49 40 42 41 43 42 47 43 50 44
REMARK SMILES IDX 44 45 45 46 48 47 46 48 72 49 73 50 81 51 74 52 75 53 79 54
REMARK SMILES IDX 82 55 76 56 77 57 80 58 78 59 57 60 58 61 66 62 59 63 60 64
REMARK SMILES IDX 64 65 67 66 61 67 62 68 65 69 63 70 6 71 7 72 8 73 9 74
REMARK SMILES IDX 10 75 26 76 11 77 25 78 27 79 24 80 30 81 28 82 29 83 12 84
REMARK SMILES IDX 13 85 14 86 15 87 16 89 17 90 22 91 18 92 21 93 23 94 19 95
REMARK SMILES IDX 20 96
REMARK H PARENT 87 23 55 34 15 88
REMARK Flexibility Score: inf
ROOT
ATOM      1  C   UNL A   1      31.548  28.577  27.551  1.00  0.00     0.275 C 
ENDROOT
BRANCH   1   2
ATOM      2  C   UNL A   1      31.754  29.907  26.805  1.00  0.00     0.275 C 
BRANCH   2   3
ATOM      3  O   UNL A   1      33.101  30.339  26.537  1.00  0.00    -0.458 OA
BRANCH   3   4
ATOM      4  C   UNL A   1      33.702  31.306  27.258  1.00  0.00     0.338 C 
ATOM      5  O   UNL A   1      33.119  32.348  27.527  1.00  0.00    -0.246 OA
BRANCH   4   6
ATOM      6  C   UNL A   1      35.044  31.026  27.849  1.00  0.00     0.060 A 
ATOM      7  C   UNL A   1      36.048  31.975  28.028  1.00  0.00     0.016 A 
ATOM      8  C   UNL A   1      35.254  29.734  28.355  1.00  0.00     0.016 A 
ATOM      9  C   UNL A   1      37.219  31.648  28.702  1.00  0.00     0.010 A 
ATOM     10  C   UNL A   1      36.399  29.412  29.078  1.00  0.00     0.010 A 
ATOM     11  C   UNL A   1      37.391  30.372  29.247  1.00  0.00    -0.014 A 
BRANCH  11  12
ATOM     12  C   UNL A   1      38.642  30.078  29.968  1.00  0.00     0.031 A 
ATOM     13  C   UNL A   1      38.819  30.586  31.352  1.00  0.00     0.074 A 
ATOM     14  C   UNL A   1      39.543  29.259  29.398  1.00  0.00     0.049 A 
ATOM     15  N   UNL A   1      39.730  30.259  32.227  1.00  0.00    -0.248 NA
ATOM     16  C   UNL A   1      37.840  31.574  31.829  1.00  0.00     0.031 C 
ATOM     17  C   UNL A   1      39.410  28.728  28.049  1.00  0.00     0.029 A 
ATOM     18  N   UNL A   1      40.701  28.698  29.863  1.00  0.00    -0.354 N 
ATOM     19  C   UNL A   1      39.419  30.980  33.366  1.00  0.00     0.074 A 
ATOM     20  C   UNL A   1      38.274  31.808  33.057  1.00  0.00     0.031 C 
ATOM     21  C   UNL A   1      40.419  27.882  27.804  1.00  0.00     0.029 A 
ATOM     22  C   UNL A   1      41.287  27.836  28.967  1.00  0.00     0.049 A 
ATOM     23  H   UNL A   1      41.078  28.893  30.751  1.00  0.00     0.167 HD
ATOM     24  C   UNL A   1      40.031  30.921  34.568  1.00  0.00     0.037 A 
ATOM     25  C   UNL A   1      42.391  27.074  29.071  1.00  0.00     0.037 A 
ATOM     26  C   UNL A   1      41.190  30.107  34.819  1.00  0.00     0.049 A 
ATOM     27  C   UNL A   1      43.092  27.070  30.392  1.00  0.00     0.074 A 
ATOM     28  C   UNL A   1      41.917  29.976  35.985  1.00  0.00     0.029 A 
ATOM     29  N   UNL A   1      41.802  29.296  33.866  1.00  0.00    -0.354 N 
ATOM     30  N   UNL A   1      42.764  27.717  31.485  1.00  0.00    -0.248 NA
ATOM     31  C   UNL A   1      44.287  26.233  30.515  1.00  0.00     0.031 C 
ATOM     32  C   UNL A   1      43.002  29.133  35.721  1.00  0.00     0.029 A 
ATOM     33  C   UNL A   1      42.918  28.686  34.410  1.00  0.00     0.049 A 
ATOM     34  H   UNL A   1      41.486  29.175  32.941  1.00  0.00     0.167 HD
ATOM     35  C   UNL A   1      43.699  27.359  32.437  1.00  0.00     0.074 A 
ATOM     36  C   UNL A   1      44.604  26.421  31.791  1.00  0.00     0.031 C 
ATOM     37  C   UNL A   1      43.798  27.764  33.726  1.00  0.00     0.037 A 
BRANCH  24  38
ATOM     38  C   UNL A   1      39.474  31.796  35.650  1.00  0.00     0.064 A 
ATOM     39  C   UNL A   1      38.462  31.322  36.495  1.00  0.00     0.173 A 
ATOM     40  C   UNL A   1      39.980  33.086  35.890  1.00  0.00     0.173 A 
ATOM     41  F   UNL A   1      37.951  30.096  36.315  1.00  0.00    -0.203 F 
ATOM     42  C   UNL A   1      37.983  32.099  37.546  1.00  0.00     0.198 A 
ATOM     43  C   UNL A   1      39.520  33.847  36.962  1.00  0.00     0.198 A 
ATOM     44  F   UNL A   1      40.969  33.577  35.128  1.00  0.00    -0.203 F 
ATOM     45  F   UNL A   1      37.014  31.624  38.340  1.00  0.00    -0.200 F 
ATOM     46  C   UNL A   1      38.520  33.355  37.786  1.00  0.00     0.200 A 
ATOM     47  F   UNL A   1      40.068  35.044  37.214  1.00  0.00    -0.200 F 
ATOM     48  F   UNL A   1      38.085  34.085  38.823  1.00  0.00    -0.200 F 
ENDBRANCH  24  38
BRANCH  25  49
ATOM     49  C   UNL A   1      42.821  26.246  27.912  1.00  0.00     0.064 A 
ATOM     50  C   UNL A   1      42.472  24.888  27.828  1.00  0.00     0.173 A 
ATOM     51  C   UNL A   1      43.686  26.753  26.932  1.00  0.00     0.173 A 
ATOM     52  F   UNL A   1      41.665  24.345  28.751  1.00  0.00    -0.203 F 
ATOM     53  C   UNL A   1      43.002  24.063  26.837  1.00  0.00     0.198 A 
ATOM     54  C   UNL A   1      44.195  25.931  25.925  1.00  0.00     0.198 A 
ATOM     55  F   UNL A   1      44.054  28.041  26.965  1.00  0.00    -0.203 F 
ATOM     56  F   UNL A   1      42.708  22.756  26.828  1.00  0.00    -0.200 F 
ATOM     57  C   UNL A   1      43.864  24.585  25.886  1.00  0.00     0.200 A 
ATOM     58  F   UNL A   1      45.027  26.438  25.006  1.00  0.00    -0.200 F 
ATOM     59  F   UNL A   1      44.390  23.788  24.947  1.00  0.00    -0.200 F 
ENDBRANCH  25  49
BRANCH  37  60
ATOM     60  C   UNL A   1      44.923  27.191  34.527  1.00  0.00     0.064 A 
ATOM     61  C   UNL A   1      44.728  26.022  35.276  1.00  0.00     0.173 A 
ATOM     62  C   UNL A   1      46.156  27.849  34.628  1.00  0.00     0.173 A 
ATOM     63  F   UNL A   1      43.562  25.362  35.209  1.00  0.00    -0.203 F 
ATOM     64  C   UNL A   1      45.723  25.546  36.122  1.00  0.00     0.198 A 
ATOM     65  C   UNL A   1      47.160  27.352  35.452  1.00  0.00     0.198 A 
ATOM     66  F   UNL A   1      46.390  28.960  33.913  1.00  0.00    -0.203 F 
ATOM     67  F   UNL A   1      45.500  24.452  36.863  1.00  0.00    -0.200 F 
ATOM     68  C   UNL A   1      46.937  26.210  36.208  1.00  0.00     0.200 A 
ATOM     69  F   UNL A   1      48.342  27.978  35.516  1.00  0.00    -0.200 F 
ATOM     70  F   UNL A   1      47.896  25.748  37.022  1.00  0.00    -0.200 F 
ENDBRANCH  37  60
ENDBRANCH  11  12
ENDBRANCH   4   6
ENDBRANCH   3   4
ENDBRANCH   2   3
ENDBRANCH   1   2
BRANCH   1  71
ATOM     71  O   UNL A   1      32.348  27.493  27.050  1.00  0.00    -0.458 OA
BRANCH  71  72
ATOM     72  C   UNL A   1      31.678  26.465  26.456  1.00  0.00     0.342 C 
ATOM     73  O   UNL A   1      30.512  26.150  26.626  1.00  0.00    -0.246 OA
BRANCH  72  74
ATOM     74  C   UNL A   1      32.551  25.837  25.442  1.00  0.00     0.107 A 
ATOM     75  C   UNL A   1      33.111  24.571  25.715  1.00  0.00     0.042 A 
ATOM     76  C   UNL A   1      32.784  26.479  24.221  1.00  0.00     0.175 A 
ATOM     77  C   UNL A   1      33.829  23.907  24.718  1.00  0.00     0.092 A 
ATOM     78  C   UNL A   1      33.565  25.832  23.258  1.00  0.00     0.163 A 
ATOM     79  O   UNL A   1      32.260  27.732  24.029  1.00  0.00    -0.485 OA
ATOM     80  C   UNL A   1      34.055  24.546  23.489  1.00  0.00     0.072 A 
ATOM     81  O   UNL A   1      33.861  26.386  22.040  1.00  0.00    -0.486 OA
ATOM     82  C   UNL A   1      32.302  28.146  22.662  1.00  0.00     0.271 C 
ATOM     83  C   UNL A   1      33.638  27.798  22.028  1.00  0.00     0.271 C 
BRANCH  77  84
ATOM     84  S   UNL A   1      34.450  22.238  24.864  1.00  0.00     0.262 S 
ATOM     85  O   UNL A   1      34.359  21.894  26.267  1.00  0.00    -0.201 OA
ATOM     86  O   UNL A   1      33.738  21.468  23.863  1.00  0.00    -0.201 OA
BRANCH  84  87
ATOM     87  N   UNL A   1      36.041  22.189  24.375  1.00  0.00    -0.277 N 
ATOM     88  H   UNL A   1      36.215  21.942  23.438  1.00  0.00     0.180 HD
BRANCH  87  89
ATOM     89  C   UNL A   1      37.175  22.470  25.190  1.00  0.00     0.087 A 
ATOM     90  C   UNL A   1      37.388  23.702  25.800  1.00  0.00     0.069 A 
ATOM     91  C   UNL A   1      38.096  21.438  25.413  1.00  0.00     0.147 A 
ATOM     92  C   UNL A   1      38.572  23.921  26.506  1.00  0.00     0.125 A 
ATOM     93  C   UNL A   1      39.270  21.654  26.129  1.00  0.00     0.044 A 
ATOM     94  F   UNL A   1      37.858  20.221  24.900  1.00  0.00    -0.205 F 
ATOM     95  F   UNL A   1      38.820  25.143  26.999  1.00  0.00    -0.207 F 
ATOM     96  C   UNL A   1      39.522  22.916  26.660  1.00  0.00     0.042 A 
ENDBRANCH  87  89
ENDBRANCH  84  87
ENDBRANCH  77  84
ENDBRANCH  72  74
ENDBRANCH  71  72
ENDBRANCH   1  71
TORSDOF 14
ENDMDL
MODEL 2
REMARK VINA RESULT:     -12.6      4.478     10.008
REMARK SMILES O=C(OCCOC(=O)c1cc(S(=O)(=O)Nc2cc(F)ccc2F)cc2c1OCCO2)c1ccc(-c2c3nc(c(-c4c(F)c(F)c(F)c(F)c4F)c4ccc([nH]4)c(-c4c(F)c(F)c(F)c(F)c4F)c4nc(c(-c5c(F)c(F)c(F)c(F)c5F)c5ccc2[nH]5)C=C4)C=C3)cc1
REMARK SMILES IDX 5 1 4 2 3 3 2 4 1 5 31 6 32 7 93 8 33 9 92 10 34 11 35 12
REMARK SMILES IDX 36 13 86 14 37 15 91 16 85 17 87 18 38 19 90 20 84 21 83 22
REMARK SMILES IDX 39 24 71 25 51 26 70 27 52 28 55 29 69 30 88 31 53 32 54 33
REMARK SMILES IDX 68 35 89 36 56 37 40 38 41 39 49 40 42 41 43 42 47 43 50 44
REMARK SMILES IDX 44 45 45 46 48 47 46 48 72 49 73 50 81 51 74 52 75 53 79 54
REMARK SMILES IDX 82 55 76 56 77 57 80 58 78 59 57 60 58 61 66 62 59 63 60 64
REMARK SMILES IDX 64 65 67 66 61 67 62 68 65 69 63 70 6 71 7 72 8 73 9 74
REMARK SMILES IDX 10 75 26 76 11 77 25 78 27 79 24 80 30 81 28 82 29 83 12 84
REMARK SMILES IDX 13 85 14 86 15 87 16 89 17 90 22 91 18 92 21 93 23 94 19 95
REMARK SMILES IDX 20 96
REMARK H PARENT 87 23 55 34 15 88
REMARK Flexibility Score: inf
ROOT
ATOM      1  C   UNL A   1      36.515  22.912  23.685  1.00  0.00     0.275 C 
ENDROOT
BRANCH   1   2
ATOM      2  C   UNL A   1      36.771  21.613  24.470  1.00  0.00     0.275 C 
BRANCH   2   3
ATOM      3  O   UNL A   1      37.299  21.714  25.805  1.00  0.00    -0.458 OA
BRANCH   3   4
ATOM      4  C   UNL A   1      38.620  21.636  26.063  1.00  0.00     0.338 C 
ATOM      5  O   UNL A   1      39.280  20.674  25.693  1.00  0.00    -0.246 OA
BRANCH   4   6
ATOM      6  C   UNL A   1      39.297  22.815  26.682  1.00  0.00     0.060 A 
ATOM      7  C   UNL A   1      40.323  22.740  27.620  1.00  0.00     0.016 A 
ATOM      8  C   UNL A   1      38.936  24.079  26.193  1.00  0.00     0.016 A 
ATOM      9  C   UNL A   1      40.977  23.889  28.047  1.00  0.00     0.010 A 
ATOM     10  C   UNL A   1      39.621  25.230  26.573  1.00  0.00     0.010 A 
ATOM     11  C   UNL A   1      40.643  25.136  27.512  1.00  0.00    -0.014 A 
BRANCH  11  12
ATOM     12  C   UNL A   1      41.377  26.323  27.983  1.00  0.00     0.031 A 
ATOM     13  C   UNL A   1      42.776  26.539  27.532  1.00  0.00     0.074 A 
ATOM     14  C   UNL A   1      40.724  27.243  28.714  1.00  0.00     0.049 A 
ATOM     15  N   UNL A   1      43.510  27.611  27.647  1.00  0.00    -0.248 NA
ATOM     16  C   UNL A   1      43.435  25.417  26.848  1.00  0.00     0.031 C 
ATOM     17  C   UNL A   1      39.350  27.083  29.171  1.00  0.00     0.029 A 
ATOM     18  N   UNL A   1      41.080  28.484  29.164  1.00  0.00    -0.354 N 
ATOM     19  C   UNL A   1      44.707  27.303  27.026  1.00  0.00     0.074 A 
ATOM     20  C   UNL A   1      44.629  25.927  26.590  1.00  0.00     0.031 C 
ATOM     21  C   UNL A   1      38.959  28.198  29.799  1.00  0.00     0.029 A 
ATOM     22  C   UNL A   1      40.064  29.141  29.817  1.00  0.00     0.049 A 
ATOM     23  H   UNL A   1      41.977  28.870  29.035  1.00  0.00     0.167 HD
ATOM     24  C   UNL A   1      45.761  28.122  26.822  1.00  0.00     0.037 A 
ATOM     25  C   UNL A   1      40.013  30.372  30.356  1.00  0.00     0.037 A 
ATOM     26  C   UNL A   1      45.808  29.476  27.305  1.00  0.00     0.049 A 
ATOM     27  C   UNL A   1      41.215  31.243  30.174  1.00  0.00     0.074 A 
ATOM     28  C   UNL A   1      46.825  30.401  27.185  1.00  0.00     0.029 A 
ATOM     29  N   UNL A   1      44.785  30.088  28.027  1.00  0.00    -0.354 N 
ATOM     30  N   UNL A   1      42.330  30.964  29.540  1.00  0.00    -0.248 NA
ATOM     31  C   UNL A   1      41.162  32.590  30.747  1.00  0.00     0.031 C 
ATOM     32  C   UNL A   1      46.442  31.552  27.883  1.00  0.00     0.029 A 
ATOM     33  C   UNL A   1      45.161  31.371  28.385  1.00  0.00     0.049 A 
ATOM     34  H   UNL A   1      43.921  29.670  28.247  1.00  0.00     0.167 HD
ATOM     35  C   UNL A   1      43.111  32.101  29.621  1.00  0.00     0.074 A 
ATOM     36  C   UNL A   1      42.332  33.083  30.357  1.00  0.00     0.031 C 
ATOM     37  C   UNL A   1      44.355  32.314  29.129  1.00  0.00     0.037 A 
BRANCH  24  38
ATOM     38  C   UNL A   1      46.935  27.539  26.094  1.00  0.00     0.064 A 
ATOM     39  C   UNL A   1      47.033  27.652  24.701  1.00  0.00     0.173 A 
ATOM     40  C   UNL A   1      47.992  26.917  26.779  1.00  0.00     0.173 A 
ATOM     41  F   UNL A   1      46.055  28.245  24.001  1.00  0.00    -0.203 F 
ATOM     42  C   UNL A   1      48.150  27.175  24.020  1.00  0.00     0.198 A 
ATOM     43  C   UNL A   1      49.122  26.469  26.097  1.00  0.00     0.198 A 
ATOM     44  F   UNL A   1      47.962  26.808  28.116  1.00  0.00    -0.203 F 
ATOM     45  F   UNL A   1      48.220  27.295  22.688  1.00  0.00    -0.200 F 
ATOM     46  C   UNL A   1      49.198  26.595  24.719  1.00  0.00     0.200 A 
ATOM     47  F   UNL A   1      50.150  25.945  26.780  1.00  0.00    -0.200 F 
ATOM     48  F   UNL A   1      50.289  26.174  24.065  1.00  0.00    -0.200 F 
ENDBRANCH  24  38
BRANCH  25  49
ATOM     49  C   UNL A   1      38.773  30.820  31.043  1.00  0.00     0.064 A 
ATOM     50  C   UNL A   1      37.751  31.472  30.333  1.00  0.00     0.173 A 
ATOM     51  C   UNL A   1      38.631  30.721  32.435  1.00  0.00     0.173 A 
ATOM     52  F   UNL A   1      37.845  31.614  29.003  1.00  0.00    -0.203 F 
ATOM     53  C   UNL A   1      36.661  32.041  30.989  1.00  0.00     0.198 A 
ATOM     54  C   UNL A   1      37.525  31.269  33.088  1.00  0.00     0.198 A 
ATOM     55  F   UNL A   1      39.577  30.111  33.163  1.00  0.00    -0.203 F 
ATOM     56  F   UNL A   1      35.740  32.720  30.292  1.00  0.00    -0.200 F 
ATOM     57  C   UNL A   1      36.548  31.940  32.367  1.00  0.00     0.200 A 
ATOM     58  F   UNL A   1      37.418  31.168  34.419  1.00  0.00    -0.200 F 
ATOM     59  F   UNL A   1      35.512  32.505  33.000  1.00  0.00    -0.200 F 
ENDBRANCH  25  49
BRANCH  37  60
ATOM     60  C   UNL A   1      44.951  33.664  29.366  1.00  0.00     0.064 A 
ATOM     61  C   UNL A   1      44.773  34.687  28.423  1.00  0.00     0.173 A 
ATOM     62  C   UNL A   1      45.772  33.915  30.473  1.00  0.00     0.173 A 
ATOM     63  F   UNL A   1      43.995  34.487  27.348  1.00  0.00    -0.203 F 
ATOM     64  C   UNL A   1      45.421  35.907  28.567  1.00  0.00     0.198 A 
ATOM     65  C   UNL A   1      46.394  35.149  30.630  1.00  0.00     0.198 A 
ATOM     66  F   UNL A   1      45.953  32.970  31.409  1.00  0.00    -0.203 F 
ATOM     67  F   UNL A   1      45.273  36.855  27.632  1.00  0.00    -0.200 F 
ATOM     68  C   UNL A   1      46.230  36.137  29.670  1.00  0.00     0.200 A 
ATOM     69  F   UNL A   1      47.155  35.381  31.708  1.00  0.00    -0.200 F 
ATOM     70  F   UNL A   1      46.851  37.316  29.809  1.00  0.00    -0.200 F 
ENDBRANCH  37  60
ENDBRANCH  11  12
ENDBRANCH   4   6
ENDBRANCH   3   4
ENDBRANCH   2   3
ENDBRANCH   1   2
BRANCH   1  71
ATOM     71  O   UNL A   1      35.527  23.771  24.278  1.00  0.00    -0.458 OA
BRANCH  71  72
ATOM     72  C   UNL A   1      34.453  24.091  23.502  1.00  0.00     0.342 C 
ATOM     73  O   UNL A   1      34.240  23.734  22.355  1.00  0.00    -0.246 OA
BRANCH  72  74
ATOM     74  C   UNL A   1      33.478  24.851  24.312  1.00  0.00     0.107 A 
ATOM     75  C   UNL A   1      33.513  26.261  24.273  1.00  0.00     0.042 A 
ATOM     76  C   UNL A   1      32.518  24.176  25.074  1.00  0.00     0.175 A 
ATOM     77  C   UNL A   1      32.519  26.992  24.927  1.00  0.00     0.092 A 
ATOM     78  C   UNL A   1      31.572  24.923  25.781  1.00  0.00     0.163 A 
ATOM     79  O   UNL A   1      32.563  22.806  25.119  1.00  0.00    -0.485 OA
ATOM     80  C   UNL A   1      31.549  26.315  25.684  1.00  0.00     0.072 A 
ATOM     81  O   UNL A   1      30.603  24.353  26.565  1.00  0.00    -0.486 OA
ATOM     82  C   UNL A   1      31.374  22.230  25.663  1.00  0.00     0.271 C 
ATOM     83  C   UNL A   1      30.911  22.996  26.891  1.00  0.00     0.271 C 
BRANCH  77  84
ATOM     84  S   UNL A   1      32.341  28.767  24.827  1.00  0.00     0.262 S 
ATOM     85  O   UNL A   1      31.575  29.162  25.989  1.00  0.00    -0.201 OA
ATOM     86  O   UNL A   1      33.678  29.282  24.609  1.00  0.00    -0.201 OA
BRANCH  84  87
ATOM     87  N   UNL A   1      31.507  29.168  23.441  1.00  0.00    -0.277 N 
ATOM     88  H   UNL A   1      32.039  29.315  22.625  1.00  0.00     0.180 HD
BRANCH  87  89
ATOM     89  C   UNL A   1      30.096  29.320  23.329  1.00  0.00     0.087 A 
ATOM     90  C   UNL A   1      29.451  30.548  23.420  1.00  0.00     0.069 A 
ATOM     91  C   UNL A   1      29.331  28.173  23.078  1.00  0.00     0.147 A 
ATOM     92  C   UNL A   1      28.057  30.595  23.391  1.00  0.00     0.125 A 
ATOM     93  C   UNL A   1      27.940  28.222  23.035  1.00  0.00     0.044 A 
ATOM     94  F   UNL A   1      29.948  26.994  22.903  1.00  0.00    -0.205 F 
ATOM     95  F   UNL A   1      27.439  31.769  23.587  1.00  0.00    -0.207 F 
ATOM     96  C   UNL A   1      27.296  29.443  23.219  1.00  0.00     0.042 A 
ENDBRANCH  87  89
ENDBRANCH  84  87
ENDBRANCH  77  84
ENDBRANCH  72  74
ENDBRANCH  71  72
ENDBRANCH   1  71
TORSDOF 14
ENDMDL
MODEL 3
REMARK VINA RESULT:     -12.6      2.116      3.141
REMARK SMILES O=C(OCCOC(=O)c1cc(S(=O)(=O)Nc2cc(F)ccc2F)cc2c1OCCO2)c1ccc(-c2c3nc(c(-c4c(F)c(F)c(F)c(F)c4F)c4ccc([nH]4)c(-c4c(F)c(F)c(F)c(F)c4F)c4nc(c(-c5c(F)c(F)c(F)c(F)c5F)c5ccc2[nH]5)C=C4)C=C3)cc1
REMARK SMILES IDX 5 1 4 2 3 3 2 4 1 5 31 6 32 7 93 8 33 9 92 10 34 11 35 12
REMARK SMILES IDX 36 13 86 14 37 15 91 16 85 17 87 18 38 19 90 20 84 21 83 22
REMARK SMILES IDX 39 24 71 25 51 26 70 27 52 28 55 29 69 30 88 31 53 32 54 33
REMARK SMILES IDX 68 35 89 36 56 37 40 38 41 39 49 40 42 41 43 42 47 43 50 44
REMARK SMILES IDX 44 45 45 46 48 47 46 48 72 49 73 50 81 51 74 52 75 53 79 54
REMARK SMILES IDX 82 55 76 56 77 57 80 58 78 59 57 60 58 61 66 62 59 63 60 64
REMARK SMILES IDX 64 65 67 66 61 67 62 68 65 69 63 70 6 71 7 72 8 73 9 74
REMARK SMILES IDX 10 75 26 76 11 77 25 78 27 79 24 80 30 81 28 82 29 83 12 84
REMARK SMILES IDX 13 85 14 86 15 87 16 89 17 90 22 91 18 92 21 93 23 94 19 95
REMARK SMILES IDX 20 96
REMARK H PARENT 87 23 55 34 15 88
REMARK Flexibility Score: inf
ROOT
ATOM      1  C   UNL A   1      31.740  31.623  26.826  1.00  0.00     0.275 C 
ENDROOT
BRANCH   1   2
ATOM      2  C   UNL A   1      32.762  32.606  27.424  1.00  0.00     0.275 C 
BRANCH   2   3
ATOM      3  O   UNL A   1      32.347  33.962  27.666  1.00  0.00    -0.458 OA
BRANCH   3   4
ATOM      4  C   UNL A   1      32.937  34.740  28.595  1.00  0.00     0.338 C 
ATOM      5  O   UNL A   1      32.428  35.793  28.953  1.00  0.00    -0.246 OA
BRANCH   4   6
ATOM      6  C   UNL A   1      34.154  34.223  29.289  1.00  0.00     0.060 A 
ATOM      7  C   UNL A   1      34.141  33.335  30.362  1.00  0.00     0.016 A 
ATOM      8  C   UNL A   1      35.395  34.581  28.740  1.00  0.00     0.016 A 
ATOM      9  C   UNL A   1      35.327  32.812  30.864  1.00  0.00     0.010 A 
ATOM     10  C   UNL A   1      36.584  34.022  29.199  1.00  0.00     0.010 A 
ATOM     11  C   UNL A   1      36.551  33.138  30.273  1.00  0.00    -0.014 A 
BRANCH  11  12
ATOM     12  C   UNL A   1      37.780  32.544  30.828  1.00  0.00     0.031 A 
ATOM     13  C   UNL A   1      38.225  32.936  32.190  1.00  0.00     0.074 A 
ATOM     14  C   UNL A   1      38.402  31.573  30.136  1.00  0.00     0.049 A 
ATOM     15  N   UNL A   1      39.135  32.377  32.939  1.00  0.00    -0.248 NA
ATOM     16  C   UNL A   1      37.554  34.092  32.802  1.00  0.00     0.031 C 
ATOM     17  C   UNL A   1      37.997  31.146  28.804  1.00  0.00     0.029 A 
ATOM     18  N   UNL A   1      39.451  30.751  30.445  1.00  0.00    -0.354 N 
ATOM     19  C   UNL A   1      39.127  33.096  34.121  1.00  0.00     0.074 A 
ATOM     20  C   UNL A   1      38.170  34.169  33.972  1.00  0.00     0.031 C 
ATOM     21  C   UNL A   1      38.756  30.112  28.421  1.00  0.00     0.029 A 
ATOM     22  C   UNL A   1      39.721  29.823  29.467  1.00  0.00     0.049 A 
ATOM     23  H   UNL A   1      39.963  30.817  31.283  1.00  0.00     0.167 HD
ATOM     24  C   UNL A   1      39.847  32.849  35.238  1.00  0.00     0.037 A 
ATOM     25  C   UNL A   1      40.630  28.833  29.420  1.00  0.00     0.037 A 
ATOM     26  C   UNL A   1      40.815  31.789  35.328  1.00  0.00     0.049 A 
ATOM     27  C   UNL A   1      41.462  28.615  30.644  1.00  0.00     0.074 A 
ATOM     28  C   UNL A   1      41.624  31.448  36.393  1.00  0.00     0.029 A 
ATOM     29  N   UNL A   1      41.115  30.908  34.291  1.00  0.00    -0.354 N 
ATOM     30  N   UNL A   1      41.416  29.267  31.781  1.00  0.00    -0.248 NA
ATOM     31  C   UNL A   1      42.445  27.530  30.603  1.00  0.00     0.031 C 
ATOM     32  C   UNL A   1      42.455  30.400  35.981  1.00  0.00     0.029 A 
ATOM     33  C   UNL A   1      42.122  30.043  34.682  1.00  0.00     0.049 A 
ATOM     34  H   UNL A   1      40.674  30.902  33.411  1.00  0.00     0.167 HD
ATOM     35  C   UNL A   1      42.351  28.668  32.603  1.00  0.00     0.074 A 
ATOM     36  C   UNL A   1      42.942  27.586  31.833  1.00  0.00     0.031 C 
ATOM     37  C   UNL A   1      42.688  28.983  33.878  1.00  0.00     0.037 A 
BRANCH  24  38
ATOM     38  C   UNL A   1      39.629  33.775  36.396  1.00  0.00     0.064 A 
ATOM     39  C   UNL A   1      38.794  33.398  37.457  1.00  0.00     0.173 A 
ATOM     40  C   UNL A   1      40.290  35.012  36.486  1.00  0.00     0.173 A 
ATOM     41  F   UNL A   1      38.148  32.225  37.425  1.00  0.00    -0.203 F 
ATOM     42  C   UNL A   1      38.637  34.219  38.571  1.00  0.00     0.198 A 
ATOM     43  C   UNL A   1      40.154  35.816  37.616  1.00  0.00     0.198 A 
ATOM     44  F   UNL A   1      41.122  35.407  35.511  1.00  0.00    -0.203 F 
ATOM     45  F   UNL A   1      37.834  33.838  39.572  1.00  0.00    -0.200 F 
ATOM     46  C   UNL A   1      39.325  35.421  38.654  1.00  0.00     0.200 A 
ATOM     47  F   UNL A   1      40.850  36.957  37.711  1.00  0.00    -0.200 F 
ATOM     48  F   UNL A   1      39.203  36.190  39.745  1.00  0.00    -0.200 F 
ENDBRANCH  24  38
BRANCH  25  49
ATOM     49  C   UNL A   1      40.727  27.985  28.201  1.00  0.00     0.064 A 
ATOM     50  C   UNL A   1      40.117  26.720  28.154  1.00  0.00     0.173 A 
ATOM     51  C   UNL A   1      41.525  28.358  27.111  1.00  0.00     0.173 A 
ATOM     52  F   UNL A   1      39.360  26.302  29.179  1.00  0.00    -0.203 F 
ATOM     53  C   UNL A   1      40.335  25.849  27.087  1.00  0.00     0.198 A 
ATOM     54  C   UNL A   1      41.721  27.496  26.031  1.00  0.00     0.198 A 
ATOM     55  F   UNL A   1      42.132  29.553  27.104  1.00  0.00    -0.203 F 
ATOM     56  F   UNL A   1      39.799  24.621  27.106  1.00  0.00    -0.200 F 
ATOM     57  C   UNL A   1      41.137  26.238  26.026  1.00  0.00     0.200 A 
ATOM     58  F   UNL A   1      42.496  27.874  25.006  1.00  0.00    -0.200 F 
ATOM     59  F   UNL A   1      41.364  25.393  25.011  1.00  0.00    -0.200 F 
ENDBRANCH  25  49
BRANCH  37  60
ATOM     60  C   UNL A   1      43.741  28.141  34.523  1.00  0.00     0.064 A 
ATOM     61  C   UNL A   1      43.382  26.978  35.219  1.00  0.00     0.173 A 
ATOM     62  C   UNL A   1      45.085  28.534  34.532  1.00  0.00     0.173 A 
ATOM     63  F   UNL A   1      42.105  26.566  35.236  1.00  0.00    -0.203 F 
ATOM     64  C   UNL A   1      44.331  26.252  35.928  1.00  0.00     0.198 A 
ATOM     65  C   UNL A   1      46.038  27.788  35.217  1.00  0.00     0.198 A 
ATOM     66  F   UNL A   1      45.474  29.630  33.862  1.00  0.00    -0.203 F 
ATOM     67  F   UNL A   1      43.960  25.169  36.624  1.00  0.00    -0.200 F 
ATOM     68  C   UNL A   1      45.658  26.657  35.926  1.00  0.00     0.200 A 
ATOM     69  F   UNL A   1      47.323  28.164  35.194  1.00  0.00    -0.200 F 
ATOM     70  F   UNL A   1      46.573  25.954  36.607  1.00  0.00    -0.200 F 
ENDBRANCH  37  60
ENDBRANCH  11  12
ENDBRANCH   4   6
ENDBRANCH   3   4
ENDBRANCH   2   3
ENDBRANCH   1   2
BRANCH   1  71
ATOM     71  O   UNL A   1      32.321  30.609  25.989  1.00  0.00    -0.458 OA
BRANCH  71  72
ATOM     72  C   UNL A   1      31.833  29.345  26.136  1.00  0.00     0.342 C 
ATOM     73  O   UNL A   1      31.454  28.817  27.168  1.00  0.00    -0.246 OA
BRANCH  72  74
ATOM     74  C   UNL A   1      31.698  28.718  24.805  1.00  0.00     0.107 A 
ATOM     75  C   UNL A   1      32.505  27.604  24.491  1.00  0.00     0.042 A 
ATOM     76  C   UNL A   1      30.759  29.207  23.889  1.00  0.00     0.175 A 
ATOM     77  C   UNL A   1      32.298  26.921  23.291  1.00  0.00     0.092 A 
ATOM     78  C   UNL A   1      30.613  28.555  22.662  1.00  0.00     0.163 A 
ATOM     79  O   UNL A   1      30.039  30.325  24.223  1.00  0.00    -0.485 OA
ATOM     80  C   UNL A   1      31.350  27.404  22.376  1.00  0.00     0.072 A 
ATOM     81  O   UNL A   1      29.732  28.967  21.696  1.00  0.00    -0.486 OA
ATOM     82  C   UNL A   1      28.920  30.542  23.363  1.00  0.00     0.271 C 
ATOM     83  C   UNL A   1      29.299  30.313  21.909  1.00  0.00     0.271 C 
BRANCH  77  84
ATOM     84  S   UNL A   1      33.126  25.404  22.838  1.00  0.00     0.262 S 
ATOM     85  O   UNL A   1      32.123  24.362  22.905  1.00  0.00    -0.201 OA
ATOM     86  O   UNL A   1      33.816  25.691  21.596  1.00  0.00    -0.201 OA
BRANCH  84  87
ATOM     87  N   UNL A   1      34.343  25.083  23.929  1.00  0.00    -0.277 N 
ATOM     88  H   UNL A   1      35.057  25.756  24.015  1.00  0.00     0.180 HD
BRANCH  87  89
ATOM     89  C   UNL A   1      34.447  23.924  24.749  1.00  0.00     0.087 A 
ATOM     90  C   UNL A   1      35.021  22.733  24.317  1.00  0.00     0.069 A 
ATOM     91  C   UNL A   1      33.979  24.008  26.066  1.00  0.00     0.147 A 
ATOM     92  C   UNL A   1      34.998  21.617  25.154  1.00  0.00     0.125 A 
ATOM     93  C   UNL A   1      33.969  22.898  26.907  1.00  0.00     0.044 A 
ATOM     94  F   UNL A   1      33.500  25.175  26.523  1.00  0.00    -0.205 F 
ATOM     95  F   UNL A   1      35.455  20.445  24.691  1.00  0.00    -0.207 F 
ATOM     96  C   UNL A   1      34.461  21.683  26.436  1.00  0.00     0.042 A 
ENDBRANCH  87  89
ENDBRANCH  84  87
ENDBRANCH  77  84
ENDBRANCH  72  74
ENDBRANCH  71  72
ENDBRANCH   1  71
TORSDOF 14
ENDMDL
