MODEL 1
REMARK VINA RESULT:     -12.4      0.000      0.000
REMARK SMILES CC[C@@H](Oc1ccc(/C=C2\SC(=S)N(NC(=O)c3ccccc3O)C2=O)cc1)C(=O)OCCOC(=O)c1ccc(-c2c3nc(c(-c4c(F)c(F)c(F)c(F)c4F)c4ccc([nH]4)c(-c4c(F)c(F)c(F)c(F)c4F)c4nc(c(-c5c(F)c(F)c(F)c(F)c5F)c5ccc2[nH]5)C=C4)C=C3)cc1
REMARK SMILES IDX 29 1 30 2 3 3 2 4 1 5 4 6 5 7 6 8 28 9 7 10 27 11 8 12 9 13
REMARK SMILES IDX 10 14 11 15 25 16 12 17 14 18 26 19 13 20 15 21 16 22 17 24
REMARK SMILES IDX 18 25 19 26 23 27 20 28 22 29 21 30 24 31 31 33 32 34 33 35
REMARK SMILES IDX 34 36 35 37 36 38 37 39 38 40 99 41 39 42 98 43 40 44 41 45
REMARK SMILES IDX 42 46 92 47 43 48 97 49 91 50 93 51 44 52 96 53 90 54 89 55
REMARK SMILES IDX 45 57 77 58 57 59 76 60 58 61 61 62 75 63 94 64 59 65 60 66
REMARK SMILES IDX 74 68 95 69 62 70 46 71 47 72 55 73 48 74 49 75 53 76 56 77
REMARK SMILES IDX 50 78 51 79 54 80 52 81 78 82 79 83 87 84 80 85 81 86 85 87
REMARK SMILES IDX 88 88 82 89 83 90 86 91 84 92 63 93 64 94 72 95 65 96 66 97
REMARK SMILES IDX 70 98 73 99 67 100 68 101 71 102 69 103
REMARK H PARENT 15 23 24 32 93 56 61 67
REMARK Flexibility Score: inf
ROOT
ATOM      1  C   UNL A   1      34.727  33.500  27.927  1.00  0.00     0.347 C 
ATOM      2  O   UNL A   1      35.231  34.404  27.269  1.00  0.00    -0.248 OA
ENDROOT
BRANCH   1   3
ATOM      3  C   UNL A   1      35.086  32.028  27.732  1.00  0.00     0.282 C 
BRANCH   3   4
ATOM      4  C   UNL A   1      36.465  31.701  28.339  1.00  0.00     0.054 C 
ATOM      5  C   UNL A   1      37.110  30.466  27.714  1.00  0.00     0.008 C 
ENDBRANCH   3   4
BRANCH   3   6
ATOM      6  O   UNL A   1      34.016  31.307  28.361  1.00  0.00    -0.479 OA
BRANCH   6   7
ATOM      7  C   UNL A   1      33.511  30.332  27.550  1.00  0.00     0.120 A 
ATOM      8  C   UNL A   1      34.027  29.041  27.598  1.00  0.00     0.047 A 
ATOM      9  C   UNL A   1      32.552  30.670  26.608  1.00  0.00     0.047 A 
ATOM     10  C   UNL A   1      33.608  28.096  26.654  1.00  0.00     0.012 A 
ATOM     11  C   UNL A   1      32.081  29.709  25.725  1.00  0.00     0.012 A 
ATOM     12  C   UNL A   1      32.672  28.443  25.668  1.00  0.00    -0.024 A 
BRANCH  12  13
ATOM     13  C   UNL A   1      32.374  27.489  24.586  1.00  0.00     0.029 C 
ATOM     14  C   UNL A   1      31.689  26.338  24.693  1.00  0.00     0.082 C 
ATOM     15  S   UNL A   1      31.041  25.582  26.103  1.00  0.00    -0.052 SA
ATOM     16  C   UNL A   1      31.444  25.454  23.520  1.00  0.00     0.285 C 
ATOM     17  C   UNL A   1      30.993  24.010  25.337  1.00  0.00     0.168 C 
ATOM     18  N   UNL A   1      31.254  24.160  23.989  1.00  0.00    -0.198 N 
ATOM     19  O   UNL A   1      31.375  25.859  22.370  1.00  0.00    -0.266 OA
ATOM     20  S   UNL A   1      30.652  22.598  26.157  1.00  0.00    -0.050 S 
BRANCH  18  21
ATOM     21  N   UNL A   1      31.154  23.055  23.132  1.00  0.00    -0.254 N 
ATOM     22  C   UNL A   1      32.092  22.062  22.964  1.00  0.00     0.274 C 
ATOM     23  H   UNL A   1      30.330  22.982  22.597  1.00  0.00     0.192 HD
ATOM     24  O   UNL A   1      31.803  21.038  22.347  1.00  0.00    -0.267 OA
BRANCH  22  25
ATOM     25  C   UNL A   1      33.470  22.222  23.456  1.00  0.00     0.083 A 
ATOM     26  C   UNL A   1      33.883  21.318  24.445  1.00  0.00     0.018 A 
ATOM     27  C   UNL A   1      34.370  23.162  22.950  1.00  0.00     0.128 A 
ATOM     28  C   UNL A   1      35.206  21.321  24.885  1.00  0.00     0.001 A 
ATOM     29  C   UNL A   1      35.696  23.157  23.384  1.00  0.00     0.047 A 
ATOM     30  C   UNL A   1      36.114  22.233  24.346  1.00  0.00     0.004 A 
BRANCH  27  31
ATOM     31  O   UNL A   1      34.029  24.096  22.012  1.00  0.00    -0.507 OA
ATOM     32  H   UNL A   1      33.907  23.840  21.120  1.00  0.00     0.293 HD
ENDBRANCH  27  31
ENDBRANCH  22  25
ENDBRANCH  18  21
ENDBRANCH  12  13
ENDBRANCH   6   7
ENDBRANCH   3   6
ENDBRANCH   1   3
BRANCH   1  33
ATOM     33  O   UNL A   1      33.804  33.676  28.914  1.00  0.00    -0.459 OA
BRANCH  33  34
ATOM     34  C   UNL A   1      32.889  34.772  28.744  1.00  0.00     0.274 C 
BRANCH  34  35
ATOM     35  C   UNL A   1      33.026  35.781  29.886  1.00  0.00     0.275 C 
BRANCH  35  36
ATOM     36  O   UNL A   1      32.343  35.315  31.066  1.00  0.00    -0.458 OA
BRANCH  36  37
ATOM     37  C   UNL A   1      32.728  35.880  32.232  1.00  0.00     0.338 C 
ATOM     38  O   UNL A   1      32.211  36.809  32.824  1.00  0.00    -0.246 OA
BRANCH  37  39
ATOM     39  C   UNL A   1      33.875  35.140  32.773  1.00  0.00     0.060 A 
ATOM     40  C   UNL A   1      35.146  35.716  32.703  1.00  0.00     0.016 A 
ATOM     41  C   UNL A   1      33.710  33.839  33.242  1.00  0.00     0.016 A 
ATOM     42  C   UNL A   1      36.267  34.986  33.087  1.00  0.00     0.010 A 
ATOM     43  C   UNL A   1      34.833  33.113  33.649  1.00  0.00     0.010 A 
ATOM     44  C   UNL A   1      36.119  33.676  33.558  1.00  0.00    -0.014 A 
BRANCH  44  45
ATOM     45  C   UNL A   1      37.313  32.874  33.911  1.00  0.00     0.031 A 
ATOM     46  C   UNL A   1      38.040  33.147  35.195  1.00  0.00     0.074 A 
ATOM     47  C   UNL A   1      37.744  31.910  33.078  1.00  0.00     0.049 A 
ATOM     48  N   UNL A   1      39.167  32.646  35.634  1.00  0.00    -0.248 NA
ATOM     49  C   UNL A   1      37.415  34.116  36.108  1.00  0.00     0.031 C 
ATOM     50  C   UNL A   1      37.095  31.526  31.825  1.00  0.00     0.029 A 
ATOM     51  N   UNL A   1      38.838  31.086  33.156  1.00  0.00    -0.354 N 
ATOM     52  C   UNL A   1      39.399  33.256  36.859  1.00  0.00     0.074 A 
ATOM     53  C   UNL A   1      38.304  34.175  37.089  1.00  0.00     0.031 C 
ATOM     54  C   UNL A   1      37.808  30.546  31.246  1.00  0.00     0.029 A 
ATOM     55  C   UNL A   1      38.987  30.270  32.062  1.00  0.00     0.049 A 
ATOM     56  H   UNL A   1      39.457  31.080  33.922  1.00  0.00     0.167 HD
ATOM     57  C   UNL A   1      40.433  33.062  37.713  1.00  0.00     0.037 A 
ATOM     58  C   UNL A   1      39.983  29.423  31.739  1.00  0.00     0.037 A 
ATOM     59  C   UNL A   1      41.511  32.136  37.482  1.00  0.00     0.049 A 
ATOM     60  C   UNL A   1      41.149  29.269  32.677  1.00  0.00     0.074 A 
ATOM     61  C   UNL A   1      42.597  31.855  38.292  1.00  0.00     0.029 A 
ATOM     62  N   UNL A   1      41.638  31.340  36.352  1.00  0.00    -0.354 N 
ATOM     63  N   UNL A   1      41.365  29.850  33.833  1.00  0.00    -0.248 NA
ATOM     64  C   UNL A   1      42.213  28.345  32.264  1.00  0.00     0.031 C 
ATOM     65  C   UNL A   1      43.403  30.920  37.634  1.00  0.00     0.029 A 
ATOM     66  C   UNL A   1      42.795  30.582  36.435  1.00  0.00     0.049 A 
ATOM     67  H   UNL A   1      41.001  31.317  35.603  1.00  0.00     0.167 HD
ATOM     68  C   UNL A   1      42.573  29.347  34.295  1.00  0.00     0.074 A 
ATOM     69  C   UNL A   1      43.038  28.402  33.301  1.00  0.00     0.031 C 
ATOM     70  C   UNL A   1      43.238  29.641  35.438  1.00  0.00     0.037 A 
BRANCH  57  71
ATOM     71  C   UNL A   1      40.462  33.890  38.964  1.00  0.00     0.064 A 
ATOM     72  C   UNL A   1      41.155  35.108  39.027  1.00  0.00     0.173 A 
ATOM     73  C   UNL A   1      39.760  33.473  40.105  1.00  0.00     0.173 A 
ATOM     74  F   UNL A   1      41.853  35.543  37.968  1.00  0.00    -0.203 F 
ATOM     75  C   UNL A   1      41.161  35.867  40.196  1.00  0.00     0.198 A 
ATOM     76  C   UNL A   1      39.747  34.247  41.263  1.00  0.00     0.198 A 
ATOM     77  F   UNL A   1      39.078  32.317  40.096  1.00  0.00    -0.203 F 
ATOM     78  F   UNL A   1      41.866  37.006  40.248  1.00  0.00    -0.200 F 
ATOM     79  C   UNL A   1      40.453  35.439  41.308  1.00  0.00     0.200 A 
ATOM     80  F   UNL A   1      39.053  33.838  42.333  1.00  0.00    -0.200 F 
ATOM     81  F   UNL A   1      40.456  36.174  42.430  1.00  0.00    -0.200 F 
ENDBRANCH  57  71
BRANCH  58  82
ATOM     82  C   UNL A   1      39.928  28.672  30.460  1.00  0.00     0.064 A 
ATOM     83  C   UNL A   1      40.468  29.208  29.284  1.00  0.00     0.173 A 
ATOM     84  C   UNL A   1      39.331  27.404  30.386  1.00  0.00     0.173 A 
ATOM     85  F   UNL A   1      41.026  30.428  29.301  1.00  0.00    -0.203 F 
ATOM     86  C   UNL A   1      40.403  28.512  28.079  1.00  0.00     0.198 A 
ATOM     87  C   UNL A   1      39.293  26.695  29.186  1.00  0.00     0.198 A 
ATOM     88  F   UNL A   1      38.798  26.846  31.483  1.00  0.00    -0.203 F 
ATOM     89  F   UNL A   1      40.891  29.066  26.961  1.00  0.00    -0.200 F 
ATOM     90  C   UNL A   1      39.822  27.253  28.032  1.00  0.00     0.200 A 
ATOM     91  F   UNL A   1      38.740  25.475  29.149  1.00  0.00    -0.200 F 
ATOM     92  F   UNL A   1      39.765  26.582  26.875  1.00  0.00    -0.200 F 
ENDBRANCH  58  82
BRANCH  70  93
ATOM     93  C   UNL A   1      44.523  28.909  35.692  1.00  0.00     0.064 A 
ATOM     94  C   UNL A   1      45.750  29.386  35.210  1.00  0.00     0.173 A 
ATOM     95  C   UNL A   1      44.528  27.732  36.457  1.00  0.00     0.173 A 
ATOM     96  F   UNL A   1      45.795  30.498  34.461  1.00  0.00    -0.203 F 
ATOM     97  C   UNL A   1      46.934  28.699  35.467  1.00  0.00     0.198 A 
ATOM     98  C   UNL A   1      45.717  27.063  36.733  1.00  0.00     0.198 A 
ATOM     99  F   UNL A   1      43.381  27.236  36.944  1.00  0.00    -0.203 F 
ATOM    100  F   UNL A   1      48.090  29.149  34.959  1.00  0.00    -0.200 F 
ATOM    101  C   UNL A   1      46.918  27.544  36.233  1.00  0.00     0.200 A 
ATOM    102  F   UNL A   1      45.700  25.953  37.484  1.00  0.00    -0.200 F 
ATOM    103  F   UNL A   1      48.059  26.887  36.483  1.00  0.00    -0.200 F 
ENDBRANCH  70  93
ENDBRANCH  44  45
ENDBRANCH  37  39
ENDBRANCH  36  37
ENDBRANCH  35  36
ENDBRANCH  34  35
ENDBRANCH  33  34
ENDBRANCH   1  33
TORSDOF 18
ENDMDL
MODEL 2
REMARK VINA RESULT:     -12.0      4.961      7.610
REMARK SMILES CC[C@@H](Oc1ccc(/C=C2\SC(=S)N(NC(=O)c3ccccc3O)C2=O)cc1)C(=O)OCCOC(=O)c1ccc(-c2c3nc(c(-c4c(F)c(F)c(F)c(F)c4F)c4ccc([nH]4)c(-c4c(F)c(F)c(F)c(F)c4F)c4nc(c(-c5c(F)c(F)c(F)c(F)c5F)c5ccc2[nH]5)C=C4)C=C3)cc1
REMARK SMILES IDX 29 1 30 2 3 3 2 4 1 5 4 6 5 7 6 8 28 9 7 10 27 11 8 12 9 13
REMARK SMILES IDX 10 14 11 15 25 16 12 17 14 18 26 19 13 20 15 21 16 22 17 24
REMARK SMILES IDX 18 25 19 26 23 27 20 28 22 29 21 30 24 31 31 33 32 34 33 35
REMARK SMILES IDX 34 36 35 37 36 38 37 39 38 40 99 41 39 42 98 43 40 44 41 45
REMARK SMILES IDX 42 46 92 47 43 48 97 49 91 50 93 51 44 52 96 53 90 54 89 55
REMARK SMILES IDX 45 57 77 58 57 59 76 60 58 61 61 62 75 63 94 64 59 65 60 66
REMARK SMILES IDX 74 68 95 69 62 70 46 71 47 72 55 73 48 74 49 75 53 76 56 77
REMARK SMILES IDX 50 78 51 79 54 80 52 81 78 82 79 83 87 84 80 85 81 86 85 87
REMARK SMILES IDX 88 88 82 89 83 90 86 91 84 92 63 93 64 94 72 95 65 96 66 97
REMARK SMILES IDX 70 98 73 99 67 100 68 101 71 102 69 103
REMARK H PARENT 15 23 24 32 93 56 61 67
REMARK Flexibility Score: inf
ROOT
ATOM      1  C   UNL A   1      33.972  33.762  28.855  1.00  0.00     0.347 C 
ATOM      2  O   UNL A   1      33.533  34.829  28.439  1.00  0.00    -0.248 OA
ENDROOT
BRANCH   1   3
ATOM      3  C   UNL A   1      34.609  32.712  27.946  1.00  0.00     0.282 C 
BRANCH   3   4
ATOM      4  C   UNL A   1      36.089  33.041  27.660  1.00  0.00     0.054 C 
ATOM      5  C   UNL A   1      36.707  33.954  28.715  1.00  0.00     0.008 C 
ENDBRANCH   3   4
BRANCH   3   6
ATOM      6  O   UNL A   1      34.440  31.472  28.649  1.00  0.00    -0.479 OA
BRANCH   6   7
ATOM      7  C   UNL A   1      33.993  30.477  27.829  1.00  0.00     0.120 A 
ATOM      8  C   UNL A   1      34.801  29.379  27.551  1.00  0.00     0.047 A 
ATOM      9  C   UNL A   1      32.769  30.626  27.195  1.00  0.00     0.047 A 
ATOM     10  C   UNL A   1      34.391  28.449  26.588  1.00  0.00     0.012 A 
ATOM     11  C   UNL A   1      32.331  29.660  26.301  1.00  0.00     0.012 A 
ATOM     12  C   UNL A   1      33.175  28.616  25.909  1.00  0.00    -0.024 A 
BRANCH  12  13
ATOM     13  C   UNL A   1      32.845  27.724  24.784  1.00  0.00     0.029 C 
ATOM     14  C   UNL A   1      32.062  26.633  24.825  1.00  0.00     0.082 C 
ATOM     15  S   UNL A   1      31.293  25.893  26.182  1.00  0.00    -0.052 SA
ATOM     16  C   UNL A   1      31.794  25.808  23.615  1.00  0.00     0.285 C 
ATOM     17  C   UNL A   1      31.146  24.355  25.363  1.00  0.00     0.168 C 
ATOM     18  N   UNL A   1      31.476  24.522  24.032  1.00  0.00    -0.198 N 
ATOM     19  O   UNL A   1      31.809  26.252  22.477  1.00  0.00    -0.266 OA
ATOM     20  S   UNL A   1      30.652  22.953  26.122  1.00  0.00    -0.050 S 
BRANCH  18  21
ATOM     21  N   UNL A   1      31.320  23.455  23.136  1.00  0.00    -0.254 N 
ATOM     22  C   UNL A   1      32.150  22.364  23.010  1.00  0.00     0.274 C 
ATOM     23  H   UNL A   1      30.541  23.491  22.536  1.00  0.00     0.192 HD
ATOM     24  O   UNL A   1      31.797  21.394  22.341  1.00  0.00    -0.267 OA
BRANCH  22  25
ATOM     25  C   UNL A   1      33.493  22.351  23.614  1.00  0.00     0.083 A 
ATOM     26  C   UNL A   1      33.739  21.340  24.554  1.00  0.00     0.018 A 
ATOM     27  C   UNL A   1      34.513  23.235  23.254  1.00  0.00     0.128 A 
ATOM     28  C   UNL A   1      35.017  21.181  25.088  1.00  0.00     0.001 A 
ATOM     29  C   UNL A   1      35.793  23.068  23.782  1.00  0.00     0.047 A 
ATOM     30  C   UNL A   1      36.045  22.039  24.694  1.00  0.00     0.004 A 
BRANCH  27  31
ATOM     31  O   UNL A   1      34.336  24.264  22.372  1.00  0.00    -0.507 OA
ATOM     32  H   UNL A   1      34.749  25.090  22.529  1.00  0.00     0.293 HD
ENDBRANCH  27  31
ENDBRANCH  22  25
ENDBRANCH  18  21
ENDBRANCH  12  13
ENDBRANCH   6   7
ENDBRANCH   3   6
ENDBRANCH   1   3
BRANCH   1  33
ATOM     33  O   UNL A   1      33.966  33.372  30.161  1.00  0.00    -0.459 OA
BRANCH  33  34
ATOM     34  C   UNL A   1      34.091  34.418  31.139  1.00  0.00     0.274 C 
BRANCH  34  35
ATOM     35  C   UNL A   1      35.053  34.010  32.257  1.00  0.00     0.275 C 
BRANCH  35  36
ATOM     36  O   UNL A   1      35.402  32.616  32.147  1.00  0.00    -0.458 OA
BRANCH  36  37
ATOM     37  C   UNL A   1      36.352  32.178  33.004  1.00  0.00     0.338 C 
ATOM     38  O   UNL A   1      36.344  32.221  34.220  1.00  0.00    -0.246 OA
BRANCH  37  39
ATOM     39  C   UNL A   1      37.429  31.532  32.244  1.00  0.00     0.060 A 
ATOM     40  C   UNL A   1      38.497  30.959  32.937  1.00  0.00     0.016 A 
ATOM     41  C   UNL A   1      37.437  31.593  30.852  1.00  0.00     0.016 A 
ATOM     42  C   UNL A   1      39.594  30.458  32.242  1.00  0.00     0.010 A 
ATOM     43  C   UNL A   1      38.527  31.069  30.153  1.00  0.00     0.010 A 
ATOM     44  C   UNL A   1      39.619  30.514  30.844  1.00  0.00    -0.014 A 
BRANCH  44  45
ATOM     45  C   UNL A   1      40.809  30.036  30.102  1.00  0.00     0.031 A 
ATOM     46  C   UNL A   1      41.958  30.970  29.859  1.00  0.00     0.074 A 
ATOM     47  C   UNL A   1      40.852  28.772  29.646  1.00  0.00     0.049 A 
ATOM     48  N   UNL A   1      43.034  30.791  29.135  1.00  0.00    -0.248 NA
ATOM     49  C   UNL A   1      41.887  32.283  30.518  1.00  0.00     0.031 C 
ATOM     50  C   UNL A   1      39.815  27.762  29.859  1.00  0.00     0.029 A 
ATOM     51  N   UNL A   1      41.803  28.125  28.897  1.00  0.00    -0.354 N 
ATOM     52  C   UNL A   1      43.753  31.975  29.229  1.00  0.00     0.074 A 
ATOM     53  C   UNL A   1      42.987  32.871  30.069  1.00  0.00     0.031 C 
ATOM     54  C   UNL A   1      40.182  26.625  29.246  1.00  0.00     0.029 A 
ATOM     55  C   UNL A   1      41.452  26.841  28.559  1.00  0.00     0.049 A 
ATOM     56  H   UNL A   1      42.654  28.541  28.627  1.00  0.00     0.167 HD
ATOM     57  C   UNL A   1      44.947  32.281  28.667  1.00  0.00     0.037 A 
ATOM     58  C   UNL A   1      42.070  25.954  27.757  1.00  0.00     0.037 A 
ATOM     59  C   UNL A   1      45.709  31.379  27.843  1.00  0.00     0.049 A 
ATOM     60  C   UNL A   1      43.366  26.340  27.097  1.00  0.00     0.074 A 
ATOM     61  C   UNL A   1      46.937  31.588  27.239  1.00  0.00     0.029 A 
ATOM     62  N   UNL A   1      45.313  30.092  27.508  1.00  0.00    -0.354 N 
ATOM     63  N   UNL A   1      44.040  27.461  27.188  1.00  0.00    -0.248 NA
ATOM     64  C   UNL A   1      43.985  25.339  26.218  1.00  0.00     0.031 C 
ATOM     65  C   UNL A   1      47.263  30.443  26.503  1.00  0.00     0.029 A 
ATOM     66  C   UNL A   1      46.262  29.502  26.688  1.00  0.00     0.049 A 
ATOM     67  H   UNL A   1      44.480  29.661  27.807  1.00  0.00     0.167 HD
ATOM     68  C   UNL A   1      45.170  27.293  26.399  1.00  0.00     0.074 A 
ATOM     69  C   UNL A   1      45.099  25.955  25.848  1.00  0.00     0.031 C 
ATOM     70  C   UNL A   1      46.176  28.167  26.154  1.00  0.00     0.037 A 
BRANCH  57  71
ATOM     71  C   UNL A   1      45.489  33.660  28.899  1.00  0.00     0.064 A 
ATOM     72  C   UNL A   1      45.154  34.735  28.062  1.00  0.00     0.173 A 
ATOM     73  C   UNL A   1      46.328  33.917  29.994  1.00  0.00     0.173 A 
ATOM     74  F   UNL A   1      44.367  34.540  26.994  1.00  0.00    -0.203 F 
ATOM     75  C   UNL A   1      45.660  36.012  28.301  1.00  0.00     0.198 A 
ATOM     76  C   UNL A   1      46.810  35.199  30.245  1.00  0.00     0.198 A 
ATOM     77  F   UNL A   1      46.675  32.924  30.827  1.00  0.00    -0.203 F 
ATOM     78  F   UNL A   1      45.363  37.015  27.464  1.00  0.00    -0.200 F 
ATOM     79  C   UNL A   1      46.481  36.243  29.395  1.00  0.00     0.200 A 
ATOM     80  F   UNL A   1      47.593  35.422  31.308  1.00  0.00    -0.200 F 
ATOM     81  F   UNL A   1      46.961  37.473  29.626  1.00  0.00    -0.200 F 
ENDBRANCH  57  71
BRANCH  58  82
ATOM     82  C   UNL A   1      41.458  24.623  27.518  1.00  0.00     0.064 A 
ATOM     83  C   UNL A   1      40.324  24.485  26.708  1.00  0.00     0.173 A 
ATOM     84  C   UNL A   1      41.993  23.462  28.097  1.00  0.00     0.173 A 
ATOM     85  F   UNL A   1      39.762  25.569  26.153  1.00  0.00    -0.203 F 
ATOM     86  C   UNL A   1      39.739  23.238  26.495  1.00  0.00     0.198 A 
ATOM     87  C   UNL A   1      41.425  22.212  27.861  1.00  0.00     0.198 A 
ATOM     88  F   UNL A   1      43.077  23.540  28.883  1.00  0.00    -0.203 F 
ATOM     89  F   UNL A   1      38.630  23.139  25.749  1.00  0.00    -0.200 F 
ATOM     90  C   UNL A   1      40.294  22.102  27.066  1.00  0.00     0.200 A 
ATOM     91  F   UNL A   1      41.971  21.116  28.405  1.00  0.00    -0.200 F 
ATOM     92  F   UNL A   1      39.734  20.903  26.856  1.00  0.00    -0.200 F 
ENDBRANCH  58  82
BRANCH  70  93
ATOM     93  C   UNL A   1      47.298  27.693  25.277  1.00  0.00     0.064 A 
ATOM     94  C   UNL A   1      48.394  26.990  25.799  1.00  0.00     0.173 A 
ATOM     95  C   UNL A   1      47.257  27.915  23.892  1.00  0.00     0.173 A 
ATOM     96  F   UNL A   1      48.486  26.768  27.119  1.00  0.00    -0.203 F 
ATOM     97  C   UNL A   1      49.419  26.547  24.968  1.00  0.00     0.198 A 
ATOM     98  C   UNL A   1      48.271  27.446  23.062  1.00  0.00     0.198 A 
ATOM     99  F   UNL A   1      46.228  28.578  23.343  1.00  0.00    -0.203 F 
ATOM    100  F   UNL A   1      50.479  25.917  25.494  1.00  0.00    -0.200 F 
ATOM    101  C   UNL A   1      49.354  26.768  23.601  1.00  0.00     0.200 A 
ATOM    102  F   UNL A   1      48.200  27.651  21.739  1.00  0.00    -0.200 F 
ATOM    103  F   UNL A   1      50.339  26.336  22.802  1.00  0.00    -0.200 F 
ENDBRANCH  70  93
ENDBRANCH  44  45
ENDBRANCH  37  39
ENDBRANCH  36  37
ENDBRANCH  35  36
ENDBRANCH  34  35
ENDBRANCH  33  34
ENDBRANCH   1  33
TORSDOF 18
ENDMDL
MODEL 3
REMARK VINA RESULT:     -11.9      0.964      2.212
REMARK SMILES CC[C@@H](Oc1ccc(/C=C2\SC(=S)N(NC(=O)c3ccccc3O)C2=O)cc1)C(=O)OCCOC(=O)c1ccc(-c2c3nc(c(-c4c(F)c(F)c(F)c(F)c4F)c4ccc([nH]4)c(-c4c(F)c(F)c(F)c(F)c4F)c4nc(c(-c5c(F)c(F)c(F)c(F)c5F)c5ccc2[nH]5)C=C4)C=C3)cc1
REMARK SMILES IDX 29 1 30 2 3 3 2 4 1 5 4 6 5 7 6 8 28 9 7 10 27 11 8 12 9 13
REMARK SMILES IDX 10 14 11 15 25 16 12 17 14 18 26 19 13 20 15 21 16 22 17 24
REMARK SMILES IDX 18 25 19 26 23 27 20 28 22 29 21 30 24 31 31 33 32 34 33 35
REMARK SMILES IDX 34 36 35 37 36 38 37 39 38 40 99 41 39 42 98 43 40 44 41 45
REMARK SMILES IDX 42 46 92 47 43 48 97 49 91 50 93 51 44 52 96 53 90 54 89 55
REMARK SMILES IDX 45 57 77 58 57 59 76 60 58 61 61 62 75 63 94 64 59 65 60 66
REMARK SMILES IDX 74 68 95 69 62 70 46 71 47 72 55 73 48 74 49 75 53 76 56 77
REMARK SMILES IDX 50 78 51 79 54 80 52 81 78 82 79 83 87 84 80 85 81 86 85 87
REMARK SMILES IDX 88 88 82 89 83 90 86 91 84 92 63 93 64 94 72 95 65 96 66 97
REMARK SMILES IDX 70 98 73 99 67 100 68 101 71 102 69 103
REMARK H PARENT 15 23 24 32 93 56 61 67
REMARK Flexibility Score: inf
ROOT
ATOM      1  C   UNL A   1      34.768  34.297  28.011  1.00  0.00     0.347 C 
ATOM      2  O   UNL A   1      34.895  34.754  26.881  1.00  0.00    -0.248 OA
ENDROOT
BRANCH   1   3
ATOM      3  C   UNL A   1      35.703  33.239  28.593  1.00  0.00     0.282 C 
BRANCH   3   4
ATOM      4  C   UNL A   1      36.706  33.860  29.586  1.00  0.00     0.054 C 
ATOM      5  C   UNL A   1      38.154  33.742  29.119  1.00  0.00     0.008 C 
ENDBRANCH   3   4
BRANCH   3   6
ATOM      6  O   UNL A   1      34.831  32.280  29.209  1.00  0.00    -0.479 OA
BRANCH   6   7
ATOM      7  C   UNL A   1      34.574  31.222  28.387  1.00  0.00     0.120 A 
ATOM      8  C   UNL A   1      35.517  30.211  28.228  1.00  0.00     0.047 A 
ATOM      9  C   UNL A   1      33.409  31.219  27.636  1.00  0.00     0.047 A 
ATOM     10  C   UNL A   1      35.304  29.217  27.265  1.00  0.00     0.012 A 
ATOM     11  C   UNL A   1      33.165  30.188  26.740  1.00  0.00     0.012 A 
ATOM     12  C   UNL A   1      34.150  29.232  26.468  1.00  0.00    -0.024 A 
BRANCH  12  13
ATOM     13  C   UNL A   1      34.028  28.280  25.351  1.00  0.00     0.029 C 
ATOM     14  C   UNL A   1      33.065  27.359  25.180  1.00  0.00     0.082 C 
ATOM     15  S   UNL A   1      31.756  26.942  26.227  1.00  0.00    -0.052 SA
ATOM     16  C   UNL A   1      33.042  26.451  24.000  1.00  0.00     0.285 C 
ATOM     17  C   UNL A   1      31.568  25.364  25.495  1.00  0.00     0.168 C 
ATOM     18  N   UNL A   1      32.344  25.304  24.353  1.00  0.00    -0.198 N 
ATOM     19  O   UNL A   1      33.521  26.740  22.914  1.00  0.00    -0.266 OA
ATOM     20  S   UNL A   1      30.571  24.178  26.114  1.00  0.00    -0.050 S 
BRANCH  18  21
ATOM     21  N   UNL A   1      32.271  24.178  23.520  1.00  0.00    -0.254 N 
ATOM     22  C   UNL A   1      33.071  23.060  23.583  1.00  0.00     0.274 C 
ATOM     23  H   UNL A   1      31.579  24.189  22.820  1.00  0.00     0.192 HD
ATOM     24  O   UNL A   1      32.777  22.053  22.941  1.00  0.00    -0.267 OA
BRANCH  22  25
ATOM     25  C   UNL A   1      34.321  23.058  24.361  1.00  0.00     0.083 A 
ATOM     26  C   UNL A   1      35.458  23.552  23.706  1.00  0.00     0.018 A 
ATOM     27  C   UNL A   1      34.403  22.657  25.697  1.00  0.00     0.128 A 
ATOM     28  C   UNL A   1      36.657  23.696  24.404  1.00  0.00     0.001 A 
ATOM     29  C   UNL A   1      35.600  22.811  26.395  1.00  0.00     0.047 A 
ATOM     30  C   UNL A   1      36.724  23.335  25.750  1.00  0.00     0.004 A 
BRANCH  27  31
ATOM     31  O   UNL A   1      33.346  22.133  26.388  1.00  0.00    -0.507 OA
ATOM     32  H   UNL A   1      32.878  21.400  26.041  1.00  0.00     0.293 HD
ENDBRANCH  27  31
ENDBRANCH  22  25
ENDBRANCH  18  21
ENDBRANCH  12  13
ENDBRANCH   6   7
ENDBRANCH   3   6
ENDBRANCH   1   3
BRANCH   1  33
ATOM     33  O   UNL A   1      33.801  34.668  28.898  1.00  0.00    -0.459 OA
BRANCH  33  34
ATOM     34  C   UNL A   1      33.233  35.976  28.713  1.00  0.00     0.274 C 
BRANCH  34  35
ATOM     35  C   UNL A   1      32.798  36.578  30.050  1.00  0.00     0.275 C 
BRANCH  35  36
ATOM     36  O   UNL A   1      32.460  35.541  30.992  1.00  0.00    -0.458 OA
BRANCH  36  37
ATOM     37  C   UNL A   1      32.636  35.850  32.296  1.00  0.00     0.338 C 
ATOM     38  O   UNL A   1      31.946  36.563  33.000  1.00  0.00    -0.246 OA
BRANCH  37  39
ATOM     39  C   UNL A   1      33.794  35.110  32.816  1.00  0.00     0.060 A 
ATOM     40  C   UNL A   1      35.057  35.705  32.759  1.00  0.00     0.016 A 
ATOM     41  C   UNL A   1      33.647  33.795  33.251  1.00  0.00     0.016 A 
ATOM     42  C   UNL A   1      36.188  34.979  33.122  1.00  0.00     0.010 A 
ATOM     43  C   UNL A   1      34.780  33.074  33.637  1.00  0.00     0.010 A 
ATOM     44  C   UNL A   1      36.058  33.656  33.558  1.00  0.00    -0.014 A 
BRANCH  44  45
ATOM     45  C   UNL A   1      37.263  32.860  33.888  1.00  0.00     0.031 A 
ATOM     46  C   UNL A   1      38.010  33.134  35.161  1.00  0.00     0.074 A 
ATOM     47  C   UNL A   1      37.685  31.900  33.046  1.00  0.00     0.049 A 
ATOM     48  N   UNL A   1      39.147  32.639  35.579  1.00  0.00    -0.248 NA
ATOM     49  C   UNL A   1      37.395  34.096  36.087  1.00  0.00     0.031 C 
ATOM     50  C   UNL A   1      37.017  31.516  31.803  1.00  0.00     0.029 A 
ATOM     51  N   UNL A   1      38.786  31.083  33.103  1.00  0.00    -0.354 N 
ATOM     52  C   UNL A   1      39.397  33.247  36.801  1.00  0.00     0.074 A 
ATOM     53  C   UNL A   1      38.301  34.158  37.053  1.00  0.00     0.031 C 
ATOM     54  C   UNL A   1      37.726  30.542  31.209  1.00  0.00     0.029 A 
ATOM     55  C   UNL A   1      38.921  30.272  32.003  1.00  0.00     0.049 A 
ATOM     56  H   UNL A   1      39.418  31.079  33.858  1.00  0.00     0.167 HD
ATOM     57  C   UNL A   1      40.447  33.057  37.636  1.00  0.00     0.037 A 
ATOM     58  C   UNL A   1      39.916  29.431  31.661  1.00  0.00     0.037 A 
ATOM     59  C   UNL A   1      41.526  32.139  37.384  1.00  0.00     0.049 A 
ATOM     60  C   UNL A   1      41.099  29.282  32.579  1.00  0.00     0.074 A 
ATOM     61  C   UNL A   1      42.628  31.861  38.175  1.00  0.00     0.029 A 
ATOM     62  N   UNL A   1      41.639  31.346  36.251  1.00  0.00    -0.354 N 
ATOM     63  N   UNL A   1      41.331  29.861  33.732  1.00  0.00    -0.248 NA
ATOM     64  C   UNL A   1      42.162  28.366  32.144  1.00  0.00     0.031 C 
ATOM     65  C   UNL A   1      43.429  30.933  37.500  1.00  0.00     0.029 A 
ATOM     66  C   UNL A   1      42.802  30.595  36.311  1.00  0.00     0.049 A 
ATOM     67  H   UNL A   1      40.989  31.321  35.512  1.00  0.00     0.167 HD
ATOM     68  C   UNL A   1      42.551  29.365  34.171  1.00  0.00     0.074 A 
ATOM     69  C   UNL A   1      43.004  28.425  33.166  1.00  0.00     0.031 C 
ATOM     70  C   UNL A   1      43.234  29.660  35.304  1.00  0.00     0.037 A 
BRANCH  57  71
ATOM     71  C   UNL A   1      40.493  33.881  38.889  1.00  0.00     0.064 A 
ATOM     72  C   UNL A   1      39.866  33.463  40.072  1.00  0.00     0.173 A 
ATOM     73  C   UNL A   1      41.204  35.091  38.915  1.00  0.00     0.173 A 
ATOM     74  F   UNL A   1      39.162  32.322  40.096  1.00  0.00    -0.203 F 
ATOM     75  C   UNL A   1      39.929  34.239  41.228  1.00  0.00     0.198 A 
ATOM     76  C   UNL A   1      41.287  35.850  40.079  1.00  0.00     0.198 A 
ATOM     77  F   UNL A   1      41.825  35.534  37.811  1.00  0.00    -0.203 F 
ATOM     78  F   UNL A   1      39.286  33.842  42.334  1.00  0.00    -0.200 F 
ATOM     79  C   UNL A   1      40.645  35.427  41.232  1.00  0.00     0.200 A 
ATOM     80  F   UNL A   1      41.988  36.992  40.084  1.00  0.00    -0.200 F 
ATOM     81  F   UNL A   1      40.709  36.169  42.347  1.00  0.00    -0.200 F 
ENDBRANCH  57  71
BRANCH  58  82
ATOM     82  C   UNL A   1      39.843  28.683  30.381  1.00  0.00     0.064 A 
ATOM     83  C   UNL A   1      39.280  27.403  30.324  1.00  0.00     0.173 A 
ATOM     84  C   UNL A   1      40.339  29.233  29.189  1.00  0.00     0.173 A 
ATOM     85  F   UNL A   1      38.815  26.826  31.442  1.00  0.00    -0.203 F 
ATOM     86  C   UNL A   1      39.225  26.693  29.126  1.00  0.00     0.198 A 
ATOM     87  C   UNL A   1      40.258  28.535  27.985  1.00  0.00     0.198 A 
ATOM     88  F   UNL A   1      40.890  30.456  29.190  1.00  0.00    -0.203 F 
ATOM     89  F   UNL A   1      38.718  25.453  29.106  1.00  0.00    -0.200 F 
ATOM     90  C   UNL A   1      39.708  27.262  27.956  1.00  0.00     0.200 A 
ATOM     91  F   UNL A   1      40.716  29.094  26.857  1.00  0.00    -0.200 F 
ATOM     92  F   UNL A   1      39.650  26.582  26.804  1.00  0.00    -0.200 F 
ENDBRANCH  58  82
BRANCH  70  93
ATOM     93  C   UNL A   1      44.527  28.934  35.533  1.00  0.00     0.064 A 
ATOM     94  C   UNL A   1      44.573  27.712  36.218  1.00  0.00     0.173 A 
ATOM     95  C   UNL A   1      45.729  29.454  35.031  1.00  0.00     0.173 A 
ATOM     96  F   UNL A   1      43.453  27.182  36.731  1.00  0.00    -0.203 F 
ATOM     97  C   UNL A   1      45.781  27.046  36.411  1.00  0.00     0.198 A 
ATOM     98  C   UNL A   1      46.931  28.772  35.202  1.00  0.00     0.198 A 
ATOM     99  F   UNL A   1      45.738  30.618  34.364  1.00  0.00    -0.203 F 
ATOM    100  F   UNL A   1      45.809  25.901  37.107  1.00  0.00    -0.200 F 
ATOM    101  C   UNL A   1      46.957  27.573  35.897  1.00  0.00     0.200 A 
ATOM    102  F   UNL A   1      48.064  29.277  34.695  1.00  0.00    -0.200 F 
ATOM    103  F   UNL A   1      48.118  26.929  36.079  1.00  0.00    -0.200 F 
ENDBRANCH  70  93
ENDBRANCH  44  45
ENDBRANCH  37  39
ENDBRANCH  36  37
ENDBRANCH  35  36
ENDBRANCH  34  35
ENDBRANCH  33  34
ENDBRANCH   1  33
TORSDOF 18
ENDMDL
