MODEL 1
REMARK VINA RESULT:     -12.0      0.000      0.000
REMARK SMILES O=C(OCCOC(=O)[C@H](NC(=O)[C@H]1CC(=O)N(CC2CC2)C1)c1ccccc1C(F)(F)F)c1ccc(-c2c3nc(c(-c4c(F)c(F)c(F)c(F)c4F)c4ccc([nH]4)c(-c4c(F)c(F)c(F)c(F)c4F)c4nc(c(-c5c(F)c(F)c(F)c(F)c5F)c5ccc2[nH]5)C=C4)C=C3)cc1
REMARK SMILES IDX 5 1 4 2 3 3 2 4 1 5 33 6 34 7 95 8 35 9 94 10 36 11 37 12
REMARK SMILES IDX 38 13 88 14 39 15 93 16 87 17 89 18 40 19 92 20 86 21 85 22
REMARK SMILES IDX 41 24 73 25 53 26 72 27 54 28 57 29 71 30 90 31 55 32 56 33
REMARK SMILES IDX 70 35 91 36 58 37 42 38 43 39 51 40 44 41 45 42 49 43 52 44
REMARK SMILES IDX 46 45 47 46 50 47 48 48 74 49 75 50 83 51 76 52 77 53 81 54
REMARK SMILES IDX 84 55 78 56 79 57 82 58 80 59 59 60 60 61 68 62 61 63 62 64
REMARK SMILES IDX 66 65 69 66 63 67 64 68 67 69 65 70 6 71 7 72 8 73 9 74
REMARK SMILES IDX 23 75 24 76 28 77 25 78 27 79 26 80 29 81 30 82 31 83 32 84
REMARK SMILES IDX 10 85 11 86 12 88 13 89 14 90 22 91 15 92 17 93 16 94 18 95
REMARK SMILES IDX 19 96 20 97 21 98
REMARK H PARENT 89 23 57 34 10 87
REMARK Flexibility Score: inf
ROOT
ATOM      1  C   UNL A   1      32.671  30.115  25.855  1.00  0.00     0.274 C 
ENDROOT
BRANCH   1   2
ATOM      2  C   UNL A   1      32.047  31.089  26.863  1.00  0.00     0.275 C 
BRANCH   2   3
ATOM      3  O   UNL A   1      32.495  32.444  26.771  1.00  0.00    -0.458 OA
BRANCH   3   4
ATOM      4  C   UNL A   1      33.085  33.206  27.714  1.00  0.00     0.338 C 
ATOM      5  O   UNL A   1      32.535  34.257  28.035  1.00  0.00    -0.246 OA
BRANCH   4   6
ATOM      6  C   UNL A   1      34.423  32.896  28.329  1.00  0.00     0.060 A 
ATOM      7  C   UNL A   1      35.668  33.438  28.001  1.00  0.00     0.016 A 
ATOM      8  C   UNL A   1      34.395  31.971  29.374  1.00  0.00     0.016 A 
ATOM      9  C   UNL A   1      36.828  33.124  28.729  1.00  0.00     0.010 A 
ATOM     10  C   UNL A   1      35.531  31.709  30.143  1.00  0.00     0.010 A 
ATOM     11  C   UNL A   1      36.776  32.266  29.824  1.00  0.00    -0.014 A 
BRANCH  11  12
ATOM     12  C   UNL A   1      38.001  31.779  30.526  1.00  0.00     0.031 A 
ATOM     13  C   UNL A   1      38.647  30.522  29.996  1.00  0.00     0.074 A 
ATOM     14  C   UNL A   1      38.555  32.405  31.590  1.00  0.00     0.049 A 
ATOM     15  N   UNL A   1      39.575  29.775  30.532  1.00  0.00    -0.248 NA
ATOM     16  C   UNL A   1      38.193  30.050  28.671  1.00  0.00     0.031 C 
ATOM     17  C   UNL A   1      38.162  33.705  32.141  1.00  0.00     0.029 A 
ATOM     18  N   UNL A   1      39.536  31.974  32.463  1.00  0.00    -0.354 N 
ATOM     19  C   UNL A   1      39.872  28.822  29.568  1.00  0.00     0.074 A 
ATOM     20  C   UNL A   1      38.881  28.931  28.526  1.00  0.00     0.031 C 
ATOM     21  C   UNL A   1      38.800  33.904  33.310  1.00  0.00     0.029 A 
ATOM     22  C   UNL A   1      39.571  32.711  33.635  1.00  0.00     0.049 A 
ATOM     23  H   UNL A   1      40.145  31.224  32.273  1.00  0.00     0.167 HD
ATOM     24  C   UNL A   1      40.970  28.039  29.478  1.00  0.00     0.037 A 
ATOM     25  C   UNL A   1      40.039  32.362  34.854  1.00  0.00     0.037 A 
ATOM     26  C   UNL A   1      41.958  27.947  30.511  1.00  0.00     0.049 A 
ATOM     27  C   UNL A   1      40.939  31.170  34.940  1.00  0.00     0.074 A 
ATOM     28  C   UNL A   1      43.159  27.264  30.515  1.00  0.00     0.029 A 
ATOM     29  N   UNL A   1      41.832  28.553  31.752  1.00  0.00    -0.354 N 
ATOM     30  N   UNL A   1      41.264  30.316  34.006  1.00  0.00    -0.248 NA
ATOM     31  C   UNL A   1      41.630  30.973  36.221  1.00  0.00     0.031 C 
ATOM     32  C   UNL A   1      43.740  27.423  31.778  1.00  0.00     0.029 A 
ATOM     33  C   UNL A   1      42.924  28.242  32.540  1.00  0.00     0.049 A 
ATOM     34  H   UNL A   1      41.077  29.120  32.030  1.00  0.00     0.167 HD
ATOM     35  C   UNL A   1      42.303  29.571  34.536  1.00  0.00     0.074 A 
ATOM     36  C   UNL A   1      42.475  30.002  35.909  1.00  0.00     0.031 C 
ATOM     37  C   UNL A   1      43.105  28.690  33.896  1.00  0.00     0.037 A 
BRANCH  24  38
ATOM     38  C   UNL A   1      41.189  27.337  28.170  1.00  0.00     0.064 A 
ATOM     39  C   UNL A   1      40.653  26.054  27.950  1.00  0.00     0.173 A 
ATOM     40  C   UNL A   1      41.937  27.920  27.142  1.00  0.00     0.173 A 
ATOM     41  F   UNL A   1      39.937  25.445  28.909  1.00  0.00    -0.203 F 
ATOM     42  C   UNL A   1      40.900  25.364  26.768  1.00  0.00     0.198 A 
ATOM     43  C   UNL A   1      42.155  27.238  25.946  1.00  0.00     0.198 A 
ATOM     44  F   UNL A   1      42.467  29.142  27.298  1.00  0.00    -0.203 F 
ATOM     45  F   UNL A   1      40.437  24.116  26.614  1.00  0.00    -0.200 F 
ATOM     46  C   UNL A   1      41.648  25.958  25.765  1.00  0.00     0.200 A 
ATOM     47  F   UNL A   1      42.870  27.814  24.970  1.00  0.00    -0.200 F 
ATOM     48  F   UNL A   1      41.889  25.293  24.628  1.00  0.00    -0.200 F 
ENDBRANCH  24  38
BRANCH  25  49
ATOM     49  C   UNL A   1      39.648  33.038  36.127  1.00  0.00     0.064 A 
ATOM     50  C   UNL A   1      38.529  32.674  36.878  1.00  0.00     0.173 A 
ATOM     51  C   UNL A   1      40.351  34.189  36.539  1.00  0.00     0.173 A 
ATOM     52  F   UNL A   1      37.767  31.644  36.483  1.00  0.00    -0.203 F 
ATOM     53  C   UNL A   1      38.147  33.411  38.004  1.00  0.00     0.198 A 
ATOM     54  C   UNL A   1      40.002  34.894  37.690  1.00  0.00     0.198 A 
ATOM     55  F   UNL A   1      41.379  34.640  35.805  1.00  0.00    -0.203 F 
ATOM     56  F   UNL A   1      37.037  33.076  38.675  1.00  0.00    -0.200 F 
ATOM     57  C   UNL A   1      38.893  34.506  38.420  1.00  0.00     0.200 A 
ATOM     58  F   UNL A   1      40.731  35.949  38.079  1.00  0.00    -0.200 F 
ATOM     59  F   UNL A   1      38.528  35.203  39.505  1.00  0.00    -0.200 F 
ENDBRANCH  25  49
BRANCH  37  60
ATOM     60  C   UNL A   1      44.351  28.283  34.612  1.00  0.00     0.064 A 
ATOM     61  C   UNL A   1      45.529  29.033  34.567  1.00  0.00     0.173 A 
ATOM     62  C   UNL A   1      44.350  27.087  35.350  1.00  0.00     0.173 A 
ATOM     63  F   UNL A   1      45.586  30.158  33.838  1.00  0.00    -0.203 F 
ATOM     64  C   UNL A   1      46.677  28.588  35.215  1.00  0.00     0.198 A 
ATOM     65  C   UNL A   1      45.485  26.668  36.031  1.00  0.00     0.198 A 
ATOM     66  F   UNL A   1      43.246  26.325  35.407  1.00  0.00    -0.203 F 
ATOM     67  F   UNL A   1      47.817  29.282  35.101  1.00  0.00    -0.200 F 
ATOM     68  C   UNL A   1      46.650  27.414  35.955  1.00  0.00     0.200 A 
ATOM     69  F   UNL A   1      45.453  25.539  36.752  1.00  0.00    -0.200 F 
ATOM     70  F   UNL A   1      47.755  26.993  36.584  1.00  0.00    -0.200 F 
ENDBRANCH  37  60
ENDBRANCH  11  12
ENDBRANCH   4   6
ENDBRANCH   3   4
ENDBRANCH   2   3
ENDBRANCH   1   2
BRANCH   1  71
ATOM     71  O   UNL A   1      31.747  29.396  25.012  1.00  0.00    -0.460 OA
BRANCH  71  72
ATOM     72  C   UNL A   1      32.237  28.922  23.816  1.00  0.00     0.333 C 
ATOM     73  O   UNL A   1      33.263  29.322  23.287  1.00  0.00    -0.249 OA
BRANCH  72  74
ATOM     74  C   UNL A   1      31.292  27.819  23.222  1.00  0.00     0.224 C 
BRANCH  74  75
ATOM     75  C   UNL A   1      29.915  28.445  22.904  1.00  0.00    -0.002 A 
ATOM     76  C   UNL A   1      29.998  29.716  22.254  1.00  0.00     0.007 A 
ATOM     77  C   UNL A   1      28.616  28.006  23.267  1.00  0.00     0.061 A 
ATOM     78  C   UNL A   1      28.896  30.549  22.055  1.00  0.00     0.000 A 
ATOM     79  C   UNL A   1      27.527  28.913  23.123  1.00  0.00     0.013 A 
ATOM     80  C   UNL A   1      27.661  30.164  22.534  1.00  0.00     0.001 A 
BRANCH  77  81
ATOM     81  C   UNL A   1      28.194  26.688  23.889  1.00  0.00     0.416 C 
ATOM     82  F   UNL A   1      28.874  26.455  25.049  1.00  0.00    -0.166 F 
ATOM     83  F   UNL A   1      26.879  26.694  24.252  1.00  0.00    -0.166 F 
ATOM     84  F   UNL A   1      28.341  25.583  23.126  1.00  0.00    -0.166 F 
ENDBRANCH  77  81
ENDBRANCH  74  75
BRANCH  74  85
ATOM     85  N   UNL A   1      32.022  27.054  22.190  1.00  0.00    -0.339 N 
ATOM     86  C   UNL A   1      33.000  26.094  22.209  1.00  0.00     0.226 C 
ATOM     87  H   UNL A   1      31.740  27.289  21.277  1.00  0.00     0.164 HD
ATOM     88  O   UNL A   1      33.726  26.013  21.213  1.00  0.00    -0.275 OA
BRANCH  86  89
ATOM     89  C   UNL A   1      33.125  25.024  23.274  1.00  0.00     0.107 C 
ATOM     90  C   UNL A   1      31.873  24.189  23.594  1.00  0.00     0.115 C 
ATOM     91  C   UNL A   1      34.122  23.959  22.986  1.00  0.00     0.133 C 
ATOM     92  C   UNL A   1      32.471  22.954  24.245  1.00  0.00     0.223 C 
ATOM     93  N   UNL A   1      33.806  22.913  23.893  1.00  0.00    -0.342 N 
ATOM     94  O   UNL A   1      31.868  22.146  24.941  1.00  0.00    -0.275 OA
BRANCH  93  95
ATOM     95  C   UNL A   1      34.825  22.019  24.407  1.00  0.00     0.123 C 
BRANCH  95  96
ATOM     96  C   UNL A   1      36.221  22.566  24.373  1.00  0.00     0.008 C 
ATOM     97  C   UNL A   1      36.684  23.331  25.567  1.00  0.00     0.006 C 
ATOM     98  C   UNL A   1      37.462  22.133  25.145  1.00  0.00     0.006 C 
ENDBRANCH  95  96
ENDBRANCH  93  95
ENDBRANCH  86  89
ENDBRANCH  74  85
ENDBRANCH  72  74
ENDBRANCH  71  72
ENDBRANCH   1  71
TORSDOF 17
ENDMDL
MODEL 2
REMARK VINA RESULT:     -12.0      0.782      2.092
REMARK SMILES O=C(OCCOC(=O)[C@H](NC(=O)[C@H]1CC(=O)N(CC2CC2)C1)c1ccccc1C(F)(F)F)c1ccc(-c2c3nc(c(-c4c(F)c(F)c(F)c(F)c4F)c4ccc([nH]4)c(-c4c(F)c(F)c(F)c(F)c4F)c4nc(c(-c5c(F)c(F)c(F)c(F)c5F)c5ccc2[nH]5)C=C4)C=C3)cc1
REMARK SMILES IDX 5 1 4 2 3 3 2 4 1 5 33 6 34 7 95 8 35 9 94 10 36 11 37 12
REMARK SMILES IDX 38 13 88 14 39 15 93 16 87 17 89 18 40 19 92 20 86 21 85 22
REMARK SMILES IDX 41 24 73 25 53 26 72 27 54 28 57 29 71 30 90 31 55 32 56 33
REMARK SMILES IDX 70 35 91 36 58 37 42 38 43 39 51 40 44 41 45 42 49 43 52 44
REMARK SMILES IDX 46 45 47 46 50 47 48 48 74 49 75 50 83 51 76 52 77 53 81 54
REMARK SMILES IDX 84 55 78 56 79 57 82 58 80 59 59 60 60 61 68 62 61 63 62 64
REMARK SMILES IDX 66 65 69 66 63 67 64 68 67 69 65 70 6 71 7 72 8 73 9 74
REMARK SMILES IDX 23 75 24 76 28 77 25 78 27 79 26 80 29 81 30 82 31 83 32 84
REMARK SMILES IDX 10 85 11 86 12 88 13 89 14 90 22 91 15 92 17 93 16 94 18 95
REMARK SMILES IDX 19 96 20 97 21 98
REMARK H PARENT 89 23 57 34 10 87
REMARK Flexibility Score: inf
ROOT
ATOM      1  C   UNL A   1      31.363  30.746  25.867  1.00  0.00     0.274 C 
ENDROOT
BRANCH   1   2
ATOM      2  C   UNL A   1      32.367  31.391  26.832  1.00  0.00     0.275 C 
BRANCH   2   3
ATOM      3  O   UNL A   1      32.101  32.752  27.181  1.00  0.00    -0.458 OA
BRANCH   3   4
ATOM      4  C   UNL A   1      32.862  33.607  27.895  1.00  0.00     0.338 C 
ATOM      5  O   UNL A   1      32.464  34.762  28.026  1.00  0.00    -0.246 OA
BRANCH   4   6
ATOM      6  C   UNL A   1      34.212  33.259  28.460  1.00  0.00     0.060 A 
ATOM      7  C   UNL A   1      35.470  33.541  27.921  1.00  0.00     0.016 A 
ATOM      8  C   UNL A   1      34.189  32.598  29.688  1.00  0.00     0.016 A 
ATOM      9  C   UNL A   1      36.657  33.238  28.611  1.00  0.00     0.010 A 
ATOM     10  C   UNL A   1      35.361  32.358  30.408  1.00  0.00     0.010 A 
ATOM     11  C   UNL A   1      36.622  32.657  29.874  1.00  0.00    -0.014 A 
BRANCH  11  12
ATOM     12  C   UNL A   1      37.850  32.173  30.573  1.00  0.00     0.031 A 
ATOM     13  C   UNL A   1      38.455  30.877  30.089  1.00  0.00     0.074 A 
ATOM     14  C   UNL A   1      38.441  32.833  31.595  1.00  0.00     0.049 A 
ATOM     15  N   UNL A   1      39.376  30.132  30.640  1.00  0.00    -0.248 NA
ATOM     16  C   UNL A   1      37.962  30.356  28.797  1.00  0.00     0.031 C 
ATOM     17  C   UNL A   1      38.090  34.166  32.093  1.00  0.00     0.029 A 
ATOM     18  N   UNL A   1      39.430  32.419  32.468  1.00  0.00    -0.354 N 
ATOM     19  C   UNL A   1      39.630  29.129  29.716  1.00  0.00     0.074 A 
ATOM     20  C   UNL A   1      38.620  29.215  28.690  1.00  0.00     0.031 C 
ATOM     21  C   UNL A   1      38.758  34.403  33.239  1.00  0.00     0.029 A 
ATOM     22  C   UNL A   1      39.507  33.208  33.603  1.00  0.00     0.049 A 
ATOM     23  H   UNL A   1      40.017  31.647  32.301  1.00  0.00     0.167 HD
ATOM     24  C   UNL A   1      40.708  28.317  29.640  1.00  0.00     0.037 A 
ATOM     25  C   UNL A   1      39.993  32.904  34.828  1.00  0.00     0.037 A 
ATOM     26  C   UNL A   1      41.714  28.248  30.657  1.00  0.00     0.049 A 
ATOM     27  C   UNL A   1      40.866  31.696  34.951  1.00  0.00     0.074 A 
ATOM     28  C   UNL A   1      42.899  27.537  30.668  1.00  0.00     0.029 A 
ATOM     29  N   UNL A   1      41.629  28.913  31.870  1.00  0.00    -0.354 N 
ATOM     30  N   UNL A   1      41.151  30.792  34.051  1.00  0.00    -0.248 NA
ATOM     31  C   UNL A   1      41.579  31.540  36.225  1.00  0.00     0.031 C 
ATOM     32  C   UNL A   1      43.511  27.739  31.910  1.00  0.00     0.029 A 
ATOM     33  C   UNL A   1      42.731  28.612  32.650  1.00  0.00     0.049 A 
ATOM     34  H   UNL A   1      40.894  29.511  32.137  1.00  0.00     0.167 HD
ATOM     35  C   UNL A   1      42.183  30.047  34.594  1.00  0.00     0.074 A 
ATOM     36  C   UNL A   1      42.394  30.536  35.941  1.00  0.00     0.031 C 
ATOM     37  C   UNL A   1      42.951  29.118  33.979  1.00  0.00     0.037 A 
BRANCH  24  38
ATOM     38  C   UNL A   1      40.882  27.550  28.362  1.00  0.00     0.064 A 
ATOM     39  C   UNL A   1      41.561  28.126  27.272  1.00  0.00     0.173 A 
ATOM     40  C   UNL A   1      40.370  26.258  28.207  1.00  0.00     0.173 A 
ATOM     41  F   UNL A   1      42.062  29.369  27.365  1.00  0.00    -0.203 F 
ATOM     42  C   UNL A   1      41.676  27.454  26.059  1.00  0.00     0.198 A 
ATOM     43  C   UNL A   1      40.515  25.576  27.000  1.00  0.00     0.198 A 
ATOM     44  F   UNL A   1      39.718  25.662  29.216  1.00  0.00    -0.203 F 
ATOM     45  F   UNL A   1      42.265  28.055  25.016  1.00  0.00    -0.200 F 
ATOM     46  C   UNL A   1      41.156  26.177  25.926  1.00  0.00     0.200 A 
ATOM     47  F   UNL A   1      40.022  24.336  26.872  1.00  0.00    -0.200 F 
ATOM     48  F   UNL A   1      41.264  25.531  24.758  1.00  0.00    -0.200 F 
ENDBRANCH  24  38
BRANCH  25  49
ATOM     49  C   UNL A   1      39.645  33.647  36.075  1.00  0.00     0.064 A 
ATOM     50  C   UNL A   1      40.391  34.724  36.559  1.00  0.00     0.173 A 
ATOM     51  C   UNL A   1      38.599  33.172  36.892  1.00  0.00     0.173 A 
ATOM     52  F   UNL A   1      41.455  35.162  35.873  1.00  0.00    -0.203 F 
ATOM     53  C   UNL A   1      40.085  35.315  37.790  1.00  0.00     0.198 A 
ATOM     54  C   UNL A   1      38.261  33.793  38.093  1.00  0.00     0.198 A 
ATOM     55  F   UNL A   1      37.908  32.084  36.522  1.00  0.00    -0.203 F 
ATOM     56  F   UNL A   1      40.849  36.310  38.260  1.00  0.00    -0.200 F 
ATOM     57  C   UNL A   1      39.011  34.863  38.546  1.00  0.00     0.200 A 
ATOM     58  F   UNL A   1      37.222  33.345  38.812  1.00  0.00    -0.200 F 
ATOM     59  F   UNL A   1      38.717  35.439  39.720  1.00  0.00    -0.200 F 
ENDBRANCH  25  49
BRANCH  37  60
ATOM     60  C   UNL A   1      44.201  28.714  34.689  1.00  0.00     0.064 A 
ATOM     61  C   UNL A   1      44.270  27.595  35.523  1.00  0.00     0.173 A 
ATOM     62  C   UNL A   1      45.356  29.499  34.530  1.00  0.00     0.173 A 
ATOM     63  F   UNL A   1      43.179  26.843  35.737  1.00  0.00    -0.203 F 
ATOM     64  C   UNL A   1      45.447  27.287  36.198  1.00  0.00     0.198 A 
ATOM     65  C   UNL A   1      46.541  29.163  35.171  1.00  0.00     0.198 A 
ATOM     66  F   UNL A   1      45.332  30.593  33.753  1.00  0.00    -0.203 F 
ATOM     67  F   UNL A   1      45.475  26.253  37.050  1.00  0.00    -0.200 F 
ATOM     68  C   UNL A   1      46.583  28.063  36.012  1.00  0.00     0.200 A 
ATOM     69  F   UNL A   1      47.637  29.911  34.983  1.00  0.00    -0.200 F 
ATOM     70  F   UNL A   1      47.716  27.759  36.658  1.00  0.00    -0.200 F 
ENDBRANCH  37  60
ENDBRANCH  11  12
ENDBRANCH   4   6
ENDBRANCH   3   4
ENDBRANCH   2   3
ENDBRANCH   1   2
BRANCH   1  71
ATOM     71  O   UNL A   1      31.582  29.353  25.563  1.00  0.00    -0.460 OA
BRANCH  71  72
ATOM     72  C   UNL A   1      32.231  29.069  24.383  1.00  0.00     0.333 C 
ATOM     73  O   UNL A   1      33.243  29.640  24.001  1.00  0.00    -0.249 OA
BRANCH  72  74
ATOM     74  C   UNL A   1      31.488  27.935  23.593  1.00  0.00     0.224 C 
BRANCH  74  75
ATOM     75  C   UNL A   1      30.084  28.436  23.182  1.00  0.00    -0.002 A 
ATOM     76  C   UNL A   1      30.092  29.724  22.562  1.00  0.00     0.007 A 
ATOM     77  C   UNL A   1      28.811  27.867  23.439  1.00  0.00     0.061 A 
ATOM     78  C   UNL A   1      28.933  30.453  22.294  1.00  0.00     0.000 A 
ATOM     79  C   UNL A   1      27.653  28.670  23.228  1.00  0.00     0.013 A 
ATOM     80  C   UNL A   1      27.709  29.942  22.672  1.00  0.00     0.001 A 
BRANCH  77  81
ATOM     81  C   UNL A   1      28.473  26.500  24.005  1.00  0.00     0.416 C 
ATOM     82  F   UNL A   1      29.109  26.293  25.194  1.00  0.00    -0.166 F 
ATOM     83  F   UNL A   1      27.145  26.384  24.297  1.00  0.00    -0.166 F 
ATOM     84  F   UNL A   1      28.754  25.434  23.225  1.00  0.00    -0.166 F 
ENDBRANCH  77  81
ENDBRANCH  74  75
BRANCH  74  85
ATOM     85  N   UNL A   1      32.403  27.362  22.585  1.00  0.00    -0.339 N 
ATOM     86  C   UNL A   1      33.283  26.312  22.562  1.00  0.00     0.226 C 
ATOM     87  H   UNL A   1      32.372  27.848  21.729  1.00  0.00     0.164 HD
ATOM     88  O   UNL A   1      34.228  26.388  21.771  1.00  0.00    -0.275 OA
BRANCH  86  89
ATOM     89  C   UNL A   1      33.072  25.006  23.300  1.00  0.00     0.107 C 
ATOM     90  C   UNL A   1      32.471  23.830  22.509  1.00  0.00     0.115 C 
ATOM     91  C   UNL A   1      34.305  24.386  23.854  1.00  0.00     0.133 C 
ATOM     92  C   UNL A   1      32.893  22.634  23.345  1.00  0.00     0.223 C 
ATOM     93  N   UNL A   1      33.935  23.047  24.151  1.00  0.00    -0.342 N 
ATOM     94  O   UNL A   1      32.400  21.514  23.294  1.00  0.00    -0.275 OA
BRANCH  93  95
ATOM     95  C   UNL A   1      34.553  22.311  25.236  1.00  0.00     0.123 C 
BRANCH  95  96
ATOM     96  C   UNL A   1      34.227  22.817  26.610  1.00  0.00     0.008 C 
ATOM     97  C   UNL A   1      32.824  22.647  27.086  1.00  0.00     0.006 C 
ATOM     98  C   UNL A   1      33.925  22.048  27.891  1.00  0.00     0.006 C 
ENDBRANCH  95  96
ENDBRANCH  93  95
ENDBRANCH  86  89
ENDBRANCH  74  85
ENDBRANCH  72  74
ENDBRANCH  71  72
ENDBRANCH   1  71
TORSDOF 17
ENDMDL
MODEL 3
REMARK VINA RESULT:     -11.9      4.441      9.960
REMARK SMILES O=C(OCCOC(=O)[C@H](NC(=O)[C@H]1CC(=O)N(CC2CC2)C1)c1ccccc1C(F)(F)F)c1ccc(-c2c3nc(c(-c4c(F)c(F)c(F)c(F)c4F)c4ccc([nH]4)c(-c4c(F)c(F)c(F)c(F)c4F)c4nc(c(-c5c(F)c(F)c(F)c(F)c5F)c5ccc2[nH]5)C=C4)C=C3)cc1
REMARK SMILES IDX 5 1 4 2 3 3 2 4 1 5 33 6 34 7 95 8 35 9 94 10 36 11 37 12
REMARK SMILES IDX 38 13 88 14 39 15 93 16 87 17 89 18 40 19 92 20 86 21 85 22
REMARK SMILES IDX 41 24 73 25 53 26 72 27 54 28 57 29 71 30 90 31 55 32 56 33
REMARK SMILES IDX 70 35 91 36 58 37 42 38 43 39 51 40 44 41 45 42 49 43 52 44
REMARK SMILES IDX 46 45 47 46 50 47 48 48 74 49 75 50 83 51 76 52 77 53 81 54
REMARK SMILES IDX 84 55 78 56 79 57 82 58 80 59 59 60 60 61 68 62 61 63 62 64
REMARK SMILES IDX 66 65 69 66 63 67 64 68 67 69 65 70 6 71 7 72 8 73 9 74
REMARK SMILES IDX 23 75 24 76 28 77 25 78 27 79 26 80 29 81 30 82 31 83 32 84
REMARK SMILES IDX 10 85 11 86 12 88 13 89 14 90 22 91 15 92 17 93 16 94 18 95
REMARK SMILES IDX 19 96 20 97 21 98
REMARK H PARENT 89 23 57 34 10 87
REMARK Flexibility Score: inf
ROOT
ATOM      1  C   UNL A   1      36.182  23.139  23.406  1.00  0.00     0.274 C 
ENDROOT
BRANCH   1   2
ATOM      2  C   UNL A   1      36.706  21.914  24.169  1.00  0.00     0.275 C 
BRANCH   2   3
ATOM      3  O   UNL A   1      37.232  22.177  25.472  1.00  0.00    -0.458 OA
BRANCH   3   4
ATOM      4  C   UNL A   1      38.472  21.940  25.948  1.00  0.00     0.338 C 
ATOM      5  O   UNL A   1      38.855  20.773  26.005  1.00  0.00    -0.246 OA
BRANCH   4   6
ATOM      6  C   UNL A   1      39.377  23.006  26.501  1.00  0.00     0.060 A 
ATOM      7  C   UNL A   1      40.287  22.901  27.556  1.00  0.00     0.016 A 
ATOM      8  C   UNL A   1      39.309  24.238  25.850  1.00  0.00     0.016 A 
ATOM      9  C   UNL A   1      41.144  23.960  27.905  1.00  0.00     0.010 A 
ATOM     10  C   UNL A   1      40.204  25.268  26.147  1.00  0.00     0.010 A 
ATOM     11  C   UNL A   1      41.129  25.156  27.194  1.00  0.00    -0.014 A 
BRANCH  11  12
ATOM     12  C   UNL A   1      41.901  26.360  27.625  1.00  0.00     0.031 A 
ATOM     13  C   UNL A   1      41.115  27.524  28.177  1.00  0.00     0.074 A 
ATOM     14  C   UNL A   1      43.249  26.451  27.555  1.00  0.00     0.049 A 
ATOM     15  N   UNL A   1      41.502  28.748  28.421  1.00  0.00    -0.248 NA
ATOM     16  C   UNL A   1      39.698  27.270  28.512  1.00  0.00     0.031 C 
ATOM     17  C   UNL A   1      44.180  25.377  27.195  1.00  0.00     0.029 A 
ATOM     18  N   UNL A   1      44.075  27.549  27.706  1.00  0.00    -0.354 N 
ATOM     19  C   UNL A   1      40.411  29.358  29.023  1.00  0.00     0.074 A 
ATOM     20  C   UNL A   1      39.286  28.464  28.897  1.00  0.00     0.031 C 
ATOM     21  C   UNL A   1      45.414  25.892  27.038  1.00  0.00     0.029 A 
ATOM     22  C   UNL A   1      45.343  27.340  27.191  1.00  0.00     0.049 A 
ATOM     23  H   UNL A   1      43.793  28.390  28.134  1.00  0.00     0.167 HD
ATOM     24  C   UNL A   1      40.390  30.488  29.765  1.00  0.00     0.037 A 
ATOM     25  C   UNL A   1      46.252  28.241  26.756  1.00  0.00     0.037 A 
ATOM     26  C   UNL A   1      41.517  31.363  29.898  1.00  0.00     0.049 A 
ATOM     27  C   UNL A   1      46.061  29.670  27.153  1.00  0.00     0.074 A 
ATOM     28  C   UNL A   1      41.661  32.490  30.684  1.00  0.00     0.029 A 
ATOM     29  N   UNL A   1      42.699  31.208  29.190  1.00  0.00    -0.354 N 
ATOM     30  N   UNL A   1      45.056  30.222  27.781  1.00  0.00    -0.248 NA
ATOM     31  C   UNL A   1      47.188  30.572  26.886  1.00  0.00     0.031 C 
ATOM     32  C   UNL A   1      42.919  33.042  30.418  1.00  0.00     0.029 A 
ATOM     33  C   UNL A   1      43.573  32.232  29.504  1.00  0.00     0.049 A 
ATOM     34  H   UNL A   1      42.888  30.477  28.559  1.00  0.00     0.167 HD
ATOM     35  C   UNL A   1      45.488  31.494  28.115  1.00  0.00     0.074 A 
ATOM     36  C   UNL A   1      46.798  31.666  27.523  1.00  0.00     0.031 C 
ATOM     37  C   UNL A   1      44.885  32.388  28.933  1.00  0.00     0.037 A 
BRANCH  24  38
ATOM     38  C   UNL A   1      39.147  30.744  30.565  1.00  0.00     0.064 A 
ATOM     39  C   UNL A   1      38.082  31.482  30.012  1.00  0.00     0.173 A 
ATOM     40  C   UNL A   1      39.010  30.277  31.875  1.00  0.00     0.173 A 
ATOM     41  F   UNL A   1      38.169  31.962  28.761  1.00  0.00    -0.203 F 
ATOM     42  C   UNL A   1      36.950  31.782  30.762  1.00  0.00     0.198 A 
ATOM     43  C   UNL A   1      37.859  30.553  32.612  1.00  0.00     0.198 A 
ATOM     44  F   UNL A   1      39.992  29.567  32.448  1.00  0.00    -0.203 F 
ATOM     45  F   UNL A   1      35.983  32.546  30.235  1.00  0.00    -0.200 F 
ATOM     46  C   UNL A   1      36.837  31.314  32.061  1.00  0.00     0.200 A 
ATOM     47  F   UNL A   1      37.743  30.093  33.865  1.00  0.00    -0.200 F 
ATOM     48  F   UNL A   1      35.749  31.605  32.784  1.00  0.00    -0.200 F 
ENDBRANCH  24  38
BRANCH  25  49
ATOM     49  C   UNL A   1      47.384  27.914  25.839  1.00  0.00     0.064 A 
ATOM     50  C   UNL A   1      47.250  27.835  24.452  1.00  0.00     0.173 A 
ATOM     51  C   UNL A   1      48.625  27.530  26.387  1.00  0.00     0.173 A 
ATOM     52  F   UNL A   1      46.067  28.098  23.880  1.00  0.00    -0.203 F 
ATOM     53  C   UNL A   1      48.317  27.418  23.648  1.00  0.00     0.198 A 
ATOM     54  C   UNL A   1      49.704  27.164  25.584  1.00  0.00     0.198 A 
ATOM     55  F   UNL A   1      48.784  27.497  27.718  1.00  0.00    -0.203 F 
ATOM     56  F   UNL A   1      48.147  27.296  22.325  1.00  0.00    -0.200 F 
ATOM     57  C   UNL A   1      49.546  27.102  24.212  1.00  0.00     0.200 A 
ATOM     58  F   UNL A   1      50.885  26.861  26.141  1.00  0.00    -0.200 F 
ATOM     59  F   UNL A   1      50.568  26.712  23.435  1.00  0.00    -0.200 F 
ENDBRANCH  25  49
BRANCH  37  60
ATOM     60  C   UNL A   1      45.719  33.540  29.388  1.00  0.00     0.064 A 
ATOM     61  C   UNL A   1      46.566  33.469  30.498  1.00  0.00     0.173 A 
ATOM     62  C   UNL A   1      45.641  34.755  28.686  1.00  0.00     0.173 A 
ATOM     63  F   UNL A   1      46.637  32.342  31.223  1.00  0.00    -0.203 F 
ATOM     64  C   UNL A   1      47.289  34.585  30.909  1.00  0.00     0.198 A 
ATOM     65  C   UNL A   1      46.397  35.852  29.073  1.00  0.00     0.198 A 
ATOM     66  F   UNL A   1      44.828  34.874  27.624  1.00  0.00    -0.203 F 
ATOM     67  F   UNL A   1      48.039  34.521  32.017  1.00  0.00    -0.200 F 
ATOM     68  C   UNL A   1      47.213  35.770  30.190  1.00  0.00     0.200 A 
ATOM     69  F   UNL A   1      46.327  36.992  28.371  1.00  0.00    -0.200 F 
ATOM     70  F   UNL A   1      47.916  36.839  30.584  1.00  0.00    -0.200 F 
ENDBRANCH  37  60
ENDBRANCH  11  12
ENDBRANCH   4   6
ENDBRANCH   3   4
ENDBRANCH   2   3
ENDBRANCH   1   2
BRANCH   1  71
ATOM     71  O   UNL A   1      35.230  23.964  24.109  1.00  0.00    -0.460 OA
BRANCH  71  72
ATOM     72  C   UNL A   1      34.071  24.285  23.439  1.00  0.00     0.333 C 
ATOM     73  O   UNL A   1      34.036  24.911  22.389  1.00  0.00    -0.249 OA
BRANCH  72  74
ATOM     74  C   UNL A   1      32.812  23.757  24.212  1.00  0.00     0.224 C 
BRANCH  74  75
ATOM     75  C   UNL A   1      32.993  22.251  24.514  1.00  0.00    -0.002 A 
ATOM     76  C   UNL A   1      32.635  21.400  23.422  1.00  0.00     0.007 A 
ATOM     77  C   UNL A   1      33.337  21.608  25.730  1.00  0.00     0.061 A 
ATOM     78  C   UNL A   1      32.529  20.013  23.535  1.00  0.00     0.000 A 
ATOM     79  C   UNL A   1      33.140  20.201  25.833  1.00  0.00     0.013 A 
ATOM     80  C   UNL A   1      32.738  19.415  24.760  1.00  0.00     0.001 A 
BRANCH  77  81
ATOM     81  C   UNL A   1      33.831  22.221  27.027  1.00  0.00     0.416 C 
ATOM     82  F   UNL A   1      32.795  22.734  27.750  1.00  0.00    -0.166 F 
ATOM     83  F   UNL A   1      34.400  21.290  27.846  1.00  0.00    -0.166 F 
ATOM     84  F   UNL A   1      34.753  23.203  26.921  1.00  0.00    -0.166 F 
ENDBRANCH  77  81
ENDBRANCH  74  75
BRANCH  74  85
ATOM     85  N   UNL A   1      32.475  24.701  25.297  1.00  0.00    -0.339 N 
ATOM     86  C   UNL A   1      32.050  26.004  25.349  1.00  0.00     0.226 C 
ATOM     87  H   UNL A   1      32.579  24.302  26.191  1.00  0.00     0.164 HD
ATOM     88  O   UNL A   1      32.322  26.643  26.370  1.00  0.00    -0.275 OA
BRANCH  86  89
ATOM     89  C   UNL A   1      31.125  26.640  24.332  1.00  0.00     0.107 C 
ATOM     90  C   UNL A   1      29.621  26.333  24.447  1.00  0.00     0.115 C 
ATOM     91  C   UNL A   1      31.120  28.128  24.325  1.00  0.00     0.133 C 
ATOM     92  C   UNL A   1      29.000  27.487  23.679  1.00  0.00     0.223 C 
ATOM     93  N   UNL A   1      29.954  28.482  23.596  1.00  0.00    -0.342 N 
ATOM     94  O   UNL A   1      27.860  27.522  23.234  1.00  0.00    -0.275 OA
BRANCH  93  95
ATOM     95  C   UNL A   1      29.888  29.702  22.815  1.00  0.00     0.123 C 
BRANCH  95  96
ATOM     96  C   UNL A   1      29.155  30.834  23.471  1.00  0.00     0.008 C 
ATOM     97  C   UNL A   1      28.578  31.882  22.580  1.00  0.00     0.006 C 
ATOM     98  C   UNL A   1      27.664  31.149  23.499  1.00  0.00     0.006 C 
ENDBRANCH  95  96
ENDBRANCH  93  95
ENDBRANCH  86  89
ENDBRANCH  74  85
ENDBRANCH  72  74
ENDBRANCH  71  72
ENDBRANCH   1  71
TORSDOF 17
ENDMDL
