MODEL 1
REMARK VINA RESULT:     -10.9      0.000      0.000
REMARK SMILES O=C(OCCOC(=O)c1cc(-c2ccc(N3C(=O)[C@@H]4CC=CC[C@H]4C3=O)cc2)nc2c(Cl)cccc12)c1ccc(-c2c3nc(c(-c4c(F)c(F)c(F)c(F)c4F)c4ccc([nH]4)c(-c4c(F)c(F)c(F)c(F)c4F)c4nc(c(-c5c(F)c(F)c(F)c(F)c5F)c5ccc2[nH]5)C=C4)C=C3)cc1
REMARK SMILES IDX 4 1 3 2 2 3 1 4 37 5 38 6 99 7 39 8 98 9 40 10 41 11 42 12
REMARK SMILES IDX 92 13 43 14 97 15 91 16 93 17 44 18 96 19 90 20 89 21 45 23
REMARK SMILES IDX 77 24 57 25 76 26 58 27 61 28 75 29 94 30 59 31 60 32 74 34
REMARK SMILES IDX 95 35 62 36 46 37 47 38 55 39 48 40 49 41 53 42 56 43 50 44
REMARK SMILES IDX 51 45 54 46 52 47 78 48 79 49 87 50 80 51 81 52 85 53 88 54
REMARK SMILES IDX 82 55 83 56 86 57 84 58 63 59 64 60 72 61 65 62 66 63 70 64
REMARK SMILES IDX 73 65 67 66 68 67 71 68 69 69 5 70 6 71 7 72 8 73 9 74 10 75
REMARK SMILES IDX 36 76 11 77 30 78 35 79 29 80 31 81 34 82 32 83 33 84 12 85
REMARK SMILES IDX 13 86 28 87 14 88 27 89 15 90 16 91 17 92 25 93 18 94 19 95
REMARK SMILES IDX 24 96 26 97 20 98 23 99 21 100 22 101
REMARK H PARENT 93 22 61 33
REMARK Flexibility Score: inf
ROOT
ATOM      1  C   UNL A   1      34.161  32.590  27.967  1.00  0.00     0.275 C 
ENDROOT
BRANCH   1   2
ATOM      2  O   UNL A   1      34.058  31.164  28.130  1.00  0.00    -0.458 OA
BRANCH   2   3
ATOM      3  C   UNL A   1      34.829  30.164  27.649  1.00  0.00     0.338 C 
ATOM      4  O   UNL A   1      34.347  29.399  26.815  1.00  0.00    -0.246 OA
BRANCH   3   5
ATOM      5  C   UNL A   1      36.202  29.842  28.156  1.00  0.00     0.060 A 
ATOM      6  C   UNL A   1      36.520  29.328  29.412  1.00  0.00     0.016 A 
ATOM      7  C   UNL A   1      37.265  30.075  27.261  1.00  0.00     0.016 A 
ATOM      8  C   UNL A   1      37.832  28.979  29.736  1.00  0.00     0.010 A 
ATOM      9  C   UNL A   1      38.579  29.706  27.567  1.00  0.00     0.010 A 
ATOM     10  C   UNL A   1      38.867  29.153  28.816  1.00  0.00    -0.014 A 
BRANCH  10  11
ATOM     11  C   UNL A   1      40.252  28.870  29.249  1.00  0.00     0.031 A 
ATOM     12  C   UNL A   1      40.856  27.544  28.912  1.00  0.00     0.074 A 
ATOM     13  C   UNL A   1      41.005  29.842  29.796  1.00  0.00     0.049 A 
ATOM     14  N   UNL A   1      42.095  27.150  29.045  1.00  0.00    -0.248 NA
ATOM     15  C   UNL A   1      39.966  26.551  28.292  1.00  0.00     0.031 C 
ATOM     16  C   UNL A   1      40.552  31.205  30.051  1.00  0.00     0.029 A 
ATOM     17  N   UNL A   1      42.312  29.844  30.214  1.00  0.00    -0.354 N 
ATOM     18  C   UNL A   1      42.147  25.897  28.458  1.00  0.00     0.074 A 
ATOM     19  C   UNL A   1      40.803  25.555  28.050  1.00  0.00     0.031 C 
ATOM     20  C   UNL A   1      41.550  31.903  30.616  1.00  0.00     0.029 A 
ATOM     21  C   UNL A   1      42.701  31.031  30.785  1.00  0.00     0.049 A 
ATOM     22  H   UNL A   1      42.911  29.070  30.114  1.00  0.00     0.167 HD
ATOM     23  C   UNL A   1      43.235  25.125  28.236  1.00  0.00     0.037 A 
ATOM     24  C   UNL A   1      43.853  31.374  31.389  1.00  0.00     0.037 A 
ATOM     25  C   UNL A   1      44.558  25.451  28.698  1.00  0.00     0.049 A 
ATOM     26  C   UNL A   1      44.997  30.408  31.324  1.00  0.00     0.074 A 
ATOM     27  C   UNL A   1      45.721  24.714  28.581  1.00  0.00     0.029 A 
ATOM     28  N   UNL A   1      44.885  26.610  29.392  1.00  0.00    -0.354 N 
ATOM     29  N   UNL A   1      45.045  29.232  30.748  1.00  0.00    -0.248 NA
ATOM     30  C   UNL A   1      46.258  30.833  31.940  1.00  0.00     0.031 C 
ATOM     31  C   UNL A   1      46.741  25.401  29.250  1.00  0.00     0.029 A 
ATOM     32  C   UNL A   1      46.228  26.594  29.733  1.00  0.00     0.049 A 
ATOM     33  H   UNL A   1      44.255  27.335  29.608  1.00  0.00     0.167 HD
ATOM     34  C   UNL A   1      46.350  28.794  30.890  1.00  0.00     0.074 A 
ATOM     35  C   UNL A   1      47.063  29.837  31.602  1.00  0.00     0.031 C 
ATOM     36  C   UNL A   1      46.912  27.639  30.453  1.00  0.00     0.037 A 
BRANCH  23  37
ATOM     37  C   UNL A   1      43.013  23.856  27.472  1.00  0.00     0.064 A 
ATOM     38  C   UNL A   1      42.535  22.698  28.107  1.00  0.00     0.173 A 
ATOM     39  C   UNL A   1      43.302  23.784  26.103  1.00  0.00     0.173 A 
ATOM     40  F   UNL A   1      42.270  22.709  29.423  1.00  0.00    -0.203 F 
ATOM     41  C   UNL A   1      42.383  21.506  27.403  1.00  0.00     0.198 A 
ATOM     42  C   UNL A   1      43.124  22.597  25.396  1.00  0.00     0.198 A 
ATOM     43  F   UNL A   1      43.769  24.859  25.453  1.00  0.00    -0.203 F 
ATOM     44  F   UNL A   1      41.979  20.399  28.042  1.00  0.00    -0.200 F 
ATOM     45  C   UNL A   1      42.672  21.458  26.048  1.00  0.00     0.200 A 
ATOM     46  F   UNL A   1      43.402  22.551  24.086  1.00  0.00    -0.200 F 
ATOM     47  F   UNL A   1      42.530  20.310  25.373  1.00  0.00    -0.200 F 
ENDBRANCH  23  37
BRANCH  24  48
ATOM     48  C   UNL A   1      43.968  32.668  32.113  1.00  0.00     0.064 A 
ATOM     49  C   UNL A   1      43.788  32.769  33.498  1.00  0.00     0.173 A 
ATOM     50  C   UNL A   1      44.230  33.851  31.405  1.00  0.00     0.173 A 
ATOM     51  F   UNL A   1      43.520  31.671  34.219  1.00  0.00    -0.203 F 
ATOM     52  C   UNL A   1      43.841  34.005  34.143  1.00  0.00     0.198 A 
ATOM     53  C   UNL A   1      44.310  35.082  32.052  1.00  0.00     0.198 A 
ATOM     54  F   UNL A   1      44.408  33.811  30.076  1.00  0.00    -0.203 F 
ATOM     55  F   UNL A   1      43.619  34.079  35.462  1.00  0.00    -0.200 F 
ATOM     56  C   UNL A   1      44.104  35.159  33.420  1.00  0.00     0.200 A 
ATOM     57  F   UNL A   1      44.586  36.190  31.352  1.00  0.00    -0.200 F 
ATOM     58  F   UNL A   1      44.155  36.346  34.041  1.00  0.00    -0.200 F 
ENDBRANCH  24  48
BRANCH  36  59
ATOM     59  C   UNL A   1      48.381  27.475  30.707  1.00  0.00     0.064 A 
ATOM     60  C   UNL A   1      49.344  27.939  29.799  1.00  0.00     0.173 A 
ATOM     61  C   UNL A   1      48.827  26.834  31.872  1.00  0.00     0.173 A 
ATOM     62  F   UNL A   1      48.965  28.538  28.659  1.00  0.00    -0.203 F 
ATOM     63  C   UNL A   1      50.700  27.730  30.029  1.00  0.00     0.198 A 
ATOM     64  C   UNL A   1      50.185  26.660  32.117  1.00  0.00     0.198 A 
ATOM     65  F   UNL A   1      47.946  26.374  32.772  1.00  0.00    -0.203 F 
ATOM     66  F   UNL A   1      51.599  28.115  29.114  1.00  0.00    -0.200 F 
ATOM     67  C   UNL A   1      51.119  27.096  31.190  1.00  0.00     0.200 A 
ATOM     68  F   UNL A   1      50.589  26.060  33.244  1.00  0.00    -0.200 F 
ATOM     69  F   UNL A   1      52.425  26.893  31.408  1.00  0.00    -0.200 F 
ENDBRANCH  36  59
ENDBRANCH  10  11
ENDBRANCH   3   5
ENDBRANCH   2   3
ENDBRANCH   1   2
BRANCH   1  70
ATOM     70  C   UNL A   1      34.483  33.363  29.249  1.00  0.00     0.275 C 
BRANCH  70  71
ATOM     71  O   UNL A   1      35.245  32.607  30.205  1.00  0.00    -0.458 OA
BRANCH  71  72
ATOM     72  C   UNL A   1      36.551  32.955  30.307  1.00  0.00     0.339 C 
ATOM     73  O   UNL A   1      37.240  33.474  29.438  1.00  0.00    -0.246 OA
BRANCH  72  74
ATOM     74  C   UNL A   1      37.039  32.724  31.680  1.00  0.00     0.071 A 
ATOM     75  C   UNL A   1      38.002  31.722  31.828  1.00  0.00     0.045 A 
ATOM     76  C   UNL A   1      36.507  33.400  32.803  1.00  0.00     0.016 A 
ATOM     77  C   UNL A   1      38.474  31.458  33.096  1.00  0.00     0.072 A 
ATOM     78  C   UNL A   1      37.044  33.047  34.060  1.00  0.00     0.090 A 
ATOM     79  C   UNL A   1      35.461  34.359  32.743  1.00  0.00     0.011 A 
ATOM     80  N   UNL A   1      38.018  32.121  34.179  1.00  0.00    -0.246 NA
ATOM     81  C   UNL A   1      36.512  33.659  35.202  1.00  0.00     0.067 A 
ATOM     82  C   UNL A   1      34.942  34.938  33.898  1.00  0.00     0.002 A 
ATOM     83  Cl  UNL A   1      37.130  33.282  36.778  1.00  0.00    -0.082 Cl
ATOM     84  C   UNL A   1      35.461  34.578  35.133  1.00  0.00     0.023 A 
BRANCH  77  85
ATOM     85  C   UNL A   1      39.394  30.362  33.395  1.00  0.00     0.000 A 
ATOM     86  C   UNL A   1      40.486  30.495  34.263  1.00  0.00     0.012 A 
ATOM     87  C   UNL A   1      39.168  29.108  32.815  1.00  0.00     0.012 A 
ATOM     88  C   UNL A   1      41.339  29.411  34.526  1.00  0.00     0.027 A 
ATOM     89  C   UNL A   1      40.038  28.041  33.043  1.00  0.00     0.027 A 
ATOM     90  C   UNL A   1      41.142  28.179  33.892  1.00  0.00     0.052 A 
BRANCH  90  91
ATOM     91  N   UNL A   1      42.035  27.098  34.079  1.00  0.00    -0.250 N 
ATOM     92  C   UNL A   1      41.998  26.200  35.138  1.00  0.00     0.238 C 
ATOM     93  C   UNL A   1      43.093  26.820  33.223  1.00  0.00     0.238 C 
ATOM     94  O   UNL A   1      41.318  26.209  36.152  1.00  0.00    -0.274 OA
ATOM     95  C   UNL A   1      42.903  25.069  34.727  1.00  0.00     0.096 C 
ATOM     96  C   UNL A   1      43.957  25.837  33.955  1.00  0.00     0.096 C 
ATOM     97  O   UNL A   1      43.391  27.323  32.151  1.00  0.00    -0.274 OA
ATOM     98  C   UNL A   1      43.545  24.195  35.786  1.00  0.00     0.041 C 
ATOM     99  C   UNL A   1      44.834  24.908  33.143  1.00  0.00     0.041 C 
ATOM    100  C   UNL A   1      44.716  23.443  35.191  1.00  0.00    -0.030 C 
ATOM    101  C   UNL A   1      45.272  23.744  34.002  1.00  0.00    -0.030 C 
ENDBRANCH  90  91
ENDBRANCH  77  85
ENDBRANCH  72  74
ENDBRANCH  71  72
ENDBRANCH  70  71
ENDBRANCH   1  70
TORSDOF 13
ENDMDL
MODEL 2
REMARK VINA RESULT:     -10.8      4.149      9.624
REMARK SMILES O=C(OCCOC(=O)c1cc(-c2ccc(N3C(=O)[C@@H]4CC=CC[C@H]4C3=O)cc2)nc2c(Cl)cccc12)c1ccc(-c2c3nc(c(-c4c(F)c(F)c(F)c(F)c4F)c4ccc([nH]4)c(-c4c(F)c(F)c(F)c(F)c4F)c4nc(c(-c5c(F)c(F)c(F)c(F)c5F)c5ccc2[nH]5)C=C4)C=C3)cc1
REMARK SMILES IDX 4 1 3 2 2 3 1 4 37 5 38 6 99 7 39 8 98 9 40 10 41 11 42 12
REMARK SMILES IDX 92 13 43 14 97 15 91 16 93 17 44 18 96 19 90 20 89 21 45 23
REMARK SMILES IDX 77 24 57 25 76 26 58 27 61 28 75 29 94 30 59 31 60 32 74 34
REMARK SMILES IDX 95 35 62 36 46 37 47 38 55 39 48 40 49 41 53 42 56 43 50 44
REMARK SMILES IDX 51 45 54 46 52 47 78 48 79 49 87 50 80 51 81 52 85 53 88 54
REMARK SMILES IDX 82 55 83 56 86 57 84 58 63 59 64 60 72 61 65 62 66 63 70 64
REMARK SMILES IDX 73 65 67 66 68 67 71 68 69 69 5 70 6 71 7 72 8 73 9 74 10 75
REMARK SMILES IDX 36 76 11 77 30 78 35 79 29 80 31 81 34 82 32 83 33 84 12 85
REMARK SMILES IDX 13 86 28 87 14 88 27 89 15 90 16 91 17 92 25 93 18 94 19 95
REMARK SMILES IDX 24 96 26 97 20 98 23 99 21 100 22 101
REMARK H PARENT 93 22 61 33
REMARK Flexibility Score: inf
ROOT
ATOM      1  C   UNL A   1      45.269  23.461  25.232  1.00  0.00     0.275 C 
ENDROOT
BRANCH   1   2
ATOM      2  O   UNL A   1      44.890  24.777  24.791  1.00  0.00    -0.458 OA
BRANCH   2   3
ATOM      3  C   UNL A   1      45.472  25.978  25.001  1.00  0.00     0.338 C 
ATOM      4  O   UNL A   1      46.433  26.295  24.302  1.00  0.00    -0.246 OA
BRANCH   3   5
ATOM      5  C   UNL A   1      45.104  26.909  26.117  1.00  0.00     0.060 A 
ATOM      6  C   UNL A   1      45.972  27.440  27.069  1.00  0.00     0.016 A 
ATOM      7  C   UNL A   1      43.749  27.285  26.191  1.00  0.00     0.016 A 
ATOM      8  C   UNL A   1      45.528  28.374  28.006  1.00  0.00     0.010 A 
ATOM      9  C   UNL A   1      43.299  28.238  27.110  1.00  0.00     0.010 A 
ATOM     10  C   UNL A   1      44.195  28.789  28.027  1.00  0.00    -0.014 A 
BRANCH  10  11
ATOM     11  C   UNL A   1      43.754  29.696  29.109  1.00  0.00     0.031 A 
ATOM     12  C   UNL A   1      43.369  29.109  30.429  1.00  0.00     0.074 A 
ATOM     13  C   UNL A   1      43.849  31.030  28.958  1.00  0.00     0.049 A 
ATOM     14  N   UNL A   1      43.116  29.720  31.556  1.00  0.00    -0.248 NA
ATOM     15  C   UNL A   1      43.318  27.641  30.510  1.00  0.00     0.031 C 
ATOM     16  C   UNL A   1      44.331  31.702  27.757  1.00  0.00     0.029 A 
ATOM     17  N   UNL A   1      43.569  32.057  29.822  1.00  0.00    -0.354 N 
ATOM     18  C   UNL A   1      42.951  28.713  32.492  1.00  0.00     0.074 A 
ATOM     19  C   UNL A   1      43.041  27.452  31.790  1.00  0.00     0.031 C 
ATOM     20  C   UNL A   1      44.279  33.030  27.944  1.00  0.00     0.029 A 
ATOM     21  C   UNL A   1      43.737  33.301  29.265  1.00  0.00     0.049 A 
ATOM     22  H   UNL A   1      43.275  31.916  30.751  1.00  0.00     0.167 HD
ATOM     23  C   UNL A   1      42.790  28.836  33.829  1.00  0.00     0.037 A 
ATOM     24  C   UNL A   1      43.472  34.524  29.759  1.00  0.00     0.037 A 
ATOM     25  C   UNL A   1      42.645  30.096  34.507  1.00  0.00     0.049 A 
ATOM     26  C   UNL A   1      43.076  34.629  31.201  1.00  0.00     0.074 A 
ATOM     27  C   UNL A   1      42.417  30.336  35.849  1.00  0.00     0.029 A 
ATOM     28  N   UNL A   1      42.690  31.336  33.880  1.00  0.00    -0.354 N 
ATOM     29  N   UNL A   1      42.943  33.673  32.087  1.00  0.00    -0.248 NA
ATOM     30  C   UNL A   1      42.851  35.979  31.728  1.00  0.00     0.031 C 
ATOM     31  C   UNL A   1      42.272  31.716  36.026  1.00  0.00     0.029 A 
ATOM     32  C   UNL A   1      42.467  32.343  34.806  1.00  0.00     0.049 A 
ATOM     33  H   UNL A   1      42.857  31.478  32.920  1.00  0.00     0.167 HD
ATOM     34  C   UNL A   1      42.663  34.304  33.287  1.00  0.00     0.074 A 
ATOM     35  C   UNL A   1      42.653  35.728  33.014  1.00  0.00     0.031 C 
ATOM     36  C   UNL A   1      42.451  33.754  34.508  1.00  0.00     0.037 A 
BRANCH  23  37
ATOM     37  C   UNL A   1      42.751  27.565  34.619  1.00  0.00     0.064 A 
ATOM     38  C   UNL A   1      41.573  26.805  34.719  1.00  0.00     0.173 A 
ATOM     39  C   UNL A   1      43.886  27.112  35.305  1.00  0.00     0.173 A 
ATOM     40  F   UNL A   1      40.452  27.212  34.104  1.00  0.00    -0.203 F 
ATOM     41  C   UNL A   1      41.528  25.653  35.501  1.00  0.00     0.198 A 
ATOM     42  C   UNL A   1      43.844  25.945  36.064  1.00  0.00     0.198 A 
ATOM     43  F   UNL A   1      45.031  27.806  35.248  1.00  0.00    -0.203 F 
ATOM     44  F   UNL A   1      40.379  24.976  35.627  1.00  0.00    -0.200 F 
ATOM     45  C   UNL A   1      42.664  25.222  36.168  1.00  0.00     0.200 A 
ATOM     46  F   UNL A   1      44.943  25.527  36.708  1.00  0.00    -0.200 F 
ATOM     47  F   UNL A   1      42.618  24.116  36.923  1.00  0.00    -0.200 F 
ENDBRANCH  23  37
BRANCH  24  48
ATOM     48  C   UNL A   1      43.552  35.724  28.886  1.00  0.00     0.064 A 
ATOM     49  C   UNL A   1      42.449  36.200  28.165  1.00  0.00     0.173 A 
ATOM     50  C   UNL A   1      44.771  36.402  28.729  1.00  0.00     0.173 A 
ATOM     51  F   UNL A   1      41.266  35.579  28.266  1.00  0.00    -0.203 F 
ATOM     52  C   UNL A   1      42.568  37.291  27.304  1.00  0.00     0.198 A 
ATOM     53  C   UNL A   1      44.883  37.509  27.892  1.00  0.00     0.198 A 
ATOM     54  F   UNL A   1      45.858  35.986  29.395  1.00  0.00    -0.203 F 
ATOM     55  F   UNL A   1      41.509  37.697  26.592  1.00  0.00    -0.200 F 
ATOM     56  C   UNL A   1      43.784  37.946  27.170  1.00  0.00     0.200 A 
ATOM     57  F   UNL A   1      46.054  38.150  27.782  1.00  0.00    -0.200 F 
ATOM     58  F   UNL A   1      43.897  38.995  26.344  1.00  0.00    -0.200 F 
ENDBRANCH  24  48
BRANCH  36  59
ATOM     59  C   UNL A   1      42.229  34.710  35.641  1.00  0.00     0.064 A 
ATOM     60  C   UNL A   1      43.298  35.232  36.386  1.00  0.00     0.173 A 
ATOM     61  C   UNL A   1      40.928  35.099  35.991  1.00  0.00     0.173 A 
ATOM     62  F   UNL A   1      44.559  34.871  36.103  1.00  0.00    -0.203 F 
ATOM     63  C   UNL A   1      43.067  36.078  37.466  1.00  0.00     0.198 A 
ATOM     64  C   UNL A   1      40.704  35.975  37.048  1.00  0.00     0.198 A 
ATOM     65  F   UNL A   1      39.874  34.629  35.309  1.00  0.00    -0.203 F 
ATOM     66  F   UNL A   1      44.096  36.507  38.209  1.00  0.00    -0.200 F 
ATOM     67  C   UNL A   1      41.771  36.453  37.793  1.00  0.00     0.200 A 
ATOM     68  F   UNL A   1      39.454  36.346  37.355  1.00  0.00    -0.200 F 
ATOM     69  F   UNL A   1      41.552  37.264  38.835  1.00  0.00    -0.200 F 
ENDBRANCH  36  59
ENDBRANCH  10  11
ENDBRANCH   3   5
ENDBRANCH   2   3
ENDBRANCH   1   2
BRANCH   1  70
ATOM     70  C   UNL A   1      44.345  22.843  26.286  1.00  0.00     0.275 C 
BRANCH  70  71
ATOM     71  O   UNL A   1      43.905  23.775  27.287  1.00  0.00    -0.458 OA
BRANCH  71  72
ATOM     72  C   UNL A   1      42.948  23.310  28.128  1.00  0.00     0.339 C 
ATOM     73  O   UNL A   1      43.118  22.578  29.095  1.00  0.00    -0.246 OA
BRANCH  72  74
ATOM     74  C   UNL A   1      41.638  23.900  27.794  1.00  0.00     0.071 A 
ATOM     75  C   UNL A   1      41.394  25.178  28.305  1.00  0.00     0.045 A 
ATOM     76  C   UNL A   1      40.641  23.193  27.082  1.00  0.00     0.016 A 
ATOM     77  C   UNL A   1      40.174  25.762  28.034  1.00  0.00     0.072 A 
ATOM     78  C   UNL A   1      39.421  23.870  26.872  1.00  0.00     0.090 A 
ATOM     79  C   UNL A   1      40.780  21.858  26.617  1.00  0.00     0.011 A 
ATOM     80  N   UNL A   1      39.223  25.128  27.318  1.00  0.00    -0.246 NA
ATOM     81  C   UNL A   1      38.391  23.188  26.213  1.00  0.00     0.067 A 
ATOM     82  C   UNL A   1      39.731  21.201  25.979  1.00  0.00     0.002 A 
ATOM     83  Cl  UNL A   1      36.868  23.961  25.909  1.00  0.00    -0.082 Cl
ATOM     84  C   UNL A   1      38.528  21.864  25.786  1.00  0.00     0.023 A 
BRANCH  77  85
ATOM     85  C   UNL A   1      39.756  27.042  28.605  1.00  0.00     0.000 A 
ATOM     86  C   UNL A   1      39.658  28.219  27.852  1.00  0.00     0.012 A 
ATOM     87  C   UNL A   1      39.408  27.100  29.960  1.00  0.00     0.012 A 
ATOM     88  C   UNL A   1      39.245  29.424  28.442  1.00  0.00     0.027 A 
ATOM     89  C   UNL A   1      39.037  28.306  30.557  1.00  0.00     0.027 A 
ATOM     90  C   UNL A   1      38.960  29.486  29.811  1.00  0.00     0.052 A 
BRANCH  90  91
ATOM     91  N   UNL A   1      38.620  30.706  30.442  1.00  0.00    -0.250 N 
ATOM     92  C   UNL A   1      39.497  31.755  30.688  1.00  0.00     0.238 C 
ATOM     93  C   UNL A   1      37.349  30.991  30.926  1.00  0.00     0.238 C 
ATOM     94  O   UNL A   1      40.708  31.816  30.547  1.00  0.00    -0.274 OA
ATOM     95  C   UNL A   1      38.620  32.923  31.055  1.00  0.00     0.096 C 
ATOM     96  C   UNL A   1      37.511  32.203  31.795  1.00  0.00     0.096 C 
ATOM     97  O   UNL A   1      36.307  30.363  30.819  1.00  0.00    -0.274 OA
ATOM     98  C   UNL A   1      39.182  34.051  31.897  1.00  0.00     0.041 C 
ATOM     99  C   UNL A   1      36.311  33.102  32.002  1.00  0.00     0.041 C 
ATOM    100  C   UNL A   1      38.049  34.859  32.495  1.00  0.00    -0.030 C 
ATOM    101  C   UNL A   1      36.767  34.447  32.517  1.00  0.00    -0.030 C 
ENDBRANCH  90  91
ENDBRANCH  77  85
ENDBRANCH  72  74
ENDBRANCH  71  72
ENDBRANCH  70  71
ENDBRANCH   1  70
TORSDOF 13
ENDMDL
MODEL 3
REMARK VINA RESULT:     -10.7      0.449      6.866
REMARK SMILES O=C(OCCOC(=O)c1cc(-c2ccc(N3C(=O)[C@@H]4CC=CC[C@H]4C3=O)cc2)nc2c(Cl)cccc12)c1ccc(-c2c3nc(c(-c4c(F)c(F)c(F)c(F)c4F)c4ccc([nH]4)c(-c4c(F)c(F)c(F)c(F)c4F)c4nc(c(-c5c(F)c(F)c(F)c(F)c5F)c5ccc2[nH]5)C=C4)C=C3)cc1
REMARK SMILES IDX 4 1 3 2 2 3 1 4 37 5 38 6 99 7 39 8 98 9 40 10 41 11 42 12
REMARK SMILES IDX 92 13 43 14 97 15 91 16 93 17 44 18 96 19 90 20 89 21 45 23
REMARK SMILES IDX 77 24 57 25 76 26 58 27 61 28 75 29 94 30 59 31 60 32 74 34
REMARK SMILES IDX 95 35 62 36 46 37 47 38 55 39 48 40 49 41 53 42 56 43 50 44
REMARK SMILES IDX 51 45 54 46 52 47 78 48 79 49 87 50 80 51 81 52 85 53 88 54
REMARK SMILES IDX 82 55 83 56 86 57 84 58 63 59 64 60 72 61 65 62 66 63 70 64
REMARK SMILES IDX 73 65 67 66 68 67 71 68 69 69 5 70 6 71 7 72 8 73 9 74 10 75
REMARK SMILES IDX 36 76 11 77 30 78 35 79 29 80 31 81 34 82 32 83 33 84 12 85
REMARK SMILES IDX 13 86 28 87 14 88 27 89 15 90 16 91 17 92 25 93 18 94 19 95
REMARK SMILES IDX 24 96 26 97 20 98 23 99 21 100 22 101
REMARK H PARENT 93 22 61 33
REMARK Flexibility Score: inf
ROOT
ATOM      1  C   UNL A   1      34.297  32.668  28.001  1.00  0.00     0.275 C 
ENDROOT
BRANCH   1   2
ATOM      2  O   UNL A   1      34.052  31.312  28.414  1.00  0.00    -0.458 OA
BRANCH   2   3
ATOM      3  C   UNL A   1      34.654  30.158  28.051  1.00  0.00     0.338 C 
ATOM      4  O   UNL A   1      33.966  29.267  27.555  1.00  0.00    -0.246 OA
BRANCH   3   5
ATOM      5  C   UNL A   1      36.092  29.836  28.327  1.00  0.00     0.060 A 
ATOM      6  C   UNL A   1      36.611  29.325  29.515  1.00  0.00     0.016 A 
ATOM      7  C   UNL A   1      36.993  30.065  27.269  1.00  0.00     0.016 A 
ATOM      8  C   UNL A   1      37.958  28.976  29.620  1.00  0.00     0.010 A 
ATOM      9  C   UNL A   1      38.340  29.697  27.356  1.00  0.00     0.010 A 
ATOM     10  C   UNL A   1      38.829  29.147  28.542  1.00  0.00    -0.014 A 
BRANCH  10  11
ATOM     11  C   UNL A   1      40.266  28.864  28.743  1.00  0.00     0.031 A 
ATOM     12  C   UNL A   1      41.115  29.892  29.418  1.00  0.00     0.074 A 
ATOM     13  C   UNL A   1      40.764  27.645  28.466  1.00  0.00     0.049 A 
ATOM     14  N   UNL A   1      42.347  29.789  29.843  1.00  0.00    -0.248 NA
ATOM     15  C   UNL A   1      40.480  31.187  29.708  1.00  0.00     0.031 C 
ATOM     16  C   UNL A   1      39.994  26.532  27.922  1.00  0.00     0.029 A 
ATOM     17  N   UNL A   1      42.025  27.128  28.622  1.00  0.00    -0.354 N 
ATOM     18  C   UNL A   1      42.606  30.973  30.513  1.00  0.00     0.074 A 
ATOM     19  C   UNL A   1      41.442  31.817  30.364  1.00  0.00     0.031 C 
ATOM     20  C   UNL A   1      40.803  25.474  27.755  1.00  0.00     0.029 A 
ATOM     21  C   UNL A   1      42.151  25.844  28.154  1.00  0.00     0.049 A 
ATOM     22  H   UNL A   1      42.767  27.631  29.030  1.00  0.00     0.167 HD
ATOM     23  C   UNL A   1      43.703  31.300  31.233  1.00  0.00     0.037 A 
ATOM     24  C   UNL A   1      43.236  25.055  28.047  1.00  0.00     0.037 A 
ATOM     25  C   UNL A   1      44.877  30.475  31.325  1.00  0.00     0.049 A 
ATOM     26  C   UNL A   1      44.516  25.531  28.664  1.00  0.00     0.074 A 
ATOM     27  C   UNL A   1      46.068  30.735  31.977  1.00  0.00     0.029 A 
ATOM     28  N   UNL A   1      45.013  29.230  30.723  1.00  0.00    -0.354 N 
ATOM     29  N   UNL A   1      44.748  26.644  29.316  1.00  0.00    -0.248 NA
ATOM     30  C   UNL A   1      45.666  24.624  28.584  1.00  0.00     0.031 C 
ATOM     31  C   UNL A   1      46.943  29.673  31.725  1.00  0.00     0.029 A 
ATOM     32  C   UNL A   1      46.279  28.722  30.966  1.00  0.00     0.049 A 
ATOM     33  H   UNL A   1      44.312  28.776  30.201  1.00  0.00     0.167 HD
ATOM     34  C   UNL A   1      46.055  26.555  29.763  1.00  0.00     0.074 A 
ATOM     35  C   UNL A   1      46.562  25.273  29.313  1.00  0.00     0.031 C 
ATOM     36  C   UNL A   1      46.765  27.448  30.497  1.00  0.00     0.037 A 
BRANCH  23  37
ATOM     37  C   UNL A   1      43.666  32.614  31.952  1.00  0.00     0.064 A 
ATOM     38  C   UNL A   1      43.370  32.685  33.323  1.00  0.00     0.173 A 
ATOM     39  C   UNL A   1      43.899  33.813  31.266  1.00  0.00     0.173 A 
ATOM     40  F   UNL A   1      43.111  31.567  34.018  1.00  0.00    -0.203 F 
ATOM     41  C   UNL A   1      43.283  33.913  33.974  1.00  0.00     0.198 A 
ATOM     42  C   UNL A   1      43.836  35.038  31.926  1.00  0.00     0.198 A 
ATOM     43  F   UNL A   1      44.176  33.798  29.954  1.00  0.00    -0.203 F 
ATOM     44  F   UNL A   1      42.944  33.961  35.270  1.00  0.00    -0.200 F 
ATOM     45  C   UNL A   1      43.520  35.087  33.276  1.00  0.00     0.200 A 
ATOM     46  F   UNL A   1      44.068  36.172  31.251  1.00  0.00    -0.200 F 
ATOM     47  F   UNL A   1      43.432  36.269  33.902  1.00  0.00    -0.200 F 
ENDBRANCH  23  37
BRANCH  24  48
ATOM     48  C   UNL A   1      43.158  23.761  27.318  1.00  0.00     0.064 A 
ATOM     49  C   UNL A   1      42.690  22.588  27.924  1.00  0.00     0.173 A 
ATOM     50  C   UNL A   1      43.598  23.674  25.988  1.00  0.00     0.173 A 
ATOM     51  F   UNL A   1      42.274  22.613  29.198  1.00  0.00    -0.203 F 
ATOM     52  C   UNL A   1      42.687  21.375  27.236  1.00  0.00     0.198 A 
ATOM     53  C   UNL A   1      43.568  22.468  25.292  1.00  0.00     0.198 A 
ATOM     54  F   UNL A   1      44.058  24.767  25.362  1.00  0.00    -0.203 F 
ATOM     55  F   UNL A   1      42.277  20.259  27.853  1.00  0.00    -0.200 F 
ATOM     56  C   UNL A   1      43.124  21.316  25.920  1.00  0.00     0.200 A 
ATOM     57  F   UNL A   1      43.972  22.422  24.015  1.00  0.00    -0.200 F 
ATOM     58  F   UNL A   1      43.119  20.150  25.260  1.00  0.00    -0.200 F 
ENDBRANCH  24  48
BRANCH  36  59
ATOM     59  C   UNL A   1      48.155  27.038  30.884  1.00  0.00     0.064 A 
ATOM     60  C   UNL A   1      49.244  27.211  30.017  1.00  0.00     0.173 A 
ATOM     61  C   UNL A   1      48.394  26.455  32.137  1.00  0.00     0.173 A 
ATOM     62  F   UNL A   1      49.060  27.744  28.799  1.00  0.00    -0.203 F 
ATOM     63  C   UNL A   1      50.516  26.777  30.376  1.00  0.00     0.198 A 
ATOM     64  C   UNL A   1      49.674  26.056  32.507  1.00  0.00     0.198 A 
ATOM     65  F   UNL A   1      47.386  26.270  33.002  1.00  0.00    -0.203 F 
ATOM     66  F   UNL A   1      51.528  26.884  29.505  1.00  0.00    -0.200 F 
ATOM     67  C   UNL A   1      50.731  26.205  31.622  1.00  0.00     0.200 A 
ATOM     68  F   UNL A   1      49.883  25.517  33.715  1.00  0.00    -0.200 F 
ATOM     69  F   UNL A   1      51.956  25.784  31.964  1.00  0.00    -0.200 F 
ENDBRANCH  36  59
ENDBRANCH  10  11
ENDBRANCH   3   5
ENDBRANCH   2   3
ENDBRANCH   1   2
BRANCH   1  70
ATOM     70  C   UNL A   1      34.838  33.588  29.099  1.00  0.00     0.275 C 
BRANCH  70  71
ATOM     71  O   UNL A   1      35.443  32.885  30.197  1.00  0.00    -0.458 OA
BRANCH  71  72
ATOM     72  C   UNL A   1      36.778  33.075  30.338  1.00  0.00     0.339 C 
ATOM     73  O   UNL A   1      37.551  33.497  29.486  1.00  0.00    -0.246 OA
BRANCH  72  74
ATOM     74  C   UNL A   1      37.193  32.807  31.728  1.00  0.00     0.071 A 
ATOM     75  C   UNL A   1      38.126  31.781  31.902  1.00  0.00     0.045 A 
ATOM     76  C   UNL A   1      36.619  33.471  32.838  1.00  0.00     0.016 A 
ATOM     77  C   UNL A   1      38.528  31.482  33.186  1.00  0.00     0.072 A 
ATOM     78  C   UNL A   1      37.085  33.081  34.112  1.00  0.00     0.090 A 
ATOM     79  C   UNL A   1      35.598  34.453  32.746  1.00  0.00     0.011 A 
ATOM     80  N   UNL A   1      38.033  32.132  34.259  1.00  0.00    -0.246 NA
ATOM     81  C   UNL A   1      36.510  33.681  35.238  1.00  0.00     0.067 A 
ATOM     82  C   UNL A   1      35.033  35.020  33.886  1.00  0.00     0.002 A 
ATOM     83  Cl  UNL A   1      37.040  33.260  36.835  1.00  0.00    -0.082 Cl
ATOM     84  C   UNL A   1      35.483  34.624  35.137  1.00  0.00     0.023 A 
BRANCH  77  85
ATOM     85  C   UNL A   1      39.410  30.359  33.507  1.00  0.00     0.000 A 
ATOM     86  C   UNL A   1      40.257  30.347  34.623  1.00  0.00     0.012 A 
ATOM     87  C   UNL A   1      39.394  29.227  32.684  1.00  0.00     0.012 A 
ATOM     88  C   UNL A   1      41.081  29.244  34.895  1.00  0.00     0.027 A 
ATOM     89  C   UNL A   1      40.242  28.146  32.930  1.00  0.00     0.027 A 
ATOM     90  C   UNL A   1      41.105  28.143  34.031  1.00  0.00     0.052 A 
BRANCH  90  91
ATOM     91  N   UNL A   1      41.986  27.055  34.241  1.00  0.00    -0.250 N 
ATOM     92  C   UNL A   1      41.866  26.108  35.250  1.00  0.00     0.238 C 
ATOM     93  C   UNL A   1      43.113  26.819  33.463  1.00  0.00     0.238 C 
ATOM     94  O   UNL A   1      41.105  26.068  36.203  1.00  0.00    -0.274 OA
ATOM     95  C   UNL A   1      42.809  24.999  34.863  1.00  0.00     0.096 C 
ATOM     96  C   UNL A   1      43.919  25.805  34.218  1.00  0.00     0.096 C 
ATOM     97  O   UNL A   1      43.496  27.373  32.445  1.00  0.00    -0.274 OA
ATOM     98  C   UNL A   1      43.365  24.078  35.930  1.00  0.00     0.041 C 
ATOM     99  C   UNL A   1      44.865  24.916  33.439  1.00  0.00     0.041 C 
ATOM    100  C   UNL A   1      44.586  23.356  35.399  1.00  0.00    -0.030 C 
ATOM    101  C   UNL A   1      45.237  23.714  34.276  1.00  0.00    -0.030 C 
ENDBRANCH  90  91
ENDBRANCH  77  85
ENDBRANCH  72  74
ENDBRANCH  71  72
ENDBRANCH  70  71
ENDBRANCH   1  70
TORSDOF 13
ENDMDL
