MODEL 1
REMARK VINA RESULT:     -10.5      0.000      0.000
REMARK SMILES CN(C)S(=O)(=O)c1c[nH]c(C(=O)OCCOC(=O)c2ccc(-c3c4nc(c(-c5c(F)c(F)c(F)c(F)c5F)c5ccc([nH]5)c(-c5c(F)c(F)c(F)c(F)c5F)c5nc(c(-c6c(F)c(F)c(F)c(F)c6F)c6ccc3[nH]6)C=C5)C=C4)cc2)c1
REMARK SMILES IDX 14 1 13 2 11 3 12 4 10 5 7 6 8 7 82 8 9 9 4 11 5 12 6 13
REMARK SMILES IDX 2 14 1 15 3 16 15 17 16 18 17 19 18 20 19 21 20 22 81 23
REMARK SMILES IDX 21 24 80 25 22 26 23 27 24 28 74 29 25 30 79 31 73 32 75 33
REMARK SMILES IDX 26 34 78 35 72 36 71 37 27 39 59 40 39 41 58 42 40 43 43 44
REMARK SMILES IDX 57 45 76 46 41 47 42 48 56 50 77 51 44 52 28 53 29 54 37 55
REMARK SMILES IDX 30 56 31 57 35 58 38 59 32 60 33 61 36 62 34 63 60 64 61 65
REMARK SMILES IDX 69 66 62 67 63 68 67 69 70 70 64 71 65 72 68 73 66 74 45 75
REMARK SMILES IDX 46 76 54 77 47 78 48 79 52 80 55 81 49 82 50 83 53 84 51 85
REMARK H PARENT 9 10 75 38 43 49
REMARK Flexibility Score: inf
ROOT
ATOM      1  C   UNL A   1      33.633  34.699  28.732  1.00  0.00     0.275 C 
ENDROOT
BRANCH   1   2
ATOM      2  O   UNL A   1      32.762  34.809  29.872  1.00  0.00    -0.457 OA
BRANCH   2   3
ATOM      3  C   UNL A   1      33.271  35.526  30.918  1.00  0.00     0.354 C 
ATOM      4  O   UNL A   1      32.968  36.670  31.197  1.00  0.00    -0.244 OA
BRANCH   3   5
ATOM      5  C   UNL A   1      34.132  34.704  31.739  1.00  0.00     0.126 A 
ATOM      6  C   UNL A   1      35.724  33.754  33.058  1.00  0.00     0.100 A 
ATOM      7  C   UNL A   1      34.917  32.752  32.561  1.00  0.00     0.105 A 
ATOM      8  C   UNL A   1      35.255  34.981  32.503  1.00  0.00     0.057 A 
ATOM      9  N   UNL A   1      33.925  33.344  31.827  1.00  0.00    -0.354 N 
ATOM     10  H   UNL A   1      33.168  32.866  31.419  1.00  0.00     0.166 HD
BRANCH   6  11
ATOM     11  S   UNL A   1      37.072  33.619  34.135  1.00  0.00     0.244 S 
ATOM     12  O   UNL A   1      36.487  33.113  35.359  1.00  0.00    -0.207 OA
ATOM     13  O   UNL A   1      37.690  34.926  34.077  1.00  0.00    -0.207 OA
BRANCH  11  14
ATOM     14  N   UNL A   1      38.216  32.464  33.589  1.00  0.00    -0.204 NA
ATOM     15  C   UNL A   1      39.513  32.596  34.306  1.00  0.00     0.124 C 
ATOM     16  C   UNL A   1      37.761  31.056  33.619  1.00  0.00     0.124 C 
ENDBRANCH  11  14
ENDBRANCH   6  11
ENDBRANCH   3   5
ENDBRANCH   2   3
ENDBRANCH   1   2
BRANCH   1  17
ATOM     17  C   UNL A   1      33.681  33.283  28.146  1.00  0.00     0.275 C 
BRANCH  17  18
ATOM     18  O   UNL A   1      34.303  32.304  28.993  1.00  0.00    -0.458 OA
BRANCH  18  19
ATOM     19  C   UNL A   1      34.391  31.081  28.426  1.00  0.00     0.338 C 
ATOM     20  O   UNL A   1      33.486  30.434  27.925  1.00  0.00    -0.246 OA
BRANCH  19  21
ATOM     21  C   UNL A   1      35.726  30.498  28.583  1.00  0.00     0.060 A 
ATOM     22  C   UNL A   1      36.220  30.364  29.886  1.00  0.00     0.016 A 
ATOM     23  C   UNL A   1      36.554  30.340  27.466  1.00  0.00     0.016 A 
ATOM     24  C   UNL A   1      37.569  30.126  30.078  1.00  0.00     0.010 A 
ATOM     25  C   UNL A   1      37.912  30.129  27.659  1.00  0.00     0.010 A 
ATOM     26  C   UNL A   1      38.415  30.037  28.966  1.00  0.00    -0.014 A 
BRANCH  26  27
ATOM     27  C   UNL A   1      39.834  29.708  29.201  1.00  0.00     0.031 A 
ATOM     28  C   UNL A   1      40.623  30.915  29.716  1.00  0.00     0.074 A 
ATOM     29  C   UNL A   1      40.215  28.428  28.914  1.00  0.00     0.049 A 
ATOM     30  N   UNL A   1      41.904  31.115  29.771  1.00  0.00    -0.248 NA
ATOM     31  C   UNL A   1      39.873  32.100  30.223  1.00  0.00     0.031 C 
ATOM     32  C   UNL A   1      39.297  27.375  28.436  1.00  0.00     0.029 A 
ATOM     33  N   UNL A   1      41.419  27.750  28.948  1.00  0.00    -0.354 N 
ATOM     34  C   UNL A   1      42.106  32.296  30.517  1.00  0.00     0.074 A 
ATOM     35  C   UNL A   1      40.829  32.918  30.658  1.00  0.00     0.031 C 
ATOM     36  C   UNL A   1      39.970  26.239  28.158  1.00  0.00     0.029 A 
ATOM     37  C   UNL A   1      41.378  26.418  28.451  1.00  0.00     0.049 A 
ATOM     38  H   UNL A   1      42.246  28.158  29.293  1.00  0.00     0.167 HD
ATOM     39  C   UNL A   1      43.293  32.604  31.112  1.00  0.00     0.037 A 
ATOM     40  C   UNL A   1      42.406  25.529  28.267  1.00  0.00     0.037 A 
ATOM     41  C   UNL A   1      44.303  31.684  30.716  1.00  0.00     0.049 A 
ATOM     42  C   UNL A   1      43.572  26.151  28.910  1.00  0.00     0.074 A 
ATOM     43  C   UNL A   1      44.985  31.500  29.543  1.00  0.00     0.029 A 
ATOM     44  N   UNL A   1      44.512  30.598  31.527  1.00  0.00    -0.354 N 
ATOM     45  N   UNL A   1      43.743  26.221  30.196  1.00  0.00    -0.248 NA
ATOM     46  C   UNL A   1      44.600  26.785  28.076  1.00  0.00     0.031 C 
ATOM     47  C   UNL A   1      45.272  30.120  29.521  1.00  0.00     0.029 A 
ATOM     48  C   UNL A   1      44.850  29.540  30.721  1.00  0.00     0.049 A 
ATOM     49  H   UNL A   1      44.434  30.582  32.508  1.00  0.00     0.167 HD
ATOM     50  C   UNL A   1      44.710  27.192  30.310  1.00  0.00     0.074 A 
ATOM     51  C   UNL A   1      45.397  27.241  29.039  1.00  0.00     0.031 C 
ATOM     52  C   UNL A   1      44.520  28.211  31.184  1.00  0.00     0.037 A 
BRANCH  39  53
ATOM     53  C   UNL A   1      43.609  33.542  32.246  1.00  0.00     0.064 A 
ATOM     54  C   UNL A   1      43.136  33.209  33.541  1.00  0.00     0.173 A 
ATOM     55  C   UNL A   1      44.012  34.873  32.063  1.00  0.00     0.173 A 
ATOM     56  F   UNL A   1      42.768  31.952  33.835  1.00  0.00    -0.203 F 
ATOM     57  C   UNL A   1      42.941  34.172  34.527  1.00  0.00     0.198 A 
ATOM     58  C   UNL A   1      43.866  35.826  33.075  1.00  0.00     0.198 A 
ATOM     59  F   UNL A   1      44.458  35.311  30.878  1.00  0.00    -0.203 F 
ATOM     60  F   UNL A   1      42.348  33.835  35.681  1.00  0.00    -0.200 F 
ATOM     61  C   UNL A   1      43.289  35.485  34.287  1.00  0.00     0.200 A 
ATOM     62  F   UNL A   1      44.214  37.098  32.841  1.00  0.00    -0.200 F 
ATOM     63  F   UNL A   1      43.036  36.428  35.204  1.00  0.00    -0.200 F 
ENDBRANCH  39  53
BRANCH  40  64
ATOM     64  C   UNL A   1      42.649  24.178  27.620  1.00  0.00     0.064 A 
ATOM     65  C   UNL A   1      42.500  22.926  28.231  1.00  0.00     0.173 A 
ATOM     66  C   UNL A   1      42.994  24.102  26.236  1.00  0.00     0.173 A 
ATOM     67  F   UNL A   1      42.281  22.815  29.543  1.00  0.00    -0.203 F 
ATOM     68  C   UNL A   1      42.584  21.720  27.507  1.00  0.00     0.198 A 
ATOM     69  C   UNL A   1      43.036  22.911  25.509  1.00  0.00     0.198 A 
ATOM     70  F   UNL A   1      43.301  25.193  25.522  1.00  0.00    -0.203 F 
ATOM     71  F   UNL A   1      42.421  20.553  28.143  1.00  0.00    -0.200 F 
ATOM     72  C   UNL A   1      42.816  21.716  26.143  1.00  0.00     0.200 A 
ATOM     73  F   UNL A   1      43.274  22.948  24.190  1.00  0.00    -0.200 F 
ATOM     74  F   UNL A   1      42.835  20.570  25.449  1.00  0.00    -0.200 F 
ENDBRANCH  40  64
BRANCH  52  75
ATOM     75  C   UNL A   1      43.569  27.861  32.314  1.00  0.00     0.064 A 
ATOM     76  C   UNL A   1      43.953  26.940  33.299  1.00  0.00     0.173 A 
ATOM     77  C   UNL A   1      42.233  28.295  32.364  1.00  0.00     0.173 A 
ATOM     78  F   UNL A   1      45.216  26.488  33.335  1.00  0.00    -0.203 F 
ATOM     79  C   UNL A   1      43.049  26.466  34.255  1.00  0.00     0.198 A 
ATOM     80  C   UNL A   1      41.328  27.829  33.319  1.00  0.00     0.198 A 
ATOM     81  F   UNL A   1      41.776  29.187  31.490  1.00  0.00    -0.203 F 
ATOM     82  F   UNL A   1      43.453  25.579  35.175  1.00  0.00    -0.200 F 
ATOM     83  C   UNL A   1      41.734  26.906  34.261  1.00  0.00     0.200 A 
ATOM     84  F   UNL A   1      40.064  28.283  33.323  1.00  0.00    -0.200 F 
ATOM     85  F   UNL A   1      40.869  26.456  35.180  1.00  0.00    -0.200 F 
ENDBRANCH  52  75
ENDBRANCH  26  27
ENDBRANCH  19  21
ENDBRANCH  18  19
ENDBRANCH  17  18
ENDBRANCH   1  17
TORSDOF 13
ENDMDL
MODEL 2
REMARK VINA RESULT:     -10.3      2.947      4.924
REMARK SMILES CN(C)S(=O)(=O)c1c[nH]c(C(=O)OCCOC(=O)c2ccc(-c3c4nc(c(-c5c(F)c(F)c(F)c(F)c5F)c5ccc([nH]5)c(-c5c(F)c(F)c(F)c(F)c5F)c5nc(c(-c6c(F)c(F)c(F)c(F)c6F)c6ccc3[nH]6)C=C5)C=C4)cc2)c1
REMARK SMILES IDX 14 1 13 2 11 3 12 4 10 5 7 6 8 7 82 8 9 9 4 11 5 12 6 13
REMARK SMILES IDX 2 14 1 15 3 16 15 17 16 18 17 19 18 20 19 21 20 22 81 23
REMARK SMILES IDX 21 24 80 25 22 26 23 27 24 28 74 29 25 30 79 31 73 32 75 33
REMARK SMILES IDX 26 34 78 35 72 36 71 37 27 39 59 40 39 41 58 42 40 43 43 44
REMARK SMILES IDX 57 45 76 46 41 47 42 48 56 50 77 51 44 52 28 53 29 54 37 55
REMARK SMILES IDX 30 56 31 57 35 58 38 59 32 60 33 61 36 62 34 63 60 64 61 65
REMARK SMILES IDX 69 66 62 67 63 68 67 69 70 70 64 71 65 72 68 73 66 74 45 75
REMARK SMILES IDX 46 76 54 77 47 78 48 79 52 80 55 81 49 82 50 83 53 84 51 85
REMARK H PARENT 9 10 75 38 43 49
REMARK Flexibility Score: inf
ROOT
ATOM      1  C   UNL A   1      34.078  34.173  29.786  1.00  0.00     0.275 C 
ENDROOT
BRANCH   1   2
ATOM      2  O   UNL A   1      33.627  33.033  29.034  1.00  0.00    -0.457 OA
BRANCH   2   3
ATOM      3  C   UNL A   1      34.453  32.655  28.013  1.00  0.00     0.354 C 
ATOM      4  O   UNL A   1      35.406  33.293  27.609  1.00  0.00    -0.244 OA
BRANCH   3   5
ATOM      5  C   UNL A   1      34.127  31.325  27.548  1.00  0.00     0.126 A 
ATOM      6  C   UNL A   1      33.225  29.334  26.919  1.00  0.00     0.100 A 
ATOM      7  C   UNL A   1      34.597  29.197  26.953  1.00  0.00     0.105 A 
ATOM      8  C   UNL A   1      32.928  30.665  27.338  1.00  0.00     0.057 A 
ATOM      9  N   UNL A   1      35.128  30.420  27.265  1.00  0.00    -0.354 N 
ATOM     10  H   UNL A   1      36.090  30.624  27.284  1.00  0.00     0.166 HD
BRANCH   6  11
ATOM     11  S   UNL A   1      32.033  28.157  26.481  1.00  0.00     0.244 S 
ATOM     12  O   UNL A   1      31.307  28.786  25.398  1.00  0.00    -0.207 OA
ATOM     13  O   UNL A   1      31.391  27.835  27.737  1.00  0.00    -0.207 OA
BRANCH  11  14
ATOM     14  N   UNL A   1      32.746  26.723  25.864  1.00  0.00    -0.204 NA
ATOM     15  C   UNL A   1      32.002  25.511  26.301  1.00  0.00     0.124 C 
ATOM     16  C   UNL A   1      32.948  26.694  24.398  1.00  0.00     0.124 C 
ENDBRANCH  11  14
ENDBRANCH   6  11
ENDBRANCH   3   5
ENDBRANCH   2   3
ENDBRANCH   1   2
BRANCH   1  17
ATOM     17  C   UNL A   1      34.743  33.793  31.115  1.00  0.00     0.275 C 
BRANCH  17  18
ATOM     18  O   UNL A   1      34.757  32.386  31.396  1.00  0.00    -0.458 OA
BRANCH  18  19
ATOM     19  C   UNL A   1      35.737  32.018  32.251  1.00  0.00     0.338 C 
ATOM     20  O   UNL A   1      35.881  32.381  33.407  1.00  0.00    -0.246 OA
BRANCH  19  21
ATOM     21  C   UNL A   1      36.754  31.191  31.597  1.00  0.00     0.060 A 
ATOM     22  C   UNL A   1      37.729  30.604  32.413  1.00  0.00     0.016 A 
ATOM     23  C   UNL A   1      36.885  31.218  30.204  1.00  0.00     0.016 A 
ATOM     24  C   UNL A   1      38.875  30.089  31.835  1.00  0.00     0.010 A 
ATOM     25  C   UNL A   1      38.048  30.728  29.627  1.00  0.00     0.010 A 
ATOM     26  C   UNL A   1      39.044  30.178  30.448  1.00  0.00    -0.014 A 
BRANCH  26  27
ATOM     27  C   UNL A   1      40.242  29.552  29.856  1.00  0.00     0.031 A 
ATOM     28  C   UNL A   1      41.386  30.557  29.684  1.00  0.00     0.074 A 
ATOM     29  C   UNL A   1      40.144  28.226  29.545  1.00  0.00     0.049 A 
ATOM     30  N   UNL A   1      42.465  30.481  28.967  1.00  0.00    -0.248 NA
ATOM     31  C   UNL A   1      41.306  31.864  30.397  1.00  0.00     0.031 C 
ATOM     32  C   UNL A   1      38.948  27.399  29.804  1.00  0.00     0.029 A 
ATOM     33  N   UNL A   1      40.991  27.309  28.952  1.00  0.00    -0.354 N 
ATOM     34  C   UNL A   1      43.276  31.579  29.324  1.00  0.00     0.074 A 
ATOM     35  C   UNL A   1      42.463  32.455  30.107  1.00  0.00     0.031 C 
ATOM     36  C   UNL A   1      39.110  26.152  29.316  1.00  0.00     0.029 A 
ATOM     37  C   UNL A   1      40.426  26.025  28.721  1.00  0.00     0.049 A 
ATOM     38  H   UNL A   1      41.919  27.527  28.709  1.00  0.00     0.167 HD
ATOM     39  C   UNL A   1      44.618  31.620  29.087  1.00  0.00     0.037 A 
ATOM     40  C   UNL A   1      40.968  24.942  28.077  1.00  0.00     0.037 A 
ATOM     41  C   UNL A   1      45.015  30.515  28.285  1.00  0.00     0.049 A 
ATOM     42  C   UNL A   1      42.377  25.293  27.855  1.00  0.00     0.074 A 
ATOM     43  C   UNL A   1      44.832  30.211  26.963  1.00  0.00     0.029 A 
ATOM     44  N   UNL A   1      45.460  29.395  28.941  1.00  0.00    -0.354 N 
ATOM     45  N   UNL A   1      43.280  25.303  28.790  1.00  0.00    -0.248 NA
ATOM     46  C   UNL A   1      42.814  25.710  26.518  1.00  0.00     0.031 C 
ATOM     47  C   UNL A   1      44.796  28.802  26.932  1.00  0.00     0.029 A 
ATOM     48  C   UNL A   1      45.062  28.304  28.210  1.00  0.00     0.049 A 
ATOM     49  H   UNL A   1      45.971  29.378  29.782  1.00  0.00     0.167 HD
ATOM     50  C   UNL A   1      44.285  26.045  28.217  1.00  0.00     0.074 A 
ATOM     51  C   UNL A   1      44.090  25.970  26.787  1.00  0.00     0.031 C 
ATOM     52  C   UNL A   1      44.834  27.066  28.922  1.00  0.00     0.037 A 
BRANCH  39  53
ATOM     53  C   UNL A   1      45.703  32.451  29.719  1.00  0.00     0.064 A 
ATOM     54  C   UNL A   1      46.474  33.293  28.878  1.00  0.00     0.173 A 
ATOM     55  C   UNL A   1      46.241  32.189  30.987  1.00  0.00     0.173 A 
ATOM     56  F   UNL A   1      46.028  33.643  27.661  1.00  0.00    -0.203 F 
ATOM     57  C   UNL A   1      47.754  33.716  29.229  1.00  0.00     0.198 A 
ATOM     58  C   UNL A   1      47.504  32.661  31.356  1.00  0.00     0.198 A 
ATOM     59  F   UNL A   1      45.614  31.390  31.860  1.00  0.00    -0.203 F 
ATOM     60  F   UNL A   1      48.502  34.382  28.339  1.00  0.00    -0.200 F 
ATOM     61  C   UNL A   1      48.276  33.383  30.462  1.00  0.00     0.200 A 
ATOM     62  F   UNL A   1      48.003  32.344  32.558  1.00  0.00    -0.200 F 
ATOM     63  F   UNL A   1      49.533  33.723  30.775  1.00  0.00    -0.200 F 
ENDBRANCH  39  53
BRANCH  40  64
ATOM     64  C   UNL A   1      40.535  23.582  27.562  1.00  0.00     0.064 A 
ATOM     65  C   UNL A   1      39.518  23.332  26.631  1.00  0.00     0.173 A 
ATOM     66  C   UNL A   1      41.240  22.408  27.969  1.00  0.00     0.173 A 
ATOM     67  F   UNL A   1      38.695  24.300  26.224  1.00  0.00    -0.203 F 
ATOM     68  C   UNL A   1      39.297  22.052  26.083  1.00  0.00     0.198 A 
ATOM     69  C   UNL A   1      41.050  21.149  27.397  1.00  0.00     0.198 A 
ATOM     70  F   UNL A   1      42.157  22.435  28.944  1.00  0.00    -0.203 F 
ATOM     71  F   UNL A   1      38.316  21.875  25.188  1.00  0.00    -0.200 F 
ATOM     72  C   UNL A   1      40.085  20.972  26.439  1.00  0.00     0.200 A 
ATOM     73  F   UNL A   1      41.828  20.124  27.776  1.00  0.00    -0.200 F 
ATOM     74  F   UNL A   1      39.909  19.771  25.871  1.00  0.00    -0.200 F 
ENDBRANCH  40  64
BRANCH  52  75
ATOM     75  C   UNL A   1      44.683  26.905  30.424  1.00  0.00     0.064 A 
ATOM     76  C   UNL A   1      45.409  25.916  31.103  1.00  0.00     0.173 A 
ATOM     77  C   UNL A   1      43.728  27.600  31.186  1.00  0.00     0.173 A 
ATOM     78  F   UNL A   1      46.354  25.217  30.454  1.00  0.00    -0.203 F 
ATOM     79  C   UNL A   1      45.173  25.626  32.450  1.00  0.00     0.198 A 
ATOM     80  C   UNL A   1      43.492  27.318  32.531  1.00  0.00     0.198 A 
ATOM     81  F   UNL A   1      43.005  28.574  30.641  1.00  0.00    -0.203 F 
ATOM     82  F   UNL A   1      45.881  24.667  33.062  1.00  0.00    -0.200 F 
ATOM     83  C   UNL A   1      44.210  26.324  33.163  1.00  0.00     0.200 A 
ATOM     84  F   UNL A   1      42.570  28.019  33.212  1.00  0.00    -0.200 F 
ATOM     85  F   UNL A   1      43.987  26.049  34.456  1.00  0.00    -0.200 F 
ENDBRANCH  52  75
ENDBRANCH  26  27
ENDBRANCH  19  21
ENDBRANCH  18  19
ENDBRANCH  17  18
ENDBRANCH   1  17
TORSDOF 13
ENDMDL
MODEL 3
REMARK VINA RESULT:     -10.2      2.395      8.356
REMARK SMILES CN(C)S(=O)(=O)c1c[nH]c(C(=O)OCCOC(=O)c2ccc(-c3c4nc(c(-c5c(F)c(F)c(F)c(F)c5F)c5ccc([nH]5)c(-c5c(F)c(F)c(F)c(F)c5F)c5nc(c(-c6c(F)c(F)c(F)c(F)c6F)c6ccc3[nH]6)C=C5)C=C4)cc2)c1
REMARK SMILES IDX 14 1 13 2 11 3 12 4 10 5 7 6 8 7 82 8 9 9 4 11 5 12 6 13
REMARK SMILES IDX 2 14 1 15 3 16 15 17 16 18 17 19 18 20 19 21 20 22 81 23
REMARK SMILES IDX 21 24 80 25 22 26 23 27 24 28 74 29 25 30 79 31 73 32 75 33
REMARK SMILES IDX 26 34 78 35 72 36 71 37 27 39 59 40 39 41 58 42 40 43 43 44
REMARK SMILES IDX 57 45 76 46 41 47 42 48 56 50 77 51 44 52 28 53 29 54 37 55
REMARK SMILES IDX 30 56 31 57 35 58 38 59 32 60 33 61 36 62 34 63 60 64 61 65
REMARK SMILES IDX 69 66 62 67 63 68 67 69 70 70 64 71 65 72 68 73 66 74 45 75
REMARK SMILES IDX 46 76 54 77 47 78 48 79 52 80 55 81 49 82 50 83 53 84 51 85
REMARK H PARENT 9 10 75 38 43 49
REMARK Flexibility Score: inf
ROOT
ATOM      1  C   UNL A   1      34.923  33.861  28.046  1.00  0.00     0.275 C 
ENDROOT
BRANCH   1   2
ATOM      2  O   UNL A   1      33.904  33.547  29.011  1.00  0.00    -0.457 OA
BRANCH   2   3
ATOM      3  C   UNL A   1      33.840  34.399  30.077  1.00  0.00     0.354 C 
ATOM      4  O   UNL A   1      33.168  35.411  30.127  1.00  0.00    -0.244 OA
BRANCH   3   5
ATOM      5  C   UNL A   1      34.582  33.877  31.204  1.00  0.00     0.126 A 
ATOM      6  C   UNL A   1      35.929  33.431  32.981  1.00  0.00     0.100 A 
ATOM      7  C   UNL A   1      35.389  32.242  32.537  1.00  0.00     0.105 A 
ATOM      8  C   UNL A   1      35.454  34.456  32.111  1.00  0.00     0.057 A 
ATOM      9  N   UNL A   1      34.528  32.534  31.513  1.00  0.00    -0.354 N 
ATOM     10  H   UNL A   1      33.951  31.878  31.062  1.00  0.00     0.166 HD
BRANCH   6  11
ATOM     11  S   UNL A   1      36.997  33.698  34.317  1.00  0.00     0.244 S 
ATOM     12  O   UNL A   1      36.197  33.353  35.474  1.00  0.00    -0.207 OA
ATOM     13  O   UNL A   1      37.480  35.045  34.106  1.00  0.00    -0.207 OA
BRANCH  11  14
ATOM     14  N   UNL A   1      38.345  32.637  34.283  1.00  0.00    -0.204 NA
ATOM     15  C   UNL A   1      38.017  31.317  34.886  1.00  0.00     0.124 C 
ATOM     16  C   UNL A   1      38.970  32.447  32.955  1.00  0.00     0.124 C 
ENDBRANCH  11  14
ENDBRANCH   6  11
ENDBRANCH   3   5
ENDBRANCH   2   3
ENDBRANCH   1   2
BRANCH   1  17
ATOM     17  C   UNL A   1      36.071  32.844  28.031  1.00  0.00     0.275 C 
BRANCH  17  18
ATOM     18  O   UNL A   1      35.828  31.654  28.797  1.00  0.00    -0.458 OA
BRANCH  18  19
ATOM     19  C   UNL A   1      35.797  30.530  28.048  1.00  0.00     0.338 C 
ATOM     20  O   UNL A   1      34.879  30.137  27.347  1.00  0.00    -0.246 OA
BRANCH  19  21
ATOM     21  C   UNL A   1      36.984  29.698  28.257  1.00  0.00     0.060 A 
ATOM     22  C   UNL A   1      37.120  29.072  29.502  1.00  0.00     0.016 A 
ATOM     23  C   UNL A   1      38.045  29.755  27.346  1.00  0.00     0.016 A 
ATOM     24  C   UNL A   1      38.347  28.547  29.866  1.00  0.00     0.010 A 
ATOM     25  C   UNL A   1      39.283  29.255  27.723  1.00  0.00     0.010 A 
ATOM     26  C   UNL A   1      39.432  28.665  28.988  1.00  0.00    -0.014 A 
BRANCH  26  27
ATOM     27  C   UNL A   1      40.706  28.029  29.374  1.00  0.00     0.031 A 
ATOM     28  C   UNL A   1      40.875  26.651  28.728  1.00  0.00     0.074 A 
ATOM     29  C   UNL A   1      41.500  28.734  30.234  1.00  0.00     0.049 A 
ATOM     30  N   UNL A   1      41.687  25.683  29.025  1.00  0.00    -0.248 NA
ATOM     31  C   UNL A   1      39.984  26.275  27.594  1.00  0.00     0.031 C 
ATOM     32  C   UNL A   1      41.178  30.081  30.747  1.00  0.00     0.029 A 
ATOM     33  N   UNL A   1      42.707  28.482  30.858  1.00  0.00    -0.354 N 
ATOM     34  C   UNL A   1      41.577  24.722  27.998  1.00  0.00     0.074 A 
ATOM     35  C   UNL A   1      40.433  25.079  27.220  1.00  0.00     0.031 C 
ATOM     36  C   UNL A   1      42.103  30.489  31.640  1.00  0.00     0.029 A 
ATOM     37  C   UNL A   1      43.131  29.478  31.780  1.00  0.00     0.049 A 
ATOM     38  H   UNL A   1      43.237  27.673  30.675  1.00  0.00     0.167 HD
ATOM     39  C   UNL A   1      42.533  23.781  27.754  1.00  0.00     0.037 A 
ATOM     40  C   UNL A   1      44.220  29.480  32.614  1.00  0.00     0.037 A 
ATOM     41  C   UNL A   1      43.521  23.799  28.777  1.00  0.00     0.049 A 
ATOM     42  C   UNL A   1      45.020  28.318  32.204  1.00  0.00     0.074 A 
ATOM     43  C   UNL A   1      43.512  23.394  30.085  1.00  0.00     0.029 A 
ATOM     44  N   UNL A   1      44.635  24.568  28.557  1.00  0.00    -0.354 N 
ATOM     45  N   UNL A   1      45.737  28.274  31.120  1.00  0.00    -0.248 NA
ATOM     46  C   UNL A   1      44.991  27.099  33.021  1.00  0.00     0.031 C 
ATOM     47  C   UNL A   1      44.424  24.260  30.723  1.00  0.00     0.029 A 
ATOM     48  C   UNL A   1      45.026  25.083  29.767  1.00  0.00     0.049 A 
ATOM     49  H   UNL A   1      45.073  24.721  27.690  1.00  0.00     0.167 HD
ATOM     50  C   UNL A   1      45.956  26.925  30.970  1.00  0.00     0.074 A 
ATOM     51  C   UNL A   1      45.781  26.331  32.275  1.00  0.00     0.031 C 
ATOM     52  C   UNL A   1      45.722  26.351  29.764  1.00  0.00     0.037 A 
BRANCH  39  53
ATOM     53  C   UNL A   1      42.821  22.968  26.520  1.00  0.00     0.064 A 
ATOM     54  C   UNL A   1      42.721  21.557  26.612  1.00  0.00     0.173 A 
ATOM     55  C   UNL A   1      43.519  23.464  25.410  1.00  0.00     0.173 A 
ATOM     56  F   UNL A   1      42.035  20.980  27.612  1.00  0.00    -0.203 F 
ATOM     57  C   UNL A   1      43.399  20.709  25.739  1.00  0.00     0.198 A 
ATOM     58  C   UNL A   1      44.153  22.608  24.504  1.00  0.00     0.198 A 
ATOM     59  F   UNL A   1      43.697  24.778  25.227  1.00  0.00    -0.203 F 
ATOM     60  F   UNL A   1      43.398  19.387  25.959  1.00  0.00    -0.200 F 
ATOM     61  C   UNL A   1      44.131  21.237  24.696  1.00  0.00     0.200 A 
ATOM     62  F   UNL A   1      44.855  23.124  23.486  1.00  0.00    -0.200 F 
ATOM     63  F   UNL A   1      44.844  20.431  23.898  1.00  0.00    -0.200 F 
ENDBRANCH  39  53
BRANCH  40  64
ATOM     64  C   UNL A   1      44.777  30.294  33.767  1.00  0.00     0.064 A 
ATOM     65  C   UNL A   1      44.531  30.079  35.130  1.00  0.00     0.173 A 
ATOM     66  C   UNL A   1      45.706  31.349  33.512  1.00  0.00     0.173 A 
ATOM     67  F   UNL A   1      43.612  29.203  35.541  1.00  0.00    -0.203 F 
ATOM     68  C   UNL A   1      45.223  30.779  36.139  1.00  0.00     0.198 A 
ATOM     69  C   UNL A   1      46.422  32.012  34.510  1.00  0.00     0.198 A 
ATOM     70  F   UNL A   1      45.965  31.780  32.271  1.00  0.00    -0.203 F 
ATOM     71  F   UNL A   1      44.953  30.523  37.426  1.00  0.00    -0.200 F 
ATOM     72  C   UNL A   1      46.191  31.716  35.828  1.00  0.00     0.200 A 
ATOM     73  F   UNL A   1      47.345  32.922  34.168  1.00  0.00    -0.200 F 
ATOM     74  F   UNL A   1      46.888  32.335  36.791  1.00  0.00    -0.200 F 
ENDBRANCH  40  64
BRANCH  52  75
ATOM     75  C   UNL A   1      45.802  27.331  28.609  1.00  0.00     0.064 A 
ATOM     76  C   UNL A   1      47.039  27.870  28.226  1.00  0.00     0.173 A 
ATOM     77  C   UNL A   1      44.672  27.869  27.968  1.00  0.00     0.173 A 
ATOM     78  F   UNL A   1      48.171  27.401  28.775  1.00  0.00    -0.203 F 
ATOM     79  C   UNL A   1      47.133  28.899  27.283  1.00  0.00     0.198 A 
ATOM     80  C   UNL A   1      44.760  28.891  27.023  1.00  0.00     0.198 A 
ATOM     81  F   UNL A   1      43.455  27.408  28.242  1.00  0.00    -0.203 F 
ATOM     82  F   UNL A   1      48.333  29.394  26.951  1.00  0.00    -0.200 F 
ATOM     83  C   UNL A   1      45.992  29.413  26.686  1.00  0.00     0.200 A 
ATOM     84  F   UNL A   1      43.647  29.363  26.440  1.00  0.00    -0.200 F 
ATOM     85  F   UNL A   1      46.082  30.396  25.779  1.00  0.00    -0.200 F 
ENDBRANCH  52  75
ENDBRANCH  26  27
ENDBRANCH  19  21
ENDBRANCH  18  19
ENDBRANCH  17  18
ENDBRANCH   1  17
TORSDOF 13
ENDMDL
