MODEL 1
REMARK VINA RESULT:     -12.5      0.000      0.000
REMARK SMILES C[NH+]1CCN(C(=O)c2ccc3c(c2)N(CC(=O)OCCOC(=O)c2ccc(-c4c5nc(c(-c6c(F)c(F)c(F)c(F)c6F)c6ccc([nH]6)c(-c6c(F)c(F)c(F)c(F)c6F)c6nc(c(-c7c(F)c(F)c(F)c(F)c7F)c7ccc4[nH]7)C=C6)C=C5)cc2)C(=O)CO3)CC1
REMARK SMILES IDX 19 1 18 2 16 3 17 4 15 5 14 6 8 7 9 8 13 9 10 10 12 11 11 12
REMARK SMILES IDX 90 13 87 14 89 15 88 16 6 17 1 18 2 19 3 20 92 21 4 23 91 24
REMARK SMILES IDX 5 25 7 26 20 27 21 28 22 29 23 30 24 31 25 32 86 33 26 34
REMARK SMILES IDX 85 35 27 36 28 37 29 38 79 39 30 40 84 41 78 42 80 43 31 44
REMARK SMILES IDX 83 45 77 46 76 47 32 49 64 50 44 51 63 52 45 53 48 54 62 55
REMARK SMILES IDX 81 56 46 57 47 58 61 60 82 61 49 62 33 63 34 64 42 65 35 66
REMARK SMILES IDX 36 67 40 68 43 69 37 70 38 71 41 72 39 73 65 74 66 75 74 76
REMARK SMILES IDX 67 77 68 78 72 79 75 80 69 81 70 82 73 83 71 84 50 85 51 86
REMARK SMILES IDX 59 87 52 88 53 89 57 90 60 91 54 92 55 93 58 94 56 95
REMARK H PARENT 2 22 80 48 48 59
REMARK Flexibility Score: inf
ROOT
ATOM      1  C   UNL A   1      38.839  20.751  25.254  1.00  0.00     0.274 C 
ENDROOT
BRANCH   1   2
ATOM      2  O   UNL A   1      38.521  21.980  25.939  1.00  0.00    -0.461 OA
BRANCH   2   3
ATOM      3  C   UNL A   1      37.333  22.541  25.582  1.00  0.00     0.326 C 
ATOM      4  O   UNL A   1      36.844  23.524  26.135  1.00  0.00    -0.250 OA
BRANCH   3   5
ATOM      5  C   UNL A   1      36.720  21.962  24.308  1.00  0.00     0.248 C 
BRANCH   5   6
ATOM      6  N   UNL A   1      35.321  21.567  24.327  1.00  0.00    -0.295 N 
ATOM      7  C   UNL A   1      33.337  24.492  23.015  1.00  0.00     0.042 A 
ATOM      8  C   UNL A   1      32.065  23.926  22.927  1.00  0.00     0.018 A 
ATOM      9  C   UNL A   1      34.410  23.756  23.548  1.00  0.00     0.044 A 
ATOM     10  C   UNL A   1      31.877  22.612  23.343  1.00  0.00     0.049 A 
ATOM     11  C   UNL A   1      34.247  22.412  23.915  1.00  0.00     0.087 A 
ATOM     12  C   UNL A   1      32.953  21.865  23.832  1.00  0.00     0.143 A 
ATOM     13  O   UNL A   1      32.652  20.571  24.171  1.00  0.00    -0.482 OA
ATOM     14  C   UNL A   1      35.057  20.273  24.761  1.00  0.00     0.265 C 
ATOM     15  C   UNL A   1      33.594  20.001  25.058  1.00  0.00     0.330 C 
ATOM     16  O   UNL A   1      35.936  19.445  25.001  1.00  0.00    -0.270 OA
BRANCH   7  17
ATOM     17  C   UNL A   1      33.512  25.916  22.638  1.00  0.00     0.254 C 
ATOM     18  C   UNL A   1      31.404  30.066  25.374  1.00  0.00     0.332 C 
ATOM     19  N   UNL A   1      32.556  29.181  25.160  1.00  0.00    -0.334 N 
ATOM     20  C   UNL A   1      33.054  29.328  23.776  1.00  0.00     0.283 C 
ATOM     21  C   UNL A   1      32.182  27.787  25.486  1.00  0.00     0.283 C 
ATOM     22  H   UNL A   1      33.321  29.443  25.784  1.00  0.00     0.347 HD
ATOM     23  C   UNL A   1      34.040  28.236  23.319  1.00  0.00     0.181 C 
ATOM     24  C   UNL A   1      33.196  26.709  25.036  1.00  0.00     0.181 C 
ATOM     25  N   UNL A   1      33.573  26.886  23.633  1.00  0.00    -0.327 N 
ATOM     26  O   UNL A   1      33.653  26.159  21.442  1.00  0.00    -0.269 OA
ENDBRANCH   7  17
ENDBRANCH   5   6
ENDBRANCH   3   5
ENDBRANCH   2   3
ENDBRANCH   1   2
BRANCH   1  27
ATOM     27  C   UNL A   1      39.607  19.746  26.126  1.00  0.00     0.275 C 
BRANCH  27  28
ATOM     28  O   UNL A   1      40.753  19.180  25.459  1.00  0.00    -0.458 OA
BRANCH  28  29
ATOM     29  C   UNL A   1      41.896  19.387  26.144  1.00  0.00     0.338 C 
ATOM     30  O   UNL A   1      42.657  18.517  26.540  1.00  0.00    -0.246 OA
BRANCH  29  31
ATOM     31  C   UNL A   1      42.195  20.804  26.400  1.00  0.00     0.060 A 
ATOM     32  C   UNL A   1      42.474  21.705  25.376  1.00  0.00     0.016 A 
ATOM     33  C   UNL A   1      42.434  21.160  27.727  1.00  0.00     0.016 A 
ATOM     34  C   UNL A   1      43.056  22.940  25.689  1.00  0.00     0.010 A 
ATOM     35  C   UNL A   1      42.964  22.404  28.046  1.00  0.00     0.010 A 
ATOM     36  C   UNL A   1      43.292  23.303  27.029  1.00  0.00    -0.014 A 
BRANCH  36  37
ATOM     37  C   UNL A   1      43.674  24.685  27.405  1.00  0.00     0.031 A 
ATOM     38  C   UNL A   1      42.683  25.689  27.920  1.00  0.00     0.074 A 
ATOM     39  C   UNL A   1      44.927  25.067  27.099  1.00  0.00     0.049 A 
ATOM     40  N   UNL A   1      42.857  26.963  28.173  1.00  0.00    -0.248 NA
ATOM     41  C   UNL A   1      41.313  25.216  28.154  1.00  0.00     0.031 C 
ATOM     42  C   UNL A   1      45.937  24.203  26.482  1.00  0.00     0.029 A 
ATOM     43  N   UNL A   1      45.553  26.277  27.225  1.00  0.00    -0.354 N 
ATOM     44  C   UNL A   1      41.616  27.450  28.565  1.00  0.00     0.074 A 
ATOM     45  C   UNL A   1      40.693  26.337  28.506  1.00  0.00     0.031 C 
ATOM     46  C   UNL A   1      47.059  24.907  26.291  1.00  0.00     0.029 A 
ATOM     47  C   UNL A   1      46.838  26.275  26.747  1.00  0.00     0.049 A 
ATOM     48  H   UNL A   1      45.124  27.070  27.620  1.00  0.00     0.167 HD
ATOM     49  C   UNL A   1      41.288  28.712  28.939  1.00  0.00     0.037 A 
ATOM     50  C   UNL A   1      47.744  27.263  26.674  1.00  0.00     0.037 A 
ATOM     51  C   UNL A   1      42.228  29.804  29.027  1.00  0.00     0.049 A 
ATOM     52  C   UNL A   1      47.388  28.617  27.199  1.00  0.00     0.074 A 
ATOM     53  C   UNL A   1      42.020  31.089  29.501  1.00  0.00     0.029 A 
ATOM     54  N   UNL A   1      43.554  29.738  28.626  1.00  0.00    -0.354 N 
ATOM     55  N   UNL A   1      46.237  29.043  27.655  1.00  0.00    -0.248 NA
ATOM     56  C   UNL A   1      48.459  29.620  27.214  1.00  0.00     0.031 C 
ATOM     57  C   UNL A   1      43.213  31.808  29.362  1.00  0.00     0.029 A 
ATOM     58  C   UNL A   1      44.173  30.961  28.832  1.00  0.00     0.049 A 
ATOM     59  H   UNL A   1      43.991  28.940  28.250  1.00  0.00     0.167 HD
ATOM     60  C   UNL A   1      46.442  30.361  28.023  1.00  0.00     0.074 A 
ATOM     61  C   UNL A   1      47.835  30.660  27.750  1.00  0.00     0.031 C 
ATOM     62  C   UNL A   1      45.555  31.245  28.540  1.00  0.00     0.037 A 
BRANCH  49  63
ATOM     63  C   UNL A   1      39.858  28.999  29.296  1.00  0.00     0.064 A 
ATOM     64  C   UNL A   1      38.923  29.386  28.326  1.00  0.00     0.173 A 
ATOM     65  C   UNL A   1      39.396  28.786  30.605  1.00  0.00     0.173 A 
ATOM     66  F   UNL A   1      39.311  29.597  27.060  1.00  0.00    -0.203 F 
ATOM     67  C   UNL A   1      37.579  29.559  28.655  1.00  0.00     0.198 A 
ATOM     68  C   UNL A   1      38.048  28.940  30.924  1.00  0.00     0.198 A 
ATOM     69  F   UNL A   1      40.245  28.400  31.569  1.00  0.00    -0.203 F 
ATOM     70  F   UNL A   1      36.704  29.943  27.714  1.00  0.00    -0.200 F 
ATOM     71  C   UNL A   1      37.141  29.328  29.951  1.00  0.00     0.200 A 
ATOM     72  F   UNL A   1      37.624  28.698  32.173  1.00  0.00    -0.200 F 
ATOM     73  F   UNL A   1      35.845  29.474  30.258  1.00  0.00    -0.200 F 
ENDBRANCH  49  63
BRANCH  50  74
ATOM     74  C   UNL A   1      49.088  26.952  26.139  1.00  0.00     0.064 A 
ATOM     75  C   UNL A   1      50.053  26.356  26.959  1.00  0.00     0.173 A 
ATOM     76  C   UNL A   1      49.390  27.131  24.783  1.00  0.00     0.173 A 
ATOM     77  F   UNL A   1      49.800  26.169  28.263  1.00  0.00    -0.203 F 
ATOM     78  C   UNL A   1      51.277  25.945  26.440  1.00  0.00     0.198 A 
ATOM     79  C   UNL A   1      50.607  26.703  24.261  1.00  0.00     0.198 A 
ATOM     80  F   UNL A   1      48.483  27.674  23.958  1.00  0.00    -0.203 F 
ATOM     81  F   UNL A   1      52.186  25.378  27.244  1.00  0.00    -0.200 F 
ATOM     82  C   UNL A   1      51.548  26.109  25.090  1.00  0.00     0.200 A 
ATOM     83  F   UNL A   1      50.859  26.841  22.952  1.00  0.00    -0.200 F 
ATOM     84  F   UNL A   1      52.716  25.688  24.584  1.00  0.00    -0.200 F 
ENDBRANCH  50  74
BRANCH  62  85
ATOM     85  C   UNL A   1      46.075  32.613  28.845  1.00  0.00     0.064 A 
ATOM     86  C   UNL A   1      46.636  32.916  30.093  1.00  0.00     0.173 A 
ATOM     87  C   UNL A   1      46.007  33.631  27.883  1.00  0.00     0.173 A 
ATOM     88  F   UNL A   1      46.703  31.976  31.049  1.00  0.00    -0.203 F 
ATOM     89  C   UNL A   1      47.090  34.200  30.378  1.00  0.00     0.198 A 
ATOM     90  C   UNL A   1      46.479  34.909  28.165  1.00  0.00     0.198 A 
ATOM     91  F   UNL A   1      45.476  33.387  26.676  1.00  0.00    -0.203 F 
ATOM     92  F   UNL A   1      47.582  34.481  31.592  1.00  0.00    -0.200 F 
ATOM     93  C   UNL A   1      47.013  35.195  29.413  1.00  0.00     0.200 A 
ATOM     94  F   UNL A   1      46.405  35.870  27.233  1.00  0.00    -0.200 F 
ATOM     95  F   UNL A   1      47.442  36.433  29.692  1.00  0.00    -0.200 F 
ENDBRANCH  62  85
ENDBRANCH  36  37
ENDBRANCH  29  31
ENDBRANCH  28  29
ENDBRANCH  27  28
ENDBRANCH   1  27
TORSDOF 13
ENDMDL
MODEL 2
REMARK VINA RESULT:     -12.4      0.402      1.692
REMARK SMILES C[NH+]1CCN(C(=O)c2ccc3c(c2)N(CC(=O)OCCOC(=O)c2ccc(-c4c5nc(c(-c6c(F)c(F)c(F)c(F)c6F)c6ccc([nH]6)c(-c6c(F)c(F)c(F)c(F)c6F)c6nc(c(-c7c(F)c(F)c(F)c(F)c7F)c7ccc4[nH]7)C=C6)C=C5)cc2)C(=O)CO3)CC1
REMARK SMILES IDX 19 1 18 2 16 3 17 4 15 5 14 6 8 7 9 8 13 9 10 10 12 11 11 12
REMARK SMILES IDX 90 13 87 14 89 15 88 16 6 17 1 18 2 19 3 20 92 21 4 23 91 24
REMARK SMILES IDX 5 25 7 26 20 27 21 28 22 29 23 30 24 31 25 32 86 33 26 34
REMARK SMILES IDX 85 35 27 36 28 37 29 38 79 39 30 40 84 41 78 42 80 43 31 44
REMARK SMILES IDX 83 45 77 46 76 47 32 49 64 50 44 51 63 52 45 53 48 54 62 55
REMARK SMILES IDX 81 56 46 57 47 58 61 60 82 61 49 62 33 63 34 64 42 65 35 66
REMARK SMILES IDX 36 67 40 68 43 69 37 70 38 71 41 72 39 73 65 74 66 75 74 76
REMARK SMILES IDX 67 77 68 78 72 79 75 80 69 81 70 82 73 83 71 84 50 85 51 86
REMARK SMILES IDX 59 87 52 88 53 89 57 90 60 91 54 92 55 93 58 94 56 95
REMARK H PARENT 2 22 80 48 48 59
REMARK Flexibility Score: inf
ROOT
ATOM      1  C   UNL A   1      38.970  20.836  25.421  1.00  0.00     0.274 C 
ENDROOT
BRANCH   1   2
ATOM      2  O   UNL A   1      38.463  21.976  26.145  1.00  0.00    -0.461 OA
BRANCH   2   3
ATOM      3  C   UNL A   1      37.494  22.680  25.495  1.00  0.00     0.326 C 
ATOM      4  O   UNL A   1      37.208  23.848  25.748  1.00  0.00    -0.250 OA
BRANCH   3   5
ATOM      5  C   UNL A   1      36.895  21.960  24.289  1.00  0.00     0.248 C 
BRANCH   5   6
ATOM      6  N   UNL A   1      35.508  21.532  24.354  1.00  0.00    -0.295 N 
ATOM      7  C   UNL A   1      33.418  24.373  23.019  1.00  0.00     0.042 A 
ATOM      8  C   UNL A   1      32.159  23.774  22.978  1.00  0.00     0.018 A 
ATOM      9  C   UNL A   1      34.523  23.677  23.543  1.00  0.00     0.044 A 
ATOM     10  C   UNL A   1      32.014  22.466  23.433  1.00  0.00     0.049 A 
ATOM     11  C   UNL A   1      34.402  22.339  23.948  1.00  0.00     0.087 A 
ATOM     12  C   UNL A   1      33.121  21.759  23.912  1.00  0.00     0.143 A 
ATOM     13  O   UNL A   1      32.861  20.467  24.291  1.00  0.00    -0.482 OA
ATOM     14  C   UNL A   1      35.287  20.243  24.827  1.00  0.00     0.265 C 
ATOM     15  C   UNL A   1      33.839  19.944  25.168  1.00  0.00     0.330 C 
ATOM     16  O   UNL A   1      36.192  19.444  25.065  1.00  0.00    -0.270 OA
BRANCH   7  17
ATOM     17  C   UNL A   1      33.549  25.790  22.602  1.00  0.00     0.254 C 
ATOM     18  C   UNL A   1      31.575  29.973  25.390  1.00  0.00     0.332 C 
ATOM     19  N   UNL A   1      32.722  29.097  25.116  1.00  0.00    -0.334 N 
ATOM     20  C   UNL A   1      33.123  29.220  23.699  1.00  0.00     0.283 C 
ATOM     21  C   UNL A   1      32.389  27.706  25.495  1.00  0.00     0.283 C 
ATOM     22  H   UNL A   1      33.523  29.381  25.680  1.00  0.00     0.347 HD
ATOM     23  C   UNL A   1      34.090  28.131  23.197  1.00  0.00     0.181 C 
ATOM     24  C   UNL A   1      33.385  26.631  24.999  1.00  0.00     0.181 C 
ATOM     25  N   UNL A   1      33.663  26.782  23.570  1.00  0.00    -0.327 N 
ATOM     26  O   UNL A   1      33.604  26.009  21.394  1.00  0.00    -0.269 OA
ENDBRANCH   7  17
ENDBRANCH   5   6
ENDBRANCH   3   5
ENDBRANCH   2   3
ENDBRANCH   1   2
BRANCH   1  27
ATOM     27  C   UNL A   1      39.865  19.921  26.272  1.00  0.00     0.275 C 
BRANCH  27  28
ATOM     28  O   UNL A   1      40.706  19.060  25.479  1.00  0.00    -0.458 OA
BRANCH  28  29
ATOM     29  C   UNL A   1      41.980  19.044  25.921  1.00  0.00     0.338 C 
ATOM     30  O   UNL A   1      42.719  18.071  25.932  1.00  0.00    -0.246 OA
BRANCH  29  31
ATOM     31  C   UNL A   1      42.460  20.343  26.416  1.00  0.00     0.060 A 
ATOM     32  C   UNL A   1      42.390  20.703  27.760  1.00  0.00     0.016 A 
ATOM     33  C   UNL A   1      42.763  21.303  25.452  1.00  0.00     0.016 A 
ATOM     34  C   UNL A   1      42.558  22.046  28.120  1.00  0.00     0.010 A 
ATOM     35  C   UNL A   1      42.982  22.628  25.810  1.00  0.00     0.010 A 
ATOM     36  C   UNL A   1      42.870  23.015  27.147  1.00  0.00    -0.014 A 
BRANCH  36  37
ATOM     37  C   UNL A   1      43.293  24.385  27.522  1.00  0.00     0.031 A 
ATOM     38  C   UNL A   1      42.329  25.427  28.010  1.00  0.00     0.074 A 
ATOM     39  C   UNL A   1      44.566  24.721  27.239  1.00  0.00     0.049 A 
ATOM     40  N   UNL A   1      42.544  26.697  28.258  1.00  0.00    -0.248 NA
ATOM     41  C   UNL A   1      40.939  25.006  28.219  1.00  0.00     0.031 C 
ATOM     42  C   UNL A   1      45.557  23.817  26.649  1.00  0.00     0.029 A 
ATOM     43  N   UNL A   1      45.232  25.909  27.370  1.00  0.00    -0.354 N 
ATOM     44  C   UNL A   1      41.313  27.231  28.621  1.00  0.00     0.074 A 
ATOM     45  C   UNL A   1      40.352  26.150  28.550  1.00  0.00     0.031 C 
ATOM     46  C   UNL A   1      46.707  24.479  26.477  1.00  0.00     0.029 A 
ATOM     47  C   UNL A   1      46.526  25.857  26.919  1.00  0.00     0.049 A 
ATOM     48  H   UNL A   1      44.824  26.719  27.752  1.00  0.00     0.167 HD
ATOM     49  C   UNL A   1      41.023  28.506  28.980  1.00  0.00     0.037 A 
ATOM     50  C   UNL A   1      47.468  26.812  26.859  1.00  0.00     0.037 A 
ATOM     51  C   UNL A   1      41.999  29.564  29.081  1.00  0.00     0.049 A 
ATOM     52  C   UNL A   1      47.150  28.181  27.367  1.00  0.00     0.074 A 
ATOM     53  C   UNL A   1      41.828  30.859  29.542  1.00  0.00     0.029 A 
ATOM     54  N   UNL A   1      43.329  29.448  28.708  1.00  0.00    -0.354 N 
ATOM     55  N   UNL A   1      46.005  28.651  27.796  1.00  0.00    -0.248 NA
ATOM     56  C   UNL A   1      48.255  29.145  27.398  1.00  0.00     0.031 C 
ATOM     57  C   UNL A   1      43.048  31.535  29.422  1.00  0.00     0.029 A 
ATOM     58  C   UNL A   1      43.988  30.650  28.918  1.00  0.00     0.049 A 
ATOM     59  H   UNL A   1      43.746  28.633  28.346  1.00  0.00     0.167 HD
ATOM     60  C   UNL A   1      46.250  29.964  28.160  1.00  0.00     0.074 A 
ATOM     61  C   UNL A   1      47.658  30.211  27.915  1.00  0.00     0.031 C 
ATOM     62  C   UNL A   1      45.384  30.882  28.653  1.00  0.00     0.037 A 
BRANCH  49  63
ATOM     63  C   UNL A   1      39.596  28.846  29.306  1.00  0.00     0.064 A 
ATOM     64  C   UNL A   1      39.093  28.727  30.609  1.00  0.00     0.173 A 
ATOM     65  C   UNL A   1      38.754  29.394  28.325  1.00  0.00     0.173 A 
ATOM     66  F   UNL A   1      39.857  28.214  31.584  1.00  0.00    -0.203 F 
ATOM     67  C   UNL A   1      37.795  29.133  30.916  1.00  0.00     0.198 A 
ATOM     68  C   UNL A   1      37.466  29.819  28.641  1.00  0.00     0.198 A 
ATOM     69  F   UNL A   1      39.191  29.545  27.066  1.00  0.00    -0.203 F 
ATOM     70  F   UNL A   1      37.330  28.996  32.167  1.00  0.00    -0.200 F 
ATOM     71  C   UNL A   1      36.986  29.686  29.935  1.00  0.00     0.200 A 
ATOM     72  F   UNL A   1      36.691  30.370  27.695  1.00  0.00    -0.200 F 
ATOM     73  F   UNL A   1      35.747  30.097  30.238  1.00  0.00    -0.200 F 
ENDBRANCH  49  63
BRANCH  50  74
ATOM     74  C   UNL A   1      48.810  26.449  26.354  1.00  0.00     0.064 A 
ATOM     75  C   UNL A   1      49.156  26.709  25.022  1.00  0.00     0.173 A 
ATOM     76  C   UNL A   1      49.800  25.952  27.211  1.00  0.00     0.173 A 
ATOM     77  F   UNL A   1      48.235  27.184  24.172  1.00  0.00    -0.203 F 
ATOM     78  C   UNL A   1      50.452  26.487  24.565  1.00  0.00     0.198 A 
ATOM     79  C   UNL A   1      51.100  25.748  26.757  1.00  0.00     0.198 A 
ATOM     80  F   UNL A   1      49.516  25.713  28.500  1.00  0.00    -0.203 F 
ATOM     81  F   UNL A   1      50.760  26.743  23.287  1.00  0.00    -0.200 F 
ATOM     82  C   UNL A   1      51.424  26.017  25.435  1.00  0.00     0.200 A 
ATOM     83  F   UNL A   1      52.044  25.315  27.604  1.00  0.00    -0.200 F 
ATOM     84  F   UNL A   1      52.679  25.830  25.001  1.00  0.00    -0.200 F 
ENDBRANCH  50  74
BRANCH  62  85
ATOM     85  C   UNL A   1      45.947  32.234  28.960  1.00  0.00     0.064 A 
ATOM     86  C   UNL A   1      46.489  32.526  30.219  1.00  0.00     0.173 A 
ATOM     87  C   UNL A   1      45.939  33.245  27.989  1.00  0.00     0.173 A 
ATOM     88  F   UNL A   1      46.498  31.593  31.184  1.00  0.00    -0.203 F 
ATOM     89  C   UNL A   1      46.983  33.796  30.504  1.00  0.00     0.198 A 
ATOM     90  C   UNL A   1      46.451  34.507  28.272  1.00  0.00     0.198 A 
ATOM     91  F   UNL A   1      45.429  33.009  26.771  1.00  0.00    -0.203 F 
ATOM     92  F   UNL A   1      47.456  34.069  31.727  1.00  0.00    -0.200 F 
ATOM     93  C   UNL A   1      46.965  34.784  29.531  1.00  0.00     0.200 A 
ATOM     94  F   UNL A   1      46.434  35.462  27.331  1.00  0.00    -0.200 F 
ATOM     95  F   UNL A   1      47.432  36.008  29.810  1.00  0.00    -0.200 F 
ENDBRANCH  62  85
ENDBRANCH  36  37
ENDBRANCH  29  31
ENDBRANCH  28  29
ENDBRANCH  27  28
ENDBRANCH   1  27
TORSDOF 13
ENDMDL
MODEL 3
REMARK VINA RESULT:     -12.4      5.428     11.002
REMARK SMILES C[NH+]1CCN(C(=O)c2ccc3c(c2)N(CC(=O)OCCOC(=O)c2ccc(-c4c5nc(c(-c6c(F)c(F)c(F)c(F)c6F)c6ccc([nH]6)c(-c6c(F)c(F)c(F)c(F)c6F)c6nc(c(-c7c(F)c(F)c(F)c(F)c7F)c7ccc4[nH]7)C=C6)C=C5)cc2)C(=O)CO3)CC1
REMARK SMILES IDX 19 1 18 2 16 3 17 4 15 5 14 6 8 7 9 8 13 9 10 10 12 11 11 12
REMARK SMILES IDX 90 13 87 14 89 15 88 16 6 17 1 18 2 19 3 20 92 21 4 23 91 24
REMARK SMILES IDX 5 25 7 26 20 27 21 28 22 29 23 30 24 31 25 32 86 33 26 34
REMARK SMILES IDX 85 35 27 36 28 37 29 38 79 39 30 40 84 41 78 42 80 43 31 44
REMARK SMILES IDX 83 45 77 46 76 47 32 49 64 50 44 51 63 52 45 53 48 54 62 55
REMARK SMILES IDX 81 56 46 57 47 58 61 60 82 61 49 62 33 63 34 64 42 65 35 66
REMARK SMILES IDX 36 67 40 68 43 69 37 70 38 71 41 72 39 73 65 74 66 75 74 76
REMARK SMILES IDX 67 77 68 78 72 79 75 80 69 81 70 82 73 83 71 84 50 85 51 86
REMARK SMILES IDX 59 87 52 88 53 89 57 90 60 91 54 92 55 93 58 94 56 95
REMARK H PARENT 2 22 80 48 48 59
REMARK Flexibility Score: inf
ROOT
ATOM      1  C   UNL A   1      32.461  31.712  27.206  1.00  0.00     0.274 C 
ENDROOT
BRANCH   1   2
ATOM      2  O   UNL A   1      33.526  30.741  27.133  1.00  0.00    -0.461 OA
BRANCH   2   3
ATOM      3  C   UNL A   1      33.244  29.641  26.381  1.00  0.00     0.326 C 
ATOM      4  O   UNL A   1      34.099  28.947  25.834  1.00  0.00    -0.250 OA
BRANCH   3   5
ATOM      5  C   UNL A   1      31.777  29.218  26.408  1.00  0.00     0.248 C 
BRANCH   5   6
ATOM      6  N   UNL A   1      31.200  28.632  25.210  1.00  0.00    -0.295 N 
ATOM      7  C   UNL A   1      31.399  24.888  25.612  1.00  0.00     0.042 A 
ATOM      8  C   UNL A   1      30.672  24.468  24.498  1.00  0.00     0.018 A 
ATOM      9  C   UNL A   1      31.653  26.256  25.823  1.00  0.00     0.044 A 
ATOM     10  C   UNL A   1      30.172  25.419  23.615  1.00  0.00     0.049 A 
ATOM     11  C   UNL A   1      31.103  27.227  24.974  1.00  0.00     0.087 A 
ATOM     12  C   UNL A   1      30.385  26.781  23.849  1.00  0.00     0.143 A 
ATOM     13  O   UNL A   1      29.808  27.622  22.933  1.00  0.00    -0.482 OA
ATOM     14  C   UNL A   1      30.706  29.528  24.269  1.00  0.00     0.265 C 
ATOM     15  C   UNL A   1      30.398  28.908  22.919  1.00  0.00     0.330 C 
ATOM     16  O   UNL A   1      30.630  30.742  24.461  1.00  0.00    -0.270 OA
BRANCH   7  17
ATOM     17  C   UNL A   1      31.991  23.865  26.507  1.00  0.00     0.254 C 
ATOM     18  C   UNL A   1      35.802  20.348  25.002  1.00  0.00     0.332 C 
ATOM     19  N   UNL A   1      35.486  21.649  25.607  1.00  0.00    -0.334 N 
ATOM     20  C   UNL A   1      34.679  21.453  26.830  1.00  0.00     0.283 C 
ATOM     21  C   UNL A   1      34.811  22.511  24.611  1.00  0.00     0.283 C 
ATOM     22  H   UNL A   1      36.345  22.124  25.887  1.00  0.00     0.347 HD
ATOM     23  C   UNL A   1      34.008  22.726  27.379  1.00  0.00     0.181 C 
ATOM     24  C   UNL A   1      34.163  23.794  25.182  1.00  0.00     0.181 C 
ATOM     25  N   UNL A   1      33.321  23.495  26.341  1.00  0.00    -0.327 N 
ATOM     26  O   UNL A   1      31.270  23.429  27.402  1.00  0.00    -0.269 OA
ENDBRANCH   7  17
ENDBRANCH   5   6
ENDBRANCH   3   5
ENDBRANCH   2   3
ENDBRANCH   1   2
BRANCH   1  27
ATOM     27  C   UNL A   1      32.959  33.164  27.251  1.00  0.00     0.275 C 
BRANCH  27  28
ATOM     28  O   UNL A   1      32.160  34.009  28.103  1.00  0.00    -0.458 OA
BRANCH  28  29
ATOM     29  C   UNL A   1      32.903  34.930  28.750  1.00  0.00     0.338 C 
ATOM     30  O   UNL A   1      32.616  36.110  28.885  1.00  0.00    -0.246 OA
BRANCH  29  31
ATOM     31  C   UNL A   1      34.151  34.402  29.321  1.00  0.00     0.060 A 
ATOM     32  C   UNL A   1      35.397  34.650  28.751  1.00  0.00     0.016 A 
ATOM     33  C   UNL A   1      34.019  33.434  30.316  1.00  0.00     0.016 A 
ATOM     34  C   UNL A   1      36.496  33.873  29.140  1.00  0.00     0.010 A 
ATOM     35  C   UNL A   1      35.117  32.696  30.742  1.00  0.00     0.010 A 
ATOM     36  C   UNL A   1      36.365  32.900  30.150  1.00  0.00    -0.014 A 
BRANCH  36  37
ATOM     37  C   UNL A   1      37.547  32.239  30.752  1.00  0.00     0.031 A 
ATOM     38  C   UNL A   1      38.319  31.160  30.049  1.00  0.00     0.074 A 
ATOM     39  C   UNL A   1      37.803  32.523  32.042  1.00  0.00     0.049 A 
ATOM     40  N   UNL A   1      39.297  30.415  30.506  1.00  0.00    -0.248 NA
ATOM     41  C   UNL A   1      37.928  30.850  28.669  1.00  0.00     0.031 C 
ATOM     42  C   UNL A   1      37.038  33.470  32.857  1.00  0.00     0.029 A 
ATOM     43  N   UNL A   1      38.743  32.024  32.902  1.00  0.00    -0.354 N 
ATOM     44  C   UNL A   1      39.616  29.531  29.482  1.00  0.00     0.074 A 
ATOM     45  C   UNL A   1      38.721  29.823  28.383  1.00  0.00     0.031 C 
ATOM     46  C   UNL A   1      37.543  33.490  34.096  1.00  0.00     0.029 A 
ATOM     47  C   UNL A   1      38.648  32.541  34.168  1.00  0.00     0.049 A 
ATOM     48  H   UNL A   1      39.421  31.360  32.638  1.00  0.00     0.167 HD
ATOM     49  C   UNL A   1      40.572  28.569  29.471  1.00  0.00     0.037 A 
ATOM     50  C   UNL A   1      39.364  32.281  35.274  1.00  0.00     0.037 A 
ATOM     51  C   UNL A   1      41.482  28.314  30.562  1.00  0.00     0.049 A 
ATOM     52  C   UNL A   1      40.485  31.294  35.199  1.00  0.00     0.074 A 
ATOM     53  C   UNL A   1      42.556  27.440  30.608  1.00  0.00     0.029 A 
ATOM     54  N   UNL A   1      41.419  28.931  31.802  1.00  0.00    -0.354 N 
ATOM     55  N   UNL A   1      40.839  30.530  34.197  1.00  0.00    -0.248 NA
ATOM     56  C   UNL A   1      41.315  31.148  36.400  1.00  0.00     0.031 C 
ATOM     57  C   UNL A   1      43.126  27.508  31.885  1.00  0.00     0.029 A 
ATOM     58  C   UNL A   1      42.427  28.449  32.624  1.00  0.00     0.049 A 
ATOM     59  H   UNL A   1      40.755  29.610  32.062  1.00  0.00     0.167 HD
ATOM     60  C   UNL A   1      41.939  29.815  34.638  1.00  0.00     0.074 A 
ATOM     61  C   UNL A   1      42.204  30.251  35.996  1.00  0.00     0.031 C 
ATOM     62  C   UNL A   1      42.665  28.882  33.976  1.00  0.00     0.037 A 
BRANCH  49  63
ATOM     63  C   UNL A   1      40.707  27.715  28.243  1.00  0.00     0.064 A 
ATOM     64  C   UNL A   1      41.501  28.111  27.157  1.00  0.00     0.173 A 
ATOM     65  C   UNL A   1      40.118  26.441  28.195  1.00  0.00     0.173 A 
ATOM     66  F   UNL A   1      42.090  29.315  27.155  1.00  0.00    -0.203 F 
ATOM     67  C   UNL A   1      41.691  27.267  26.063  1.00  0.00     0.198 A 
ATOM     68  C   UNL A   1      40.328  25.593  27.109  1.00  0.00     0.198 A 
ATOM     69  F   UNL A   1      39.361  26.006  29.213  1.00  0.00    -0.203 F 
ATOM     70  F   UNL A   1      42.443  27.673  25.029  1.00  0.00    -0.200 F 
ATOM     71  C   UNL A   1      41.112  26.007  26.044  1.00  0.00     0.200 A 
ATOM     72  F   UNL A   1      39.783  24.368  27.100  1.00  0.00    -0.200 F 
ATOM     73  F   UNL A   1      41.316  25.190  25.001  1.00  0.00    -0.200 F 
ENDBRANCH  49  63
BRANCH  50  74
ATOM     74  C   UNL A   1      39.057  33.035  36.508  1.00  0.00     0.064 A 
ATOM     75  C   UNL A   1      38.311  32.439  37.532  1.00  0.00     0.173 A 
ATOM     76  C   UNL A   1      39.598  34.307  36.737  1.00  0.00     0.173 A 
ATOM     77  F   UNL A   1      37.776  31.222  37.349  1.00  0.00    -0.203 F 
ATOM     78  C   UNL A   1      38.118  33.089  38.747  1.00  0.00     0.198 A 
ATOM     79  C   UNL A   1      39.420  34.948  37.960  1.00  0.00     0.198 A 
ATOM     80  F   UNL A   1      40.340  34.902  35.792  1.00  0.00    -0.203 F 
ATOM     81  F   UNL A   1      37.400  32.499  39.712  1.00  0.00    -0.200 F 
ATOM     82  C   UNL A   1      38.681  34.338  38.964  1.00  0.00     0.200 A 
ATOM     83  F   UNL A   1      39.983  36.145  38.176  1.00  0.00    -0.200 F 
ATOM     84  F   UNL A   1      38.519  34.951  40.144  1.00  0.00    -0.200 F 
ENDBRANCH  50  74
BRANCH  62  85
ATOM     85  C   UNL A   1      43.815  28.279  34.720  1.00  0.00     0.064 A 
ATOM     86  C   UNL A   1      45.088  28.864  34.687  1.00  0.00     0.173 A 
ATOM     87  C   UNL A   1      43.641  27.105  35.466  1.00  0.00     0.173 A 
ATOM     88  F   UNL A   1      45.302  29.977  33.969  1.00  0.00    -0.203 F 
ATOM     89  C   UNL A   1      46.158  28.278  35.357  1.00  0.00     0.198 A 
ATOM     90  C   UNL A   1      44.710  26.533  36.150  1.00  0.00     0.198 A 
ATOM     91  F   UNL A   1      42.440  26.511  35.523  1.00  0.00    -0.203 F 
ATOM     92  F   UNL A   1      47.377  28.827  35.278  1.00  0.00    -0.200 F 
ATOM     93  C   UNL A   1      45.967  27.115  36.089  1.00  0.00     0.200 A 
ATOM     94  F   UNL A   1      44.525  25.409  36.857  1.00  0.00    -0.200 F 
ATOM     95  F   UNL A   1      47.000  26.548  36.727  1.00  0.00    -0.200 F 
ENDBRANCH  62  85
ENDBRANCH  36  37
ENDBRANCH  29  31
ENDBRANCH  28  29
ENDBRANCH  27  28
ENDBRANCH   1  27
TORSDOF 13
ENDMDL
