MODEL 1
REMARK VINA RESULT:     -10.3      0.000      0.000
REMARK SMILES Cc1cscc1C(=O)Nc1cc(Br)ccc1C(=O)OCCOC(=O)c1ccc(-c2c3nc(c(-c4c(F)c(F)c(F)c(F)c4F)c4ccc([nH]4)c(-c4c(F)c(F)c(F)c(F)c4F)c4nc(c(-c5c(F)c(F)c(F)c(F)c5F)c5ccc2[nH]5)C=C4)C=C3)cc1
REMARK SMILES IDX 20 1 19 2 17 3 18 4 16 5 10 6 11 7 12 8 15 9 13 10 14 11
REMARK SMILES IDX 9 12 7 13 8 14 6 16 1 17 2 18 3 19 4 20 5 21 21 22 22 23
REMARK SMILES IDX 23 24 24 25 25 26 26 27 87 28 27 29 86 30 28 31 29 32 30 33
REMARK SMILES IDX 80 34 31 35 85 36 79 37 81 38 32 39 84 40 78 41 77 42 33 44
REMARK SMILES IDX 65 45 45 46 64 47 46 48 49 49 63 50 82 51 47 52 48 53 62 55
REMARK SMILES IDX 83 56 50 57 34 58 35 59 43 60 36 61 37 62 41 63 44 64 38 65
REMARK SMILES IDX 39 66 42 67 40 68 66 69 67 70 75 71 68 72 69 73 73 74 76 75
REMARK SMILES IDX 70 76 71 77 74 78 72 79 51 80 52 81 60 82 53 83 54 84 58 85
REMARK SMILES IDX 61 86 55 87 56 88 59 89 57 90
REMARK H PARENT 9 15 81 43 49 54
REMARK Flexibility Score: inf
ROOT
ATOM      1  C   UNL A   1      33.420  33.554  28.452  1.00  0.00     0.275 C 
ENDROOT
BRANCH   1   2
ATOM      2  O   UNL A   1      34.317  34.326  29.280  1.00  0.00    -0.458 OA
BRANCH   2   3
ATOM      3  C   UNL A   1      34.925  33.667  30.295  1.00  0.00     0.340 C 
ATOM      4  O   UNL A   1      34.363  32.920  31.083  1.00  0.00    -0.246 OA
BRANCH   3   5
ATOM      5  C   UNL A   1      36.401  33.925  30.360  1.00  0.00     0.083 A 
ATOM      6  C   UNL A   1      37.099  34.465  31.465  1.00  0.00     0.057 A 
ATOM      7  C   UNL A   1      38.497  34.575  31.396  1.00  0.00     0.042 A 
ATOM      8  C   UNL A   1      39.180  34.272  30.215  1.00  0.00     0.020 A 
ATOM      9  C   UNL A   1      37.115  33.617  29.182  1.00  0.00     0.019 A 
ATOM     10  Br  UNL A   1      41.053  34.506  30.128  1.00  0.00    -0.051 Br
ATOM     11  C   UNL A   1      38.493  33.814  29.100  1.00  0.00     0.017 A 
BRANCH   6  12
ATOM     12  N   UNL A   1      36.397  34.856  32.619  1.00  0.00    -0.321 N 
ATOM     13  C   UNL A   1      36.194  34.284  33.852  1.00  0.00     0.256 C 
ATOM     14  O   UNL A   1      35.264  34.728  34.529  1.00  0.00    -0.269 OA
ATOM     15  H   UNL A   1      35.955  35.730  32.523  1.00  0.00     0.170 HD
BRANCH  13  16
ATOM     16  C   UNL A   1      37.067  33.232  34.383  1.00  0.00     0.053 A 
ATOM     17  C   UNL A   1      36.583  31.166  32.802  1.00  0.00     0.046 C 
ATOM     18  C   UNL A   1      37.258  31.857  33.946  1.00  0.00    -0.028 A 
ATOM     19  C   UNL A   1      38.206  31.212  34.725  1.00  0.00     0.069 A 
ATOM     20  S   UNL A   1      38.922  32.227  35.890  1.00  0.00    -0.151 S 
ATOM     21  C   UNL A   1      37.970  33.546  35.389  1.00  0.00     0.079 A 
ENDBRANCH  13  16
ENDBRANCH   6  12
ENDBRANCH   3   5
ENDBRANCH   2   3
ENDBRANCH   1   2
BRANCH   1  22
ATOM     22  C   UNL A   1      34.158  32.470  27.660  1.00  0.00     0.275 C 
BRANCH  22  23
ATOM     23  O   UNL A   1      33.957  31.169  28.242  1.00  0.00    -0.458 OA
BRANCH  23  24
ATOM     24  C   UNL A   1      34.561  30.149  27.592  1.00  0.00     0.338 C 
ATOM     25  O   UNL A   1      34.173  29.561  26.597  1.00  0.00    -0.246 OA
BRANCH  24  26
ATOM     26  C   UNL A   1      35.892  29.923  28.173  1.00  0.00     0.060 A 
ATOM     27  C   UNL A   1      36.991  30.119  27.337  1.00  0.00     0.016 A 
ATOM     28  C   UNL A   1      36.062  29.427  29.466  1.00  0.00     0.016 A 
ATOM     29  C   UNL A   1      38.271  29.807  27.782  1.00  0.00     0.010 A 
ATOM     30  C   UNL A   1      37.355  29.128  29.919  1.00  0.00     0.010 A 
ATOM     31  C   UNL A   1      38.467  29.300  29.074  1.00  0.00    -0.014 A 
BRANCH  31  32
ATOM     32  C   UNL A   1      39.834  28.898  29.494  1.00  0.00     0.031 A 
ATOM     33  C   UNL A   1      40.583  29.716  30.509  1.00  0.00     0.074 A 
ATOM     34  C   UNL A   1      40.383  27.766  29.015  1.00  0.00     0.049 A 
ATOM     35  N   UNL A   1      41.806  29.569  30.954  1.00  0.00    -0.248 NA
ATOM     36  C   UNL A   1      39.861  30.853  31.100  1.00  0.00     0.031 C 
ATOM     37  C   UNL A   1      39.744  26.859  28.062  1.00  0.00     0.029 A 
ATOM     38  N   UNL A   1      41.595  27.178  29.276  1.00  0.00    -0.354 N 
ATOM     39  C   UNL A   1      42.015  30.618  31.840  1.00  0.00     0.074 A 
ATOM     40  C   UNL A   1      40.793  31.393  31.873  1.00  0.00     0.031 C 
ATOM     41  C   UNL A   1      40.558  25.815  27.839  1.00  0.00     0.029 A 
ATOM     42  C   UNL A   1      41.797  26.007  28.587  1.00  0.00     0.049 A 
ATOM     43  H   UNL A   1      42.257  27.558  29.897  1.00  0.00     0.167 HD
ATOM     44  C   UNL A   1      43.127  30.907  32.557  1.00  0.00     0.037 A 
ATOM     45  C   UNL A   1      42.871  25.195  28.541  1.00  0.00     0.037 A 
ATOM     46  C   UNL A   1      44.325  30.109  32.563  1.00  0.00     0.049 A 
ATOM     47  C   UNL A   1      44.096  25.542  29.340  1.00  0.00     0.074 A 
ATOM     48  C   UNL A   1      45.494  30.310  33.278  1.00  0.00     0.029 A 
ATOM     49  N   UNL A   1      44.503  28.948  31.826  1.00  0.00    -0.354 N 
ATOM     50  N   UNL A   1      44.296  26.556  30.146  1.00  0.00    -0.248 NA
ATOM     51  C   UNL A   1      45.249  24.639  29.212  1.00  0.00     0.031 C 
ATOM     52  C   UNL A   1      46.391  29.287  32.947  1.00  0.00     0.029 A 
ATOM     53  C   UNL A   1      45.767  28.429  32.057  1.00  0.00     0.049 A 
ATOM     54  H   UNL A   1      43.831  28.549  31.227  1.00  0.00     0.167 HD
ATOM     55  C   UNL A   1      45.593  26.416  30.619  1.00  0.00     0.074 A 
ATOM     56  C   UNL A   1      46.125  25.204  30.032  1.00  0.00     0.031 C 
ATOM     57  C   UNL A   1      46.284  27.226  31.458  1.00  0.00     0.037 A 
BRANCH  44  58
ATOM     58  C   UNL A   1      43.115  32.167  33.370  1.00  0.00     0.064 A 
ATOM     59  C   UNL A   1      43.536  33.396  32.844  1.00  0.00     0.173 A 
ATOM     60  C   UNL A   1      42.644  32.143  34.692  1.00  0.00     0.173 A 
ATOM     61  F   UNL A   1      44.008  33.467  31.591  1.00  0.00    -0.203 F 
ATOM     62  C   UNL A   1      43.507  34.553  33.620  1.00  0.00     0.198 A 
ATOM     63  C   UNL A   1      42.594  33.306  35.456  1.00  0.00     0.198 A 
ATOM     64  F   UNL A   1      42.225  30.993  35.241  1.00  0.00    -0.203 F 
ATOM     65  F   UNL A   1      43.954  35.709  33.112  1.00  0.00    -0.200 F 
ATOM     66  C   UNL A   1      43.031  34.508  34.923  1.00  0.00     0.200 A 
ATOM     67  F   UNL A   1      42.124  33.262  36.712  1.00  0.00    -0.200 F 
ATOM     68  F   UNL A   1      43.002  35.623  35.666  1.00  0.00    -0.200 F 
ENDBRANCH  44  58
BRANCH  45  69
ATOM     69  C   UNL A   1      42.838  23.986  27.680  1.00  0.00     0.064 A 
ATOM     70  C   UNL A   1      42.457  22.740  28.196  1.00  0.00     0.173 A 
ATOM     71  C   UNL A   1      43.171  24.056  26.319  1.00  0.00     0.173 A 
ATOM     72  F   UNL A   1      42.156  22.617  29.497  1.00  0.00    -0.203 F 
ATOM     73  C   UNL A   1      42.413  21.609  27.382  1.00  0.00     0.198 A 
ATOM     74  C   UNL A   1      43.101  22.931  25.501  1.00  0.00     0.198 A 
ATOM     75  F   UNL A   1      43.547  25.225  25.780  1.00  0.00    -0.203 F 
ATOM     76  F   UNL A   1      42.075  20.422  27.905  1.00  0.00    -0.200 F 
ATOM     77  C   UNL A   1      42.726  21.707  26.034  1.00  0.00     0.200 A 
ATOM     78  F   UNL A   1      43.393  23.034  24.197  1.00  0.00    -0.200 F 
ATOM     79  F   UNL A   1      42.670  20.622  25.250  1.00  0.00    -0.200 F 
ENDBRANCH  45  69
BRANCH  57  80
ATOM     80  C   UNL A   1      47.688  26.822  31.795  1.00  0.00     0.064 A 
ATOM     81  C   UNL A   1      47.956  25.916  32.833  1.00  0.00     0.173 A 
ATOM     82  C   UNL A   1      48.772  27.317  31.056  1.00  0.00     0.173 A 
ATOM     83  F   UNL A   1      46.953  25.429  33.578  1.00  0.00    -0.203 F 
ATOM     84  C   UNL A   1      49.262  25.537  33.130  1.00  0.00     0.198 A 
ATOM     85  C   UNL A   1      50.074  26.918  31.341  1.00  0.00     0.198 A 
ATOM     86  F   UNL A   1      48.565  28.182  30.052  1.00  0.00    -0.203 F 
ATOM     87  F   UNL A   1      49.499  24.700  34.149  1.00  0.00    -0.200 F 
ATOM     88  C   UNL A   1      50.319  26.033  32.380  1.00  0.00     0.200 A 
ATOM     89  F   UNL A   1      51.094  27.392  30.611  1.00  0.00    -0.200 F 
ATOM     90  F   UNL A   1      51.576  25.663  32.665  1.00  0.00    -0.200 F 
ENDBRANCH  57  80
ENDBRANCH  31  32
ENDBRANCH  24  26
ENDBRANCH  23  24
ENDBRANCH  22  23
ENDBRANCH   1  22
TORSDOF 13
ENDMDL
MODEL 2
REMARK VINA RESULT:     -10.2      0.338      2.000
REMARK SMILES Cc1cscc1C(=O)Nc1cc(Br)ccc1C(=O)OCCOC(=O)c1ccc(-c2c3nc(c(-c4c(F)c(F)c(F)c(F)c4F)c4ccc([nH]4)c(-c4c(F)c(F)c(F)c(F)c4F)c4nc(c(-c5c(F)c(F)c(F)c(F)c5F)c5ccc2[nH]5)C=C4)C=C3)cc1
REMARK SMILES IDX 20 1 19 2 17 3 18 4 16 5 10 6 11 7 12 8 15 9 13 10 14 11
REMARK SMILES IDX 9 12 7 13 8 14 6 16 1 17 2 18 3 19 4 20 5 21 21 22 22 23
REMARK SMILES IDX 23 24 24 25 25 26 26 27 87 28 27 29 86 30 28 31 29 32 30 33
REMARK SMILES IDX 80 34 31 35 85 36 79 37 81 38 32 39 84 40 78 41 77 42 33 44
REMARK SMILES IDX 65 45 45 46 64 47 46 48 49 49 63 50 82 51 47 52 48 53 62 55
REMARK SMILES IDX 83 56 50 57 34 58 35 59 43 60 36 61 37 62 41 63 44 64 38 65
REMARK SMILES IDX 39 66 42 67 40 68 66 69 67 70 75 71 68 72 69 73 73 74 76 75
REMARK SMILES IDX 70 76 71 77 74 78 72 79 51 80 52 81 60 82 53 83 54 84 58 85
REMARK SMILES IDX 61 86 55 87 56 88 59 89 57 90
REMARK H PARENT 9 15 81 43 49 54
REMARK Flexibility Score: inf
ROOT
ATOM      1  C   UNL A   1      33.324  33.429  28.373  1.00  0.00     0.275 C 
ENDROOT
BRANCH   1   2
ATOM      2  O   UNL A   1      34.712  33.707  28.663  1.00  0.00    -0.458 OA
BRANCH   2   3
ATOM      3  C   UNL A   1      35.120  33.493  29.937  1.00  0.00     0.340 C 
ATOM      4  O   UNL A   1      34.412  33.074  30.840  1.00  0.00    -0.246 OA
BRANCH   3   5
ATOM      5  C   UNL A   1      36.572  33.805  30.145  1.00  0.00     0.083 A 
ATOM      6  C   UNL A   1      37.130  34.423  31.289  1.00  0.00     0.057 A 
ATOM      7  C   UNL A   1      38.523  34.578  31.365  1.00  0.00     0.042 A 
ATOM      8  C   UNL A   1      39.339  34.241  30.282  1.00  0.00     0.020 A 
ATOM      9  C   UNL A   1      37.419  33.465  29.069  1.00  0.00     0.019 A 
ATOM     10  Br  UNL A   1      41.203  34.536  30.384  1.00  0.00    -0.051 Br
ATOM     11  C   UNL A   1      38.791  33.706  29.125  1.00  0.00     0.017 A 
BRANCH   6  12
ATOM     12  N   UNL A   1      36.295  34.845  32.339  1.00  0.00    -0.321 N 
ATOM     13  C   UNL A   1      36.012  34.352  33.590  1.00  0.00     0.256 C 
ATOM     14  O   UNL A   1      34.993  34.775  34.142  1.00  0.00    -0.269 OA
ATOM     15  H   UNL A   1      35.807  35.674  32.133  1.00  0.00     0.170 HD
BRANCH  13  16
ATOM     16  C   UNL A   1      36.897  33.409  34.282  1.00  0.00     0.053 A 
ATOM     17  C   UNL A   1      36.652  31.182  32.875  1.00  0.00     0.046 C 
ATOM     18  C   UNL A   1      37.197  32.014  33.994  1.00  0.00    -0.028 A 
ATOM     19  C   UNL A   1      38.115  31.504  34.898  1.00  0.00     0.069 A 
ATOM     20  S   UNL A   1      38.681  32.663  36.009  1.00  0.00    -0.151 S 
ATOM     21  C   UNL A   1      37.700  33.869  35.316  1.00  0.00     0.079 A 
ENDBRANCH  13  16
ENDBRANCH   6  12
ENDBRANCH   3   5
ENDBRANCH   2   3
ENDBRANCH   1   2
BRANCH   1  22
ATOM     22  C   UNL A   1      33.147  32.110  27.616  1.00  0.00     0.275 C 
BRANCH  22  23
ATOM     23  O   UNL A   1      34.418  31.514  27.298  1.00  0.00    -0.458 OA
BRANCH  23  24
ATOM     24  C   UNL A   1      34.529  30.201  27.602  1.00  0.00     0.338 C 
ATOM     25  O   UNL A   1      33.750  29.303  27.336  1.00  0.00    -0.246 OA
BRANCH  24  26
ATOM     26  C   UNL A   1      35.852  29.948  28.192  1.00  0.00     0.060 A 
ATOM     27  C   UNL A   1      36.957  30.077  27.351  1.00  0.00     0.016 A 
ATOM     28  C   UNL A   1      36.004  29.491  29.501  1.00  0.00     0.016 A 
ATOM     29  C   UNL A   1      38.225  29.736  27.808  1.00  0.00     0.010 A 
ATOM     30  C   UNL A   1      37.286  29.163  29.966  1.00  0.00     0.010 A 
ATOM     31  C   UNL A   1      38.403  29.267  29.117  1.00  0.00    -0.014 A 
BRANCH  31  32
ATOM     32  C   UNL A   1      39.755  28.832  29.552  1.00  0.00     0.031 A 
ATOM     33  C   UNL A   1      40.503  29.619  30.592  1.00  0.00     0.074 A 
ATOM     34  C   UNL A   1      40.290  27.697  29.063  1.00  0.00     0.049 A 
ATOM     35  N   UNL A   1      41.716  29.441  31.054  1.00  0.00    -0.248 NA
ATOM     36  C   UNL A   1      39.793  30.760  31.190  1.00  0.00     0.031 C 
ATOM     37  C   UNL A   1      39.650  26.818  28.086  1.00  0.00     0.029 A 
ATOM     38  N   UNL A   1      41.487  27.081  29.334  1.00  0.00    -0.354 N 
ATOM     39  C   UNL A   1      41.930  30.471  31.960  1.00  0.00     0.074 A 
ATOM     40  C   UNL A   1      40.722  31.269  31.987  1.00  0.00     0.031 C 
ATOM     41  C   UNL A   1      40.447  25.762  27.859  1.00  0.00     0.029 A 
ATOM     42  C   UNL A   1      41.678  25.919  28.629  1.00  0.00     0.049 A 
ATOM     43  H   UNL A   1      42.146  27.439  29.972  1.00  0.00     0.167 HD
ATOM     44  C   UNL A   1      43.036  30.728  32.700  1.00  0.00     0.037 A 
ATOM     45  C   UNL A   1      42.736  25.087  28.587  1.00  0.00     0.037 A 
ATOM     46  C   UNL A   1      44.218  29.906  32.712  1.00  0.00     0.049 A 
ATOM     47  C   UNL A   1      43.954  25.397  29.412  1.00  0.00     0.074 A 
ATOM     48  C   UNL A   1      45.378  30.073  33.449  1.00  0.00     0.029 A 
ATOM     49  N   UNL A   1      44.385  28.754  31.959  1.00  0.00    -0.354 N 
ATOM     50  N   UNL A   1      44.161  26.394  30.237  1.00  0.00    -0.248 NA
ATOM     51  C   UNL A   1      45.092  24.475  29.288  1.00  0.00     0.031 C 
ATOM     52  C   UNL A   1      46.261  29.039  33.116  1.00  0.00     0.029 A 
ATOM     53  C   UNL A   1      45.636  28.207  32.202  1.00  0.00     0.049 A 
ATOM     54  H   UNL A   1      43.716  28.378  31.343  1.00  0.00     0.167 HD
ATOM     55  C   UNL A   1      45.447  26.222  30.728  1.00  0.00     0.074 A 
ATOM     56  C   UNL A   1      45.965  25.009  30.130  1.00  0.00     0.031 C 
ATOM     57  C   UNL A   1      46.140  27.004  31.592  1.00  0.00     0.037 A 
BRANCH  44  58
ATOM     58  C   UNL A   1      43.034  31.975  33.533  1.00  0.00     0.064 A 
ATOM     59  C   UNL A   1      42.530  31.994  34.841  1.00  0.00     0.173 A 
ATOM     60  C   UNL A   1      43.576  33.162  33.019  1.00  0.00     0.173 A 
ATOM     61  F   UNL A   1      41.989  30.888  35.372  1.00  0.00    -0.203 F 
ATOM     62  C   UNL A   1      42.548  33.164  35.596  1.00  0.00     0.198 A 
ATOM     63  C   UNL A   1      43.614  34.324  33.785  1.00  0.00     0.198 A 
ATOM     64  F   UNL A   1      44.075  33.195  31.773  1.00  0.00    -0.203 F 
ATOM     65  F   UNL A   1      42.022  33.173  36.828  1.00  0.00    -0.200 F 
ATOM     66  C   UNL A   1      43.094  34.327  35.070  1.00  0.00     0.200 A 
ATOM     67  F   UNL A   1      44.151  35.443  33.277  1.00  0.00    -0.200 F 
ATOM     68  F   UNL A   1      43.113  35.451  35.799  1.00  0.00    -0.200 F 
ENDBRANCH  44  58
BRANCH  45  69
ATOM     69  C   UNL A   1      42.695  23.892  27.706  1.00  0.00     0.064 A 
ATOM     70  C   UNL A   1      43.080  23.970  26.361  1.00  0.00     0.173 A 
ATOM     71  C   UNL A   1      42.286  22.643  28.198  1.00  0.00     0.173 A 
ATOM     72  F   UNL A   1      43.452  25.148  25.839  1.00  0.00    -0.203 F 
ATOM     73  C   UNL A   1      43.055  22.844  25.540  1.00  0.00     0.198 A 
ATOM     74  C   UNL A   1      42.287  21.513  27.384  1.00  0.00     0.198 A 
ATOM     75  F   UNL A   1      41.904  22.518  29.478  1.00  0.00    -0.203 F 
ATOM     76  F   UNL A   1      43.398  22.951  24.250  1.00  0.00    -0.200 F 
ATOM     77  C   UNL A   1      42.667  21.615  26.055  1.00  0.00     0.200 A 
ATOM     78  F   UNL A   1      41.924  20.326  27.889  1.00  0.00    -0.200 F 
ATOM     79  F   UNL A   1      42.657  20.531  25.268  1.00  0.00    -0.200 F 
ENDBRANCH  45  69
BRANCH  57  80
ATOM     80  C   UNL A   1      47.530  26.568  31.945  1.00  0.00     0.064 A 
ATOM     81  C   UNL A   1      48.647  27.070  31.259  1.00  0.00     0.173 A 
ATOM     82  C   UNL A   1      47.752  25.669  32.997  1.00  0.00     0.173 A 
ATOM     83  F   UNL A   1      48.483  27.920  30.234  1.00  0.00    -0.203 F 
ATOM     84  C   UNL A   1      49.935  26.670  31.603  1.00  0.00     0.198 A 
ATOM     85  C   UNL A   1      49.042  25.289  33.353  1.00  0.00     0.198 A 
ATOM     86  F   UNL A   1      46.716  25.166  33.685  1.00  0.00    -0.203 F 
ATOM     87  F   UNL A   1      50.985  27.132  30.910  1.00  0.00    -0.200 F 
ATOM     88  C   UNL A   1      50.132  25.785  32.653  1.00  0.00     0.200 A 
ATOM     89  F   UNL A   1      49.232  24.440  34.373  1.00  0.00    -0.200 F 
ATOM     90  F   UNL A   1      51.374  25.404  32.985  1.00  0.00    -0.200 F 
ENDBRANCH  57  80
ENDBRANCH  31  32
ENDBRANCH  24  26
ENDBRANCH  23  24
ENDBRANCH  22  23
ENDBRANCH   1  22
TORSDOF 13
ENDMDL
MODEL 3
REMARK VINA RESULT:     -10.1      4.477      9.873
REMARK SMILES Cc1cscc1C(=O)Nc1cc(Br)ccc1C(=O)OCCOC(=O)c1ccc(-c2c3nc(c(-c4c(F)c(F)c(F)c(F)c4F)c4ccc([nH]4)c(-c4c(F)c(F)c(F)c(F)c4F)c4nc(c(-c5c(F)c(F)c(F)c(F)c5F)c5ccc2[nH]5)C=C4)C=C3)cc1
REMARK SMILES IDX 20 1 19 2 17 3 18 4 16 5 10 6 11 7 12 8 15 9 13 10 14 11
REMARK SMILES IDX 9 12 7 13 8 14 6 16 1 17 2 18 3 19 4 20 5 21 21 22 22 23
REMARK SMILES IDX 23 24 24 25 25 26 26 27 87 28 27 29 86 30 28 31 29 32 30 33
REMARK SMILES IDX 80 34 31 35 85 36 79 37 81 38 32 39 84 40 78 41 77 42 33 44
REMARK SMILES IDX 65 45 45 46 64 47 46 48 49 49 63 50 82 51 47 52 48 53 62 55
REMARK SMILES IDX 83 56 50 57 34 58 35 59 43 60 36 61 37 62 41 63 44 64 38 65
REMARK SMILES IDX 39 66 42 67 40 68 66 69 67 70 75 71 68 72 69 73 73 74 76 75
REMARK SMILES IDX 70 76 71 77 74 78 72 79 51 80 52 81 60 82 53 83 54 84 58 85
REMARK SMILES IDX 61 86 55 87 56 88 59 89 57 90
REMARK H PARENT 9 15 81 43 49 54
REMARK Flexibility Score: inf
ROOT
ATOM      1  C   UNL A   1      32.075  28.071  25.904  1.00  0.00     0.275 C 
ENDROOT
BRANCH   1   2
ATOM      2  O   UNL A   1      33.476  27.772  25.714  1.00  0.00    -0.458 OA
BRANCH   2   3
ATOM      3  C   UNL A   1      33.832  27.282  24.502  1.00  0.00     0.340 C 
ATOM      4  O   UNL A   1      33.986  27.953  23.491  1.00  0.00    -0.246 OA
BRANCH   3   5
ATOM      5  C   UNL A   1      34.051  25.798  24.512  1.00  0.00     0.083 A 
ATOM      6  C   UNL A   1      33.940  24.938  23.395  1.00  0.00     0.057 A 
ATOM      7  C   UNL A   1      34.251  23.578  23.553  1.00  0.00     0.042 A 
ATOM      8  C   UNL A   1      34.549  23.055  24.814  1.00  0.00     0.020 A 
ATOM      9  C   UNL A   1      34.363  25.247  25.773  1.00  0.00     0.019 A 
ATOM     10  Br  UNL A   1      34.886  21.206  25.007  1.00  0.00    -0.051 Br
ATOM     11  C   UNL A   1      34.584  23.880  25.929  1.00  0.00     0.017 A 
BRANCH   6  12
ATOM     12  N   UNL A   1      33.550  25.453  22.145  1.00  0.00    -0.321 N 
ATOM     13  C   UNL A   1      32.342  25.804  21.593  1.00  0.00     0.256 C 
ATOM     14  O   UNL A   1      32.298  25.916  20.366  1.00  0.00    -0.269 OA
ATOM     15  H   UNL A   1      34.307  25.592  21.533  1.00  0.00     0.170 HD
BRANCH  13  16
ATOM     16  C   UNL A   1      31.159  26.093  22.411  1.00  0.00     0.053 A 
ATOM     17  C   UNL A   1      30.685  23.804  23.650  1.00  0.00     0.046 C 
ATOM     18  C   UNL A   1      30.410  25.238  23.320  1.00  0.00    -0.028 A 
ATOM     19  C   UNL A   1      29.364  25.930  23.909  1.00  0.00     0.069 A 
ATOM     20  S   UNL A   1      29.316  27.575  23.473  1.00  0.00    -0.151 S 
ATOM     21  C   UNL A   1      30.682  27.395  22.474  1.00  0.00     0.079 A 
ENDBRANCH  13  16
ENDBRANCH   6  12
ENDBRANCH   3   5
ENDBRANCH   2   3
ENDBRANCH   1   2
BRANCH   1  22
ATOM     22  C   UNL A   1      31.828  29.569  26.099  1.00  0.00     0.275 C 
BRANCH  22  23
ATOM     23  O   UNL A   1      33.044  30.324  25.952  1.00  0.00    -0.458 OA
BRANCH  23  24
ATOM     24  C   UNL A   1      33.267  31.248  26.913  1.00  0.00     0.338 C 
ATOM     25  O   UNL A   1      32.497  32.097  27.327  1.00  0.00    -0.246 OA
BRANCH  24  26
ATOM     26  C   UNL A   1      34.572  30.994  27.540  1.00  0.00     0.060 A 
ATOM     27  C   UNL A   1      34.847  29.682  27.924  1.00  0.00     0.016 A 
ATOM     28  C   UNL A   1      35.461  32.026  27.845  1.00  0.00     0.016 A 
ATOM     29  C   UNL A   1      36.008  29.391  28.631  1.00  0.00     0.010 A 
ATOM     30  C   UNL A   1      36.640  31.727  28.544  1.00  0.00     0.010 A 
ATOM     31  C   UNL A   1      36.913  30.410  28.957  1.00  0.00    -0.014 A 
BRANCH  31  32
ATOM     32  C   UNL A   1      38.104  30.085  29.783  1.00  0.00     0.031 A 
ATOM     33  C   UNL A   1      39.207  29.235  29.217  1.00  0.00     0.074 A 
ATOM     34  C   UNL A   1      38.229  30.600  31.021  1.00  0.00     0.049 A 
ATOM     35  N   UNL A   1      40.291  28.785  29.799  1.00  0.00    -0.248 NA
ATOM     36  C   UNL A   1      39.071  28.834  27.808  1.00  0.00     0.031 C 
ATOM     37  C   UNL A   1      37.254  31.476  31.670  1.00  0.00     0.029 A 
ATOM     38  N   UNL A   1      39.235  30.475  31.946  1.00  0.00    -0.354 N 
ATOM     39  C   UNL A   1      40.941  28.014  28.845  1.00  0.00     0.074 A 
ATOM     40  C   UNL A   1      40.133  28.057  27.644  1.00  0.00     0.031 C 
ATOM     41  C   UNL A   1      37.721  31.831  32.877  1.00  0.00     0.029 A 
ATOM     42  C   UNL A   1      38.999  31.164  33.110  1.00  0.00     0.049 A 
ATOM     43  H   UNL A   1      40.047  29.941  31.791  1.00  0.00     0.167 HD
ATOM     44  C   UNL A   1      42.105  27.331  28.962  1.00  0.00     0.037 A 
ATOM     45  C   UNL A   1      39.718  31.229  34.248  1.00  0.00     0.037 A 
ATOM     46  C   UNL A   1      42.934  27.328  30.139  1.00  0.00     0.049 A 
ATOM     47  C   UNL A   1      41.003  30.455  34.356  1.00  0.00     0.074 A 
ATOM     48  C   UNL A   1      44.143  26.686  30.342  1.00  0.00     0.029 A 
ATOM     49  N   UNL A   1      42.644  28.013  31.310  1.00  0.00    -0.354 N 
ATOM     50  N   UNL A   1      41.589  29.699  33.461  1.00  0.00    -0.248 NA
ATOM     51  C   UNL A   1      41.717  30.533  35.639  1.00  0.00     0.031 C 
ATOM     52  C   UNL A   1      44.569  26.955  31.648  1.00  0.00     0.029 A 
ATOM     53  C   UNL A   1      43.645  27.797  32.244  1.00  0.00     0.049 A 
ATOM     54  H   UNL A   1      41.847  28.571  31.456  1.00  0.00     0.167 HD
ATOM     55  C   UNL A   1      42.737  29.210  34.068  1.00  0.00     0.074 A 
ATOM     56  C   UNL A   1      42.779  29.777  35.400  1.00  0.00     0.031 C 
ATOM     57  C   UNL A   1      43.668  28.361  33.569  1.00  0.00     0.037 A 
BRANCH  44  58
ATOM     58  C   UNL A   1      42.533  26.493  27.795  1.00  0.00     0.064 A 
ATOM     59  C   UNL A   1      43.412  26.976  26.815  1.00  0.00     0.173 A 
ATOM     60  C   UNL A   1      42.077  25.171  27.676  1.00  0.00     0.173 A 
ATOM     61  F   UNL A   1      43.864  28.237  26.878  1.00  0.00    -0.203 F 
ATOM     62  C   UNL A   1      43.799  26.173  25.745  1.00  0.00     0.198 A 
ATOM     63  C   UNL A   1      42.485  24.364  26.618  1.00  0.00     0.198 A 
ATOM     64  F   UNL A   1      41.237  24.660  28.590  1.00  0.00    -0.203 F 
ATOM     65  F   UNL A   1      44.606  26.668  24.796  1.00  0.00    -0.200 F 
ATOM     66  C   UNL A   1      43.341  24.867  25.650  1.00  0.00     0.200 A 
ATOM     67  F   UNL A   1      42.048  23.099  26.533  1.00  0.00    -0.200 F 
ATOM     68  F   UNL A   1      43.718  24.095  24.621  1.00  0.00    -0.200 F 
ENDBRANCH  44  58
BRANCH  45  69
ATOM     69  C   UNL A   1      39.217  32.040  35.386  1.00  0.00     0.064 A 
ATOM     70  C   UNL A   1      38.429  31.466  36.392  1.00  0.00     0.173 A 
ATOM     71  C   UNL A   1      39.532  33.403  35.499  1.00  0.00     0.173 A 
ATOM     72  F   UNL A   1      38.079  30.174  36.314  1.00  0.00    -0.203 F 
ATOM     73  C   UNL A   1      37.972  32.226  37.468  1.00  0.00     0.198 A 
ATOM     74  C   UNL A   1      39.098  34.154  36.587  1.00  0.00     0.198 A 
ATOM     75  F   UNL A   1      40.280  33.998  34.558  1.00  0.00    -0.203 F 
ATOM     76  F   UNL A   1      37.195  31.663  38.402  1.00  0.00    -0.200 F 
ATOM     77  C   UNL A   1      38.315  33.567  37.569  1.00  0.00     0.200 A 
ATOM     78  F   UNL A   1      39.442  35.446  36.687  1.00  0.00    -0.200 F 
ATOM     79  F   UNL A   1      37.887  34.293  38.611  1.00  0.00    -0.200 F 
ENDBRANCH  45  69
BRANCH  57  80
ATOM     80  C   UNL A   1      44.813  27.998  34.466  1.00  0.00     0.064 A 
ATOM     81  C   UNL A   1      44.762  26.863  35.290  1.00  0.00     0.173 A 
ATOM     82  C   UNL A   1      45.984  28.769  34.477  1.00  0.00     0.173 A 
ATOM     83  F   UNL A   1      43.656  26.104  35.325  1.00  0.00    -0.203 F 
ATOM     84  C   UNL A   1      45.836  26.527  36.109  1.00  0.00     0.198 A 
ATOM     85  C   UNL A   1      47.064  28.416  35.280  1.00  0.00     0.198 A 
ATOM     86  F   UNL A   1      46.082  29.860  33.703  1.00  0.00    -0.203 F 
ATOM     87  F   UNL A   1      45.752  25.461  36.917  1.00  0.00    -0.200 F 
ATOM     88  C   UNL A   1      46.988  27.300  36.099  1.00  0.00     0.200 A 
ATOM     89  F   UNL A   1      48.180  29.159  35.264  1.00  0.00    -0.200 F 
ATOM     90  F   UNL A   1      48.023  26.972  36.886  1.00  0.00    -0.200 F 
ENDBRANCH  57  80
ENDBRANCH  31  32
ENDBRANCH  24  26
ENDBRANCH  23  24
ENDBRANCH  22  23
ENDBRANCH   1  22
TORSDOF 13
ENDMDL
