MODEL 1
REMARK VINA RESULT:     -12.0      0.000      0.000
REMARK SMILES CCOc1c(Br)cc(CNc2cccc(C(=O)OCCOC(=O)c3ccc(-c4c5nc(c(-c6c(F)c(F)c(F)c(F)c6F)c6ccc([nH]6)c(-c6c(F)c(F)c(F)c(F)c6F)c6nc(c(-c7c(F)c(F)c(F)c(F)c7F)c7ccc4[nH]7)C=C6)C=C5)cc3)c2C)cc1OC
REMARK SMILES IDX 18 1 16 2 17 3 15 4 11 5 12 6 87 7 13 8 88 9 14 10 10 11
REMARK SMILES IDX 9 13 8 14 4 15 5 16 90 17 6 18 7 19 89 20 3 21 2 22 1 23
REMARK SMILES IDX 91 24 92 25 19 26 20 27 21 28 22 29 23 30 24 31 25 32 86 33
REMARK SMILES IDX 26 34 85 35 27 36 28 37 29 38 79 39 30 40 84 41 78 42 80 43
REMARK SMILES IDX 31 44 83 45 77 46 76 47 32 49 64 50 44 51 63 52 45 53 48 54
REMARK SMILES IDX 62 55 81 56 46 57 47 58 61 60 82 61 49 62 33 63 34 64 42 65
REMARK SMILES IDX 35 66 36 67 40 68 43 69 37 70 38 71 41 72 39 73 65 74 66 75
REMARK SMILES IDX 74 76 67 77 68 78 72 79 75 80 69 81 70 82 73 83 71 84 50 85
REMARK SMILES IDX 51 86 59 87 52 88 53 89 57 90 60 91 54 92 55 93 58 94 56 95
REMARK H PARENT 10 12 80 48 48 59
REMARK Flexibility Score: inf
ROOT
ATOM      1  O   UNL A   1      32.874  28.660  24.853  1.00  0.00    -0.458 OA
ENDROOT
BRANCH   1   2
ATOM      2  C   UNL A   1      31.613  28.444  24.411  1.00  0.00     0.338 C 
ATOM      3  O   UNL A   1      30.738  29.277  24.294  1.00  0.00    -0.246 OA
BRANCH   2   4
ATOM      4  C   UNL A   1      31.497  27.005  24.040  1.00  0.00     0.065 A 
ATOM      5  C   UNL A   1      30.789  24.680  24.407  1.00  0.00     0.038 A 
ATOM      6  C   UNL A   1      31.299  24.381  23.133  1.00  0.00     0.026 A 
ATOM      7  C   UNL A   1      30.856  26.033  24.850  1.00  0.00    -0.013 A 
ATOM      8  C   UNL A   1      31.910  25.347  22.333  1.00  0.00     0.003 A 
ATOM      9  C   UNL A   1      30.232  26.398  26.176  1.00  0.00     0.047 C 
ATOM     10  C   UNL A   1      32.030  26.649  22.793  1.00  0.00     0.016 A 
BRANCH   5  11
ATOM     11  N   UNL A   1      30.287  23.692  25.243  1.00  0.00    -0.381 N 
ATOM     12  H   UNL A   1      29.365  23.395  25.068  1.00  0.00     0.160 HD
BRANCH  11  13
ATOM     13  C   UNL A   1      30.976  23.052  26.348  1.00  0.00     0.149 C 
BRANCH  13  14
ATOM     14  C   UNL A   1      32.317  22.514  25.896  1.00  0.00    -0.024 A 
ATOM     15  C   UNL A   1      34.819  21.593  24.921  1.00  0.00     0.175 A 
ATOM     16  C   UNL A   1      34.690  22.865  25.507  1.00  0.00     0.064 A 
ATOM     17  C   UNL A   1      33.668  20.808  24.751  1.00  0.00     0.162 A 
ATOM     18  Br  UNL A   1      36.111  24.130  25.479  1.00  0.00    -0.047 Br
ATOM     19  C   UNL A   1      33.468  23.297  26.035  1.00  0.00     0.025 A 
ATOM     20  C   UNL A   1      32.435  21.273  25.252  1.00  0.00     0.056 A 
BRANCH  15  21
ATOM     21  O   UNL A   1      36.048  21.219  24.440  1.00  0.00    -0.489 OA
BRANCH  21  22
ATOM     22  C   UNL A   1      36.830  20.494  25.400  1.00  0.00     0.226 C 
ATOM     23  C   UNL A   1      38.089  19.922  24.774  1.00  0.00     0.049 C 
ENDBRANCH  21  22
ENDBRANCH  15  21
BRANCH  17  24
ATOM     24  O   UNL A   1      33.544  19.598  24.118  1.00  0.00    -0.493 OA
ATOM     25  C   UNL A   1      32.598  18.658  24.605  1.00  0.00     0.278 C 
ENDBRANCH  17  24
ENDBRANCH  13  14
ENDBRANCH  11  13
ENDBRANCH   5  11
ENDBRANCH   2   4
ENDBRANCH   1   2
BRANCH   1  26
ATOM     26  C   UNL A   1      33.163  29.757  25.737  1.00  0.00     0.275 C 
BRANCH  26  27
ATOM     27  C   UNL A   1      33.804  29.528  27.125  1.00  0.00     0.275 C 
BRANCH  27  28
ATOM     28  O   UNL A   1      35.196  29.186  27.381  1.00  0.00    -0.458 OA
BRANCH  28  29
ATOM     29  C   UNL A   1      36.149  29.977  27.911  1.00  0.00     0.338 C 
ATOM     30  O   UNL A   1      36.029  31.177  28.107  1.00  0.00    -0.246 OA
BRANCH  29  31
ATOM     31  C   UNL A   1      37.432  29.307  28.078  1.00  0.00     0.060 A 
ATOM     32  C   UNL A   1      38.430  29.489  27.111  1.00  0.00     0.016 A 
ATOM     33  C   UNL A   1      37.656  28.600  29.257  1.00  0.00     0.016 A 
ATOM     34  C   UNL A   1      39.717  29.064  27.369  1.00  0.00     0.010 A 
ATOM     35  C   UNL A   1      38.941  28.246  29.556  1.00  0.00     0.010 A 
ATOM     36  C   UNL A   1      39.944  28.439  28.589  1.00  0.00    -0.014 A 
BRANCH  36  37
ATOM     37  C   UNL A   1      41.083  27.579  28.801  1.00  0.00     0.031 A 
ATOM     38  C   UNL A   1      41.027  26.147  28.517  1.00  0.00     0.074 A 
ATOM     39  C   UNL A   1      42.180  28.317  29.074  1.00  0.00     0.049 A 
ATOM     40  N   UNL A   1      41.807  25.286  29.065  1.00  0.00    -0.248 NA
ATOM     41  C   UNL A   1      40.046  25.541  27.618  1.00  0.00     0.031 C 
ATOM     42  C   UNL A   1      43.589  28.010  28.963  1.00  0.00     0.029 A 
ATOM     43  N   UNL A   1      42.154  29.616  29.615  1.00  0.00    -0.354 N 
ATOM     44  C   UNL A   1      41.713  24.133  28.316  1.00  0.00     0.074 A 
ATOM     45  C   UNL A   1      40.495  24.280  27.552  1.00  0.00     0.031 C 
ATOM     46  C   UNL A   1      44.280  28.936  29.660  1.00  0.00     0.029 A 
ATOM     47  C   UNL A   1      43.314  29.770  30.369  1.00  0.00     0.049 A 
ATOM     48  H   UNL A   1      41.448  30.289  29.484  1.00  0.00     0.167 HD
ATOM     49  C   UNL A   1      42.807  23.318  28.253  1.00  0.00     0.037 A 
ATOM     50  C   UNL A   1      43.175  29.847  31.727  1.00  0.00     0.037 A 
ATOM     51  C   UNL A   1      43.893  23.899  29.044  1.00  0.00     0.049 A 
ATOM     52  C   UNL A   1      43.755  28.621  32.391  1.00  0.00     0.074 A 
ATOM     53  C   UNL A   1      44.950  24.712  28.664  1.00  0.00     0.029 A 
ATOM     54  N   UNL A   1      43.762  24.041  30.422  1.00  0.00    -0.354 N 
ATOM     55  N   UNL A   1      43.780  27.435  31.847  1.00  0.00    -0.248 NA
ATOM     56  C   UNL A   1      44.398  28.663  33.697  1.00  0.00     0.031 C 
ATOM     57  C   UNL A   1      45.428  25.381  29.815  1.00  0.00     0.029 A 
ATOM     58  C   UNL A   1      44.660  24.980  30.895  1.00  0.00     0.049 A 
ATOM     59  H   UNL A   1      43.123  23.543  30.980  1.00  0.00     0.167 HD
ATOM     60  C   UNL A   1      44.480  26.584  32.659  1.00  0.00     0.074 A 
ATOM     61  C   UNL A   1      44.832  27.396  33.812  1.00  0.00     0.031 C 
ATOM     62  C   UNL A   1      44.751  25.291  32.312  1.00  0.00     0.037 A 
BRANCH  49  63
ATOM     63  C   UNL A   1      43.040  22.253  27.200  1.00  0.00     0.064 A 
ATOM     64  C   UNL A   1      42.273  21.062  27.201  1.00  0.00     0.173 A 
ATOM     65  C   UNL A   1      44.011  22.321  26.185  1.00  0.00     0.173 A 
ATOM     66  F   UNL A   1      41.243  20.887  28.038  1.00  0.00    -0.203 F 
ATOM     67  C   UNL A   1      42.527  19.996  26.336  1.00  0.00     0.198 A 
ATOM     68  C   UNL A   1      44.285  21.239  25.334  1.00  0.00     0.198 A 
ATOM     69  F   UNL A   1      44.694  23.449  25.952  1.00  0.00    -0.203 F 
ATOM     70  F   UNL A   1      41.775  18.888  26.409  1.00  0.00    -0.200 F 
ATOM     71  C   UNL A   1      43.551  20.073  25.418  1.00  0.00     0.200 A 
ATOM     72  F   UNL A   1      45.268  21.338  24.427  1.00  0.00    -0.200 F 
ATOM     73  F   UNL A   1      43.811  19.041  24.605  1.00  0.00    -0.200 F 
ENDBRANCH  49  63
BRANCH  50  74
ATOM     74  C   UNL A   1      41.913  30.532  32.164  1.00  0.00     0.064 A 
ATOM     75  C   UNL A   1      41.822  31.938  32.085  1.00  0.00     0.173 A 
ATOM     76  C   UNL A   1      40.713  29.838  32.351  1.00  0.00     0.173 A 
ATOM     77  F   UNL A   1      42.930  32.669  31.882  1.00  0.00    -0.203 F 
ATOM     78  C   UNL A   1      40.592  32.600  32.114  1.00  0.00     0.198 A 
ATOM     79  C   UNL A   1      39.483  30.503  32.408  1.00  0.00     0.198 A 
ATOM     80  F   UNL A   1      40.714  28.502  32.389  1.00  0.00    -0.203 F 
ATOM     81  F   UNL A   1      40.543  33.929  31.936  1.00  0.00    -0.200 F 
ATOM     82  C   UNL A   1      39.420  31.880  32.265  1.00  0.00     0.200 A 
ATOM     83  F   UNL A   1      38.346  29.801  32.521  1.00  0.00    -0.200 F 
ATOM     84  F   UNL A   1      38.233  32.499  32.230  1.00  0.00    -0.200 F 
ENDBRANCH  50  74
BRANCH  62  85
ATOM     85  C   UNL A   1      45.269  24.220  33.239  1.00  0.00     0.064 A 
ATOM     86  C   UNL A   1      44.541  23.072  33.582  1.00  0.00     0.173 A 
ATOM     87  C   UNL A   1      46.611  24.251  33.696  1.00  0.00     0.173 A 
ATOM     88  F   UNL A   1      43.309  22.853  33.102  1.00  0.00    -0.203 F 
ATOM     89  C   UNL A   1      45.081  22.073  34.392  1.00  0.00     0.198 A 
ATOM     90  C   UNL A   1      47.170  23.215  34.438  1.00  0.00     0.198 A 
ATOM     91  F   UNL A   1      47.435  25.271  33.414  1.00  0.00    -0.203 F 
ATOM     92  F   UNL A   1      44.321  21.028  34.746  1.00  0.00    -0.200 F 
ATOM     93  C   UNL A   1      46.397  22.138  34.808  1.00  0.00     0.200 A 
ATOM     94  F   UNL A   1      48.467  23.265  34.775  1.00  0.00    -0.200 F 
ATOM     95  F   UNL A   1      46.925  21.152  35.545  1.00  0.00    -0.200 F 
ENDBRANCH  62  85
ENDBRANCH  36  37
ENDBRANCH  29  31
ENDBRANCH  28  29
ENDBRANCH  27  28
ENDBRANCH  26  27
ENDBRANCH   1  26
TORSDOF 17
ENDMDL
MODEL 2
REMARK VINA RESULT:     -12.0      3.650      5.942
REMARK SMILES CCOc1c(Br)cc(CNc2cccc(C(=O)OCCOC(=O)c3ccc(-c4c5nc(c(-c6c(F)c(F)c(F)c(F)c6F)c6ccc([nH]6)c(-c6c(F)c(F)c(F)c(F)c6F)c6nc(c(-c7c(F)c(F)c(F)c(F)c7F)c7ccc4[nH]7)C=C6)C=C5)cc3)c2C)cc1OC
REMARK SMILES IDX 18 1 16 2 17 3 15 4 11 5 12 6 87 7 13 8 88 9 14 10 10 11
REMARK SMILES IDX 9 13 8 14 4 15 5 16 90 17 6 18 7 19 89 20 3 21 2 22 1 23
REMARK SMILES IDX 91 24 92 25 19 26 20 27 21 28 22 29 23 30 24 31 25 32 86 33
REMARK SMILES IDX 26 34 85 35 27 36 28 37 29 38 79 39 30 40 84 41 78 42 80 43
REMARK SMILES IDX 31 44 83 45 77 46 76 47 32 49 64 50 44 51 63 52 45 53 48 54
REMARK SMILES IDX 62 55 81 56 46 57 47 58 61 60 82 61 49 62 33 63 34 64 42 65
REMARK SMILES IDX 35 66 36 67 40 68 43 69 37 70 38 71 41 72 39 73 65 74 66 75
REMARK SMILES IDX 74 76 67 77 68 78 72 79 75 80 69 81 70 82 73 83 71 84 50 85
REMARK SMILES IDX 51 86 59 87 52 88 53 89 57 90 60 91 54 92 55 93 58 94 56 95
REMARK H PARENT 10 12 80 48 48 59
REMARK Flexibility Score: inf
ROOT
ATOM      1  O   UNL A   1      33.698  33.672  29.293  1.00  0.00    -0.458 OA
ENDROOT
BRANCH   1   2
ATOM      2  C   UNL A   1      34.251  33.440  28.079  1.00  0.00     0.338 C 
ATOM      3  O   UNL A   1      34.746  34.268  27.342  1.00  0.00    -0.246 OA
BRANCH   2   4
ATOM      4  C   UNL A   1      34.196  31.973  27.822  1.00  0.00     0.065 A 
ATOM      5  C   UNL A   1      33.100  29.899  27.087  1.00  0.00     0.038 A 
ATOM      6  C   UNL A   1      34.316  29.237  27.323  1.00  0.00     0.026 A 
ATOM      7  C   UNL A   1      33.055  31.307  27.305  1.00  0.00    -0.013 A 
ATOM      8  C   UNL A   1      35.440  29.902  27.813  1.00  0.00     0.003 A 
ATOM      9  C   UNL A   1      31.788  32.057  26.971  1.00  0.00     0.047 C 
ATOM     10  C   UNL A   1      35.375  31.261  28.084  1.00  0.00     0.016 A 
BRANCH   5  11
ATOM     11  N   UNL A   1      31.954  29.211  26.711  1.00  0.00    -0.381 N 
ATOM     12  H   UNL A   1      31.398  29.632  26.016  1.00  0.00     0.160 HD
BRANCH  11  13
ATOM     13  C   UNL A   1      31.490  27.940  27.232  1.00  0.00     0.149 C 
BRANCH  13  14
ATOM     14  C   UNL A   1      31.793  26.824  26.255  1.00  0.00    -0.024 A 
ATOM     15  C   UNL A   1      32.508  24.734  24.472  1.00  0.00     0.175 A 
ATOM     16  C   UNL A   1      32.325  24.489  25.844  1.00  0.00     0.064 A 
ATOM     17  C   UNL A   1      32.408  26.053  24.002  1.00  0.00     0.162 A 
ATOM     18  Br  UNL A   1      32.763  22.812  26.630  1.00  0.00    -0.047 Br
ATOM     19  C   UNL A   1      31.920  25.509  26.713  1.00  0.00     0.025 A 
ATOM     20  C   UNL A   1      32.040  27.078  24.898  1.00  0.00     0.056 A 
BRANCH  15  21
ATOM     21  O   UNL A   1      32.885  23.689  23.667  1.00  0.00    -0.489 OA
BRANCH  21  22
ATOM     22  C   UNL A   1      34.173  23.880  23.064  1.00  0.00     0.226 C 
ATOM     23  C   UNL A   1      35.295  23.518  24.022  1.00  0.00     0.049 C 
ENDBRANCH  21  22
ENDBRANCH  15  21
BRANCH  17  24
ATOM     24  O   UNL A   1      32.648  26.533  22.740  1.00  0.00    -0.493 OA
ATOM     25  C   UNL A   1      31.710  26.264  21.709  1.00  0.00     0.278 C 
ENDBRANCH  17  24
ENDBRANCH  13  14
ENDBRANCH  11  13
ENDBRANCH   5  11
ENDBRANCH   2   4
ENDBRANCH   1   2
BRANCH   1  26
ATOM     26  C   UNL A   1      33.383  35.011  29.711  1.00  0.00     0.275 C 
BRANCH  26  27
ATOM     27  C   UNL A   1      33.038  35.339  31.181  1.00  0.00     0.275 C 
BRANCH  27  28
ATOM     28  O   UNL A   1      33.523  34.626  32.355  1.00  0.00    -0.458 OA
BRANCH  28  29
ATOM     29  C   UNL A   1      34.550  34.971  33.156  1.00  0.00     0.338 C 
ATOM     30  O   UNL A   1      34.549  35.926  33.917  1.00  0.00    -0.246 OA
BRANCH  29  31
ATOM     31  C   UNL A   1      35.761  34.198  32.911  1.00  0.00     0.060 A 
ATOM     32  C   UNL A   1      36.683  34.655  31.960  1.00  0.00     0.016 A 
ATOM     33  C   UNL A   1      36.009  33.092  33.720  1.00  0.00     0.016 A 
ATOM     34  C   UNL A   1      37.934  34.075  31.887  1.00  0.00     0.010 A 
ATOM     35  C   UNL A   1      37.268  32.563  33.710  1.00  0.00     0.010 A 
ATOM     36  C   UNL A   1      38.197  33.029  32.763  1.00  0.00    -0.014 A 
BRANCH  36  37
ATOM     37  C   UNL A   1      39.249  32.074  32.509  1.00  0.00     0.031 A 
ATOM     38  C   UNL A   1      39.024  30.886  31.690  1.00  0.00     0.074 A 
ATOM     39  C   UNL A   1      40.432  32.556  32.945  1.00  0.00     0.049 A 
ATOM     40  N   UNL A   1      39.738  29.821  31.777  1.00  0.00    -0.248 NA
ATOM     41  C   UNL A   1      37.935  30.766  30.722  1.00  0.00     0.031 C 
ATOM     42  C   UNL A   1      41.791  32.215  32.590  1.00  0.00     0.029 A 
ATOM     43  N   UNL A   1      40.575  33.526  33.955  1.00  0.00    -0.354 N 
ATOM     44  C   UNL A   1      39.480  29.077  30.646  1.00  0.00     0.074 A 
ATOM     45  C   UNL A   1      38.243  29.608  30.122  1.00  0.00     0.031 C 
ATOM     46  C   UNL A   1      42.616  32.729  33.526  1.00  0.00     0.029 A 
ATOM     47  C   UNL A   1      41.785  33.278  34.595  1.00  0.00     0.049 A 
ATOM     48  H   UNL A   1      39.938  34.245  34.168  1.00  0.00     0.167 HD
ATOM     49  C   UNL A   1      40.476  28.277  30.164  1.00  0.00     0.037 A 
ATOM     50  C   UNL A   1      41.733  32.812  35.880  1.00  0.00     0.037 A 
ATOM     51  C   UNL A   1      41.661  28.408  31.013  1.00  0.00     0.049 A 
ATOM     52  C   UNL A   1      42.217  31.384  35.948  1.00  0.00     0.074 A 
ATOM     53  C   UNL A   1      42.775  29.224  30.886  1.00  0.00     0.029 A 
ATOM     54  N   UNL A   1      41.625  27.993  32.341  1.00  0.00    -0.354 N 
ATOM     55  N   UNL A   1      42.085  30.518  34.980  1.00  0.00    -0.248 NA
ATOM     56  C   UNL A   1      42.934  30.849  37.097  1.00  0.00     0.031 C 
ATOM     57  C   UNL A   1      43.386  29.336  32.157  1.00  0.00     0.029 A 
ATOM     58  C   UNL A   1      42.643  28.594  33.059  1.00  0.00     0.049 A 
ATOM     59  H   UNL A   1      40.969  27.363  32.715  1.00  0.00     0.167 HD
ATOM     60  C   UNL A   1      42.735  29.362  35.320  1.00  0.00     0.074 A 
ATOM     61  C   UNL A   1      43.237  29.615  36.661  1.00  0.00     0.031 C 
ATOM     62  C   UNL A   1      42.847  28.301  34.468  1.00  0.00     0.037 A 
BRANCH  49  63
ATOM     63  C   UNL A   1      40.533  27.710  28.759  1.00  0.00     0.064 A 
ATOM     64  C   UNL A   1      39.933  26.462  28.462  1.00  0.00     0.173 A 
ATOM     65  C   UNL A   1      41.181  28.320  27.669  1.00  0.00     0.173 A 
ATOM     66  F   UNL A   1      39.194  25.803  29.363  1.00  0.00    -0.203 F 
ATOM     67  C   UNL A   1      40.062  25.834  27.222  1.00  0.00     0.198 A 
ATOM     68  C   UNL A   1      41.334  27.677  26.432  1.00  0.00     0.198 A 
ATOM     69  F   UNL A   1      41.645  29.573  27.750  1.00  0.00    -0.203 F 
ATOM     70  F   UNL A   1      39.486  24.640  27.020  1.00  0.00    -0.200 F 
ATOM     71  C   UNL A   1      40.785  26.429  26.213  1.00  0.00     0.200 A 
ATOM     72  F   UNL A   1      42.019  28.280  25.449  1.00  0.00    -0.200 F 
ATOM     73  F   UNL A   1      40.930  25.816  25.031  1.00  0.00    -0.200 F 
ENDBRANCH  49  63
BRANCH  50  74
ATOM     74  C   UNL A   1      40.579  33.357  36.669  1.00  0.00     0.064 A 
ATOM     75  C   UNL A   1      39.429  32.561  36.859  1.00  0.00     0.173 A 
ATOM     76  C   UNL A   1      40.700  34.484  37.490  1.00  0.00     0.173 A 
ATOM     77  F   UNL A   1      39.256  31.451  36.124  1.00  0.00    -0.203 F 
ATOM     78  C   UNL A   1      38.498  32.838  37.864  1.00  0.00     0.198 A 
ATOM     79  C   UNL A   1      39.754  34.777  38.478  1.00  0.00     0.198 A 
ATOM     80  F   UNL A   1      41.786  35.259  37.401  1.00  0.00    -0.203 F 
ATOM     81  F   UNL A   1      37.472  32.000  38.074  1.00  0.00    -0.200 F 
ATOM     82  C   UNL A   1      38.667  33.942  38.681  1.00  0.00     0.200 A 
ATOM     83  F   UNL A   1      39.937  35.827  39.291  1.00  0.00    -0.200 F 
ATOM     84  F   UNL A   1      37.816  34.179  39.687  1.00  0.00    -0.200 F 
ENDBRANCH  50  74
BRANCH  62  85
ATOM     85  C   UNL A   1      43.300  26.913  34.843  1.00  0.00     0.064 A 
ATOM     86  C   UNL A   1      42.421  25.846  35.075  1.00  0.00     0.173 A 
ATOM     87  C   UNL A   1      44.678  26.578  34.829  1.00  0.00     0.173 A 
ATOM     88  F   UNL A   1      41.093  25.998  34.979  1.00  0.00    -0.203 F 
ATOM     89  C   UNL A   1      42.883  24.560  35.357  1.00  0.00     0.198 A 
ATOM     90  C   UNL A   1      45.131  25.278  35.034  1.00  0.00     0.198 A 
ATOM     91  F   UNL A   1      45.630  27.490  34.587  1.00  0.00    -0.203 F 
ATOM     92  F   UNL A   1      42.003  23.589  35.636  1.00  0.00    -0.200 F 
ATOM     93  C   UNL A   1      44.234  24.273  35.324  1.00  0.00     0.200 A 
ATOM     94  F   UNL A   1      46.439  25.007  34.931  1.00  0.00    -0.200 F 
ATOM     95  F   UNL A   1      44.669  23.027  35.548  1.00  0.00    -0.200 F 
ENDBRANCH  62  85
ENDBRANCH  36  37
ENDBRANCH  29  31
ENDBRANCH  28  29
ENDBRANCH  27  28
ENDBRANCH  26  27
ENDBRANCH   1  26
TORSDOF 17
ENDMDL
MODEL 3
REMARK VINA RESULT:     -11.8      3.990      6.616
REMARK SMILES CCOc1c(Br)cc(CNc2cccc(C(=O)OCCOC(=O)c3ccc(-c4c5nc(c(-c6c(F)c(F)c(F)c(F)c6F)c6ccc([nH]6)c(-c6c(F)c(F)c(F)c(F)c6F)c6nc(c(-c7c(F)c(F)c(F)c(F)c7F)c7ccc4[nH]7)C=C6)C=C5)cc3)c2C)cc1OC
REMARK SMILES IDX 18 1 16 2 17 3 15 4 11 5 12 6 87 7 13 8 88 9 14 10 10 11
REMARK SMILES IDX 9 13 8 14 4 15 5 16 90 17 6 18 7 19 89 20 3 21 2 22 1 23
REMARK SMILES IDX 91 24 92 25 19 26 20 27 21 28 22 29 23 30 24 31 25 32 86 33
REMARK SMILES IDX 26 34 85 35 27 36 28 37 29 38 79 39 30 40 84 41 78 42 80 43
REMARK SMILES IDX 31 44 83 45 77 46 76 47 32 49 64 50 44 51 63 52 45 53 48 54
REMARK SMILES IDX 62 55 81 56 46 57 47 58 61 60 82 61 49 62 33 63 34 64 42 65
REMARK SMILES IDX 35 66 36 67 40 68 43 69 37 70 38 71 41 72 39 73 65 74 66 75
REMARK SMILES IDX 74 76 67 77 68 78 72 79 75 80 69 81 70 82 73 83 71 84 50 85
REMARK SMILES IDX 51 86 59 87 52 88 53 89 57 90 60 91 54 92 55 93 58 94 56 95
REMARK H PARENT 10 12 80 48 48 59
REMARK Flexibility Score: inf
ROOT
ATOM      1  O   UNL A   1      32.549  35.119  30.026  1.00  0.00    -0.458 OA
ENDROOT
BRANCH   1   2
ATOM      2  C   UNL A   1      33.375  35.413  28.994  1.00  0.00     0.338 C 
ATOM      3  O   UNL A   1      33.488  36.491  28.447  1.00  0.00    -0.246 OA
BRANCH   2   4
ATOM      4  C   UNL A   1      34.167  34.192  28.676  1.00  0.00     0.065 A 
ATOM      5  C   UNL A   1      34.495  31.972  27.673  1.00  0.00     0.038 A 
ATOM      6  C   UNL A   1      35.831  32.035  28.105  1.00  0.00     0.026 A 
ATOM      7  C   UNL A   1      33.659  33.096  27.933  1.00  0.00    -0.013 A 
ATOM      8  C   UNL A   1      36.329  33.124  28.819  1.00  0.00     0.003 A 
ATOM      9  C   UNL A   1      32.246  33.093  27.398  1.00  0.00     0.047 C 
ATOM     10  C   UNL A   1      35.496  34.190  29.124  1.00  0.00     0.016 A 
BRANCH   5  11
ATOM     11  N   UNL A   1      33.977  30.836  27.066  1.00  0.00    -0.381 N 
ATOM     12  H   UNL A   1      33.118  30.943  26.596  1.00  0.00     0.160 HD
BRANCH  11  13
ATOM     13  C   UNL A   1      34.564  29.510  27.051  1.00  0.00     0.149 C 
BRANCH  13  14
ATOM     14  C   UNL A   1      33.827  28.615  26.077  1.00  0.00    -0.024 A 
ATOM     15  C   UNL A   1      32.325  26.939  24.347  1.00  0.00     0.175 A 
ATOM     16  C   UNL A   1      32.085  28.324  24.409  1.00  0.00     0.064 A 
ATOM     17  C   UNL A   1      33.274  26.379  25.217  1.00  0.00     0.162 A 
ATOM     18  Br  UNL A   1      30.603  29.124  23.523  1.00  0.00    -0.047 Br
ATOM     19  C   UNL A   1      32.862  29.156  25.222  1.00  0.00     0.025 A 
ATOM     20  C   UNL A   1      34.021  27.226  26.061  1.00  0.00     0.056 A 
BRANCH  15  21
ATOM     21  O   UNL A   1      31.544  26.178  23.515  1.00  0.00    -0.489 OA
BRANCH  21  22
ATOM     22  C   UNL A   1      31.975  26.220  22.146  1.00  0.00     0.226 C 
ATOM     23  C   UNL A   1      32.818  25.008  21.791  1.00  0.00     0.049 C 
ENDBRANCH  21  22
ENDBRANCH  15  21
BRANCH  17  24
ATOM     24  O   UNL A   1      33.591  25.058  25.401  1.00  0.00    -0.493 OA
ATOM     25  C   UNL A   1      34.790  24.550  24.835  1.00  0.00     0.278 C 
ENDBRANCH  17  24
ENDBRANCH  13  14
ENDBRANCH  11  13
ENDBRANCH   5  11
ENDBRANCH   2   4
ENDBRANCH   1   2
BRANCH   1  26
ATOM     26  C   UNL A   1      32.265  36.098  31.040  1.00  0.00     0.275 C 
BRANCH  26  27
ATOM     27  C   UNL A   1      33.248  36.365  32.203  1.00  0.00     0.275 C 
BRANCH  27  28
ATOM     28  O   UNL A   1      34.574  35.784  32.355  1.00  0.00    -0.458 OA
BRANCH  28  29
ATOM     29  C   UNL A   1      35.075  35.161  33.440  1.00  0.00     0.338 C 
ATOM     30  O   UNL A   1      34.707  35.356  34.588  1.00  0.00    -0.246 OA
BRANCH  29  31
ATOM     31  C   UNL A   1      36.242  34.338  33.149  1.00  0.00     0.060 A 
ATOM     32  C   UNL A   1      37.131  34.744  32.144  1.00  0.00     0.016 A 
ATOM     33  C   UNL A   1      36.490  33.236  33.963  1.00  0.00     0.016 A 
ATOM     34  C   UNL A   1      38.354  34.116  32.019  1.00  0.00     0.010 A 
ATOM     35  C   UNL A   1      37.726  32.659  33.900  1.00  0.00     0.010 A 
ATOM     36  C   UNL A   1      38.623  33.075  32.899  1.00  0.00    -0.014 A 
BRANCH  36  37
ATOM     37  C   UNL A   1      39.623  32.076  32.610  1.00  0.00     0.031 A 
ATOM     38  C   UNL A   1      39.329  30.915  31.775  1.00  0.00     0.074 A 
ATOM     39  C   UNL A   1      40.835  32.495  33.033  1.00  0.00     0.049 A 
ATOM     40  N   UNL A   1      39.994  29.816  31.831  1.00  0.00    -0.248 NA
ATOM     41  C   UNL A   1      38.219  30.863  30.825  1.00  0.00     0.031 C 
ATOM     42  C   UNL A   1      42.171  32.097  32.647  1.00  0.00     0.029 A 
ATOM     43  N   UNL A   1      41.041  33.439  34.056  1.00  0.00    -0.354 N 
ATOM     44  C   UNL A   1      39.681  29.106  30.692  1.00  0.00     0.074 A 
ATOM     45  C   UNL A   1      38.462  29.703  30.200  1.00  0.00     0.031 C 
ATOM     46  C   UNL A   1      43.034  32.555  33.576  1.00  0.00     0.029 A 
ATOM     47  C   UNL A   1      42.250  33.123  34.670  1.00  0.00     0.049 A 
ATOM     48  H   UNL A   1      40.443  34.183  34.293  1.00  0.00     0.167 HD
ATOM     49  C   UNL A   1      40.630  28.269  30.178  1.00  0.00     0.037 A 
ATOM     50  C   UNL A   1      42.198  32.637  35.947  1.00  0.00     0.037 A 
ATOM     51  C   UNL A   1      41.834  28.330  31.008  1.00  0.00     0.049 A 
ATOM     52  C   UNL A   1      42.616  31.187  35.982  1.00  0.00     0.074 A 
ATOM     53  C   UNL A   1      42.983  29.094  30.874  1.00  0.00     0.029 A 
ATOM     54  N   UNL A   1      41.802  27.893  32.328  1.00  0.00    -0.354 N 
ATOM     55  N   UNL A   1      42.426  30.346  35.002  1.00  0.00    -0.248 NA
ATOM     56  C   UNL A   1      43.327  30.599  37.109  1.00  0.00     0.031 C 
ATOM     57  C   UNL A   1      43.621  29.155  32.135  1.00  0.00     0.029 A 
ATOM     58  C   UNL A   1      42.860  28.432  33.038  1.00  0.00     0.049 A 
ATOM     59  H   UNL A   1      41.124  27.287  32.704  1.00  0.00     0.167 HD
ATOM     60  C   UNL A   1      43.027  29.155  35.310  1.00  0.00     0.074 A 
ATOM     61  C   UNL A   1      43.564  29.360  36.646  1.00  0.00     0.031 C 
ATOM     62  C   UNL A   1      43.074  28.106  34.438  1.00  0.00     0.037 A 
BRANCH  49  63
ATOM     63  C   UNL A   1      40.636  27.725  28.763  1.00  0.00     0.064 A 
ATOM     64  C   UNL A   1      39.956  26.522  28.452  1.00  0.00     0.173 A 
ATOM     65  C   UNL A   1      41.308  28.313  27.676  1.00  0.00     0.173 A 
ATOM     66  F   UNL A   1      39.187  25.895  29.350  1.00  0.00    -0.203 F 
ATOM     67  C   UNL A   1      40.032  25.910  27.199  1.00  0.00     0.198 A 
ATOM     68  C   UNL A   1      41.407  27.685  26.426  1.00  0.00     0.198 A 
ATOM     69  F   UNL A   1      41.851  29.534  27.773  1.00  0.00    -0.203 F 
ATOM     70  F   UNL A   1      39.380  24.758  26.984  1.00  0.00    -0.200 F 
ATOM     71  C   UNL A   1      40.779  26.477  26.192  1.00  0.00     0.200 A 
ATOM     72  F   UNL A   1      42.117  28.262  25.445  1.00  0.00    -0.200 F 
ATOM     73  F   UNL A   1      40.872  25.878  24.997  1.00  0.00    -0.200 F 
ENDBRANCH  49  63
BRANCH  50  74
ATOM     74  C   UNL A   1      41.084  33.221  36.767  1.00  0.00     0.064 A 
ATOM     75  C   UNL A   1      39.901  32.477  36.962  1.00  0.00     0.173 A 
ATOM     76  C   UNL A   1      41.274  34.325  37.605  1.00  0.00     0.173 A 
ATOM     77  F   UNL A   1      39.663  31.391  36.210  1.00  0.00    -0.203 F 
ATOM     78  C   UNL A   1      39.002  32.779  37.988  1.00  0.00     0.198 A 
ATOM     79  C   UNL A   1      40.359  34.644  38.615  1.00  0.00     0.198 A 
ATOM     80  F   UNL A   1      42.393  35.050  37.511  1.00  0.00    -0.203 F 
ATOM     81  F   UNL A   1      37.940  31.987  38.201  1.00  0.00    -0.200 F 
ATOM     82  C   UNL A   1      39.238  33.857  38.822  1.00  0.00     0.200 A 
ATOM     83  F   UNL A   1      40.606  35.668  39.444  1.00  0.00    -0.200 F 
ATOM     84  F   UNL A   1      38.415  34.116  39.847  1.00  0.00    -0.200 F 
ENDBRANCH  50  74
BRANCH  62  85
ATOM     85  C   UNL A   1      43.468  26.691  34.781  1.00  0.00     0.064 A 
ATOM     86  C   UNL A   1      44.794  26.281  34.977  1.00  0.00     0.173 A 
ATOM     87  C   UNL A   1      42.478  25.721  35.080  1.00  0.00     0.173 A 
ATOM     88  F   UNL A   1      45.818  27.139  34.863  1.00  0.00    -0.203 F 
ATOM     89  C   UNL A   1      45.113  24.978  35.358  1.00  0.00     0.198 A 
ATOM     90  C   UNL A   1      42.799  24.445  35.535  1.00  0.00     0.198 A 
ATOM     91  F   UNL A   1      41.168  25.984  34.972  1.00  0.00    -0.203 F 
ATOM     92  F   UNL A   1      46.399  24.617  35.467  1.00  0.00    -0.200 F 
ATOM     93  C   UNL A   1      44.117  24.065  35.649  1.00  0.00     0.200 A 
ATOM     94  F   UNL A   1      41.818  23.597  35.876  1.00  0.00    -0.200 F 
ATOM     95  F   UNL A   1      44.428  22.829  36.060  1.00  0.00    -0.200 F 
ENDBRANCH  62  85
ENDBRANCH  36  37
ENDBRANCH  29  31
ENDBRANCH  28  29
ENDBRANCH  27  28
ENDBRANCH  26  27
ENDBRANCH   1  26
TORSDOF 17
ENDMDL
