MODEL 1
REMARK VINA RESULT:     -14.2      0.000      0.000
REMARK SMILES Cc1cc2c(=O)cc(-c3ccc(F)cc3)oc2c(C(=O)OCCOC(=O)c2ccc(-c3c4nc(c(-c5c(F)c(F)c(F)c(F)c5F)c5ccc([nH]5)c(-c5c(F)c(F)c(F)c(F)c5F)c5nc(c(-c6c(F)c(F)c(F)c(F)c6F)c6ccc3[nH]6)C=C5)C=C4)cc2)c1C
REMARK SMILES IDX 23 1 22 2 21 3 19 4 20 5 18 6 1 7 2 8 3 9 90 10 4 11 91 12
REMARK SMILES IDX 5 13 17 14 6 15 7 16 16 17 8 18 9 19 10 20 15 21 11 22 14 23
REMARK SMILES IDX 12 24 13 25 24 26 25 27 26 28 27 29 28 30 89 31 29 32 88 33
REMARK SMILES IDX 30 34 31 35 32 36 82 37 33 38 87 39 81 40 83 41 34 42 86 43
REMARK SMILES IDX 80 44 79 45 35 47 67 48 47 49 66 50 48 51 51 52 65 53 84 54
REMARK SMILES IDX 49 55 50 56 64 58 85 59 52 60 36 61 37 62 45 63 38 64 39 65
REMARK SMILES IDX 43 66 46 67 40 68 41 69 44 70 42 71 68 72 69 73 77 74 70 75
REMARK SMILES IDX 71 76 75 77 78 78 72 79 73 80 76 81 74 82 53 83 54 84 62 85
REMARK SMILES IDX 55 86 56 87 60 88 63 89 57 90 58 91 61 92 59 93
REMARK H PARENT 83 46 51 57
REMARK Flexibility Score: inf
ROOT
ATOM      1  C   UNL A   1      33.186  29.464  24.533  1.00  0.00     0.275 C 
ENDROOT
BRANCH   1   2
ATOM      2  C   UNL A   1      34.037  28.324  23.978  1.00  0.00     0.275 C 
BRANCH   2   3
ATOM      3  O   UNL A   1      33.664  28.014  22.611  1.00  0.00    -0.458 OA
BRANCH   3   4
ATOM      4  C   UNL A   1      33.216  26.753  22.383  1.00  0.00     0.342 C 
ATOM      5  O   UNL A   1      33.368  26.085  21.373  1.00  0.00    -0.246 OA
BRANCH   4   6
ATOM      6  C   UNL A   1      32.268  26.333  23.430  1.00  0.00     0.106 A 
ATOM      7  C   UNL A   1      28.460  26.627  23.894  1.00  0.00     0.044 C 
ATOM      8  C   UNL A   1      29.902  26.220  24.036  1.00  0.00    -0.046 A 
ATOM      9  C   UNL A   1      30.226  25.181  24.919  1.00  0.00     0.019 A 
ATOM     10  C   UNL A   1      30.933  26.826  23.294  1.00  0.00    -0.030 A 
ATOM     11  C   UNL A   1      31.548  24.739  25.068  1.00  0.00     0.066 A 
ATOM     12  C   UNL A   1      30.633  27.952  22.328  1.00  0.00     0.046 C 
ATOM     13  C   UNL A   1      31.817  23.617  25.978  1.00  0.00     0.193 A 
ATOM     14  C   UNL A   1      32.594  25.300  24.334  1.00  0.00     0.153 A 
ATOM     15  O   UNL A   1      30.933  23.072  26.626  1.00  0.00    -0.289 OA
ATOM     16  C   UNL A   1      33.203  23.151  26.057  1.00  0.00     0.100 A 
ATOM     17  O   UNL A   1      33.900  24.851  24.482  1.00  0.00    -0.455 OA
ATOM     18  C   UNL A   1      34.144  23.772  25.336  1.00  0.00     0.138 A 
BRANCH  18  19
ATOM     19  C   UNL A   1      35.513  23.189  25.378  1.00  0.00     0.018 A 
ATOM     20  C   UNL A   1      36.991  24.067  26.112  1.00  0.00     0.015 A 
ATOM     21  C   UNL A   1      35.671  21.440  24.807  1.00  0.00     0.015 A 
ATOM     22  C   UNL A   1      38.623  23.174  26.276  1.00  0.00     0.040 A 
ATOM     23  C   UNL A   1      37.278  20.538  24.944  1.00  0.00     0.040 A 
ATOM     24  C   UNL A   1      38.781  21.429  25.674  1.00  0.00     0.123 A 
ATOM     25  F   UNL A   1      39.944  20.783  25.828  1.00  0.00    -0.207 F 
ENDBRANCH  18  19
ENDBRANCH   4   6
ENDBRANCH   3   4
ENDBRANCH   2   3
ENDBRANCH   1   2
BRANCH   1  26
ATOM     26  O   UNL A   1      33.210  29.340  25.963  1.00  0.00    -0.458 OA
BRANCH  26  27
ATOM     27  C   UNL A   1      33.167  30.491  26.667  1.00  0.00     0.338 C 
ATOM     28  O   UNL A   1      32.275  31.321  26.679  1.00  0.00    -0.246 OA
BRANCH  27  29
ATOM     29  C   UNL A   1      34.312  30.499  27.603  1.00  0.00     0.060 A 
ATOM     30  C   UNL A   1      34.663  29.361  28.316  1.00  0.00     0.016 A 
ATOM     31  C   UNL A   1      35.169  31.599  27.600  1.00  0.00     0.016 A 
ATOM     32  C   UNL A   1      35.920  29.300  28.928  1.00  0.00     0.010 A 
ATOM     33  C   UNL A   1      36.468  31.486  28.071  1.00  0.00     0.010 A 
ATOM     34  C   UNL A   1      36.900  30.295  28.666  1.00  0.00    -0.014 A 
BRANCH  34  35
ATOM     35  C   UNL A   1      38.587  30.021  28.977  1.00  0.00     0.031 A 
ATOM     36  C   UNL A   1      38.320  30.413  30.724  1.00  0.00     0.074 A 
ATOM     37  C   UNL A   1      40.094  29.415  28.018  1.00  0.00     0.049 A 
ATOM     38  N   UNL A   1      38.808  29.780  31.773  1.00  0.00    -0.248 NA
ATOM     39  C   UNL A   1      37.584  31.635  31.115  1.00  0.00     0.031 C 
ATOM     40  C   UNL A   1      40.470  28.980  26.442  1.00  0.00     0.029 A 
ATOM     41  N   UNL A   1      41.511  28.898  28.420  1.00  0.00    -0.354 N 
ATOM     42  C   UNL A   1      38.670  30.617  32.844  1.00  0.00     0.074 A 
ATOM     43  C   UNL A   1      37.753  31.657  32.435  1.00  0.00     0.031 C 
ATOM     44  C   UNL A   1      41.467  28.078  26.366  1.00  0.00     0.029 A 
ATOM     45  C   UNL A   1      42.025  27.874  27.665  1.00  0.00     0.049 A 
ATOM     46  H   UNL A   1      42.010  29.286  29.175  1.00  0.00     0.167 HD
ATOM     47  C   UNL A   1      39.444  30.642  33.953  1.00  0.00     0.037 A 
ATOM     48  C   UNL A   1      42.782  26.857  28.127  1.00  0.00     0.037 A 
ATOM     49  C   UNL A   1      40.647  29.848  34.131  1.00  0.00     0.049 A 
ATOM     50  C   UNL A   1      43.165  26.838  29.604  1.00  0.00     0.074 A 
ATOM     51  C   UNL A   1      41.533  29.910  35.192  1.00  0.00     0.029 A 
ATOM     52  N   UNL A   1      41.196  28.938  33.212  1.00  0.00    -0.354 N 
ATOM     53  N   UNL A   1      42.693  27.540  30.612  1.00  0.00    -0.248 NA
ATOM     54  C   UNL A   1      44.220  25.888  29.980  1.00  0.00     0.031 C 
ATOM     55  C   UNL A   1      42.661  29.153  34.868  1.00  0.00     0.029 A 
ATOM     56  C   UNL A   1      42.452  28.521  33.648  1.00  0.00     0.049 A 
ATOM     57  H   UNL A   1      40.757  28.639  32.383  1.00  0.00     0.167 HD
ATOM     58  C   UNL A   1      43.374  27.112  31.746  1.00  0.00     0.074 A 
ATOM     59  C   UNL A   1      44.279  26.063  31.293  1.00  0.00     0.031 C 
ATOM     60  C   UNL A   1      43.325  27.533  33.039  1.00  0.00     0.037 A 
BRANCH  47  61
ATOM     61  C   UNL A   1      39.121  31.715  34.947  1.00  0.00     0.064 A 
ATOM     62  C   UNL A   1      39.591  33.024  34.772  1.00  0.00     0.173 A 
ATOM     63  C   UNL A   1      38.360  31.436  36.093  1.00  0.00     0.173 A 
ATOM     64  F   UNL A   1      40.345  33.333  33.706  1.00  0.00    -0.203 F 
ATOM     65  C   UNL A   1      39.319  34.014  35.713  1.00  0.00     0.198 A 
ATOM     66  C   UNL A   1      38.072  32.433  37.022  1.00  0.00     0.198 A 
ATOM     67  F   UNL A   1      37.905  30.194  36.319  1.00  0.00    -0.203 F 
ATOM     68  F   UNL A   1      39.809  35.249  35.544  1.00  0.00    -0.200 F 
ATOM     69  C   UNL A   1      38.557  33.718  36.834  1.00  0.00     0.200 A 
ATOM     70  F   UNL A   1      37.338  32.146  38.106  1.00  0.00    -0.200 F 
ATOM     71  F   UNL A   1      38.299  34.671  37.740  1.00  0.00    -0.200 F 
ENDBRANCH  47  61
BRANCH  48  72
ATOM     72  C   UNL A   1      43.114  25.691  27.267  1.00  0.00     0.064 A 
ATOM     73  C   UNL A   1      42.389  24.493  27.389  1.00  0.00     0.173 A 
ATOM     74  C   UNL A   1      44.177  25.713  26.357  1.00  0.00     0.173 A 
ATOM     75  F   UNL A   1      41.375  24.409  28.262  1.00  0.00    -0.203 F 
ATOM     76  C   UNL A   1      42.732  23.360  26.654  1.00  0.00     0.198 A 
ATOM     77  C   UNL A   1      44.505  24.586  25.604  1.00  0.00     0.198 A 
ATOM     78  F   UNL A   1      44.909  26.827  26.209  1.00  0.00    -0.203 F 
ATOM     79  F   UNL A   1      42.054  22.216  26.831  1.00  0.00    -0.200 F 
ATOM     80  C   UNL A   1      43.789  23.408  25.760  1.00  0.00     0.200 A 
ATOM     81  F   UNL A   1      45.527  24.636  24.740  1.00  0.00    -0.200 F 
ATOM     82  F   UNL A   1      44.128  22.317  25.060  1.00  0.00    -0.200 F 
ENDBRANCH  48  72
BRANCH  60  83
ATOM     83  C   UNL A   1      44.400  26.975  33.945  1.00  0.00     0.064 A 
ATOM     84  C   UNL A   1      44.155  25.829  34.723  1.00  0.00     0.173 A 
ATOM     85  C   UNL A   1      45.693  27.518  33.967  1.00  0.00     0.173 A 
ATOM     86  F   UNL A   1      42.936  25.267  34.730  1.00  0.00    -0.203 F 
ATOM     87  C   UNL A   1      45.155  25.265  35.509  1.00  0.00     0.198 A 
ATOM     88  C   UNL A   1      46.698  26.936  34.738  1.00  0.00     0.198 A 
ATOM     89  F   UNL A   1      45.985  28.599  33.231  1.00  0.00    -0.203 F 
ATOM     90  F   UNL A   1      44.886  24.191  36.265  1.00  0.00    -0.200 F 
ATOM     91  C   UNL A   1      46.427  25.815  35.511  1.00  0.00     0.200 A 
ATOM     92  F   UNL A   1      47.933  27.456  34.732  1.00  0.00    -0.200 F 
ATOM     93  F   UNL A   1      47.393  25.263  36.258  1.00  0.00    -0.200 F 
ENDBRANCH  60  83
ENDBRANCH  34  35
ENDBRANCH  27  29
ENDBRANCH  26  27
ENDBRANCH   1  26
TORSDOF 12
ENDMDL
MODEL 2
REMARK VINA RESULT:     -14.2      0.137      1.580
REMARK SMILES Cc1cc2c(=O)cc(-c3ccc(F)cc3)oc2c(C(=O)OCCOC(=O)c2ccc(-c3c4nc(c(-c5c(F)c(F)c(F)c(F)c5F)c5ccc([nH]5)c(-c5c(F)c(F)c(F)c(F)c5F)c5nc(c(-c6c(F)c(F)c(F)c(F)c6F)c6ccc3[nH]6)C=C5)C=C4)cc2)c1C
REMARK SMILES IDX 23 1 22 2 21 3 19 4 20 5 18 6 1 7 2 8 3 9 90 10 4 11 91 12
REMARK SMILES IDX 5 13 17 14 6 15 7 16 16 17 8 18 9 19 10 20 15 21 11 22 14 23
REMARK SMILES IDX 12 24 13 25 24 26 25 27 26 28 27 29 28 30 89 31 29 32 88 33
REMARK SMILES IDX 30 34 31 35 32 36 82 37 33 38 87 39 81 40 83 41 34 42 86 43
REMARK SMILES IDX 80 44 79 45 35 47 67 48 47 49 66 50 48 51 51 52 65 53 84 54
REMARK SMILES IDX 49 55 50 56 64 58 85 59 52 60 36 61 37 62 45 63 38 64 39 65
REMARK SMILES IDX 43 66 46 67 40 68 41 69 44 70 42 71 68 72 69 73 77 74 70 75
REMARK SMILES IDX 71 76 75 77 78 78 72 79 73 80 76 81 74 82 53 83 54 84 62 85
REMARK SMILES IDX 55 86 56 87 60 88 63 89 57 90 58 91 61 92 59 93
REMARK H PARENT 83 46 51 57
REMARK Flexibility Score: inf
ROOT
ATOM      1  C   UNL A   1      33.152  29.446  24.551  1.00  0.00     0.275 C 
ENDROOT
BRANCH   1   2
ATOM      2  C   UNL A   1      34.030  28.341  23.967  1.00  0.00     0.275 C 
BRANCH   2   3
ATOM      3  O   UNL A   1      33.639  28.032  22.605  1.00  0.00    -0.458 OA
BRANCH   3   4
ATOM      4  C   UNL A   1      33.197  26.768  22.380  1.00  0.00     0.342 C 
ATOM      5  O   UNL A   1      33.358  26.096  21.374  1.00  0.00    -0.246 OA
BRANCH   4   6
ATOM      6  C   UNL A   1      32.243  26.351  23.422  1.00  0.00     0.106 A 
ATOM      7  C   UNL A   1      28.436  26.673  23.878  1.00  0.00     0.044 C 
ATOM      8  C   UNL A   1      29.875  26.254  24.022  1.00  0.00    -0.046 A 
ATOM      9  C   UNL A   1      30.187  25.209  24.900  1.00  0.00     0.019 A 
ATOM     10  C   UNL A   1      30.912  26.855  23.285  1.00  0.00    -0.030 A 
ATOM     11  C   UNL A   1      31.506  24.755  25.050  1.00  0.00     0.066 A 
ATOM     12  C   UNL A   1      30.624  27.989  22.324  1.00  0.00     0.046 C 
ATOM     13  C   UNL A   1      31.763  23.626  25.956  1.00  0.00     0.193 A 
ATOM     14  C   UNL A   1      32.558  25.311  24.322  1.00  0.00     0.153 A 
ATOM     15  O   UNL A   1      30.873  23.085  26.599  1.00  0.00    -0.289 OA
ATOM     16  C   UNL A   1      33.145  23.149  26.036  1.00  0.00     0.100 A 
ATOM     17  O   UNL A   1      33.859  24.851  24.472  1.00  0.00    -0.455 OA
ATOM     18  C   UNL A   1      34.093  23.766  25.321  1.00  0.00     0.138 A 
BRANCH  18  19
ATOM     19  C   UNL A   1      35.457  23.172  25.364  1.00  0.00     0.018 A 
ATOM     20  C   UNL A   1      36.940  24.035  26.103  1.00  0.00     0.015 A 
ATOM     21  C   UNL A   1      35.601  21.423  24.788  1.00  0.00     0.015 A 
ATOM     22  C   UNL A   1      38.565  23.128  26.268  1.00  0.00     0.040 A 
ATOM     23  C   UNL A   1      37.201  20.508  24.924  1.00  0.00     0.040 A 
ATOM     24  C   UNL A   1      38.710  21.384  25.661  1.00  0.00     0.123 A 
ATOM     25  F   UNL A   1      39.868  20.728  25.815  1.00  0.00    -0.207 F 
ENDBRANCH  18  19
ENDBRANCH   4   6
ENDBRANCH   3   4
ENDBRANCH   2   3
ENDBRANCH   1   2
BRANCH   1  26
ATOM     26  O   UNL A   1      33.239  29.332  25.980  1.00  0.00    -0.458 OA
BRANCH  26  27
ATOM     27  C   UNL A   1      33.194  30.486  26.679  1.00  0.00     0.338 C 
ATOM     28  O   UNL A   1      32.301  31.316  26.685  1.00  0.00    -0.246 OA
BRANCH  27  29
ATOM     29  C   UNL A   1      34.338  30.500  27.616  1.00  0.00     0.060 A 
ATOM     30  C   UNL A   1      34.686  29.365  28.338  1.00  0.00     0.016 A 
ATOM     31  C   UNL A   1      35.196  31.598  27.606  1.00  0.00     0.016 A 
ATOM     32  C   UNL A   1      35.942  29.308  28.952  1.00  0.00     0.010 A 
ATOM     33  C   UNL A   1      36.494  31.487  28.080  1.00  0.00     0.010 A 
ATOM     34  C   UNL A   1      36.923  30.299  28.684  1.00  0.00    -0.014 A 
BRANCH  34  35
ATOM     35  C   UNL A   1      38.609  30.026  29.000  1.00  0.00     0.031 A 
ATOM     36  C   UNL A   1      38.338  30.422  30.746  1.00  0.00     0.074 A 
ATOM     37  C   UNL A   1      40.119  29.417  28.046  1.00  0.00     0.049 A 
ATOM     38  N   UNL A   1      38.823  29.791  31.797  1.00  0.00    -0.248 NA
ATOM     39  C   UNL A   1      37.602  31.645  31.133  1.00  0.00     0.031 C 
ATOM     40  C   UNL A   1      40.499  28.979  26.472  1.00  0.00     0.029 A 
ATOM     41  N   UNL A   1      41.535  28.901  28.453  1.00  0.00    -0.354 N 
ATOM     42  C   UNL A   1      38.683  30.631  32.866  1.00  0.00     0.074 A 
ATOM     43  C   UNL A   1      37.767  31.670  32.453  1.00  0.00     0.031 C 
ATOM     44  C   UNL A   1      41.495  28.076  26.401  1.00  0.00     0.029 A 
ATOM     45  C   UNL A   1      42.050  27.875  27.701  1.00  0.00     0.049 A 
ATOM     46  H   UNL A   1      42.032  29.291  29.208  1.00  0.00     0.167 HD
ATOM     47  C   UNL A   1      39.454  30.658  33.977  1.00  0.00     0.037 A 
ATOM     48  C   UNL A   1      42.805  26.859  28.167  1.00  0.00     0.037 A 
ATOM     49  C   UNL A   1      40.658  29.864  34.160  1.00  0.00     0.049 A 
ATOM     50  C   UNL A   1      43.186  26.843  29.645  1.00  0.00     0.074 A 
ATOM     51  C   UNL A   1      41.540  29.928  35.223  1.00  0.00     0.029 A 
ATOM     52  N   UNL A   1      41.208  28.952  33.244  1.00  0.00    -0.354 N 
ATOM     53  N   UNL A   1      42.711  27.548  30.651  1.00  0.00    -0.248 NA
ATOM     54  C   UNL A   1      44.239  25.893  30.026  1.00  0.00     0.031 C 
ATOM     55  C   UNL A   1      42.669  29.170  34.903  1.00  0.00     0.029 A 
ATOM     56  C   UNL A   1      42.463  28.535  33.684  1.00  0.00     0.049 A 
ATOM     57  H   UNL A   1      40.771  28.651  32.415  1.00  0.00     0.167 HD
ATOM     58  C   UNL A   1      43.389  27.121  31.787  1.00  0.00     0.074 A 
ATOM     59  C   UNL A   1      44.294  26.072  31.339  1.00  0.00     0.031 C 
ATOM     60  C   UNL A   1      43.337  27.546  33.079  1.00  0.00     0.037 A 
BRANCH  47  61
ATOM     61  C   UNL A   1      39.130  31.733  34.968  1.00  0.00     0.064 A 
ATOM     62  C   UNL A   1      39.614  33.038  34.799  1.00  0.00     0.173 A 
ATOM     63  C   UNL A   1      38.352  31.461  36.105  1.00  0.00     0.173 A 
ATOM     64  F   UNL A   1      40.383  33.340  33.743  1.00  0.00    -0.203 F 
ATOM     65  C   UNL A   1      39.339  34.030  35.738  1.00  0.00     0.198 A 
ATOM     66  C   UNL A   1      38.063  32.459  37.031  1.00  0.00     0.198 A 
ATOM     67  F   UNL A   1      37.884  30.222  36.324  1.00  0.00    -0.203 F 
ATOM     68  F   UNL A   1      39.842  35.261  35.576  1.00  0.00    -0.200 F 
ATOM     69  C   UNL A   1      38.561  33.740  36.849  1.00  0.00     0.200 A 
ATOM     70  F   UNL A   1      37.313  32.178  38.105  1.00  0.00    -0.200 F 
ATOM     71  F   UNL A   1      38.301  34.695  37.753  1.00  0.00    -0.200 F 
ENDBRANCH  47  61
BRANCH  48  72
ATOM     72  C   UNL A   1      43.140  25.691  27.310  1.00  0.00     0.064 A 
ATOM     73  C   UNL A   1      44.209  25.764  26.401  1.00  0.00     0.173 A 
ATOM     74  C   UNL A   1      42.386  24.512  27.329  1.00  0.00     0.173 A 
ATOM     75  F   UNL A   1      44.952  26.878  26.327  1.00  0.00    -0.203 F 
ATOM     76  C   UNL A   1      44.493  24.714  25.530  1.00  0.00     0.198 A 
ATOM     77  C   UNL A   1      42.685  23.453  26.473  1.00  0.00     0.198 A 
ATOM     78  F   UNL A   1      41.346  24.394  28.167  1.00  0.00    -0.203 F 
ATOM     79  F   UNL A   1      45.488  24.833  24.639  1.00  0.00    -0.200 F 
ATOM     80  C   UNL A   1      43.732  23.558  25.569  1.00  0.00     0.200 A 
ATOM     81  F   UNL A   1      41.946  22.335  26.511  1.00  0.00    -0.200 F 
ATOM     82  F   UNL A   1      43.995  22.551  24.724  1.00  0.00    -0.200 F 
ENDBRANCH  48  72
BRANCH  60  83
ATOM     83  C   UNL A   1      44.410  26.990  33.989  1.00  0.00     0.064 A 
ATOM     84  C   UNL A   1      45.659  27.629  34.093  1.00  0.00     0.173 A 
ATOM     85  C   UNL A   1      44.166  25.888  34.820  1.00  0.00     0.173 A 
ATOM     86  F   UNL A   1      45.938  28.693  33.325  1.00  0.00    -0.203 F 
ATOM     87  C   UNL A   1      46.631  27.169  34.975  1.00  0.00     0.198 A 
ATOM     88  C   UNL A   1      45.135  25.444  35.719  1.00  0.00     0.198 A 
ATOM     89  F   UNL A   1      42.987  25.253  34.773  1.00  0.00    -0.203 F 
ATOM     90  F   UNL A   1      47.824  27.777  35.033  1.00  0.00    -0.200 F 
ATOM     91  C   UNL A   1      46.367  26.081  35.793  1.00  0.00     0.200 A 
ATOM     92  F   UNL A   1      44.877  24.402  36.520  1.00  0.00    -0.200 F 
ATOM     93  F   UNL A   1      47.299  25.646  36.651  1.00  0.00    -0.200 F 
ENDBRANCH  60  83
ENDBRANCH  34  35
ENDBRANCH  27  29
ENDBRANCH  26  27
ENDBRANCH   1  26
TORSDOF 12
ENDMDL
MODEL 3
REMARK VINA RESULT:     -13.7      3.845      9.699
REMARK SMILES Cc1cc2c(=O)cc(-c3ccc(F)cc3)oc2c(C(=O)OCCOC(=O)c2ccc(-c3c4nc(c(-c5c(F)c(F)c(F)c(F)c5F)c5ccc([nH]5)c(-c5c(F)c(F)c(F)c(F)c5F)c5nc(c(-c6c(F)c(F)c(F)c(F)c6F)c6ccc3[nH]6)C=C5)C=C4)cc2)c1C
REMARK SMILES IDX 23 1 22 2 21 3 19 4 20 5 18 6 1 7 2 8 3 9 90 10 4 11 91 12
REMARK SMILES IDX 5 13 17 14 6 15 7 16 16 17 8 18 9 19 10 20 15 21 11 22 14 23
REMARK SMILES IDX 12 24 13 25 24 26 25 27 26 28 27 29 28 30 89 31 29 32 88 33
REMARK SMILES IDX 30 34 31 35 32 36 82 37 33 38 87 39 81 40 83 41 34 42 86 43
REMARK SMILES IDX 80 44 79 45 35 47 67 48 47 49 66 50 48 51 51 52 65 53 84 54
REMARK SMILES IDX 49 55 50 56 64 58 85 59 52 60 36 61 37 62 45 63 38 64 39 65
REMARK SMILES IDX 43 66 46 67 40 68 41 69 44 70 42 71 68 72 69 73 77 74 70 75
REMARK SMILES IDX 71 76 75 77 78 78 72 79 73 80 76 81 74 82 53 83 54 84 62 85
REMARK SMILES IDX 55 86 56 87 60 88 63 89 57 90 58 91 61 92 59 93
REMARK H PARENT 83 46 51 57
REMARK Flexibility Score: inf
ROOT
ATOM      1  C   UNL A   1      35.447  21.804  26.668  1.00  0.00     0.275 C 
ENDROOT
BRANCH   1   2
ATOM      2  C   UNL A   1      34.519  22.941  27.092  1.00  0.00     0.275 C 
BRANCH   2   3
ATOM      3  O   UNL A   1      33.164  22.461  27.288  1.00  0.00    -0.458 OA
BRANCH   3   4
ATOM      4  C   UNL A   1      32.194  23.099  26.585  1.00  0.00     0.342 C 
ATOM      5  O   UNL A   1      31.063  23.364  26.959  1.00  0.00    -0.246 OA
BRANCH   4   6
ATOM      6  C   UNL A   1      32.572  23.232  25.168  1.00  0.00     0.106 A 
ATOM      7  C   UNL A   1      32.153  21.021  22.046  1.00  0.00     0.044 C 
ATOM      8  C   UNL A   1      32.407  22.188  22.963  1.00  0.00    -0.046 A 
ATOM      9  C   UNL A   1      32.636  23.450  22.399  1.00  0.00     0.019 A 
ATOM     10  C   UNL A   1      32.396  22.062  24.364  1.00  0.00    -0.030 A 
ATOM     11  C   UNL A   1      32.847  24.579  23.205  1.00  0.00     0.066 A 
ATOM     12  C   UNL A   1      32.153  20.719  25.020  1.00  0.00     0.046 C 
ATOM     13  C   UNL A   1      33.040  25.883  22.554  1.00  0.00     0.193 A 
ATOM     14  C   UNL A   1      32.822  24.498  24.598  1.00  0.00     0.153 A 
ATOM     15  O   UNL A   1      33.046  26.013  21.337  1.00  0.00    -0.289 OA
ATOM     16  C   UNL A   1      33.198  27.041  23.435  1.00  0.00     0.100 A 
ATOM     17  O   UNL A   1      33.024  25.622  25.388  1.00  0.00    -0.455 OA
ATOM     18  C   UNL A   1      33.189  26.860  24.761  1.00  0.00     0.138 A 
BRANCH  18  19
ATOM     19  C   UNL A   1      33.250  28.086  25.604  1.00  0.00     0.018 A 
ATOM     20  C   UNL A   1      34.761  28.602  26.574  1.00  0.00     0.015 A 
ATOM     21  C   UNL A   1      31.781  29.203  25.523  1.00  0.00     0.015 A 
ATOM     22  C   UNL A   1      34.790  30.250  27.453  1.00  0.00     0.040 A 
ATOM     23  C   UNL A   1      31.778  30.831  26.397  1.00  0.00     0.040 A 
ATOM     24  C   UNL A   1      33.302  31.352  27.392  1.00  0.00     0.123 A 
ATOM     25  F   UNL A   1      33.343  32.547  27.995  1.00  0.00    -0.207 F 
ENDBRANCH  18  19
ENDBRANCH   4   6
ENDBRANCH   3   4
ENDBRANCH   2   3
ENDBRANCH   1   2
BRANCH   1  26
ATOM     26  O   UNL A   1      36.409  22.371  25.765  1.00  0.00    -0.458 OA
BRANCH  26  27
ATOM     27  C   UNL A   1      37.628  21.792  25.745  1.00  0.00     0.338 C 
ATOM     28  O   UNL A   1      37.910  20.667  25.373  1.00  0.00    -0.246 OA
BRANCH  27  29
ATOM     29  C   UNL A   1      38.633  22.828  26.068  1.00  0.00     0.060 A 
ATOM     30  C   UNL A   1      38.481  24.136  25.626  1.00  0.00     0.016 A 
ATOM     31  C   UNL A   1      39.623  22.529  27.002  1.00  0.00     0.016 A 
ATOM     32  C   UNL A   1      39.254  25.147  26.209  1.00  0.00     0.010 A 
ATOM     33  C   UNL A   1      40.279  23.541  27.687  1.00  0.00     0.010 A 
ATOM     34  C   UNL A   1      40.037  24.881  27.364  1.00  0.00    -0.014 A 
BRANCH  34  35
ATOM     35  C   UNL A   1      40.599  26.158  28.400  1.00  0.00     0.031 A 
ATOM     36  C   UNL A   1      42.086  26.319  27.380  1.00  0.00     0.074 A 
ATOM     37  C   UNL A   1      39.945  27.137  29.873  1.00  0.00     0.049 A 
ATOM     38  N   UNL A   1      42.663  27.433  26.973  1.00  0.00    -0.248 NA
ATOM     39  C   UNL A   1      42.880  25.126  27.016  1.00  0.00     0.031 C 
ATOM     40  C   UNL A   1      38.596  27.129  30.870  1.00  0.00     0.029 A 
ATOM     41  N   UNL A   1      40.360  28.472  30.571  1.00  0.00    -0.354 N 
ATOM     42  C   UNL A   1      43.926  27.103  26.570  1.00  0.00     0.074 A 
ATOM     43  C   UNL A   1      43.952  25.664  26.438  1.00  0.00     0.031 C 
ATOM     44  C   UNL A   1      38.302  28.344  31.371  1.00  0.00     0.029 A 
ATOM     45  C   UNL A   1      39.337  29.265  31.028  1.00  0.00     0.049 A 
ATOM     46  H   UNL A   1      41.304  28.730  30.677  1.00  0.00     0.167 HD
ATOM     47  C   UNL A   1      45.010  27.912  26.572  1.00  0.00     0.037 A 
ATOM     48  C   UNL A   1      39.321  30.614  31.015  1.00  0.00     0.037 A 
ATOM     49  C   UNL A   1      45.033  29.252  27.133  1.00  0.00     0.049 A 
ATOM     50  C   UNL A   1      40.550  31.360  30.503  1.00  0.00     0.074 A 
ATOM     51  C   UNL A   1      46.133  30.080  27.260  1.00  0.00     0.029 A 
ATOM     52  N   UNL A   1      43.961  29.923  27.744  1.00  0.00    -0.354 N 
ATOM     53  N   UNL A   1      41.592  30.917  29.832  1.00  0.00    -0.248 NA
ATOM     54  C   UNL A   1      40.591  32.799  30.788  1.00  0.00     0.031 C 
ATOM     55  C   UNL A   1      45.771  31.176  28.046  1.00  0.00     0.029 A 
ATOM     56  C   UNL A   1      44.413  31.103  28.333  1.00  0.00     0.049 A 
ATOM     57  H   UNL A   1      43.029  29.607  27.755  1.00  0.00     0.167 HD
ATOM     58  C   UNL A   1      42.407  32.019  29.596  1.00  0.00     0.074 A 
ATOM     59  C   UNL A   1      41.714  33.158  30.181  1.00  0.00     0.031 C 
ATOM     60  C   UNL A   1      43.626  32.126  29.000  1.00  0.00     0.037 A 
BRANCH  47  61
ATOM     61  C   UNL A   1      46.299  27.274  26.149  1.00  0.00     0.064 A 
ATOM     62  C   UNL A   1      47.107  26.600  27.075  1.00  0.00     0.173 A 
ATOM     63  C   UNL A   1      46.744  27.354  24.820  1.00  0.00     0.173 A 
ATOM     64  F   UNL A   1      46.736  26.521  28.361  1.00  0.00    -0.203 F 
ATOM     65  C   UNL A   1      48.320  26.036  26.688  1.00  0.00     0.198 A 
ATOM     66  C   UNL A   1      47.948  26.771  24.432  1.00  0.00     0.198 A 
ATOM     67  F   UNL A   1      46.018  28.008  23.900  1.00  0.00    -0.203 F 
ATOM     68  F   UNL A   1      49.094  25.428  27.597  1.00  0.00    -0.200 F 
ATOM     69  C   UNL A   1      48.736  26.118  25.367  1.00  0.00     0.200 A 
ATOM     70  F   UNL A   1      48.350  26.853  23.157  1.00  0.00    -0.200 F 
ATOM     71  F   UNL A   1      49.906  25.578  24.998  1.00  0.00    -0.200 F 
ENDBRANCH  47  61
BRANCH  48  72
ATOM     72  C   UNL A   1      38.085  31.372  31.342  1.00  0.00     0.064 A 
ATOM     73  C   UNL A   1      37.269  31.873  30.312  1.00  0.00     0.173 A 
ATOM     74  C   UNL A   1      37.715  31.666  32.659  1.00  0.00     0.173 A 
ATOM     75  F   UNL A   1      37.589  31.639  29.030  1.00  0.00    -0.203 F 
ATOM     76  C   UNL A   1      36.150  32.655  30.589  1.00  0.00     0.198 A 
ATOM     77  C   UNL A   1      36.582  32.430  32.937  1.00  0.00     0.198 A 
ATOM     78  F   UNL A   1      38.464  31.224  33.680  1.00  0.00    -0.203 F 
ATOM     79  F   UNL A   1      35.422  33.161  29.583  1.00  0.00    -0.200 F 
ATOM     80  C   UNL A   1      35.807  32.932  31.902  1.00  0.00     0.200 A 
ATOM     81  F   UNL A   1      36.252  32.696  34.207  1.00  0.00    -0.200 F 
ATOM     82  F   UNL A   1      34.738  33.694  32.170  1.00  0.00    -0.200 F 
ENDBRANCH  48  72
BRANCH  60  83
ATOM     83  C   UNL A   1      44.305  33.469  29.147  1.00  0.00     0.064 A 
ATOM     84  C   UNL A   1      45.085  33.754  30.282  1.00  0.00     0.173 A 
ATOM     85  C   UNL A   1      44.257  34.429  28.126  1.00  0.00     0.173 A 
ATOM     86  F   UNL A   1      45.170  32.865  31.283  1.00  0.00    -0.203 F 
ATOM     87  C   UNL A   1      45.770  34.959  30.400  1.00  0.00     0.198 A 
ATOM     88  C   UNL A   1      44.964  35.625  28.239  1.00  0.00     0.198 A 
ATOM     89  F   UNL A   1      43.543  34.200  27.016  1.00  0.00    -0.203 F 
ATOM     90  F   UNL A   1      46.483  35.219  31.506  1.00  0.00    -0.200 F 
ATOM     91  C   UNL A   1      45.715  35.891  29.376  1.00  0.00     0.200 A 
ATOM     92  F   UNL A   1      44.924  36.523  27.244  1.00  0.00    -0.200 F 
ATOM     93  F   UNL A   1      46.385  37.047  29.485  1.00  0.00    -0.200 F 
ENDBRANCH  60  83
ENDBRANCH  34  35
ENDBRANCH  27  29
ENDBRANCH  26  27
ENDBRANCH   1  26
TORSDOF 12
ENDMDL
