MODEL 1
REMARK VINA RESULT:     -11.5      0.000      0.000
REMARK SMILES COCCN1C(=O)C[C@@H](C(=O)OCCOC(=O)c2ccc(-c3c4nc(c(-c5c(F)c(F)c(F)c(F)c5F)c5ccc([nH]5)c(-c5c(F)c(F)c(F)c(F)c5F)c5nc(c(-c6c(F)c(F)c(F)c(F)c6F)c6ccc3[nH]6)C=C5)C=C4)cc2)[C@H]1c1cccc(F)c1
REMARK SMILES IDX 13 1 12 2 10 3 11 4 9 5 5 6 6 7 81 8 7 9 8 10 4 11 3 12 2 13
REMARK SMILES IDX 1 14 82 15 83 16 88 17 84 18 86 19 85 20 87 21 14 22 15 23
REMARK SMILES IDX 16 24 17 25 18 26 19 27 80 28 20 29 79 30 21 31 22 32 23 33
REMARK SMILES IDX 73 34 24 35 78 36 72 37 74 38 25 39 77 40 71 41 70 42 26 44
REMARK SMILES IDX 58 45 38 46 57 47 39 48 42 49 56 50 75 51 40 52 41 53 55 55
REMARK SMILES IDX 76 56 43 57 27 58 28 59 36 60 29 61 30 62 34 63 37 64 31 65
REMARK SMILES IDX 32 66 35 67 33 68 59 69 60 70 68 71 61 72 62 73 66 74 69 75
REMARK SMILES IDX 63 76 64 77 67 78 65 79 44 80 45 81 53 82 46 83 47 84 51 85
REMARK SMILES IDX 54 86 48 87 49 88 52 89 50 90
REMARK H PARENT 74 43 42 54
REMARK Flexibility Score: inf
ROOT
ATOM      1  C   UNL A   1      37.315  19.950  24.801  1.00  0.00     0.274 C 
ENDROOT
BRANCH   1   2
ATOM      2  O   UNL A   1      37.257  21.368  24.512  1.00  0.00    -0.462 OA
BRANCH   2   3
ATOM      3  C   UNL A   1      36.334  22.075  25.206  1.00  0.00     0.312 C 
ATOM      4  O   UNL A   1      36.273  22.122  26.431  1.00  0.00    -0.252 OA
BRANCH   3   5
ATOM      5  C   UNL A   1      35.254  22.716  24.370  1.00  0.00     0.135 C 
ATOM      6  N   UNL A   1      33.032  23.092  25.140  1.00  0.00    -0.332 N 
ATOM      7  C   UNL A   1      33.756  24.250  25.433  1.00  0.00     0.224 C 
ATOM      8  C   UNL A   1      33.814  22.208  24.285  1.00  0.00     0.130 C 
ATOM      9  O   UNL A   1      33.337  25.242  26.009  1.00  0.00    -0.275 OA
ATOM     10  C   UNL A   1      35.111  24.175  24.780  1.00  0.00     0.118 C 
BRANCH   6  11
ATOM     11  C   UNL A   1      31.564  23.181  25.071  1.00  0.00     0.148 C 
BRANCH  11  12
ATOM     12  C   UNL A   1      30.712  22.784  26.286  1.00  0.00     0.181 C 
BRANCH  12  13
ATOM     13  O   UNL A   1      30.258  23.912  27.036  1.00  0.00    -0.383 OA
ATOM     14  C   UNL A   1      29.953  25.034  26.226  1.00  0.00     0.194 C 
ENDBRANCH  12  13
ENDBRANCH  11  12
ENDBRANCH   6  11
BRANCH   8  15
ATOM     15  C   UNL A   1      33.473  20.751  24.440  1.00  0.00    -0.022 A 
ATOM     16  C   UNL A   1      33.422  20.119  25.691  1.00  0.00     0.006 A 
ATOM     17  C   UNL A   1      32.999  20.036  23.328  1.00  0.00     0.045 A 
ATOM     18  C   UNL A   1      32.896  18.833  25.841  1.00  0.00     0.003 A 
ATOM     19  C   UNL A   1      32.432  18.778  23.493  1.00  0.00     0.123 A 
ATOM     20  C   UNL A   1      32.368  18.174  24.742  1.00  0.00     0.039 A 
ATOM     21  F   UNL A   1      31.904  18.158  22.431  1.00  0.00    -0.207 F 
ENDBRANCH   8  15
ENDBRANCH   3   5
ENDBRANCH   2   3
ENDBRANCH   1   2
BRANCH   1  22
ATOM     22  C   UNL A   1      38.664  19.545  25.408  1.00  0.00     0.275 C 
BRANCH  22  23
ATOM     23  O   UNL A   1      39.561  20.649  25.615  1.00  0.00    -0.458 OA
BRANCH  23  24
ATOM     24  C   UNL A   1      40.410  20.564  26.661  1.00  0.00     0.338 C 
ATOM     25  O   UNL A   1      40.835  19.555  27.192  1.00  0.00    -0.246 OA
BRANCH  24  26
ATOM     26  C   UNL A   1      40.660  21.937  27.132  1.00  0.00     0.060 A 
ATOM     27  C   UNL A   1      41.607  22.144  28.137  1.00  0.00     0.016 A 
ATOM     28  C   UNL A   1      39.965  23.015  26.577  1.00  0.00     0.016 A 
ATOM     29  C   UNL A   1      41.856  23.440  28.594  1.00  0.00     0.010 A 
ATOM     30  C   UNL A   1      40.264  24.319  26.992  1.00  0.00     0.010 A 
ATOM     31  C   UNL A   1      41.226  24.546  27.988  1.00  0.00    -0.014 A 
BRANCH  31  32
ATOM     32  C   UNL A   1      41.784  25.910  28.201  1.00  0.00     0.031 A 
ATOM     33  C   UNL A   1      41.015  27.051  28.798  1.00  0.00     0.074 A 
ATOM     34  C   UNL A   1      43.043  26.116  27.771  1.00  0.00     0.049 A 
ATOM     35  N   UNL A   1      41.429  28.255  29.107  1.00  0.00    -0.248 NA
ATOM     36  C   UNL A   1      39.603  26.817  29.109  1.00  0.00     0.031 C 
ATOM     37  C   UNL A   1      43.889  25.101  27.136  1.00  0.00     0.029 A 
ATOM     38  N   UNL A   1      43.818  27.245  27.770  1.00  0.00    -0.354 N 
ATOM     39  C   UNL A   1      40.356  28.884  29.726  1.00  0.00     0.074 A 
ATOM     40  C   UNL A   1      39.255  27.947  29.712  1.00  0.00     0.031 C 
ATOM     41  C   UNL A   1      45.054  25.658  26.786  1.00  0.00     0.029 A 
ATOM     42  C   UNL A   1      45.011  27.076  27.118  1.00  0.00     0.049 A 
ATOM     43  H   UNL A   1      43.546  28.090  28.194  1.00  0.00     0.167 HD
ATOM     44  C   UNL A   1      40.297  30.134  30.248  1.00  0.00     0.037 A 
ATOM     45  C   UNL A   1      45.951  27.971  26.767  1.00  0.00     0.037 A 
ATOM     46  C   UNL A   1      41.346  31.113  30.121  1.00  0.00     0.049 A 
ATOM     47  C   UNL A   1      45.787  29.398  27.180  1.00  0.00     0.074 A 
ATOM     48  C   UNL A   1      41.393  32.405  30.617  1.00  0.00     0.029 A 
ATOM     49  N   UNL A   1      42.507  30.927  29.384  1.00  0.00    -0.354 N 
ATOM     50  N   UNL A   1      44.823  29.947  27.878  1.00  0.00    -0.248 NA
ATOM     51  C   UNL A   1      46.841  30.330  26.764  1.00  0.00     0.031 C 
ATOM     52  C   UNL A   1      42.540  33.026  30.107  1.00  0.00     0.029 A 
ATOM     53  C   UNL A   1      43.239  32.102  29.347  1.00  0.00     0.049 A 
ATOM     54  H   UNL A   1      42.772  30.083  28.953  1.00  0.00     0.167 HD
ATOM     55  C   UNL A   1      45.153  31.287  27.994  1.00  0.00     0.074 A 
ATOM     56  C   UNL A   1      46.417  31.464  27.305  1.00  0.00     0.031 C 
ATOM     57  C   UNL A   1      44.474  32.276  28.624  1.00  0.00     0.037 A 
BRANCH  44  58
ATOM     58  C   UNL A   1      39.043  30.537  30.967  1.00  0.00     0.064 A 
ATOM     59  C   UNL A   1      38.924  30.395  32.358  1.00  0.00     0.173 A 
ATOM     60  C   UNL A   1      37.984  31.144  30.276  1.00  0.00     0.173 A 
ATOM     61  F   UNL A   1      39.908  29.821  33.065  1.00  0.00    -0.203 F 
ATOM     62  C   UNL A   1      37.787  30.842  33.029  1.00  0.00     0.198 A 
ATOM     63  C   UNL A   1      36.856  31.603  30.952  1.00  0.00     0.198 A 
ATOM     64  F   UNL A   1      38.051  31.307  28.947  1.00  0.00    -0.203 F 
ATOM     65  F   UNL A   1      37.688  30.686  34.357  1.00  0.00    -0.200 F 
ATOM     66  C   UNL A   1      36.758  31.451  32.327  1.00  0.00     0.200 A 
ATOM     67  F   UNL A   1      35.865  32.199  30.273  1.00  0.00    -0.200 F 
ATOM     68  F   UNL A   1      35.669  31.892  32.975  1.00  0.00    -0.200 F 
ENDBRANCH  44  58
BRANCH  45  69
ATOM     69  C   UNL A   1      47.085  27.508  25.934  1.00  0.00     0.064 A 
ATOM     70  C   UNL A   1      47.055  27.610  24.540  1.00  0.00     0.173 A 
ATOM     71  C   UNL A   1      48.271  27.055  26.537  1.00  0.00     0.173 A 
ATOM     72  F   UNL A   1      45.939  28.026  23.924  1.00  0.00    -0.203 F 
ATOM     73  C   UNL A   1      48.174  27.289  23.777  1.00  0.00     0.198 A 
ATOM     74  C   UNL A   1      49.398  26.762  25.775  1.00  0.00     0.198 A 
ATOM     75  F   UNL A   1      48.349  26.954  27.873  1.00  0.00    -0.203 F 
ATOM     76  F   UNL A   1      48.121  27.388  22.441  1.00  0.00    -0.200 F 
ATOM     77  C   UNL A   1      49.348  26.879  24.394  1.00  0.00     0.200 A 
ATOM     78  F   UNL A   1      50.535  26.391  26.379  1.00  0.00    -0.200 F 
ATOM     79  F   UNL A   1      50.434  26.604  23.660  1.00  0.00    -0.200 F 
ENDBRANCH  45  69
BRANCH  57  80
ATOM     80  C   UNL A   1      45.085  33.644  28.583  1.00  0.00     0.064 A 
ATOM     81  C   UNL A   1      46.064  34.033  29.508  1.00  0.00     0.173 A 
ATOM     82  C   UNL A   1      44.690  34.573  27.609  1.00  0.00     0.173 A 
ATOM     83  F   UNL A   1      46.459  33.185  30.471  1.00  0.00    -0.203 F 
ATOM     84  C   UNL A   1      46.607  35.314  29.478  1.00  0.00     0.198 A 
ATOM     85  C   UNL A   1      45.255  35.843  27.564  1.00  0.00     0.198 A 
ATOM     86  F   UNL A   1      43.758  34.246  26.701  1.00  0.00    -0.203 F 
ATOM     87  F   UNL A   1      47.503  35.683  30.404  1.00  0.00    -0.200 F 
ATOM     88  C   UNL A   1      46.205  36.216  28.503  1.00  0.00     0.200 A 
ATOM     89  F   UNL A   1      44.873  36.712  26.618  1.00  0.00    -0.200 F 
ATOM     90  F   UNL A   1      46.727  37.451  28.476  1.00  0.00    -0.200 F 
ENDBRANCH  57  80
ENDBRANCH  31  32
ENDBRANCH  24  26
ENDBRANCH  23  24
ENDBRANCH  22  23
ENDBRANCH   1  22
TORSDOF 15
ENDMDL
MODEL 2
REMARK VINA RESULT:     -11.4      1.930      3.276
REMARK SMILES COCCN1C(=O)C[C@@H](C(=O)OCCOC(=O)c2ccc(-c3c4nc(c(-c5c(F)c(F)c(F)c(F)c5F)c5ccc([nH]5)c(-c5c(F)c(F)c(F)c(F)c5F)c5nc(c(-c6c(F)c(F)c(F)c(F)c6F)c6ccc3[nH]6)C=C5)C=C4)cc2)[C@H]1c1cccc(F)c1
REMARK SMILES IDX 13 1 12 2 10 3 11 4 9 5 5 6 6 7 81 8 7 9 8 10 4 11 3 12 2 13
REMARK SMILES IDX 1 14 82 15 83 16 88 17 84 18 86 19 85 20 87 21 14 22 15 23
REMARK SMILES IDX 16 24 17 25 18 26 19 27 80 28 20 29 79 30 21 31 22 32 23 33
REMARK SMILES IDX 73 34 24 35 78 36 72 37 74 38 25 39 77 40 71 41 70 42 26 44
REMARK SMILES IDX 58 45 38 46 57 47 39 48 42 49 56 50 75 51 40 52 41 53 55 55
REMARK SMILES IDX 76 56 43 57 27 58 28 59 36 60 29 61 30 62 34 63 37 64 31 65
REMARK SMILES IDX 32 66 35 67 33 68 59 69 60 70 68 71 61 72 62 73 66 74 69 75
REMARK SMILES IDX 63 76 64 77 67 78 65 79 44 80 45 81 53 82 46 83 47 84 51 85
REMARK SMILES IDX 54 86 48 87 49 88 52 89 50 90
REMARK H PARENT 74 43 42 54
REMARK Flexibility Score: inf
ROOT
ATOM      1  C   UNL A   1      38.436  21.617  25.499  1.00  0.00     0.274 C 
ENDROOT
BRANCH   1   2
ATOM      2  O   UNL A   1      36.994  21.733  25.432  1.00  0.00    -0.462 OA
BRANCH   2   3
ATOM      3  C   UNL A   1      36.488  22.958  25.707  1.00  0.00     0.312 C 
ATOM      4  O   UNL A   1      37.063  24.016  25.469  1.00  0.00    -0.252 OA
BRANCH   3   5
ATOM      5  C   UNL A   1      35.190  22.959  26.477  1.00  0.00     0.135 C 
ATOM      6  N   UNL A   1      33.061  22.578  25.480  1.00  0.00    -0.332 N 
ATOM      7  C   UNL A   1      33.530  21.332  25.904  1.00  0.00     0.224 C 
ATOM      8  C   UNL A   1      33.907  23.643  26.002  1.00  0.00     0.130 C 
ATOM      9  O   UNL A   1      32.972  20.257  25.753  1.00  0.00    -0.275 OA
ATOM     10  C   UNL A   1      34.769  21.520  26.740  1.00  0.00     0.118 C 
BRANCH   6  11
ATOM     11  C   UNL A   1      31.615  22.743  25.252  1.00  0.00     0.148 C 
BRANCH  11  12
ATOM     12  C   UNL A   1      30.669  22.954  26.444  1.00  0.00     0.181 C 
BRANCH  12  13
ATOM     13  O   UNL A   1      30.583  24.321  26.847  1.00  0.00    -0.383 OA
ATOM     14  C   UNL A   1      30.277  25.200  25.779  1.00  0.00     0.194 C 
ENDBRANCH  12  13
ENDBRANCH  11  12
ENDBRANCH   6  11
BRANCH   8  15
ATOM     15  C   UNL A   1      33.934  24.877  25.142  1.00  0.00    -0.022 A 
ATOM     16  C   UNL A   1      33.845  24.823  23.744  1.00  0.00     0.006 A 
ATOM     17  C   UNL A   1      33.850  26.140  25.752  1.00  0.00     0.045 A 
ATOM     18  C   UNL A   1      33.653  25.974  22.976  1.00  0.00     0.003 A 
ATOM     19  C   UNL A   1      33.609  27.274  24.986  1.00  0.00     0.123 A 
ATOM     20  C   UNL A   1      33.500  27.200  23.603  1.00  0.00     0.039 A 
ATOM     21  F   UNL A   1      33.439  28.450  25.600  1.00  0.00    -0.207 F 
ENDBRANCH   8  15
ENDBRANCH   3   5
ENDBRANCH   2   3
ENDBRANCH   1   2
BRANCH   1  22
ATOM     22  C   UNL A   1      38.895  20.154  25.437  1.00  0.00     0.275 C 
BRANCH  22  23
ATOM     23  O   UNL A   1      39.795  19.784  26.495  1.00  0.00    -0.458 OA
BRANCH  23  24
ATOM     24  C   UNL A   1      41.097  19.637  26.172  1.00  0.00     0.338 C 
ATOM     25  O   UNL A   1      41.649  18.637  25.751  1.00  0.00    -0.246 OA
BRANCH  24  26
ATOM     26  C   UNL A   1      41.778  20.895  26.523  1.00  0.00     0.060 A 
ATOM     27  C   UNL A   1      42.176  21.756  25.498  1.00  0.00     0.016 A 
ATOM     28  C   UNL A   1      42.015  21.224  27.860  1.00  0.00     0.016 A 
ATOM     29  C   UNL A   1      42.822  22.952  25.815  1.00  0.00     0.010 A 
ATOM     30  C   UNL A   1      42.605  22.454  28.177  1.00  0.00     0.010 A 
ATOM     31  C   UNL A   1      42.995  23.339  27.159  1.00  0.00    -0.014 A 
BRANCH  31  32
ATOM     32  C   UNL A   1      43.310  24.759  27.475  1.00  0.00     0.031 A 
ATOM     33  C   UNL A   1      42.292  25.770  27.916  1.00  0.00     0.074 A 
ATOM     34  C   UNL A   1      44.587  25.145  27.295  1.00  0.00     0.049 A 
ATOM     35  N   UNL A   1      42.471  27.010  28.300  1.00  0.00    -0.248 NA
ATOM     36  C   UNL A   1      40.893  25.339  27.950  1.00  0.00     0.031 C 
ATOM     37  C   UNL A   1      45.669  24.271  26.832  1.00  0.00     0.029 A 
ATOM     38  N   UNL A   1      45.185  26.368  27.443  1.00  0.00    -0.354 N 
ATOM     39  C   UNL A   1      41.224  27.471  28.702  1.00  0.00     0.074 A 
ATOM     40  C   UNL A   1      40.285  26.395  28.477  1.00  0.00     0.031 C 
ATOM     41  C   UNL A   1      46.791  24.989  26.712  1.00  0.00     0.029 A 
ATOM     42  C   UNL A   1      46.492  26.379  27.031  1.00  0.00     0.049 A 
ATOM     43  H   UNL A   1      44.725  27.157  27.808  1.00  0.00     0.167 HD
ATOM     44  C   UNL A   1      40.896  28.688  29.204  1.00  0.00     0.037 A 
ATOM     45  C   UNL A   1      47.349  27.401  26.867  1.00  0.00     0.037 A 
ATOM     46  C   UNL A   1      41.805  29.802  29.282  1.00  0.00     0.049 A 
ATOM     47  C   UNL A   1      46.916  28.782  27.243  1.00  0.00     0.074 A 
ATOM     48  C   UNL A   1      41.580  31.075  29.779  1.00  0.00     0.029 A 
ATOM     49  N   UNL A   1      43.099  29.794  28.781  1.00  0.00    -0.354 N 
ATOM     50  N   UNL A   1      45.771  29.176  27.744  1.00  0.00    -0.248 NA
ATOM     51  C   UNL A   1      47.891  29.858  27.038  1.00  0.00     0.031 C 
ATOM     52  C   UNL A   1      42.706  31.858  29.499  1.00  0.00     0.029 A 
ATOM     53  C   UNL A   1      43.656  31.058  28.885  1.00  0.00     0.049 A 
ATOM     54  H   UNL A   1      43.554  29.005  28.407  1.00  0.00     0.167 HD
ATOM     55  C   UNL A   1      45.886  30.545  27.923  1.00  0.00     0.074 A 
ATOM     56  C   UNL A   1      47.221  30.910  27.488  1.00  0.00     0.031 C 
ATOM     57  C   UNL A   1      44.970  31.416  28.412  1.00  0.00     0.037 A 
BRANCH  44  58
ATOM     58  C   UNL A   1      39.486  28.899  29.670  1.00  0.00     0.064 A 
ATOM     59  C   UNL A   1      39.119  28.675  31.007  1.00  0.00     0.173 A 
ATOM     60  C   UNL A   1      38.510  29.404  28.798  1.00  0.00     0.173 A 
ATOM     61  F   UNL A   1      40.014  28.193  31.881  1.00  0.00    -0.203 F 
ATOM     62  C   UNL A   1      37.826  28.946  31.450  1.00  0.00     0.198 A 
ATOM     63  C   UNL A   1      37.223  29.688  29.249  1.00  0.00     0.198 A 
ATOM     64  F   UNL A   1      38.810  29.639  27.513  1.00  0.00    -0.203 F 
ATOM     65  F   UNL A   1      37.493  28.715  32.728  1.00  0.00    -0.200 F 
ATOM     66  C   UNL A   1      36.881  29.458  30.573  1.00  0.00     0.200 A 
ATOM     67  F   UNL A   1      36.313  30.190  28.402  1.00  0.00    -0.200 F 
ATOM     68  F   UNL A   1      35.641  29.730  31.003  1.00  0.00    -0.200 F 
ENDBRANCH  44  58
BRANCH  45  69
ATOM     69  C   UNL A   1      48.674  27.118  26.267  1.00  0.00     0.064 A 
ATOM     70  C   UNL A   1      49.747  26.675  27.045  1.00  0.00     0.173 A 
ATOM     71  C   UNL A   1      48.851  27.183  24.874  1.00  0.00     0.173 A 
ATOM     72  F   UNL A   1      49.624  26.610  28.379  1.00  0.00    -0.203 F 
ATOM     73  C   UNL A   1      50.948  26.293  26.453  1.00  0.00     0.198 A 
ATOM     74  C   UNL A   1      50.042  26.774  24.282  1.00  0.00     0.198 A 
ATOM     75  F   UNL A   1      47.844  27.591  24.087  1.00  0.00    -0.203 F 
ATOM     76  F   UNL A   1      51.966  25.877  27.219  1.00  0.00    -0.200 F 
ATOM     77  C   UNL A   1      51.090  26.329  25.073  1.00  0.00     0.200 A 
ATOM     78  F   UNL A   1      50.163  26.787  22.947  1.00  0.00    -0.200 F 
ATOM     79  F   UNL A   1      52.234  25.928  24.504  1.00  0.00    -0.200 F 
ENDBRANCH  45  69
BRANCH  57  80
ATOM     80  C   UNL A   1      45.384  32.854  28.490  1.00  0.00     0.064 A 
ATOM     81  C   UNL A   1      45.089  33.756  27.457  1.00  0.00     0.173 A 
ATOM     82  C   UNL A   1      46.079  33.336  29.609  1.00  0.00     0.173 A 
ATOM     83  F   UNL A   1      44.443  33.335  26.358  1.00  0.00    -0.203 F 
ATOM     84  C   UNL A   1      45.501  35.083  27.529  1.00  0.00     0.198 A 
ATOM     85  C   UNL A   1      46.465  34.670  29.690  1.00  0.00     0.198 A 
ATOM     86  F   UNL A   1      46.382  32.513  30.624  1.00  0.00    -0.203 F 
ATOM     87  F   UNL A   1      45.255  35.915  26.507  1.00  0.00    -0.200 F 
ATOM     88  C   UNL A   1      46.183  35.540  28.646  1.00  0.00     0.200 A 
ATOM     89  F   UNL A   1      47.117  35.114  30.773  1.00  0.00    -0.200 F 
ATOM     90  F   UNL A   1      46.582  36.819  28.713  1.00  0.00    -0.200 F 
ENDBRANCH  57  80
ENDBRANCH  31  32
ENDBRANCH  24  26
ENDBRANCH  23  24
ENDBRANCH  22  23
ENDBRANCH   1  22
TORSDOF 15
ENDMDL
MODEL 3
REMARK VINA RESULT:     -11.4      4.830     10.546
REMARK SMILES COCCN1C(=O)C[C@@H](C(=O)OCCOC(=O)c2ccc(-c3c4nc(c(-c5c(F)c(F)c(F)c(F)c5F)c5ccc([nH]5)c(-c5c(F)c(F)c(F)c(F)c5F)c5nc(c(-c6c(F)c(F)c(F)c(F)c6F)c6ccc3[nH]6)C=C5)C=C4)cc2)[C@H]1c1cccc(F)c1
REMARK SMILES IDX 13 1 12 2 10 3 11 4 9 5 5 6 6 7 81 8 7 9 8 10 4 11 3 12 2 13
REMARK SMILES IDX 1 14 82 15 83 16 88 17 84 18 86 19 85 20 87 21 14 22 15 23
REMARK SMILES IDX 16 24 17 25 18 26 19 27 80 28 20 29 79 30 21 31 22 32 23 33
REMARK SMILES IDX 73 34 24 35 78 36 72 37 74 38 25 39 77 40 71 41 70 42 26 44
REMARK SMILES IDX 58 45 38 46 57 47 39 48 42 49 56 50 75 51 40 52 41 53 55 55
REMARK SMILES IDX 76 56 43 57 27 58 28 59 36 60 29 61 30 62 34 63 37 64 31 65
REMARK SMILES IDX 32 66 35 67 33 68 59 69 60 70 68 71 61 72 62 73 66 74 69 75
REMARK SMILES IDX 63 76 64 77 67 78 65 79 44 80 45 81 53 82 46 83 47 84 51 85
REMARK SMILES IDX 54 86 48 87 49 88 52 89 50 90
REMARK H PARENT 74 43 42 54
REMARK Flexibility Score: inf
ROOT
ATOM      1  C   UNL A   1      31.046  31.370  26.029  1.00  0.00     0.274 C 
ENDROOT
BRANCH   1   2
ATOM      2  O   UNL A   1      31.476  30.103  26.584  1.00  0.00    -0.462 OA
BRANCH   2   3
ATOM      3  C   UNL A   1      32.218  29.322  25.765  1.00  0.00     0.312 C 
ATOM      4  O   UNL A   1      33.015  29.749  24.934  1.00  0.00    -0.252 OA
BRANCH   3   5
ATOM      5  C   UNL A   1      31.907  27.848  25.827  1.00  0.00     0.135 C 
ATOM      6  N   UNL A   1      32.298  26.336  24.029  1.00  0.00    -0.332 N 
ATOM      7  C   UNL A   1      33.449  26.318  24.820  1.00  0.00     0.224 C 
ATOM      8  C   UNL A   1      31.230  27.061  24.704  1.00  0.00     0.130 C 
ATOM      9  O   UNL A   1      34.469  25.683  24.605  1.00  0.00    -0.275 OA
ATOM     10  C   UNL A   1      33.194  27.080  26.094  1.00  0.00     0.118 C 
BRANCH   6  11
ATOM     11  C   UNL A   1      32.048  25.197  23.128  1.00  0.00     0.148 C 
BRANCH  11  12
ATOM     12  C   UNL A   1      32.599  25.217  21.695  1.00  0.00     0.181 C 
BRANCH  12  13
ATOM     13  O   UNL A   1      33.401  24.074  21.393  1.00  0.00    -0.383 OA
ATOM     14  C   UNL A   1      33.221  23.009  22.310  1.00  0.00     0.194 C 
ENDBRANCH  12  13
ENDBRANCH  11  12
ENDBRANCH   6  11
BRANCH   8  15
ATOM     15  C   UNL A   1      30.242  27.703  23.767  1.00  0.00    -0.022 A 
ATOM     16  C   UNL A   1      28.859  27.495  23.873  1.00  0.00     0.006 A 
ATOM     17  C   UNL A   1      30.686  28.695  22.877  1.00  0.00     0.045 A 
ATOM     18  C   UNL A   1      27.945  28.260  23.143  1.00  0.00     0.003 A 
ATOM     19  C   UNL A   1      29.769  29.484  22.193  1.00  0.00     0.123 A 
ATOM     20  C   UNL A   1      28.402  29.281  22.326  1.00  0.00     0.039 A 
ATOM     21  F   UNL A   1      30.218  30.483  21.424  1.00  0.00    -0.207 F 
ENDBRANCH   8  15
ENDBRANCH   3   5
ENDBRANCH   2   3
ENDBRANCH   1   2
BRANCH   1  22
ATOM     22  C   UNL A   1      31.581  32.559  26.839  1.00  0.00     0.275 C 
BRANCH  22  23
ATOM     23  O   UNL A   1      33.015  32.664  26.834  1.00  0.00    -0.458 OA
BRANCH  23  24
ATOM     24  C   UNL A   1      33.583  33.370  27.835  1.00  0.00     0.338 C 
ATOM     25  O   UNL A   1      33.217  34.438  28.290  1.00  0.00    -0.246 OA
BRANCH  24  26
ATOM     26  C   UNL A   1      34.814  32.661  28.224  1.00  0.00     0.060 A 
ATOM     27  C   UNL A   1      35.999  33.388  28.356  1.00  0.00     0.016 A 
ATOM     28  C   UNL A   1      34.794  31.284  28.463  1.00  0.00     0.016 A 
ATOM     29  C   UNL A   1      37.174  32.729  28.723  1.00  0.00     0.010 A 
ATOM     30  C   UNL A   1      35.960  30.639  28.895  1.00  0.00     0.010 A 
ATOM     31  C   UNL A   1      37.155  31.359  29.049  1.00  0.00    -0.014 A 
BRANCH  31  32
ATOM     32  C   UNL A   1      38.294  30.773  29.809  1.00  0.00     0.031 A 
ATOM     33  C   UNL A   1      39.172  29.672  29.294  1.00  0.00     0.074 A 
ATOM     34  C   UNL A   1      38.490  31.246  31.055  1.00  0.00     0.049 A 
ATOM     35  N   UNL A   1      40.244  29.147  29.836  1.00  0.00    -0.248 NA
ATOM     36  C   UNL A   1      38.824  29.089  27.997  1.00  0.00     0.031 C 
ATOM     37  C   UNL A   1      37.682  32.290  31.691  1.00  0.00     0.029 A 
ATOM     38  N   UNL A   1      39.399  30.894  32.016  1.00  0.00    -0.354 N 
ATOM     39  C   UNL A   1      40.741  28.241  28.908  1.00  0.00     0.074 A 
ATOM     40  C   UNL A   1      39.832  28.251  27.784  1.00  0.00     0.031 C 
ATOM     41  C   UNL A   1      38.115  32.477  32.943  1.00  0.00     0.029 A 
ATOM     42  C   UNL A   1      39.187  31.527  33.213  1.00  0.00     0.049 A 
ATOM     43  H   UNL A   1      40.129  30.252  31.863  1.00  0.00     0.167 HD
ATOM     44  C   UNL A   1      41.849  27.465  28.995  1.00  0.00     0.037 A 
ATOM     45  C   UNL A   1      39.749  31.332  34.418  1.00  0.00     0.037 A 
ATOM     46  C   UNL A   1      42.662  27.347  30.179  1.00  0.00     0.049 A 
ATOM     47  C   UNL A   1      40.849  30.329  34.553  1.00  0.00     0.074 A 
ATOM     48  C   UNL A   1      43.810  26.597  30.373  1.00  0.00     0.029 A 
ATOM     49  N   UNL A   1      42.367  27.946  31.395  1.00  0.00    -0.354 N 
ATOM     50  N   UNL A   1      41.391  29.573  33.631  1.00  0.00    -0.248 NA
ATOM     51  C   UNL A   1      41.421  30.155  35.893  1.00  0.00     0.031 C 
ATOM     52  C   UNL A   1      44.156  26.674  31.728  1.00  0.00     0.029 A 
ATOM     53  C   UNL A   1      43.263  27.523  32.363  1.00  0.00     0.049 A 
ATOM     54  H   UNL A   1      41.629  28.581  31.547  1.00  0.00     0.167 HD
ATOM     55  C   UNL A   1      42.373  28.836  34.271  1.00  0.00     0.074 A 
ATOM     56  C   UNL A   1      42.361  29.248  35.662  1.00  0.00     0.031 C 
ATOM     57  C   UNL A   1      43.214  27.909  33.750  1.00  0.00     0.037 A 
BRANCH  44  58
ATOM     58  C   UNL A   1      42.230  26.646  27.797  1.00  0.00     0.064 A 
ATOM     59  C   UNL A   1      43.176  27.109  26.869  1.00  0.00     0.173 A 
ATOM     60  C   UNL A   1      41.710  25.356  27.615  1.00  0.00     0.173 A 
ATOM     61  F   UNL A   1      43.704  28.336  26.998  1.00  0.00    -0.203 F 
ATOM     62  C   UNL A   1      43.582  26.312  25.801  1.00  0.00     0.198 A 
ATOM     63  C   UNL A   1      42.129  24.556  26.555  1.00  0.00     0.198 A 
ATOM     64  F   UNL A   1      40.807  24.865  28.476  1.00  0.00    -0.203 F 
ATOM     65  F   UNL A   1      44.478  26.778  24.919  1.00  0.00    -0.200 F 
ATOM     66  C   UNL A   1      43.064  25.035  25.648  1.00  0.00     0.200 A 
ATOM     67  F   UNL A   1      41.634  23.319  26.413  1.00  0.00    -0.200 F 
ATOM     68  F   UNL A   1      43.464  24.263  24.627  1.00  0.00    -0.200 F 
ENDBRANCH  44  58
BRANCH  45  69
ATOM     69  C   UNL A   1      39.211  32.085  35.574  1.00  0.00     0.064 A 
ATOM     70  C   UNL A   1      38.331  31.492  36.484  1.00  0.00     0.173 A 
ATOM     71  C   UNL A   1      39.663  33.387  35.847  1.00  0.00     0.173 A 
ATOM     72  F   UNL A   1      37.865  30.255  36.255  1.00  0.00    -0.203 F 
ATOM     73  C   UNL A   1      37.931  32.167  37.633  1.00  0.00     0.198 A 
ATOM     74  C   UNL A   1      39.285  34.050  37.010  1.00  0.00     0.198 A 
ATOM     75  F   UNL A   1      40.519  33.991  35.007  1.00  0.00    -0.203 F 
ATOM     76  F   UNL A   1      37.081  31.583  38.489  1.00  0.00    -0.200 F 
ATOM     77  C   UNL A   1      38.418  33.439  37.903  1.00  0.00     0.200 A 
ATOM     78  F   UNL A   1      39.779  35.267  37.276  1.00  0.00    -0.200 F 
ATOM     79  F   UNL A   1      38.059  34.073  39.027  1.00  0.00    -0.200 F 
ENDBRANCH  45  69
BRANCH  57  80
ATOM     80  C   UNL A   1      44.184  27.271  34.698  1.00  0.00     0.064 A 
ATOM     81  C   UNL A   1      43.890  26.057  35.335  1.00  0.00     0.173 A 
ATOM     82  C   UNL A   1      45.419  27.878  34.971  1.00  0.00     0.173 A 
ATOM     83  F   UNL A   1      42.712  25.450  35.120  1.00  0.00    -0.203 F 
ATOM     84  C   UNL A   1      44.787  25.486  36.233  1.00  0.00     0.198 A 
ATOM     85  C   UNL A   1      46.324  27.291  35.848  1.00  0.00     0.198 A 
ATOM     86  F   UNL A   1      45.746  29.039  34.384  1.00  0.00    -0.203 F 
ATOM     87  F   UNL A   1      44.464  24.352  36.871  1.00  0.00    -0.200 F 
ATOM     88  C   UNL A   1      46.004  26.101  36.485  1.00  0.00     0.200 A 
ATOM     89  F   UNL A   1      47.504  27.880  36.085  1.00  0.00    -0.200 F 
ATOM     90  F   UNL A   1      46.867  25.552  37.353  1.00  0.00    -0.200 F 
ENDBRANCH  57  80
ENDBRANCH  31  32
ENDBRANCH  24  26
ENDBRANCH  23  24
ENDBRANCH  22  23
ENDBRANCH   1  22
TORSDOF 15
ENDMDL
