MODEL 1
REMARK VINA RESULT:     -12.6      0.000      0.000
REMARK SMILES CCc1cccc(CC)c1N1/C(=[NH+]/C(=O)CCCC(=O)OCCOC(=O)c2ccc(-c3c4nc(c(-c5c(F)c(F)c(F)c(F)c5F)c5ccc([nH]5)c(-c5c(F)c(F)c(F)c(F)c5F)c5nc(c(-c6c(F)c(F)c(F)c(F)c6F)c6ccc3[nH]6)C=C5)C=C4)cc2)S[C@@H]2CS(=O)(=O)C[C@@H]21
REMARK SMILES IDX 21 1 19 2 20 3 18 4 17 5 16 6 14 7 11 8 12 9 97 10 13 11
REMARK SMILES IDX 90 12 91 13 96 14 92 16 93 17 15 18 94 19 95 20 10 21 3 22
REMARK SMILES IDX 4 23 5 24 7 25 6 26 2 27 1 28 8 29 9 30 22 31 23 32 24 33
REMARK SMILES IDX 25 34 26 35 27 36 28 37 89 38 29 39 88 40 30 41 31 42 32 43
REMARK SMILES IDX 82 44 33 45 87 46 81 47 83 48 34 49 86 50 80 51 79 52 35 54
REMARK SMILES IDX 67 55 47 56 66 57 48 58 51 59 65 60 84 61 49 62 50 63 64 65
REMARK SMILES IDX 85 66 52 67 36 68 37 69 45 70 38 71 39 72 43 73 46 74 40 75
REMARK SMILES IDX 41 76 44 77 42 78 68 79 69 80 77 81 70 82 71 83 75 84 78 85
REMARK SMILES IDX 72 86 73 87 76 88 74 89 53 90 54 91 62 92 55 93 56 94 60 95
REMARK SMILES IDX 63 96 57 97 58 98 61 99 59 100
REMARK H PARENT 13 15 83 53 51 64
REMARK Flexibility Score: inf
ROOT
ATOM      1  O   UNL A   1      31.053  28.014  24.819  1.00  0.00    -0.462 OA
ENDROOT
BRANCH   1   2
ATOM      2  C   UNL A   1      30.473  27.274  23.847  1.00  0.00     0.305 C 
ATOM      3  O   UNL A   1      30.654  27.437  22.646  1.00  0.00    -0.252 OA
BRANCH   2   4
ATOM      4  C   UNL A   1      29.601  26.162  24.387  1.00  0.00     0.123 C 
BRANCH   4   5
ATOM      5  C   UNL A   1      29.707  25.775  25.852  1.00  0.00     0.024 C 
BRANCH   5   6
ATOM      6  C   UNL A   1      29.699  24.283  26.161  1.00  0.00     0.128 C 
BRANCH   6   7
ATOM      7  C   UNL A   1      31.031  23.719  26.627  1.00  0.00     0.307 C 
ATOM      8  N   UNL A   1      33.351  21.202  25.259  1.00  0.00    -0.216 N 
ATOM      9  C   UNL A   1      32.659  22.095  26.095  1.00  0.00     0.319 C 
ATOM     10  C   UNL A   1      34.680  20.758  25.763  1.00  0.00     0.212 C 
ATOM     11  N   UNL A   1      31.517  22.662  25.874  1.00  0.00    -0.204 N 
ATOM     12  S   UNL A   1      33.651  22.396  27.544  1.00  0.00    -0.029 SA
ATOM     13  C   UNL A   1      35.154  21.820  26.762  1.00  0.00     0.120 C 
ATOM     14  C   UNL A   1      35.769  20.585  24.706  1.00  0.00     0.188 C 
ATOM     15  H   UNL A   1      30.964  22.326  25.132  1.00  0.00     0.316 HD
ATOM     16  C   UNL A   1      35.854  22.916  25.982  1.00  0.00     0.156 C 
ATOM     17  S   UNL A   1      36.874  21.972  24.879  1.00  0.00     0.155 S 
ATOM     18  O   UNL A   1      31.576  24.270  27.580  1.00  0.00    -0.247 OA
ATOM     19  O   UNL A   1      37.003  22.661  23.617  1.00  0.00    -0.229 OA
ATOM     20  O   UNL A   1      38.031  21.527  25.631  1.00  0.00    -0.229 OA
BRANCH   8  21
ATOM     21  C   UNL A   1      32.778  20.404  24.229  1.00  0.00     0.134 A 
ATOM     22  C   UNL A   1      32.514  20.922  22.928  1.00  0.00    -0.001 A 
ATOM     23  C   UNL A   1      32.126  20.027  21.893  1.00  0.00     0.008 A 
ATOM     24  C   UNL A   1      32.055  18.659  22.078  1.00  0.00     0.001 A 
ATOM     25  C   UNL A   1      32.612  18.990  24.426  1.00  0.00    -0.001 A 
ATOM     26  C   UNL A   1      32.308  18.146  23.334  1.00  0.00     0.008 A 
BRANCH  22  27
ATOM     27  C   UNL A   1      32.572  22.350  22.410  1.00  0.00     0.036 C 
ATOM     28  C   UNL A   1      33.763  23.255  22.614  1.00  0.00     0.009 C 
ENDBRANCH  22  27
BRANCH  25  29
ATOM     29  C   UNL A   1      32.785  18.292  25.767  1.00  0.00     0.036 C 
ATOM     30  C   UNL A   1      33.200  16.824  25.661  1.00  0.00     0.009 C 
ENDBRANCH  25  29
ENDBRANCH   8  21
ENDBRANCH   6   7
ENDBRANCH   5   6
ENDBRANCH   4   5
ENDBRANCH   2   4
ENDBRANCH   1   2
BRANCH   1  31
ATOM     31  C   UNL A   1      31.527  29.318  24.446  1.00  0.00     0.274 C 
BRANCH  31  32
ATOM     32  C   UNL A   1      31.641  30.199  25.691  1.00  0.00     0.275 C 
BRANCH  32  33
ATOM     33  O   UNL A   1      32.961  30.125  26.266  1.00  0.00    -0.458 OA
BRANCH  33  34
ATOM     34  C   UNL A   1      33.331  31.196  27.005  1.00  0.00     0.338 C 
ATOM     35  O   UNL A   1      32.682  32.203  27.237  1.00  0.00    -0.246 OA
BRANCH  34  36
ATOM     36  C   UNL A   1      34.645  30.955  27.614  1.00  0.00     0.060 A 
ATOM     37  C   UNL A   1      34.990  29.654  27.977  1.00  0.00     0.016 A 
ATOM     38  C   UNL A   1      35.476  32.021  27.941  1.00  0.00     0.016 A 
ATOM     39  C   UNL A   1      36.141  29.403  28.708  1.00  0.00     0.010 A 
ATOM     40  C   UNL A   1      36.665  31.766  28.628  1.00  0.00     0.010 A 
ATOM     41  C   UNL A   1      36.995  30.458  29.030  1.00  0.00    -0.014 A 
BRANCH  41  42
ATOM     42  C   UNL A   1      38.226  30.189  29.806  1.00  0.00     0.031 A 
ATOM     43  C   UNL A   1      39.280  29.289  29.235  1.00  0.00     0.074 A 
ATOM     44  C   UNL A   1      38.387  30.757  31.015  1.00  0.00     0.049 A 
ATOM     45  N   UNL A   1      40.346  28.796  29.809  1.00  0.00    -0.248 NA
ATOM     46  C   UNL A   1      39.104  28.880  27.833  1.00  0.00     0.031 C 
ATOM     47  C   UNL A   1      37.454  31.698  31.638  1.00  0.00     0.029 A 
ATOM     48  N   UNL A   1      39.386  30.616  31.942  1.00  0.00    -0.354 N 
ATOM     49  C   UNL A   1      40.949  27.990  28.854  1.00  0.00     0.074 A 
ATOM     50  C   UNL A   1      40.122  28.047  27.668  1.00  0.00     0.031 C 
ATOM     51  C   UNL A   1      37.924  32.049  32.845  1.00  0.00     0.029 A 
ATOM     52  C   UNL A   1      39.148  31.301  33.108  1.00  0.00     0.049 A 
ATOM     53  H   UNL A   1      40.196  30.078  31.786  1.00  0.00     0.167 HD
ATOM     54  C   UNL A   1      42.089  27.270  28.967  1.00  0.00     0.037 A 
ATOM     55  C   UNL A   1      39.817  31.285  34.275  1.00  0.00     0.037 A 
ATOM     56  C   UNL A   1      42.908  27.244  30.152  1.00  0.00     0.049 A 
ATOM     57  C   UNL A   1      41.041  30.419  34.397  1.00  0.00     0.074 A 
ATOM     58  C   UNL A   1      44.093  26.563  30.367  1.00  0.00     0.029 A 
ATOM     59  N   UNL A   1      42.622  27.932  31.324  1.00  0.00    -0.354 N 
ATOM     60  N   UNL A   1      41.602  29.648  33.498  1.00  0.00    -0.248 NA
ATOM     61  C   UNL A   1      41.719  30.414  35.700  1.00  0.00     0.031 C 
ATOM     62  C   UNL A   1      44.492  26.792  31.688  1.00  0.00     0.029 A 
ATOM     63  C   UNL A   1      43.592  27.667  32.276  1.00  0.00     0.049 A 
ATOM     64  H   UNL A   1      41.844  28.520  31.458  1.00  0.00     0.167 HD
ATOM     65  C   UNL A   1      42.713  29.090  34.113  1.00  0.00     0.074 A 
ATOM     66  C   UNL A   1      42.754  29.623  35.460  1.00  0.00     0.031 C 
ATOM     67  C   UNL A   1      43.619  28.217  33.608  1.00  0.00     0.037 A 
BRANCH  54  68
ATOM     68  C   UNL A   1      42.496  26.421  27.797  1.00  0.00     0.064 A 
ATOM     69  C   UNL A   1      41.963  25.141  27.584  1.00  0.00     0.173 A 
ATOM     70  C   UNL A   1      43.413  26.913  26.855  1.00  0.00     0.173 A 
ATOM     71  F   UNL A   1      41.095  24.616  28.462  1.00  0.00    -0.203 F 
ATOM     72  C   UNL A   1      42.355  24.374  26.489  1.00  0.00     0.198 A 
ATOM     73  C   UNL A   1      43.777  26.158  25.743  1.00  0.00     0.198 A 
ATOM     74  F   UNL A   1      43.952  28.133  27.007  1.00  0.00    -0.203 F 
ATOM     75  F   UNL A   1      41.872  23.134  26.334  1.00  0.00    -0.200 F 
ATOM     76  C   UNL A   1      43.254  24.886  25.566  1.00  0.00     0.200 A 
ATOM     77  F   UNL A   1      44.636  26.660  24.846  1.00  0.00    -0.200 F 
ATOM     78  F   UNL A   1      43.623  24.150  24.508  1.00  0.00    -0.200 F 
ENDBRANCH  54  68
BRANCH  55  79
ATOM     79  C   UNL A   1      39.322  32.088  35.425  1.00  0.00     0.064 A 
ATOM     80  C   UNL A   1      39.674  33.436  35.569  1.00  0.00     0.173 A 
ATOM     81  C   UNL A   1      38.489  31.523  36.403  1.00  0.00     0.173 A 
ATOM     82  F   UNL A   1      40.485  34.016  34.671  1.00  0.00    -0.203 F 
ATOM     83  C   UNL A   1      39.228  34.184  36.657  1.00  0.00     0.198 A 
ATOM     84  C   UNL A   1      38.016  32.281  37.472  1.00  0.00     0.198 A 
ATOM     85  F   UNL A   1      38.120  30.237  36.313  1.00  0.00    -0.203 F 
ATOM     86  F   UNL A   1      39.619  35.458  36.796  1.00  0.00    -0.200 F 
ATOM     87  C   UNL A   1      38.394  33.608  37.604  1.00  0.00     0.200 A 
ATOM     88  F   UNL A   1      37.196  31.725  38.375  1.00  0.00    -0.200 F 
ATOM     89  F   UNL A   1      37.961  34.331  38.646  1.00  0.00    -0.200 F 
ENDBRANCH  55  79
BRANCH  67  90
ATOM     90  C   UNL A   1      44.758  27.818  34.501  1.00  0.00     0.064 A 
ATOM     91  C   UNL A   1      45.928  28.584  34.596  1.00  0.00     0.173 A 
ATOM     92  C   UNL A   1      44.653  26.675  35.309  1.00  0.00     0.173 A 
ATOM     93  F   UNL A   1      46.083  29.676  33.832  1.00  0.00    -0.203 F 
ATOM     94  C   UNL A   1      46.962  28.208  35.448  1.00  0.00     0.198 A 
ATOM     95  C   UNL A   1      45.674  26.320  36.186  1.00  0.00     0.198 A 
ATOM     96  F   UNL A   1      43.552  25.910  35.262  1.00  0.00    -0.203 F 
ATOM     97  F   UNL A   1      48.092  28.928  35.486  1.00  0.00    -0.200 F 
ATOM     98  C   UNL A   1      46.831  27.083  36.249  1.00  0.00     0.200 A 
ATOM     99  F   UNL A   1      45.538  25.243  36.971  1.00  0.00    -0.200 F 
ATOM    100  F   UNL A   1      47.823  26.730  37.078  1.00  0.00    -0.200 F 
ENDBRANCH  67  90
ENDBRANCH  41  42
ENDBRANCH  34  36
ENDBRANCH  33  34
ENDBRANCH  32  33
ENDBRANCH  31  32
ENDBRANCH   1  31
TORSDOF 17
ENDMDL
MODEL 2
REMARK VINA RESULT:     -12.0      2.708      7.534
REMARK SMILES CCc1cccc(CC)c1N1/C(=[NH+]/C(=O)CCCC(=O)OCCOC(=O)c2ccc(-c3c4nc(c(-c5c(F)c(F)c(F)c(F)c5F)c5ccc([nH]5)c(-c5c(F)c(F)c(F)c(F)c5F)c5nc(c(-c6c(F)c(F)c(F)c(F)c6F)c6ccc3[nH]6)C=C5)C=C4)cc2)S[C@@H]2CS(=O)(=O)C[C@@H]21
REMARK SMILES IDX 21 1 19 2 20 3 18 4 17 5 16 6 14 7 11 8 12 9 97 10 13 11
REMARK SMILES IDX 90 12 91 13 96 14 92 16 93 17 15 18 94 19 95 20 10 21 3 22
REMARK SMILES IDX 4 23 5 24 7 25 6 26 2 27 1 28 8 29 9 30 22 31 23 32 24 33
REMARK SMILES IDX 25 34 26 35 27 36 28 37 89 38 29 39 88 40 30 41 31 42 32 43
REMARK SMILES IDX 82 44 33 45 87 46 81 47 83 48 34 49 86 50 80 51 79 52 35 54
REMARK SMILES IDX 67 55 47 56 66 57 48 58 51 59 65 60 84 61 49 62 50 63 64 65
REMARK SMILES IDX 85 66 52 67 36 68 37 69 45 70 38 71 39 72 43 73 46 74 40 75
REMARK SMILES IDX 41 76 44 77 42 78 68 79 69 80 77 81 70 82 71 83 75 84 78 85
REMARK SMILES IDX 72 86 73 87 76 88 74 89 53 90 54 91 62 92 55 93 56 94 60 95
REMARK SMILES IDX 63 96 57 97 58 98 61 99 59 100
REMARK H PARENT 13 15 83 53 51 64
REMARK Flexibility Score: inf
ROOT
ATOM      1  O   UNL A   1      31.750  28.860  25.898  1.00  0.00    -0.462 OA
ENDROOT
BRANCH   1   2
ATOM      2  C   UNL A   1      31.352  27.696  26.459  1.00  0.00     0.305 C 
ATOM      3  O   UNL A   1      31.048  27.561  27.639  1.00  0.00    -0.252 OA
BRANCH   2   4
ATOM      4  C   UNL A   1      31.260  26.558  25.466  1.00  0.00     0.123 C 
BRANCH   4   5
ATOM      5  C   UNL A   1      29.955  25.792  25.329  1.00  0.00     0.024 C 
BRANCH   5   6
ATOM      6  C   UNL A   1      29.805  24.550  26.199  1.00  0.00     0.128 C 
BRANCH   6   7
ATOM      7  C   UNL A   1      31.113  23.929  26.659  1.00  0.00     0.307 C 
ATOM      8  N   UNL A   1      33.366  21.382  25.233  1.00  0.00    -0.216 N 
ATOM      9  C   UNL A   1      32.693  22.271  26.091  1.00  0.00     0.319 C 
ATOM     10  C   UNL A   1      34.674  20.879  25.735  1.00  0.00     0.212 C 
ATOM     11  N   UNL A   1      31.573  22.881  25.877  1.00  0.00    -0.204 N 
ATOM     12  S   UNL A   1      33.680  22.493  27.558  1.00  0.00    -0.029 SA
ATOM     13  C   UNL A   1      35.172  21.894  26.771  1.00  0.00     0.120 C 
ATOM     14  C   UNL A   1      35.768  20.705  24.683  1.00  0.00     0.188 C 
ATOM     15  H   UNL A   1      31.017  22.587  25.120  1.00  0.00     0.316 HD
ATOM     16  C   UNL A   1      35.914  22.991  26.033  1.00  0.00     0.156 C 
ATOM     17  S   UNL A   1      36.915  22.049  24.911  1.00  0.00     0.155 S 
ATOM     18  O   UNL A   1      31.666  24.431  27.634  1.00  0.00    -0.247 OA
ATOM     19  O   UNL A   1      37.079  22.774  23.672  1.00  0.00    -0.229 OA
ATOM     20  O   UNL A   1      38.049  21.544  25.659  1.00  0.00    -0.229 OA
BRANCH   8  21
ATOM     21  C   UNL A   1      32.778  20.637  24.173  1.00  0.00     0.134 A 
ATOM     22  C   UNL A   1      32.496  21.218  22.902  1.00  0.00    -0.001 A 
ATOM     23  C   UNL A   1      32.093  20.375  21.830  1.00  0.00     0.008 A 
ATOM     24  C   UNL A   1      32.024  19.000  21.948  1.00  0.00     0.001 A 
ATOM     25  C   UNL A   1      32.613  19.214  24.302  1.00  0.00    -0.001 A 
ATOM     26  C   UNL A   1      32.294  18.425  23.174  1.00  0.00     0.008 A 
BRANCH  22  27
ATOM     27  C   UNL A   1      32.548  22.670  22.455  1.00  0.00     0.036 C 
ATOM     28  C   UNL A   1      33.725  23.576  22.726  1.00  0.00     0.009 C 
ENDBRANCH  22  27
BRANCH  25  29
ATOM     29  C   UNL A   1      32.805  18.450  25.604  1.00  0.00     0.036 C 
ATOM     30  C   UNL A   1      32.629  16.937  25.475  1.00  0.00     0.009 C 
ENDBRANCH  25  29
ENDBRANCH   8  21
ENDBRANCH   6   7
ENDBRANCH   5   6
ENDBRANCH   4   5
ENDBRANCH   2   4
ENDBRANCH   1   2
BRANCH   1  31
ATOM     31  C   UNL A   1      33.090  28.908  25.383  1.00  0.00     0.274 C 
BRANCH  31  32
ATOM     32  C   UNL A   1      34.088  28.698  26.524  1.00  0.00     0.275 C 
BRANCH  32  33
ATOM     33  O   UNL A   1      33.815  29.584  27.628  1.00  0.00    -0.458 OA
BRANCH  33  34
ATOM     34  C   UNL A   1      34.710  30.584  27.801  1.00  0.00     0.338 C 
ATOM     35  O   UNL A   1      34.499  31.785  27.793  1.00  0.00    -0.246 OA
BRANCH  34  36
ATOM     36  C   UNL A   1      36.031  30.024  28.117  1.00  0.00     0.060 A 
ATOM     37  C   UNL A   1      36.242  29.466  29.378  1.00  0.00     0.016 A 
ATOM     38  C   UNL A   1      37.087  30.164  27.224  1.00  0.00     0.016 A 
ATOM     39  C   UNL A   1      37.512  29.083  29.780  1.00  0.00     0.010 A 
ATOM     40  C   UNL A   1      38.359  29.727  27.605  1.00  0.00     0.010 A 
ATOM     41  C   UNL A   1      38.580  29.200  28.891  1.00  0.00    -0.014 A 
BRANCH  41  42
ATOM     42  C   UNL A   1      39.935  28.787  29.319  1.00  0.00     0.031 A 
ATOM     43  C   UNL A   1      40.746  29.698  30.191  1.00  0.00     0.074 A 
ATOM     44  C   UNL A   1      40.424  27.599  28.922  1.00  0.00     0.049 A 
ATOM     45  N   UNL A   1      42.002  29.604  30.542  1.00  0.00    -0.248 NA
ATOM     46  C   UNL A   1      40.053  30.876  30.733  1.00  0.00     0.031 C 
ATOM     47  C   UNL A   1      39.697  26.608  28.125  1.00  0.00     0.029 A 
ATOM     48  N   UNL A   1      41.653  27.027  29.123  1.00  0.00    -0.354 N 
ATOM     49  C   UNL A   1      42.261  30.729  31.313  1.00  0.00     0.074 A 
ATOM     50  C   UNL A   1      41.036  31.498  31.367  1.00  0.00     0.031 C 
ATOM     51  C   UNL A   1      40.494  25.552  27.904  1.00  0.00     0.029 A 
ATOM     52  C   UNL A   1      41.807  25.824  28.478  1.00  0.00     0.049 A 
ATOM     53  H   UNL A   1      42.356  27.437  29.678  1.00  0.00     0.167 HD
ATOM     54  C   UNL A   1      43.420  31.079  31.917  1.00  0.00     0.037 A 
ATOM     55  C   UNL A   1      42.899  25.055  28.325  1.00  0.00     0.037 A 
ATOM     56  C   UNL A   1      44.623  30.287  31.866  1.00  0.00     0.049 A 
ATOM     57  C   UNL A   1      44.194  25.505  28.945  1.00  0.00     0.074 A 
ATOM     58  C   UNL A   1      45.848  30.540  32.457  1.00  0.00     0.029 A 
ATOM     59  N   UNL A   1      44.748  29.086  31.181  1.00  0.00    -0.354 N 
ATOM     60  N   UNL A   1      44.441  26.573  29.662  1.00  0.00    -0.248 NA
ATOM     61  C   UNL A   1      45.365  24.645  28.726  1.00  0.00     0.031 C 
ATOM     62  C   UNL A   1      46.731  29.522  32.081  1.00  0.00     0.029 A 
ATOM     63  C   UNL A   1      46.039  28.600  31.310  1.00  0.00     0.049 A 
ATOM     64  H   UNL A   1      44.026  28.645  30.678  1.00  0.00     0.167 HD
ATOM     65  C   UNL A   1      45.783  26.502  30.006  1.00  0.00     0.074 A 
ATOM     66  C   UNL A   1      46.295  25.276  29.428  1.00  0.00     0.031 C 
ATOM     67  C   UNL A   1      46.525  27.372  30.735  1.00  0.00     0.037 A 
BRANCH  54  68
ATOM     68  C   UNL A   1      43.458  32.391  32.646  1.00  0.00     0.064 A 
ATOM     69  C   UNL A   1      43.800  33.591  32.005  1.00  0.00     0.173 A 
ATOM     70  C   UNL A   1      43.113  32.451  34.006  1.00  0.00     0.173 A 
ATOM     71  F   UNL A   1      44.152  33.589  30.711  1.00  0.00    -0.203 F 
ATOM     72  C   UNL A   1      43.824  34.796  32.704  1.00  0.00     0.198 A 
ATOM     73  C   UNL A   1      43.105  33.662  34.693  1.00  0.00     0.198 A 
ATOM     74  F   UNL A   1      42.774  31.334  34.668  1.00  0.00    -0.203 F 
ATOM     75  F   UNL A   1      44.204  35.921  32.083  1.00  0.00    -0.200 F 
ATOM     76  C   UNL A   1      43.469  34.832  34.044  1.00  0.00     0.200 A 
ATOM     77  F   UNL A   1      42.750  33.695  35.985  1.00  0.00    -0.200 F 
ATOM     78  F   UNL A   1      43.484  35.993  34.712  1.00  0.00    -0.200 F 
ENDBRANCH  54  68
BRANCH  55  79
ATOM     79  C   UNL A   1      42.821  23.804  27.526  1.00  0.00     0.064 A 
ATOM     80  C   UNL A   1      42.380  22.605  28.102  1.00  0.00     0.173 A 
ATOM     81  C   UNL A   1      43.185  23.781  26.170  1.00  0.00     0.173 A 
ATOM     82  F   UNL A   1      42.042  22.571  29.400  1.00  0.00    -0.203 F 
ATOM     83  C   UNL A   1      42.326  21.427  27.360  1.00  0.00     0.198 A 
ATOM     84  C   UNL A   1      43.097  22.609  25.420  1.00  0.00     0.198 A 
ATOM     85  F   UNL A   1      43.611  24.901  25.568  1.00  0.00    -0.203 F 
ATOM     86  F   UNL A   1      41.948  20.285  27.948  1.00  0.00    -0.200 F 
ATOM     87  C   UNL A   1      42.677  21.432  26.018  1.00  0.00     0.200 A 
ATOM     88  F   UNL A   1      43.421  22.624  24.120  1.00  0.00    -0.200 F 
ATOM     89  F   UNL A   1      42.618  20.299  25.304  1.00  0.00    -0.200 F 
ENDBRANCH  55  79
BRANCH  67  90
ATOM     90  C   UNL A   1      47.958  27.006  30.987  1.00  0.00     0.064 A 
ATOM     91  C   UNL A   1      48.342  26.239  32.097  1.00  0.00     0.173 A 
ATOM     92  C   UNL A   1      48.955  27.390  30.077  1.00  0.00     0.173 A 
ATOM     93  F   UNL A   1      47.429  25.861  33.004  1.00  0.00    -0.203 F 
ATOM     94  C   UNL A   1      49.674  25.891  32.299  1.00  0.00     0.198 A 
ATOM     95  C   UNL A   1      50.282  27.011  30.264  1.00  0.00     0.198 A 
ATOM     96  F   UNL A   1      48.641  28.119  28.996  1.00  0.00    -0.203 F 
ATOM     97  F   UNL A   1      50.026  25.200  33.392  1.00  0.00    -0.200 F 
ATOM     98  C   UNL A   1      50.641  26.269  31.378  1.00  0.00     0.200 A 
ATOM     99  F   UNL A   1      51.211  27.363  29.365  1.00  0.00    -0.200 F 
ATOM    100  F   UNL A   1      51.921  25.922  31.569  1.00  0.00    -0.200 F 
ENDBRANCH  67  90
ENDBRANCH  41  42
ENDBRANCH  34  36
ENDBRANCH  33  34
ENDBRANCH  32  33
ENDBRANCH  31  32
ENDBRANCH   1  31
TORSDOF 17
ENDMDL
MODEL 3
REMARK VINA RESULT:     -11.3      1.064      2.406
REMARK SMILES CCc1cccc(CC)c1N1/C(=[NH+]/C(=O)CCCC(=O)OCCOC(=O)c2ccc(-c3c4nc(c(-c5c(F)c(F)c(F)c(F)c5F)c5ccc([nH]5)c(-c5c(F)c(F)c(F)c(F)c5F)c5nc(c(-c6c(F)c(F)c(F)c(F)c6F)c6ccc3[nH]6)C=C5)C=C4)cc2)S[C@@H]2CS(=O)(=O)C[C@@H]21
REMARK SMILES IDX 21 1 19 2 20 3 18 4 17 5 16 6 14 7 11 8 12 9 97 10 13 11
REMARK SMILES IDX 90 12 91 13 96 14 92 16 93 17 15 18 94 19 95 20 10 21 3 22
REMARK SMILES IDX 4 23 5 24 7 25 6 26 2 27 1 28 8 29 9 30 22 31 23 32 24 33
REMARK SMILES IDX 25 34 26 35 27 36 28 37 89 38 29 39 88 40 30 41 31 42 32 43
REMARK SMILES IDX 82 44 33 45 87 46 81 47 83 48 34 49 86 50 80 51 79 52 35 54
REMARK SMILES IDX 67 55 47 56 66 57 48 58 51 59 65 60 84 61 49 62 50 63 64 65
REMARK SMILES IDX 85 66 52 67 36 68 37 69 45 70 38 71 39 72 43 73 46 74 40 75
REMARK SMILES IDX 41 76 44 77 42 78 68 79 69 80 77 81 70 82 71 83 75 84 78 85
REMARK SMILES IDX 72 86 73 87 76 88 74 89 53 90 54 91 62 92 55 93 56 94 60 95
REMARK SMILES IDX 63 96 57 97 58 98 61 99 59 100
REMARK H PARENT 13 15 83 53 51 64
REMARK Flexibility Score: inf
ROOT
ATOM      1  O   UNL A   1      31.853  29.120  26.011  1.00  0.00    -0.462 OA
ENDROOT
BRANCH   1   2
ATOM      2  C   UNL A   1      31.643  27.974  26.696  1.00  0.00     0.305 C 
ATOM      3  O   UNL A   1      31.587  27.894  27.919  1.00  0.00    -0.252 OA
BRANCH   2   4
ATOM      4  C   UNL A   1      31.423  26.776  25.799  1.00  0.00     0.123 C 
BRANCH   4   5
ATOM      5  C   UNL A   1      30.030  26.184  25.674  1.00  0.00     0.024 C 
BRANCH   5   6
ATOM      6  C   UNL A   1      29.866  24.736  26.120  1.00  0.00     0.128 C 
BRANCH   6   7
ATOM      7  C   UNL A   1      31.140  24.073  26.618  1.00  0.00     0.307 C 
ATOM      8  N   UNL A   1      33.570  21.757  25.094  1.00  0.00    -0.216 N 
ATOM      9  C   UNL A   1      32.802  22.519  25.993  1.00  0.00     0.319 C 
ATOM     10  C   UNL A   1      34.837  21.205  25.649  1.00  0.00     0.212 C 
ATOM     11  N   UNL A   1      31.693  23.141  25.754  1.00  0.00    -0.204 N 
ATOM     12  S   UNL A   1      33.643  22.557  27.562  1.00  0.00    -0.029 SA
ATOM     13  C   UNL A   1      35.214  22.080  26.850  1.00  0.00     0.120 C 
ATOM     14  C   UNL A   1      36.027  21.181  24.691  1.00  0.00     0.188 C 
ATOM     15  H   UNL A   1      31.216  22.943  24.916  1.00  0.00     0.316 HD
ATOM     16  C   UNL A   1      35.997  23.272  26.334  1.00  0.00     0.156 C 
ATOM     17  S   UNL A   1      37.118  22.495  25.199  1.00  0.00     0.155 S 
ATOM     18  O   UNL A   1      31.589  24.449  27.698  1.00  0.00    -0.247 OA
ATOM     19  O   UNL A   1      37.381  23.377  24.086  1.00  0.00    -0.229 OA
ATOM     20  O   UNL A   1      38.189  21.907  25.979  1.00  0.00    -0.229 OA
BRANCH   8  21
ATOM     21  C   UNL A   1      33.100  21.151  23.896  1.00  0.00     0.134 A 
ATOM     22  C   UNL A   1      32.695  19.785  23.845  1.00  0.00    -0.001 A 
ATOM     23  C   UNL A   1      32.054  19.297  22.673  1.00  0.00     0.008 A 
ATOM     24  C   UNL A   1      31.746  20.109  21.598  1.00  0.00     0.001 A 
ATOM     25  C   UNL A   1      32.853  21.959  22.732  1.00  0.00    -0.001 A 
ATOM     26  C   UNL A   1      32.134  21.433  21.635  1.00  0.00     0.008 A 
BRANCH  22  27
ATOM     27  C   UNL A   1      32.835  18.682  24.881  1.00  0.00     0.036 C 
ATOM     28  C   UNL A   1      33.349  17.301  24.554  1.00  0.00     0.009 C 
ENDBRANCH  22  27
BRANCH  25  29
ATOM     29  C   UNL A   1      33.285  23.412  22.598  1.00  0.00     0.036 C 
ATOM     30  C   UNL A   1      32.157  24.369  22.218  1.00  0.00     0.009 C 
ENDBRANCH  25  29
ENDBRANCH   8  21
ENDBRANCH   6   7
ENDBRANCH   5   6
ENDBRANCH   4   5
ENDBRANCH   2   4
ENDBRANCH   1   2
BRANCH   1  31
ATOM     31  C   UNL A   1      32.867  30.003  26.517  1.00  0.00     0.274 C 
BRANCH  31  32
ATOM     32  C   UNL A   1      32.231  31.326  26.945  1.00  0.00     0.275 C 
BRANCH  32  33
ATOM     33  O   UNL A   1      33.117  32.437  26.700  1.00  0.00    -0.458 OA
BRANCH  33  34
ATOM     34  C   UNL A   1      33.471  33.146  27.796  1.00  0.00     0.338 C 
ATOM     35  O   UNL A   1      32.853  34.052  28.332  1.00  0.00    -0.246 OA
BRANCH  34  36
ATOM     36  C   UNL A   1      34.714  32.607  28.363  1.00  0.00     0.060 A 
ATOM     37  C   UNL A   1      34.645  31.502  29.211  1.00  0.00     0.016 A 
ATOM     38  C   UNL A   1      35.923  33.263  28.160  1.00  0.00     0.016 A 
ATOM     39  C   UNL A   1      35.764  31.066  29.902  1.00  0.00     0.010 A 
ATOM     40  C   UNL A   1      37.067  32.792  28.810  1.00  0.00     0.010 A 
ATOM     41  C   UNL A   1      36.989  31.702  29.697  1.00  0.00    -0.014 A 
BRANCH  41  42
ATOM     42  C   UNL A   1      38.186  31.234  30.431  1.00  0.00     0.031 A 
ATOM     43  C   UNL A   1      39.106  30.238  29.790  1.00  0.00     0.074 A 
ATOM     44  C   UNL A   1      38.437  31.707  31.665  1.00  0.00     0.049 A 
ATOM     45  N   UNL A   1      40.107  29.581  30.314  1.00  0.00    -0.248 NA
ATOM     46  C   UNL A   1      38.858  29.935  28.372  1.00  0.00     0.031 C 
ATOM     47  C   UNL A   1      37.643  32.724  32.358  1.00  0.00     0.029 A 
ATOM     48  N   UNL A   1      39.422  31.386  32.561  1.00  0.00    -0.354 N 
ATOM     49  C   UNL A   1      40.586  28.759  29.303  1.00  0.00     0.074 A 
ATOM     50  C   UNL A   1      39.757  28.989  28.140  1.00  0.00     0.031 C 
ATOM     51  C   UNL A   1      38.172  32.942  33.571  1.00  0.00     0.029 A 
ATOM     52  C   UNL A   1      39.292  32.029  33.768  1.00  0.00     0.049 A 
ATOM     53  H   UNL A   1      40.153  30.758  32.359  1.00  0.00     0.167 HD
ATOM     54  C   UNL A   1      41.624  27.893  29.352  1.00  0.00     0.037 A 
ATOM     55  C   UNL A   1      39.969  31.862  34.918  1.00  0.00     0.037 A 
ATOM     56  C   UNL A   1      42.450  27.695  30.516  1.00  0.00     0.049 A 
ATOM     57  C   UNL A   1      41.072  30.840  34.966  1.00  0.00     0.074 A 
ATOM     58  C   UNL A   1      43.539  26.856  30.669  1.00  0.00     0.029 A 
ATOM     59  N   UNL A   1      42.272  28.346  31.730  1.00  0.00    -0.354 N 
ATOM     60  N   UNL A   1      41.515  30.055  34.015  1.00  0.00    -0.248 NA
ATOM     61  C   UNL A   1      41.763  30.674  36.252  1.00  0.00     0.031 C 
ATOM     62  C   UNL A   1      43.984  26.956  31.991  1.00  0.00     0.029 A 
ATOM     63  C   UNL A   1      43.214  27.906  32.645  1.00  0.00     0.049 A 
ATOM     64  H   UNL A   1      41.579  29.021  31.912  1.00  0.00     0.167 HD
ATOM     65  C   UNL A   1      42.553  29.324  34.574  1.00  0.00     0.074 A 
ATOM     66  C   UNL A   1      42.682  29.770  35.947  1.00  0.00     0.031 C 
ATOM     67  C   UNL A   1      43.331  28.371  34.004  1.00  0.00     0.037 A 
BRANCH  54  68
ATOM     68  C   UNL A   1      41.900  27.065  28.130  1.00  0.00     0.064 A 
ATOM     69  C   UNL A   1      42.853  27.444  27.172  1.00  0.00     0.173 A 
ATOM     70  C   UNL A   1      41.219  25.853  27.932  1.00  0.00     0.173 A 
ATOM     71  F   UNL A   1      43.521  28.600  27.305  1.00  0.00    -0.203 F 
ATOM     72  C   UNL A   1      43.092  26.656  26.049  1.00  0.00     0.198 A 
ATOM     73  C   UNL A   1      41.485  25.052  26.825  1.00  0.00     0.198 A 
ATOM     74  F   UNL A   1      40.300  25.441  28.818  1.00  0.00    -0.203 F 
ATOM     75  F   UNL A   1      43.969  27.063  25.121  1.00  0.00    -0.200 F 
ATOM     76  C   UNL A   1      42.415  25.458  25.880  1.00  0.00     0.200 A 
ATOM     77  F   UNL A   1      40.838  23.888  26.672  1.00  0.00    -0.200 F 
ATOM     78  F   UNL A   1      42.653  24.697  24.803  1.00  0.00    -0.200 F 
ENDBRANCH  54  68
BRANCH  55  79
ATOM     79  C   UNL A   1      39.600  32.655  36.119  1.00  0.00     0.064 A 
ATOM     80  C   UNL A   1      38.585  32.225  36.984  1.00  0.00     0.173 A 
ATOM     81  C   UNL A   1      40.253  33.859  36.427  1.00  0.00     0.173 A 
ATOM     82  F   UNL A   1      37.917  31.092  36.722  1.00  0.00    -0.203 F 
ATOM     83  C   UNL A   1      38.224  32.979  38.100  1.00  0.00     0.198 A 
ATOM     84  C   UNL A   1      39.914  34.594  37.562  1.00  0.00     0.198 A 
ATOM     85  F   UNL A   1      41.233  34.316  35.634  1.00  0.00    -0.203 F 
ATOM     86  F   UNL A   1      37.217  32.569  38.883  1.00  0.00    -0.200 F 
ATOM     87  C   UNL A   1      38.893  34.158  38.391  1.00  0.00     0.200 A 
ATOM     88  F   UNL A   1      40.575  35.723  37.848  1.00  0.00    -0.200 F 
ATOM     89  F   UNL A   1      38.549  34.878  39.468  1.00  0.00    -0.200 F 
ENDBRANCH  55  79
BRANCH  67  90
ATOM     90  C   UNL A   1      44.420  27.779  34.850  1.00  0.00     0.064 A 
ATOM     91  C   UNL A   1      45.680  28.385  34.965  1.00  0.00     0.173 A 
ATOM     92  C   UNL A   1      44.182  26.612  35.591  1.00  0.00     0.173 A 
ATOM     93  F   UNL A   1      45.962  29.493  34.264  1.00  0.00    -0.203 F 
ATOM     94  C   UNL A   1      46.668  27.831  35.774  1.00  0.00     0.198 A 
ATOM     95  C   UNL A   1      45.161  26.079  36.425  1.00  0.00     0.198 A 
ATOM     96  F   UNL A   1      42.992  25.996  35.521  1.00  0.00    -0.203 F 
ATOM     97  F   UNL A   1      47.880  28.399  35.831  1.00  0.00    -0.200 F 
ATOM     98  C   UNL A   1      46.405  26.685  36.510  1.00  0.00     0.200 A 
ATOM     99  F   UNL A   1      44.899  24.982  37.149  1.00  0.00    -0.200 F 
ATOM    100  F   UNL A   1      47.354  26.160  37.297  1.00  0.00    -0.200 F 
ENDBRANCH  67  90
ENDBRANCH  41  42
ENDBRANCH  34  36
ENDBRANCH  33  34
ENDBRANCH  32  33
ENDBRANCH  31  32
ENDBRANCH   1  31
TORSDOF 17
ENDMDL
