MODEL 1
REMARK VINA RESULT:     -10.4      0.000      0.000
REMARK SMILES CNC(=O)CC[NH+]1CCC(CC(=O)OCCOC(=O)c2ccc(-c3c4nc(c(-c5c(F)c(F)c(F)c(F)c5F)c5ccc([nH]5)c(-c5c(F)c(F)c(F)c(F)c5F)c5nc(c(-c6c(F)c(F)c(F)c(F)c6F)c6ccc3[nH]6)C=C5)C=C4)cc2)CC1
REMARK SMILES IDX 15 1 14 2 12 3 13 4 11 5 10 6 7 7 8 8 84 9 9 11 83 12 6 13
REMARK SMILES IDX 5 14 3 15 1 16 2 17 4 19 16 20 17 21 18 22 19 23 20 24 21 25
REMARK SMILES IDX 82 26 22 27 81 28 23 29 24 30 25 31 75 32 26 33 80 34 74 35
REMARK SMILES IDX 76 36 27 37 79 38 73 39 72 40 28 42 60 43 40 44 59 45 41 46
REMARK SMILES IDX 44 47 58 48 77 49 42 50 43 51 57 53 78 54 45 55 29 56 30 57
REMARK SMILES IDX 38 58 31 59 32 60 36 61 39 62 33 63 34 64 37 65 35 66 61 67
REMARK SMILES IDX 62 68 70 69 63 70 64 71 68 72 71 73 65 74 66 75 69 76 67 77
REMARK SMILES IDX 46 78 47 79 55 80 48 81 49 82 53 83 56 84 50 85 51 86 54 87
REMARK SMILES IDX 52 88
REMARK H PARENT 7 10 2 18 76 41 44 52
REMARK Flexibility Score: inf
ROOT
ATOM      1  C   UNL A   1      33.300  35.062  28.743  1.00  0.00     0.274 C 
ENDROOT
BRANCH   1   2
ATOM      2  O   UNL A   1      34.563  34.435  29.024  1.00  0.00    -0.462 OA
BRANCH   2   3
ATOM      3  C   UNL A   1      34.540  33.102  29.274  1.00  0.00     0.306 C 
ATOM      4  O   UNL A   1      34.246  32.591  30.348  1.00  0.00    -0.252 OA
BRANCH   3   5
ATOM      5  C   UNL A   1      34.981  32.296  28.075  1.00  0.00     0.126 C 
BRANCH   5   6
ATOM      6  C   UNL A   1      34.267  30.945  27.861  1.00  0.00     0.011 C 
ATOM      7  N   UNL A   1      33.969  29.094  25.662  1.00  0.00    -0.334 N 
ATOM      8  C   UNL A   1      32.754  29.731  26.177  1.00  0.00     0.262 C 
ATOM      9  C   UNL A   1      34.777  28.647  26.797  1.00  0.00     0.262 C 
ATOM     10  H   UNL A   1      34.499  29.782  25.127  1.00  0.00     0.348 HD
ATOM     11  C   UNL A   1      33.149  31.059  26.810  1.00  0.00     0.066 C 
ATOM     12  C   UNL A   1      35.332  29.888  27.496  1.00  0.00     0.066 C 
BRANCH   7  13
ATOM     13  C   UNL A   1      33.699  28.029  24.694  1.00  0.00     0.272 C 
BRANCH  13  14
ATOM     14  C   UNL A   1      33.555  28.571  23.267  1.00  0.00     0.161 C 
BRANCH  14  15
ATOM     15  C   UNL A   1      33.113  27.504  22.286  1.00  0.00     0.225 C 
ATOM     16  C   UNL A   1      30.657  28.074  22.475  1.00  0.00     0.142 C 
ATOM     17  N   UNL A   1      31.791  27.314  22.014  1.00  0.00    -0.359 N 
ATOM     18  H   UNL A   1      31.584  26.554  21.423  1.00  0.00     0.163 HD
ATOM     19  O   UNL A   1      33.939  26.783  21.723  1.00  0.00    -0.275 OA
ENDBRANCH  14  15
ENDBRANCH  13  14
ENDBRANCH   7  13
ENDBRANCH   5   6
ENDBRANCH   3   5
ENDBRANCH   2   3
ENDBRANCH   1   2
BRANCH   1  20
ATOM     20  C   UNL A   1      32.927  36.074  29.828  1.00  0.00     0.275 C 
BRANCH  20  21
ATOM     21  O   UNL A   1      32.355  35.414  30.974  1.00  0.00    -0.458 OA
BRANCH  21  22
ATOM     22  C   UNL A   1      32.733  35.895  32.180  1.00  0.00     0.338 C 
ATOM     23  O   UNL A   1      32.175  36.741  32.855  1.00  0.00    -0.246 OA
BRANCH  22  24
ATOM     24  C   UNL A   1      33.908  35.146  32.650  1.00  0.00     0.060 A 
ATOM     25  C   UNL A   1      35.179  35.671  32.402  1.00  0.00     0.016 A 
ATOM     26  C   UNL A   1      33.760  33.904  33.268  1.00  0.00     0.016 A 
ATOM     27  C   UNL A   1      36.315  34.957  32.771  1.00  0.00     0.010 A 
ATOM     28  C   UNL A   1      34.901  33.188  33.642  1.00  0.00     0.010 A 
ATOM     29  C   UNL A   1      36.182  33.706  33.387  1.00  0.00    -0.014 A 
BRANCH  29  30
ATOM     30  C   UNL A   1      37.391  32.920  33.720  1.00  0.00     0.031 A 
ATOM     31  C   UNL A   1      38.104  33.167  35.016  1.00  0.00     0.074 A 
ATOM     32  C   UNL A   1      37.832  31.975  32.870  1.00  0.00     0.049 A 
ATOM     33  N   UNL A   1      39.227  32.658  35.454  1.00  0.00    -0.248 NA
ATOM     34  C   UNL A   1      37.464  34.110  35.948  1.00  0.00     0.031 C 
ATOM     35  C   UNL A   1      37.189  31.608  31.608  1.00  0.00     0.029 A 
ATOM     36  N   UNL A   1      38.929  31.154  32.940  1.00  0.00    -0.354 N 
ATOM     37  C   UNL A   1      39.434  33.223  36.705  1.00  0.00     0.074 A 
ATOM     38  C   UNL A   1      38.331  34.128  36.951  1.00  0.00     0.031 C 
ATOM     39  C   UNL A   1      37.907  30.637  31.019  1.00  0.00     0.029 A 
ATOM     40  C   UNL A   1      39.080  30.347  31.840  1.00  0.00     0.049 A 
ATOM     41  H   UNL A   1      39.548  31.145  33.706  1.00  0.00     0.167 HD
ATOM     42  C   UNL A   1      40.451  33.000  37.570  1.00  0.00     0.037 A 
ATOM     43  C   UNL A   1      40.070  29.491  31.522  1.00  0.00     0.037 A 
ATOM     44  C   UNL A   1      41.547  32.100  37.322  1.00  0.00     0.049 A 
ATOM     45  C   UNL A   1      41.227  29.320  32.470  1.00  0.00     0.074 A 
ATOM     46  C   UNL A   1      42.642  31.830  38.123  1.00  0.00     0.029 A 
ATOM     47  N   UNL A   1      41.679  31.317  36.185  1.00  0.00    -0.354 N 
ATOM     48  N   UNL A   1      41.430  29.880  33.637  1.00  0.00    -0.248 NA
ATOM     49  C   UNL A   1      42.296  28.403  32.049  1.00  0.00     0.031 C 
ATOM     50  C   UNL A   1      43.452  30.902  37.459  1.00  0.00     0.029 A 
ATOM     51  C   UNL A   1      42.842  30.568  36.260  1.00  0.00     0.049 A 
ATOM     52  H   UNL A   1      41.041  31.297  35.436  1.00  0.00     0.167 HD
ATOM     53  C   UNL A   1      42.633  29.366  34.101  1.00  0.00     0.074 A 
ATOM     54  C   UNL A   1      43.109  28.440  33.095  1.00  0.00     0.031 C 
ATOM     55  C   UNL A   1      43.287  29.639  35.256  1.00  0.00     0.037 A 
BRANCH  42  56
ATOM     56  C   UNL A   1      40.436  33.755  38.864  1.00  0.00     0.064 A 
ATOM     57  C   UNL A   1      41.146  34.954  39.017  1.00  0.00     0.173 A 
ATOM     58  C   UNL A   1      39.666  33.302  39.945  1.00  0.00     0.173 A 
ATOM     59  F   UNL A   1      41.910  35.419  38.016  1.00  0.00    -0.203 F 
ATOM     60  C   UNL A   1      41.095  35.667  40.212  1.00  0.00     0.198 A 
ATOM     61  C   UNL A   1      39.600  34.028  41.130  1.00  0.00     0.198 A 
ATOM     62  F   UNL A   1      38.968  32.161  39.846  1.00  0.00    -0.203 F 
ATOM     63  F   UNL A   1      41.805  36.796  40.347  1.00  0.00    -0.200 F 
ATOM     64  C   UNL A   1      40.316  35.208  41.264  1.00  0.00     0.200 A 
ATOM     65  F   UNL A   1      38.841  33.587  42.143  1.00  0.00    -0.200 F 
ATOM     66  F   UNL A   1      40.260  35.901  42.409  1.00  0.00    -0.200 F 
ENDBRANCH  42  56
BRANCH  43  67
ATOM     67  C   UNL A   1      40.028  28.745  30.239  1.00  0.00     0.064 A 
ATOM     68  C   UNL A   1      39.448  27.472  30.163  1.00  0.00     0.173 A 
ATOM     69  C   UNL A   1      40.596  29.276  29.071  1.00  0.00     0.173 A 
ATOM     70  F   UNL A   1      38.918  26.911  31.260  1.00  0.00    -0.203 F 
ATOM     71  C   UNL A   1      39.457  26.748  28.972  1.00  0.00     0.198 A 
ATOM     72  C   UNL A   1      40.580  28.563  27.875  1.00  0.00     0.198 A 
ATOM     73  F   UNL A   1      41.167  30.489  29.093  1.00  0.00    -0.203 F 
ATOM     74  F   UNL A   1      38.942  25.512  28.939  1.00  0.00    -0.200 F 
ATOM     75  C   UNL A   1      40.019  27.296  27.829  1.00  0.00     0.200 A 
ATOM     76  F   UNL A   1      41.118  29.098  26.771  1.00  0.00    -0.200 F 
ATOM     77  F   UNL A   1      40.031  26.597  26.685  1.00  0.00    -0.200 F 
ENDBRANCH  43  67
BRANCH  55  78
ATOM     78  C   UNL A   1      44.564  28.897  35.510  1.00  0.00     0.064 A 
ATOM     79  C   UNL A   1      45.803  29.408  35.097  1.00  0.00     0.173 A 
ATOM     80  C   UNL A   1      44.550  27.679  36.206  1.00  0.00     0.173 A 
ATOM     81  F   UNL A   1      45.864  30.561  34.415  1.00  0.00    -0.203 F 
ATOM     82  C   UNL A   1      46.982  28.713  35.352  1.00  0.00     0.198 A 
ATOM     83  C   UNL A   1      45.733  26.999  36.480  1.00  0.00     0.198 A 
ATOM     84  F   UNL A   1      43.389  27.154  36.625  1.00  0.00    -0.203 F 
ATOM     85  F   UNL A   1      48.152  29.198  34.914  1.00  0.00    -0.200 F 
ATOM     86  C   UNL A   1      46.946  27.513  36.049  1.00  0.00     0.200 A 
ATOM     87  F   UNL A   1      45.699  25.844  37.160  1.00  0.00    -0.200 F 
ATOM     88  F   UNL A   1      48.082  26.848  36.297  1.00  0.00    -0.200 F 
ENDBRANCH  55  78
ENDBRANCH  29  30
ENDBRANCH  22  24
ENDBRANCH  21  22
ENDBRANCH  20  21
ENDBRANCH   1  20
TORSDOF 15
ENDMDL
MODEL 2
REMARK VINA RESULT:     -10.3      3.409      6.959
REMARK SMILES CNC(=O)CC[NH+]1CCC(CC(=O)OCCOC(=O)c2ccc(-c3c4nc(c(-c5c(F)c(F)c(F)c(F)c5F)c5ccc([nH]5)c(-c5c(F)c(F)c(F)c(F)c5F)c5nc(c(-c6c(F)c(F)c(F)c(F)c6F)c6ccc3[nH]6)C=C5)C=C4)cc2)CC1
REMARK SMILES IDX 15 1 14 2 12 3 13 4 11 5 10 6 7 7 8 8 84 9 9 11 83 12 6 13
REMARK SMILES IDX 5 14 3 15 1 16 2 17 4 19 16 20 17 21 18 22 19 23 20 24 21 25
REMARK SMILES IDX 82 26 22 27 81 28 23 29 24 30 25 31 75 32 26 33 80 34 74 35
REMARK SMILES IDX 76 36 27 37 79 38 73 39 72 40 28 42 60 43 40 44 59 45 41 46
REMARK SMILES IDX 44 47 58 48 77 49 42 50 43 51 57 53 78 54 45 55 29 56 30 57
REMARK SMILES IDX 38 58 31 59 32 60 36 61 39 62 33 63 34 64 37 65 35 66 61 67
REMARK SMILES IDX 62 68 70 69 63 70 64 71 68 72 71 73 65 74 66 75 69 76 67 77
REMARK SMILES IDX 46 78 47 79 55 80 48 81 49 82 53 83 56 84 50 85 51 86 54 87
REMARK SMILES IDX 52 88
REMARK H PARENT 7 10 2 18 76 41 44 52
REMARK Flexibility Score: inf
ROOT
ATOM      1  C   UNL A   1      33.629  34.536  28.686  1.00  0.00     0.274 C 
ENDROOT
BRANCH   1   2
ATOM      2  O   UNL A   1      32.665  34.718  29.738  1.00  0.00    -0.462 OA
BRANCH   2   3
ATOM      3  C   UNL A   1      32.950  35.661  30.670  1.00  0.00     0.306 C 
ATOM      4  O   UNL A   1      32.252  36.635  30.923  1.00  0.00    -0.252 OA
BRANCH   3   5
ATOM      5  C   UNL A   1      34.279  35.406  31.340  1.00  0.00     0.126 C 
BRANCH   5   6
ATOM      6  C   UNL A   1      34.358  34.160  32.247  1.00  0.00     0.011 C 
ATOM      7  N   UNL A   1      36.482  32.638  33.481  1.00  0.00    -0.334 N 
ATOM      8  C   UNL A   1      35.645  31.951  32.495  1.00  0.00     0.262 C 
ATOM      9  C   UNL A   1      35.614  33.406  34.375  1.00  0.00     0.262 C 
ATOM     10  H   UNL A   1      37.106  33.280  32.991  1.00  0.00     0.348 HD
ATOM     11  C   UNL A   1      35.079  32.997  31.544  1.00  0.00     0.066 C 
ATOM     12  C   UNL A   1      35.031  34.570  33.576  1.00  0.00     0.066 C 
BRANCH   7  13
ATOM     13  C   UNL A   1      37.392  31.740  34.195  1.00  0.00     0.272 C 
BRANCH  13  14
ATOM     14  C   UNL A   1      37.997  32.404  35.438  1.00  0.00     0.161 C 
BRANCH  14  15
ATOM     15  C   UNL A   1      38.170  31.429  36.586  1.00  0.00     0.225 C 
ATOM     16  C   UNL A   1      37.441  33.083  38.354  1.00  0.00     0.142 C 
ATOM     17  N   UNL A   1      37.942  31.821  37.871  1.00  0.00    -0.359 N 
ATOM     18  H   UNL A   1      38.148  31.151  38.562  1.00  0.00     0.163 HD
ATOM     19  O   UNL A   1      38.530  30.268  36.379  1.00  0.00    -0.275 OA
ENDBRANCH  14  15
ENDBRANCH  13  14
ENDBRANCH   7  13
ENDBRANCH   5   6
ENDBRANCH   3   5
ENDBRANCH   2   3
ENDBRANCH   1   2
BRANCH   1  20
ATOM     20  C   UNL A   1      33.427  33.198  27.971  1.00  0.00     0.275 C 
BRANCH  20  21
ATOM     21  O   UNL A   1      34.657  32.452  27.917  1.00  0.00    -0.458 OA
BRANCH  21  22
ATOM     22  C   UNL A   1      34.532  31.106  27.958  1.00  0.00     0.338 C 
ATOM     23  O   UNL A   1      33.567  30.435  27.638  1.00  0.00    -0.246 OA
BRANCH  22  24
ATOM     24  C   UNL A   1      35.818  30.515  28.357  1.00  0.00     0.060 A 
ATOM     25  C   UNL A   1      35.870  29.754  29.528  1.00  0.00     0.016 A 
ATOM     26  C   UNL A   1      36.976  30.764  27.619  1.00  0.00     0.016 A 
ATOM     27  C   UNL A   1      37.083  29.236  29.972  1.00  0.00     0.010 A 
ATOM     28  C   UNL A   1      38.193  30.243  28.064  1.00  0.00     0.010 A 
ATOM     29  C   UNL A   1      38.254  29.485  29.246  1.00  0.00    -0.014 A 
BRANCH  29  30
ATOM     30  C   UNL A   1      39.553  28.989  29.755  1.00  0.00     0.031 A 
ATOM     31  C   UNL A   1      40.257  29.736  30.849  1.00  0.00     0.074 A 
ATOM     32  C   UNL A   1      40.085  27.861  29.250  1.00  0.00     0.049 A 
ATOM     33  N   UNL A   1      41.439  29.527  31.368  1.00  0.00    -0.248 NA
ATOM     34  C   UNL A   1      39.528  30.869  31.443  1.00  0.00     0.031 C 
ATOM     35  C   UNL A   1      39.466  27.021  28.225  1.00  0.00     0.029 A 
ATOM     36  N   UNL A   1      41.271  27.232  29.530  1.00  0.00    -0.354 N 
ATOM     37  C   UNL A   1      41.602  30.503  32.341  1.00  0.00     0.074 A 
ATOM     38  C   UNL A   1      40.405  31.318  32.330  1.00  0.00     0.031 C 
ATOM     39  C   UNL A   1      40.281  25.987  27.958  1.00  0.00     0.029 A 
ATOM     40  C   UNL A   1      41.495  26.117  28.760  1.00  0.00     0.049 A 
ATOM     41  H   UNL A   1      41.902  27.549  30.217  1.00  0.00     0.167 HD
ATOM     42  C   UNL A   1      42.653  30.695  33.171  1.00  0.00     0.037 A 
ATOM     43  C   UNL A   1      42.572  25.312  28.693  1.00  0.00     0.037 A 
ATOM     44  C   UNL A   1      43.842  29.883  33.178  1.00  0.00     0.049 A 
ATOM     45  C   UNL A   1      43.758  25.595  29.575  1.00  0.00     0.074 A 
ATOM     46  C   UNL A   1      44.977  30.018  33.959  1.00  0.00     0.029 A 
ATOM     47  N   UNL A   1      44.043  28.777  32.367  1.00  0.00    -0.354 N 
ATOM     48  N   UNL A   1      43.917  26.538  30.472  1.00  0.00    -0.248 NA
ATOM     49  C   UNL A   1      44.919  24.706  29.428  1.00  0.00     0.031 C 
ATOM     50  C   UNL A   1      45.876  29.008  33.602  1.00  0.00     0.029 A 
ATOM     51  C   UNL A   1      45.287  28.224  32.623  1.00  0.00     0.049 A 
ATOM     52  H   UNL A   1      43.399  28.436  31.706  1.00  0.00     0.167 HD
ATOM     53  C   UNL A   1      45.180  26.341  31.012  1.00  0.00     0.074 A 
ATOM     54  C   UNL A   1      45.742  25.182  30.352  1.00  0.00     0.031 C 
ATOM     55  C   UNL A   1      45.819  27.059  31.967  1.00  0.00     0.037 A 
BRANCH  42  56
ATOM     56  C   UNL A   1      42.575  31.841  34.133  1.00  0.00     0.064 A 
ATOM     57  C   UNL A   1      43.069  33.110  33.798  1.00  0.00     0.173 A 
ATOM     58  C   UNL A   1      41.957  31.682  35.381  1.00  0.00     0.173 A 
ATOM     59  F   UNL A   1      43.683  33.307  32.620  1.00  0.00    -0.203 F 
ATOM     60  C   UNL A   1      42.956  34.177  34.685  1.00  0.00     0.198 A 
ATOM     61  C   UNL A   1      41.827  32.756  36.256  1.00  0.00     0.198 A 
ATOM     62  F   UNL A   1      41.467  30.488  35.746  1.00  0.00    -0.203 F 
ATOM     63  F   UNL A   1      43.461  35.375  34.357  1.00  0.00    -0.200 F 
ATOM     64  C   UNL A   1      42.329  34.001  35.909  1.00  0.00     0.200 A 
ATOM     65  F   UNL A   1      41.214  32.587  37.437  1.00  0.00    -0.200 F 
ATOM     66  F   UNL A   1      42.213  35.032  36.758  1.00  0.00    -0.200 F 
ENDBRANCH  42  56
BRANCH  43  67
ATOM     67  C   UNL A   1      42.593  24.173  27.741  1.00  0.00     0.064 A 
ATOM     68  C   UNL A   1      42.252  22.879  28.157  1.00  0.00     0.173 A 
ATOM     69  C   UNL A   1      42.987  24.348  26.406  1.00  0.00     0.173 A 
ATOM     70  F   UNL A   1      41.898  22.657  29.432  1.00  0.00    -0.203 F 
ATOM     71  C   UNL A   1      42.324  21.799  27.278  1.00  0.00     0.198 A 
ATOM     72  C   UNL A   1      43.033  23.273  25.522  1.00  0.00     0.198 A 
ATOM     73  F   UNL A   1      43.327  25.567  25.961  1.00  0.00    -0.203 F 
ATOM     74  F   UNL A   1      42.043  20.564  27.715  1.00  0.00    -0.200 F 
ATOM     75  C   UNL A   1      42.711  21.998  25.962  1.00  0.00     0.200 A 
ATOM     76  F   UNL A   1      43.400  23.470  24.249  1.00  0.00    -0.200 F 
ATOM     77  F   UNL A   1      42.785  20.958  25.119  1.00  0.00    -0.200 F 
ENDBRANCH  43  67
BRANCH  55  78
ATOM     78  C   UNL A   1      47.178  26.584  32.383  1.00  0.00     0.064 A 
ATOM     79  C   UNL A   1      47.341  25.583  33.350  1.00  0.00     0.173 A 
ATOM     80  C   UNL A   1      48.329  27.114  31.780  1.00  0.00     0.173 A 
ATOM     81  F   UNL A   1      46.271  25.059  33.965  1.00  0.00    -0.203 F 
ATOM     82  C   UNL A   1      48.611  25.144  33.716  1.00  0.00     0.198 A 
ATOM     83  C   UNL A   1      49.596  26.656  32.131  1.00  0.00     0.198 A 
ATOM     84  F   UNL A   1      48.223  28.070  30.845  1.00  0.00    -0.203 F 
ATOM     85  F   UNL A   1      48.747  24.214  34.672  1.00  0.00    -0.200 F 
ATOM     86  C   UNL A   1      49.735  25.675  33.102  1.00  0.00     0.200 A 
ATOM     87  F   UNL A   1      50.681  27.164  31.531  1.00  0.00    -0.200 F 
ATOM     88  F   UNL A   1      50.956  25.249  33.453  1.00  0.00    -0.200 F 
ENDBRANCH  55  78
ENDBRANCH  29  30
ENDBRANCH  22  24
ENDBRANCH  21  22
ENDBRANCH  20  21
ENDBRANCH   1  20
TORSDOF 15
ENDMDL
MODEL 3
REMARK VINA RESULT:     -10.3      1.003      2.063
REMARK SMILES CNC(=O)CC[NH+]1CCC(CC(=O)OCCOC(=O)c2ccc(-c3c4nc(c(-c5c(F)c(F)c(F)c(F)c5F)c5ccc([nH]5)c(-c5c(F)c(F)c(F)c(F)c5F)c5nc(c(-c6c(F)c(F)c(F)c(F)c6F)c6ccc3[nH]6)C=C5)C=C4)cc2)CC1
REMARK SMILES IDX 15 1 14 2 12 3 13 4 11 5 10 6 7 7 8 8 84 9 9 11 83 12 6 13
REMARK SMILES IDX 5 14 3 15 1 16 2 17 4 19 16 20 17 21 18 22 19 23 20 24 21 25
REMARK SMILES IDX 82 26 22 27 81 28 23 29 24 30 25 31 75 32 26 33 80 34 74 35
REMARK SMILES IDX 76 36 27 37 79 38 73 39 72 40 28 42 60 43 40 44 59 45 41 46
REMARK SMILES IDX 44 47 58 48 77 49 42 50 43 51 57 53 78 54 45 55 29 56 30 57
REMARK SMILES IDX 38 58 31 59 32 60 36 61 39 62 33 63 34 64 37 65 35 66 61 67
REMARK SMILES IDX 62 68 70 69 63 70 64 71 68 72 71 73 65 74 66 75 69 76 67 77
REMARK SMILES IDX 46 78 47 79 55 80 48 81 49 82 53 83 56 84 50 85 51 86 54 87
REMARK SMILES IDX 52 88
REMARK H PARENT 7 10 2 18 76 41 44 52
REMARK Flexibility Score: inf
ROOT
ATOM      1  C   UNL A   1      33.405  34.990  28.766  1.00  0.00     0.274 C 
ENDROOT
BRANCH   1   2
ATOM      2  O   UNL A   1      34.835  35.045  28.620  1.00  0.00    -0.462 OA
BRANCH   2   3
ATOM      3  C   UNL A   1      35.538  33.990  29.101  1.00  0.00     0.306 C 
ATOM      4  O   UNL A   1      36.729  34.008  29.387  1.00  0.00    -0.252 OA
BRANCH   3   5
ATOM      5  C   UNL A   1      34.690  32.744  29.196  1.00  0.00     0.126 C 
BRANCH   5   6
ATOM      6  C   UNL A   1      34.736  31.793  27.981  1.00  0.00     0.011 C 
ATOM      7  N   UNL A   1      33.705  29.161  27.382  1.00  0.00    -0.334 N 
ATOM      8  C   UNL A   1      35.160  29.329  27.390  1.00  0.00     0.262 C 
ATOM      9  C   UNL A   1      33.111  30.284  26.656  1.00  0.00     0.262 C 
ATOM     10  H   UNL A   1      33.368  29.170  28.344  1.00  0.00     0.348 HD
ATOM     11  C   UNL A   1      35.495  30.496  28.310  1.00  0.00     0.066 C 
ATOM     12  C   UNL A   1      33.287  31.539  27.509  1.00  0.00     0.066 C 
BRANCH   7  13
ATOM     13  C   UNL A   1      33.276  27.856  26.872  1.00  0.00     0.272 C 
BRANCH  13  14
ATOM     14  C   UNL A   1      31.881  27.918  26.239  1.00  0.00     0.161 C 
BRANCH  14  15
ATOM     15  C   UNL A   1      31.313  26.540  25.959  1.00  0.00     0.225 C 
ATOM     16  C   UNL A   1      32.030  26.525  23.535  1.00  0.00     0.142 C 
ATOM     17  N   UNL A   1      31.382  26.000  24.710  1.00  0.00    -0.359 N 
ATOM     18  H   UNL A   1      30.926  25.135  24.595  1.00  0.00     0.163 HD
ATOM     19  O   UNL A   1      30.772  25.887  26.854  1.00  0.00    -0.275 OA
ENDBRANCH  14  15
ENDBRANCH  13  14
ENDBRANCH   7  13
ENDBRANCH   5   6
ENDBRANCH   3   5
ENDBRANCH   2   3
ENDBRANCH   1   2
BRANCH   1  20
ATOM     20  C   UNL A   1      32.911  36.012  29.792  1.00  0.00     0.275 C 
BRANCH  20  21
ATOM     21  O   UNL A   1      32.361  35.356  30.950  1.00  0.00    -0.458 OA
BRANCH  21  22
ATOM     22  C   UNL A   1      32.739  35.858  32.147  1.00  0.00     0.338 C 
ATOM     23  O   UNL A   1      32.184  36.720  32.804  1.00  0.00    -0.246 OA
BRANCH  22  24
ATOM     24  C   UNL A   1      33.910  35.113  32.633  1.00  0.00     0.060 A 
ATOM     25  C   UNL A   1      35.177  35.681  32.477  1.00  0.00     0.016 A 
ATOM     26  C   UNL A   1      33.766  33.836  33.177  1.00  0.00     0.016 A 
ATOM     27  C   UNL A   1      36.313  34.975  32.863  1.00  0.00     0.010 A 
ATOM     28  C   UNL A   1      34.906  33.128  33.567  1.00  0.00     0.010 A 
ATOM     29  C   UNL A   1      36.184  33.690  33.404  1.00  0.00    -0.014 A 
BRANCH  29  30
ATOM     30  C   UNL A   1      37.397  32.916  33.753  1.00  0.00     0.031 A 
ATOM     31  C   UNL A   1      38.094  33.175  35.055  1.00  0.00     0.074 A 
ATOM     32  C   UNL A   1      37.854  31.970  32.913  1.00  0.00     0.049 A 
ATOM     33  N   UNL A   1      39.216  32.679  35.508  1.00  0.00    -0.248 NA
ATOM     34  C   UNL A   1      37.436  34.118  35.975  1.00  0.00     0.031 C 
ATOM     35  C   UNL A   1      37.228  31.591  31.646  1.00  0.00     0.029 A 
ATOM     36  N   UNL A   1      38.957  31.159  32.999  1.00  0.00    -0.354 N 
ATOM     37  C   UNL A   1      39.405  33.252  36.758  1.00  0.00     0.074 A 
ATOM     38  C   UNL A   1      38.292  34.149  36.987  1.00  0.00     0.031 C 
ATOM     39  C   UNL A   1      37.960  30.624  31.070  1.00  0.00     0.029 A 
ATOM     40  C   UNL A   1      39.126  30.348  31.905  1.00  0.00     0.049 A 
ATOM     41  H   UNL A   1      39.569  31.159  33.771  1.00  0.00     0.167 HD
ATOM     42  C   UNL A   1      40.415  33.042  37.635  1.00  0.00     0.037 A 
ATOM     43  C   UNL A   1      40.127  29.499  31.601  1.00  0.00     0.037 A 
ATOM     44  C   UNL A   1      41.521  32.150  37.403  1.00  0.00     0.049 A 
ATOM     45  C   UNL A   1      41.275  29.343  32.562  1.00  0.00     0.074 A 
ATOM     46  C   UNL A   1      42.611  31.894  38.216  1.00  0.00     0.029 A 
ATOM     47  N   UNL A   1      41.672  31.363  36.271  1.00  0.00    -0.354 N 
ATOM     48  N   UNL A   1      41.462  29.910  33.729  1.00  0.00    -0.248 NA
ATOM     49  C   UNL A   1      42.357  28.433  32.157  1.00  0.00     0.031 C 
ATOM     50  C   UNL A   1      43.435  30.970  37.565  1.00  0.00     0.029 A 
ATOM     51  C   UNL A   1      42.840  30.625  36.362  1.00  0.00     0.049 A 
ATOM     52  H   UNL A   1      41.042  31.333  35.515  1.00  0.00     0.167 HD
ATOM     53  C   UNL A   1      42.664  29.409  34.208  1.00  0.00     0.074 A 
ATOM     54  C   UNL A   1      43.159  28.483  33.212  1.00  0.00     0.031 C 
ATOM     55  C   UNL A   1      43.304  29.694  35.367  1.00  0.00     0.037 A 
BRANCH  42  56
ATOM     56  C   UNL A   1      40.381  33.803  38.924  1.00  0.00     0.064 A 
ATOM     57  C   UNL A   1      41.067  35.017  39.074  1.00  0.00     0.173 A 
ATOM     58  C   UNL A   1      39.615  33.342  40.004  1.00  0.00     0.173 A 
ATOM     59  F   UNL A   1      41.826  35.491  38.073  1.00  0.00    -0.203 F 
ATOM     60  C   UNL A   1      40.997  35.735  40.264  1.00  0.00     0.198 A 
ATOM     61  C   UNL A   1      39.529  34.074  41.185  1.00  0.00     0.198 A 
ATOM     62  F   UNL A   1      38.938  32.188  39.908  1.00  0.00    -0.203 F 
ATOM     63  F   UNL A   1      41.685  36.878  40.397  1.00  0.00    -0.200 F 
ATOM     64  C   UNL A   1      40.222  35.267  41.315  1.00  0.00     0.200 A 
ATOM     65  F   UNL A   1      38.774  33.624  42.197  1.00  0.00    -0.200 F 
ATOM     66  F   UNL A   1      40.148  35.965  42.457  1.00  0.00    -0.200 F 
ENDBRANCH  42  56
BRANCH  43  67
ATOM     67  C   UNL A   1      40.105  28.747  30.321  1.00  0.00     0.064 A 
ATOM     68  C   UNL A   1      40.695  29.273  29.165  1.00  0.00     0.173 A 
ATOM     69  C   UNL A   1      39.464  27.503  30.220  1.00  0.00     0.173 A 
ATOM     70  F   UNL A   1      41.294  30.472  29.205  1.00  0.00    -0.203 F 
ATOM     71  C   UNL A   1      40.628  28.592  27.950  1.00  0.00     0.198 A 
ATOM     72  C   UNL A   1      39.420  26.811  29.012  1.00  0.00     0.198 A 
ATOM     73  F   UNL A   1      38.879  26.959  31.298  1.00  0.00    -0.203 F 
ATOM     74  F   UNL A   1      41.156  29.141  26.848  1.00  0.00    -0.200 F 
ATOM     75  C   UNL A   1      39.994  27.362  27.876  1.00  0.00     0.200 A 
ATOM     76  F   UNL A   1      38.813  25.619  28.946  1.00  0.00    -0.200 F 
ATOM     77  F   UNL A   1      39.925  26.710  26.707  1.00  0.00    -0.200 F 
ENDBRANCH  43  67
BRANCH  55  78
ATOM     78  C   UNL A   1      44.585  28.965  35.639  1.00  0.00     0.064 A 
ATOM     79  C   UNL A   1      44.601  27.742  36.325  1.00  0.00     0.173 A 
ATOM     80  C   UNL A   1      45.805  29.478  35.175  1.00  0.00     0.173 A 
ATOM     81  F   UNL A   1      43.460  27.221  36.801  1.00  0.00    -0.203 F 
ATOM     82  C   UNL A   1      45.798  27.070  36.557  1.00  0.00     0.198 A 
ATOM     83  C   UNL A   1      46.997  28.792  35.388  1.00  0.00     0.198 A 
ATOM     84  F   UNL A   1      45.839  30.642  34.508  1.00  0.00    -0.203 F 
ATOM     85  F   UNL A   1      45.796  25.923  37.251  1.00  0.00    -0.200 F 
ATOM     86  C   UNL A   1      46.993  27.592  36.083  1.00  0.00     0.200 A 
ATOM     87  F   UNL A   1      48.150  29.292  34.923  1.00  0.00    -0.200 F 
ATOM     88  F   UNL A   1      48.143  26.942  36.305  1.00  0.00    -0.200 F 
ENDBRANCH  55  78
ENDBRANCH  29  30
ENDBRANCH  22  24
ENDBRANCH  21  22
ENDBRANCH  20  21
ENDBRANCH   1  20
TORSDOF 15
ENDMDL
