MODEL 1
REMARK VINA RESULT:     -12.2      0.000      0.000
REMARK SMILES Cn1ncc(C(=O)OCCOC(=O)c2ccc(-c3c4nc(c(-c5c(F)c(F)c(F)c(F)c5F)c5ccc([nH]5)c(-c5c(F)c(F)c(F)c(F)c5F)c5nc(c(-c6c(F)c(F)c(F)c(F)c6F)c6ccc3[nH]6)C=C5)C=C4)cc2)c1C(=O)Nc1ccccn1
REMARK SMILES IDX 9 1 8 2 6 3 7 4 5 5 1 6 2 7 3 8 77 9 4 10 78 11 79 12 80 13
REMARK SMILES IDX 81 15 82 16 86 17 83 18 85 19 84 20 10 21 11 22 12 23 13 24
REMARK SMILES IDX 14 25 15 26 76 27 16 28 75 29 17 30 18 31 19 32 69 33 20 34
REMARK SMILES IDX 74 35 68 36 70 37 21 38 73 39 67 40 66 41 22 43 54 44 34 45
REMARK SMILES IDX 53 46 35 47 38 48 52 49 71 50 36 51 37 52 51 54 72 55 39 56
REMARK SMILES IDX 23 57 24 58 32 59 25 60 26 61 30 62 33 63 27 64 28 65 31 66
REMARK SMILES IDX 29 67 55 68 56 69 64 70 57 71 58 72 62 73 65 74 59 75 60 76
REMARK SMILES IDX 63 77 61 78 40 79 41 80 49 81 42 82 43 83 47 84 50 85 44 86
REMARK SMILES IDX 45 87 48 88 46 89
REMARK H PARENT 80 14 70 42 38 53
REMARK Flexibility Score: inf
ROOT
ATOM      1  C   UNL A   1      31.394  30.057  25.407  1.00  0.00     0.275 C 
ENDROOT
BRANCH   1   2
ATOM      2  O   UNL A   1      32.631  29.554  24.860  1.00  0.00    -0.458 OA
BRANCH   2   3
ATOM      3  C   UNL A   1      33.067  28.371  25.367  1.00  0.00     0.342 C 
ATOM      4  O   UNL A   1      34.170  28.203  25.880  1.00  0.00    -0.246 OA
BRANCH   3   5
ATOM      5  C   UNL A   1      32.069  27.313  25.388  1.00  0.00     0.111 A 
ATOM      6  C   UNL A   1      30.896  24.095  24.645  1.00  0.00     0.174 C 
ATOM      7  N   UNL A   1      30.935  25.498  24.996  1.00  0.00    -0.262 N 
ATOM      8  N   UNL A   1      30.695  25.745  26.295  1.00  0.00    -0.180 NA
ATOM      9  C   UNL A   1      31.521  26.567  24.333  1.00  0.00     0.140 A 
ATOM     10  C   UNL A   1      31.545  26.725  26.557  1.00  0.00     0.151 A 
BRANCH   9  11
ATOM     11  C   UNL A   1      31.786  26.763  22.918  1.00  0.00     0.275 C 
ATOM     12  O   UNL A   1      32.677  26.125  22.347  1.00  0.00    -0.267 OA
ATOM     13  N   UNL A   1      31.032  27.559  22.097  1.00  0.00    -0.305 N 
ATOM     14  H   UNL A   1      31.297  27.513  21.150  1.00  0.00     0.171 HD
BRANCH  13  15
ATOM     15  C   UNL A   1      29.973  28.415  22.336  1.00  0.00     0.132 A 
ATOM     16  C   UNL A   1      28.843  28.057  23.054  1.00  0.00     0.047 A 
ATOM     17  N   UNL A   1      30.112  29.609  21.725  1.00  0.00    -0.239 NA
ATOM     18  C   UNL A   1      27.766  28.944  23.062  1.00  0.00     0.005 A 
ATOM     19  C   UNL A   1      29.040  30.428  21.707  1.00  0.00     0.113 A 
ATOM     20  C   UNL A   1      27.849  30.134  22.343  1.00  0.00     0.020 A 
ENDBRANCH  13  15
ENDBRANCH   9  11
ENDBRANCH   3   5
ENDBRANCH   2   3
ENDBRANCH   1   2
BRANCH   1  21
ATOM     21  C   UNL A   1      31.624  31.371  26.154  1.00  0.00     0.275 C 
BRANCH  21  22
ATOM     22  O   UNL A   1      32.590  31.190  27.208  1.00  0.00    -0.458 OA
BRANCH  22  23
ATOM     23  C   UNL A   1      33.344  32.279  27.482  1.00  0.00     0.338 C 
ATOM     24  O   UNL A   1      32.999  33.446  27.483  1.00  0.00    -0.246 OA
BRANCH  23  25
ATOM     25  C   UNL A   1      34.688  31.865  27.911  1.00  0.00     0.060 A 
ATOM     26  C   UNL A   1      34.860  30.544  28.298  1.00  0.00     0.016 A 
ATOM     27  C   UNL A   1      35.700  32.791  28.136  1.00  0.00     0.016 A 
ATOM     28  C   UNL A   1      35.967  30.166  29.048  1.00  0.00     0.010 A 
ATOM     29  C   UNL A   1      36.885  32.373  28.759  1.00  0.00     0.010 A 
ATOM     30  C   UNL A   1      37.016  31.066  29.269  1.00  0.00    -0.014 A 
BRANCH  30  31
ATOM     31  C   UNL A   1      38.223  30.640  30.041  1.00  0.00     0.031 A 
ATOM     32  C   UNL A   1      39.239  29.714  29.421  1.00  0.00     0.074 A 
ATOM     33  C   UNL A   1      38.425  31.091  31.297  1.00  0.00     0.049 A 
ATOM     34  N   UNL A   1      40.239  29.081  29.984  1.00  0.00    -0.248 NA
ATOM     35  C   UNL A   1      39.106  29.453  27.979  1.00  0.00     0.031 C 
ATOM     36  C   UNL A   1      37.562  32.035  32.011  1.00  0.00     0.029 A 
ATOM     37  N   UNL A   1      39.424  30.818  32.201  1.00  0.00    -0.354 N 
ATOM     38  C   UNL A   1      40.813  28.305  28.983  1.00  0.00     0.074 A 
ATOM     39  C   UNL A   1      40.043  28.537  27.779  1.00  0.00     0.031 C 
ATOM     40  C   UNL A   1      38.086  32.292  33.218  1.00  0.00     0.029 A 
ATOM     41  C   UNL A   1      39.257  31.448  33.411  1.00  0.00     0.049 A 
ATOM     42  H   UNL A   1      40.186  30.227  32.001  1.00  0.00     0.167 HD
ATOM     43  C   UNL A   1      41.884  27.477  29.062  1.00  0.00     0.037 A 
ATOM     44  C   UNL A   1      39.929  31.325  34.572  1.00  0.00     0.037 A 
ATOM     45  C   UNL A   1      42.678  27.292  30.250  1.00  0.00     0.049 A 
ATOM     46  C   UNL A   1      41.073  30.353  34.651  1.00  0.00     0.074 A 
ATOM     47  C   UNL A   1      43.796  26.493  30.425  1.00  0.00     0.029 A 
ATOM     48  N   UNL A   1      42.447  27.923  31.464  1.00  0.00    -0.354 N 
ATOM     49  N   UNL A   1      41.580  29.592  33.713  1.00  0.00    -0.248 NA
ATOM     50  C   UNL A   1      41.727  30.210  35.959  1.00  0.00     0.031 C 
ATOM     51  C   UNL A   1      44.206  26.597  31.758  1.00  0.00     0.029 A 
ATOM     52  C   UNL A   1      43.384  27.510  32.399  1.00  0.00     0.049 A 
ATOM     53  H   UNL A   1      41.724  28.569  31.637  1.00  0.00     0.167 HD
ATOM     54  C   UNL A   1      42.624  28.896  34.308  1.00  0.00     0.074 A 
ATOM     55  C   UNL A   1      42.692  29.343  35.683  1.00  0.00     0.031 C 
ATOM     56  C   UNL A   1      43.446  27.967  33.764  1.00  0.00     0.037 A 
BRANCH  43  57
ATOM     57  C   UNL A   1      42.243  26.675  27.843  1.00  0.00     0.064 A 
ATOM     58  C   UNL A   1      43.209  27.105  26.922  1.00  0.00     0.173 A 
ATOM     59  C   UNL A   1      41.637  25.427  27.619  1.00  0.00     0.173 A 
ATOM     60  F   UNL A   1      43.813  28.292  27.080  1.00  0.00    -0.203 F 
ATOM     61  C   UNL A   1      43.533  26.332  25.808  1.00  0.00     0.198 A 
ATOM     62  C   UNL A   1      41.988  24.641  26.524  1.00  0.00     0.198 A 
ATOM     63  F   UNL A   1      40.714  24.960  28.472  1.00  0.00    -0.203 F 
ATOM     64  F   UNL A   1      44.423  26.786  24.914  1.00  0.00    -0.200 F 
ATOM     65  C   UNL A   1      42.929  25.098  25.614  1.00  0.00     0.200 A 
ATOM     66  F   UNL A   1      41.416  23.442  26.350  1.00  0.00    -0.200 F 
ATOM     67  F   UNL A   1      43.250  24.352  24.548  1.00  0.00    -0.200 F 
ENDBRANCH  43  57
BRANCH  44  68
ATOM     68  C   UNL A   1      39.500  32.099  35.768  1.00  0.00     0.064 A 
ATOM     69  C   UNL A   1      38.505  31.611  36.627  1.00  0.00     0.173 A 
ATOM     70  C   UNL A   1      40.067  33.346  36.073  1.00  0.00     0.173 A 
ATOM     71  F   UNL A   1      37.913  30.437  36.366  1.00  0.00    -0.203 F 
ATOM     72  C   UNL A   1      38.083  32.348  37.732  1.00  0.00     0.198 A 
ATOM     73  C   UNL A   1      39.672  34.065  37.198  1.00  0.00     0.198 A 
ATOM     74  F   UNL A   1      41.021  33.862  35.283  1.00  0.00    -0.203 F 
ATOM     75  F   UNL A   1      37.093  31.884  38.505  1.00  0.00    -0.200 F 
ATOM     76  C   UNL A   1      38.673  33.569  38.021  1.00  0.00     0.200 A 
ATOM     77  F   UNL A   1      40.257  35.235  37.483  1.00  0.00    -0.200 F 
ATOM     78  F   UNL A   1      38.271  34.275  39.088  1.00  0.00    -0.200 F 
ENDBRANCH  44  68
BRANCH  56  79
ATOM     79  C   UNL A   1      44.520  27.401  34.648  1.00  0.00     0.064 A 
ATOM     80  C   UNL A   1      45.764  28.030  34.794  1.00  0.00     0.173 A 
ATOM     81  C   UNL A   1      44.288  26.226  35.380  1.00  0.00     0.173 A 
ATOM     82  F   UNL A   1      46.043  29.146  34.103  1.00  0.00    -0.203 F 
ATOM     83  C   UNL A   1      46.748  27.489  35.618  1.00  0.00     0.198 A 
ATOM     84  C   UNL A   1      45.261  25.707  36.229  1.00  0.00     0.198 A 
ATOM     85  F   UNL A   1      43.113  25.587  35.279  1.00  0.00    -0.203 F 
ATOM     86  F   UNL A   1      47.948  28.078  35.700  1.00  0.00    -0.200 F 
ATOM     87  C   UNL A   1      46.492  26.333  36.341  1.00  0.00     0.200 A 
ATOM     88  F   UNL A   1      45.007  24.598  36.937  1.00  0.00    -0.200 F 
ATOM     89  F   UNL A   1      47.438  25.818  37.138  1.00  0.00    -0.200 F 
ENDBRANCH  56  79
ENDBRANCH  30  31
ENDBRANCH  23  25
ENDBRANCH  22  23
ENDBRANCH  21  22
ENDBRANCH   1  21
TORSDOF 13
ENDMDL
MODEL 2
REMARK VINA RESULT:     -12.0      5.012     10.385
REMARK SMILES Cn1ncc(C(=O)OCCOC(=O)c2ccc(-c3c4nc(c(-c5c(F)c(F)c(F)c(F)c5F)c5ccc([nH]5)c(-c5c(F)c(F)c(F)c(F)c5F)c5nc(c(-c6c(F)c(F)c(F)c(F)c6F)c6ccc3[nH]6)C=C5)C=C4)cc2)c1C(=O)Nc1ccccn1
REMARK SMILES IDX 9 1 8 2 6 3 7 4 5 5 1 6 2 7 3 8 77 9 4 10 78 11 79 12 80 13
REMARK SMILES IDX 81 15 82 16 86 17 83 18 85 19 84 20 10 21 11 22 12 23 13 24
REMARK SMILES IDX 14 25 15 26 76 27 16 28 75 29 17 30 18 31 19 32 69 33 20 34
REMARK SMILES IDX 74 35 68 36 70 37 21 38 73 39 67 40 66 41 22 43 54 44 34 45
REMARK SMILES IDX 53 46 35 47 38 48 52 49 71 50 36 51 37 52 51 54 72 55 39 56
REMARK SMILES IDX 23 57 24 58 32 59 25 60 26 61 30 62 33 63 27 64 28 65 31 66
REMARK SMILES IDX 29 67 55 68 56 69 64 70 57 71 58 72 62 73 65 74 59 75 60 76
REMARK SMILES IDX 63 77 61 78 40 79 41 80 49 81 42 82 43 83 47 84 50 85 44 86
REMARK SMILES IDX 45 87 48 88 46 89
REMARK H PARENT 80 14 70 42 38 53
REMARK Flexibility Score: inf
ROOT
ATOM      1  C   UNL A   1      36.041  20.422  24.947  1.00  0.00     0.275 C 
ENDROOT
BRANCH   1   2
ATOM      2  O   UNL A   1      35.649  21.247  26.065  1.00  0.00    -0.458 OA
BRANCH   2   3
ATOM      3  C   UNL A   1      35.391  22.550  25.779  1.00  0.00     0.342 C 
ATOM      4  O   UNL A   1      35.848  23.499  26.412  1.00  0.00    -0.246 OA
BRANCH   3   5
ATOM      5  C   UNL A   1      34.626  22.768  24.563  1.00  0.00     0.111 A 
ATOM      6  C   UNL A   1      32.022  24.208  22.712  1.00  0.00     0.174 C 
ATOM      7  N   UNL A   1      33.084  23.320  23.131  1.00  0.00    -0.262 N 
ATOM      8  N   UNL A   1      34.224  23.463  22.435  1.00  0.00    -0.180 NA
ATOM      9  C   UNL A   1      33.250  22.629  24.322  1.00  0.00     0.140 A 
ATOM     10  C   UNL A   1      35.147  23.319  23.373  1.00  0.00     0.151 A 
BRANCH   9  11
ATOM     11  C   UNL A   1      32.264  22.131  25.265  1.00  0.00     0.275 C 
ATOM     12  O   UNL A   1      31.617  22.909  25.974  1.00  0.00    -0.267 OA
ATOM     13  N   UNL A   1      31.897  20.815  25.373  1.00  0.00    -0.305 N 
ATOM     14  H   UNL A   1      31.155  20.663  26.001  1.00  0.00     0.171 HD
BRANCH  13  15
ATOM     15  C   UNL A   1      32.365  19.661  24.774  1.00  0.00     0.132 A 
ATOM     16  C   UNL A   1      32.309  19.427  23.409  1.00  0.00     0.047 A 
ATOM     17  N   UNL A   1      32.801  18.745  25.663  1.00  0.00    -0.239 NA
ATOM     18  C   UNL A   1      32.636  18.150  22.950  1.00  0.00     0.005 A 
ATOM     19  C   UNL A   1      33.064  17.505  25.201  1.00  0.00     0.113 A 
ATOM     20  C   UNL A   1      32.982  17.158  23.865  1.00  0.00     0.020 A 
ENDBRANCH  13  15
ENDBRANCH   9  11
ENDBRANCH   3   5
ENDBRANCH   2   3
ENDBRANCH   1   2
BRANCH   1  21
ATOM     21  C   UNL A   1      37.537  20.113  24.999  1.00  0.00     0.275 C 
BRANCH  21  22
ATOM     22  O   UNL A   1      38.280  21.276  25.414  1.00  0.00    -0.458 OA
BRANCH  22  23
ATOM     23  C   UNL A   1      39.378  21.015  26.160  1.00  0.00     0.338 C 
ATOM     24  O   UNL A   1      39.974  19.961  26.267  1.00  0.00    -0.246 OA
BRANCH  23  25
ATOM     25  C   UNL A   1      39.866  22.253  26.785  1.00  0.00     0.060 A 
ATOM     26  C   UNL A   1      39.396  23.457  26.280  1.00  0.00     0.016 A 
ATOM     27  C   UNL A   1      40.918  22.245  27.695  1.00  0.00     0.016 A 
ATOM     28  C   UNL A   1      40.064  24.644  26.551  1.00  0.00     0.010 A 
ATOM     29  C   UNL A   1      41.494  23.462  28.086  1.00  0.00     0.010 A 
ATOM     30  C   UNL A   1      41.108  24.676  27.483  1.00  0.00    -0.014 A 
BRANCH  30  31
ATOM     31  C   UNL A   1      41.795  25.965  27.800  1.00  0.00     0.031 A 
ATOM     32  C   UNL A   1      41.100  27.018  28.626  1.00  0.00     0.074 A 
ATOM     33  C   UNL A   1      43.051  26.196  27.364  1.00  0.00     0.049 A 
ATOM     34  N   UNL A   1      41.443  28.264  28.844  1.00  0.00    -0.248 NA
ATOM     35  C   UNL A   1      39.843  26.623  29.282  1.00  0.00     0.031 C 
ATOM     36  C   UNL A   1      43.875  25.253  26.604  1.00  0.00     0.029 A 
ATOM     37  N   UNL A   1      43.862  27.299  27.498  1.00  0.00    -0.354 N 
ATOM     38  C   UNL A   1      40.420  28.814  29.609  1.00  0.00     0.074 A 
ATOM     39  C   UNL A   1      39.436  27.770  29.807  1.00  0.00     0.031 C 
ATOM     40  C   UNL A   1      45.079  25.796  26.375  1.00  0.00     0.029 A 
ATOM     41  C   UNL A   1      45.077  27.166  26.870  1.00  0.00     0.049 A 
ATOM     42  H   UNL A   1      43.597  28.105  27.996  1.00  0.00     0.167 HD
ATOM     43  C   UNL A   1      40.313  30.073  30.100  1.00  0.00     0.037 A 
ATOM     44  C   UNL A   1      46.064  28.058  26.657  1.00  0.00     0.037 A 
ATOM     45  C   UNL A   1      41.321  31.092  29.944  1.00  0.00     0.049 A 
ATOM     46  C   UNL A   1      45.894  29.466  27.157  1.00  0.00     0.074 A 
ATOM     47  C   UNL A   1      41.316  32.391  30.423  1.00  0.00     0.029 A 
ATOM     48  N   UNL A   1      42.520  30.923  29.265  1.00  0.00    -0.354 N 
ATOM     49  N   UNL A   1      44.905  29.988  27.840  1.00  0.00    -0.248 NA
ATOM     50  C   UNL A   1      46.970  30.413  26.840  1.00  0.00     0.031 C 
ATOM     51  C   UNL A   1      42.485  33.024  29.987  1.00  0.00     0.029 A 
ATOM     52  C   UNL A   1      43.249  32.102  29.290  1.00  0.00     0.049 A 
ATOM     53  H   UNL A   1      42.810  30.089  28.830  1.00  0.00     0.167 HD
ATOM     54  C   UNL A   1      45.247  31.316  28.053  1.00  0.00     0.074 A 
ATOM     55  C   UNL A   1      46.547  31.513  27.445  1.00  0.00     0.031 C 
ATOM     56  C   UNL A   1      44.545  32.285  28.688  1.00  0.00     0.037 A 
BRANCH  43  57
ATOM     57  C   UNL A   1      39.047  30.441  30.823  1.00  0.00     0.064 A 
ATOM     58  C   UNL A   1      38.937  30.376  32.219  1.00  0.00     0.173 A 
ATOM     59  C   UNL A   1      37.937  30.911  30.101  1.00  0.00     0.173 A 
ATOM     60  F   UNL A   1      39.962  29.926  32.958  1.00  0.00    -0.203 F 
ATOM     61  C   UNL A   1      37.755  30.738  32.864  1.00  0.00     0.198 A 
ATOM     62  C   UNL A   1      36.769  31.305  30.750  1.00  0.00     0.198 A 
ATOM     63  F   UNL A   1      37.989  31.004  28.764  1.00  0.00    -0.203 F 
ATOM     64  F   UNL A   1      37.655  30.620  34.195  1.00  0.00    -0.200 F 
ATOM     65  C   UNL A   1      36.676  31.209  32.130  1.00  0.00     0.200 A 
ATOM     66  F   UNL A   1      35.736  31.777  30.040  1.00  0.00    -0.200 F 
ATOM     67  F   UNL A   1      35.544  31.567  32.753  1.00  0.00    -0.200 F 
ENDBRANCH  43  57
BRANCH  44  68
ATOM     68  C   UNL A   1      47.274  27.663  25.887  1.00  0.00     0.064 A 
ATOM     69  C   UNL A   1      48.447  27.259  26.540  1.00  0.00     0.173 A 
ATOM     70  C   UNL A   1      47.289  27.691  24.484  1.00  0.00     0.173 A 
ATOM     71  F   UNL A   1      48.495  27.240  27.880  1.00  0.00    -0.203 F 
ATOM     72  C   UNL A   1      49.590  26.915  25.820  1.00  0.00     0.198 A 
ATOM     73  C   UNL A   1      48.418  27.311  23.764  1.00  0.00     0.198 A 
ATOM     74  F   UNL A   1      46.194  28.072  23.808  1.00  0.00    -0.203 F 
ATOM     75  F   UNL A   1      50.714  26.585  26.470  1.00  0.00    -0.200 F 
ATOM     76  C   UNL A   1      49.572  26.933  24.434  1.00  0.00     0.200 A 
ATOM     77  F   UNL A   1      48.390  27.313  22.425  1.00  0.00    -0.200 F 
ATOM     78  F   UNL A   1      50.670  26.597  23.742  1.00  0.00    -0.200 F 
ENDBRANCH  44  68
BRANCH  56  79
ATOM     79  C   UNL A   1      45.187  33.638  28.796  1.00  0.00     0.064 A 
ATOM     80  C   UNL A   1      45.008  34.621  27.812  1.00  0.00     0.173 A 
ATOM     81  C   UNL A   1      45.972  33.963  29.914  1.00  0.00     0.173 A 
ATOM     82  F   UNL A   1      44.283  34.355  26.715  1.00  0.00    -0.203 F 
ATOM     83  C   UNL A   1      45.614  35.870  27.929  1.00  0.00     0.198 A 
ATOM     84  C   UNL A   1      46.547  35.223  30.044  1.00  0.00     0.198 A 
ATOM     85  F   UNL A   1      46.171  33.059  30.886  1.00  0.00    -0.203 F 
ATOM     86  F   UNL A   1      45.474  36.773  26.951  1.00  0.00    -0.200 F 
ATOM     87  C   UNL A   1      46.375  36.172  29.049  1.00  0.00     0.200 A 
ATOM     88  F   UNL A   1      47.270  35.518  31.133  1.00  0.00    -0.200 F 
ATOM     89  F   UNL A   1      46.952  37.376  29.162  1.00  0.00    -0.200 F 
ENDBRANCH  56  79
ENDBRANCH  30  31
ENDBRANCH  23  25
ENDBRANCH  22  23
ENDBRANCH  21  22
ENDBRANCH   1  21
TORSDOF 13
ENDMDL
MODEL 3
REMARK VINA RESULT:     -12.0      5.016     10.280
REMARK SMILES Cn1ncc(C(=O)OCCOC(=O)c2ccc(-c3c4nc(c(-c5c(F)c(F)c(F)c(F)c5F)c5ccc([nH]5)c(-c5c(F)c(F)c(F)c(F)c5F)c5nc(c(-c6c(F)c(F)c(F)c(F)c6F)c6ccc3[nH]6)C=C5)C=C4)cc2)c1C(=O)Nc1ccccn1
REMARK SMILES IDX 9 1 8 2 6 3 7 4 5 5 1 6 2 7 3 8 77 9 4 10 78 11 79 12 80 13
REMARK SMILES IDX 81 15 82 16 86 17 83 18 85 19 84 20 10 21 11 22 12 23 13 24
REMARK SMILES IDX 14 25 15 26 76 27 16 28 75 29 17 30 18 31 19 32 69 33 20 34
REMARK SMILES IDX 74 35 68 36 70 37 21 38 73 39 67 40 66 41 22 43 54 44 34 45
REMARK SMILES IDX 53 46 35 47 38 48 52 49 71 50 36 51 37 52 51 54 72 55 39 56
REMARK SMILES IDX 23 57 24 58 32 59 25 60 26 61 30 62 33 63 27 64 28 65 31 66
REMARK SMILES IDX 29 67 55 68 56 69 64 70 57 71 58 72 62 73 65 74 59 75 60 76
REMARK SMILES IDX 63 77 61 78 40 79 41 80 49 81 42 82 43 83 47 84 50 85 44 86
REMARK SMILES IDX 45 87 48 88 46 89
REMARK H PARENT 80 14 70 42 38 53
REMARK Flexibility Score: inf
ROOT
ATOM      1  C   UNL A   1      36.723  22.460  23.777  1.00  0.00     0.275 C 
ENDROOT
BRANCH   1   2
ATOM      2  O   UNL A   1      35.525  23.032  24.341  1.00  0.00    -0.458 OA
BRANCH   2   3
ATOM      3  C   UNL A   1      34.469  23.155  23.494  1.00  0.00     0.342 C 
ATOM      4  O   UNL A   1      34.572  23.308  22.280  1.00  0.00    -0.246 OA
BRANCH   3   5
ATOM      5  C   UNL A   1      33.168  22.954  24.110  1.00  0.00     0.111 A 
ATOM      6  C   UNL A   1      30.928  23.034  26.804  1.00  0.00     0.174 C 
ATOM      7  N   UNL A   1      31.542  22.710  25.535  1.00  0.00    -0.262 N 
ATOM      8  N   UNL A   1      30.948  23.285  24.476  1.00  0.00    -0.180 NA
ATOM      9  C   UNL A   1      32.812  22.228  25.257  1.00  0.00     0.140 A 
ATOM     10  C   UNL A   1      31.981  23.603  23.712  1.00  0.00     0.151 A 
BRANCH   9  11
ATOM     11  C   UNL A   1      33.705  21.412  26.064  1.00  0.00     0.275 C 
ATOM     12  O   UNL A   1      34.153  21.834  27.135  1.00  0.00    -0.267 OA
ATOM     13  N   UNL A   1      34.030  20.113  25.776  1.00  0.00    -0.305 N 
ATOM     14  H   UNL A   1      34.578  19.680  26.471  1.00  0.00     0.171 HD
BRANCH  13  15
ATOM     15  C   UNL A   1      33.742  19.290  24.703  1.00  0.00     0.132 A 
ATOM     16  C   UNL A   1      32.605  19.417  23.923  1.00  0.00     0.047 A 
ATOM     17  N   UNL A   1      34.638  18.294  24.547  1.00  0.00    -0.239 NA
ATOM     18  C   UNL A   1      32.334  18.411  22.994  1.00  0.00     0.005 A 
ATOM     19  C   UNL A   1      34.329  17.310  23.678  1.00  0.00     0.113 A 
ATOM     20  C   UNL A   1      33.190  17.317  22.896  1.00  0.00     0.020 A 
ENDBRANCH  13  15
ENDBRANCH   9  11
ENDBRANCH   3   5
ENDBRANCH   2   3
ENDBRANCH   1   2
BRANCH   1  21
ATOM     21  C   UNL A   1      37.177  21.243  24.584  1.00  0.00     0.275 C 
BRANCH  21  22
ATOM     22  O   UNL A   1      37.620  21.644  25.895  1.00  0.00    -0.458 OA
BRANCH  22  23
ATOM     23  C   UNL A   1      38.940  21.467  26.129  1.00  0.00     0.338 C 
ATOM     24  O   UNL A   1      39.640  20.530  25.794  1.00  0.00    -0.246 OA
BRANCH  23  25
ATOM     25  C   UNL A   1      39.499  22.659  26.783  1.00  0.00     0.060 A 
ATOM     26  C   UNL A   1      39.043  23.899  26.357  1.00  0.00     0.016 A 
ATOM     27  C   UNL A   1      40.594  22.578  27.636  1.00  0.00     0.016 A 
ATOM     28  C   UNL A   1      39.761  25.052  26.646  1.00  0.00     0.010 A 
ATOM     29  C   UNL A   1      41.228  23.758  28.051  1.00  0.00     0.010 A 
ATOM     30  C   UNL A   1      40.851  25.010  27.523  1.00  0.00    -0.014 A 
BRANCH  30  31
ATOM     31  C   UNL A   1      41.594  26.261  27.862  1.00  0.00     0.031 A 
ATOM     32  C   UNL A   1      40.939  27.338  28.691  1.00  0.00     0.074 A 
ATOM     33  C   UNL A   1      42.865  26.437  27.443  1.00  0.00     0.049 A 
ATOM     34  N   UNL A   1      41.338  28.565  28.926  1.00  0.00    -0.248 NA
ATOM     35  C   UNL A   1      39.657  26.997  29.328  1.00  0.00     0.031 C 
ATOM     36  C   UNL A   1      43.653  25.464  26.683  1.00  0.00     0.029 A 
ATOM     37  N   UNL A   1      43.725  27.499  27.599  1.00  0.00    -0.354 N 
ATOM     38  C   UNL A   1      40.333  29.154  29.684  1.00  0.00     0.074 A 
ATOM     39  C   UNL A   1      39.298  28.157  29.860  1.00  0.00     0.031 C 
ATOM     40  C   UNL A   1      44.883  25.952  26.475  1.00  0.00     0.029 A 
ATOM     41  C   UNL A   1      44.941  27.316  26.983  1.00  0.00     0.049 A 
ATOM     42  H   UNL A   1      43.492  28.313  28.101  1.00  0.00     0.167 HD
ATOM     43  C   UNL A   1      40.279  30.413  30.187  1.00  0.00     0.037 A 
ATOM     44  C   UNL A   1      45.970  28.162  26.792  1.00  0.00     0.037 A 
ATOM     45  C   UNL A   1      41.336  31.384  30.053  1.00  0.00     0.049 A 
ATOM     46  C   UNL A   1      45.860  29.571  27.304  1.00  0.00     0.074 A 
ATOM     47  C   UNL A   1      41.386  32.678  30.546  1.00  0.00     0.029 A 
ATOM     48  N   UNL A   1      42.533  31.165  29.387  1.00  0.00    -0.354 N 
ATOM     49  N   UNL A   1      44.889  30.132  27.981  1.00  0.00    -0.248 NA
ATOM     50  C   UNL A   1      46.984  30.470  27.010  1.00  0.00     0.031 C 
ATOM     51  C   UNL A   1      42.588  33.259  30.130  1.00  0.00     0.029 A 
ATOM     52  C   UNL A   1      43.317  32.309  29.433  1.00  0.00     0.049 A 
ATOM     53  H   UNL A   1      42.789  30.323  28.947  1.00  0.00     0.167 HD
ATOM     54  C   UNL A   1      45.291  31.441  28.211  1.00  0.00     0.074 A 
ATOM     55  C   UNL A   1      46.606  31.583  27.621  1.00  0.00     0.031 C 
ATOM     56  C   UNL A   1      44.627  32.436  28.848  1.00  0.00     0.037 A 
BRANCH  43  57
ATOM     57  C   UNL A   1      39.023  30.832  30.898  1.00  0.00     0.064 A 
ATOM     58  C   UNL A   1      38.871  30.705  32.286  1.00  0.00     0.173 A 
ATOM     59  C   UNL A   1      37.968  31.416  30.177  1.00  0.00     0.173 A 
ATOM     60  F   UNL A   1      39.841  30.146  33.024  1.00  0.00    -0.203 F 
ATOM     61  C   UNL A   1      37.700  31.117  32.921  1.00  0.00     0.198 A 
ATOM     62  C   UNL A   1      36.814  31.859  30.818  1.00  0.00     0.198 A 
ATOM     63  F   UNL A   1      38.063  31.573  28.848  1.00  0.00    -0.203 F 
ATOM     64  F   UNL A   1      37.557  30.939  34.242  1.00  0.00    -0.200 F 
ATOM     65  C   UNL A   1      36.677  31.701  32.189  1.00  0.00     0.200 A 
ATOM     66  F   UNL A   1      35.835  32.439  30.110  1.00  0.00    -0.200 F 
ATOM     67  F   UNL A   1      35.557  32.106  32.803  1.00  0.00    -0.200 F 
ENDBRANCH  43  57
BRANCH  44  68
ATOM     68  C   UNL A   1      47.170  27.718  26.032  1.00  0.00     0.064 A 
ATOM     69  C   UNL A   1      47.194  27.757  24.631  1.00  0.00     0.173 A 
ATOM     70  C   UNL A   1      48.313  27.234  26.688  1.00  0.00     0.173 A 
ATOM     71  F   UNL A   1      46.119  28.186  23.954  1.00  0.00    -0.203 F 
ATOM     72  C   UNL A   1      48.307  27.315  23.917  1.00  0.00     0.198 A 
ATOM     73  C   UNL A   1      49.438  26.828  25.976  1.00  0.00     0.198 A 
ATOM     74  F   UNL A   1      48.343  27.172  28.028  1.00  0.00    -0.203 F 
ATOM     75  F   UNL A   1      48.283  27.313  22.578  1.00  0.00    -0.200 F 
ATOM     76  C   UNL A   1      49.431  26.860  24.590  1.00  0.00     0.200 A 
ATOM     77  F   UNL A   1      50.528  26.406  26.632  1.00  0.00    -0.200 F 
ATOM     78  F   UNL A   1      50.503  26.440  23.904  1.00  0.00    -0.200 F 
ENDBRANCH  44  68
BRANCH  56  79
ATOM     79  C   UNL A   1      45.331  33.756  28.978  1.00  0.00     0.064 A 
ATOM     80  C   UNL A   1      45.170  34.775  28.028  1.00  0.00     0.173 A 
ATOM     81  C   UNL A   1      46.158  34.013  30.083  1.00  0.00     0.173 A 
ATOM     82  F   UNL A   1      44.406  34.574  26.944  1.00  0.00    -0.203 F 
ATOM     83  C   UNL A   1      45.833  35.992  28.165  1.00  0.00     0.198 A 
ATOM     84  C   UNL A   1      46.792  35.242  30.234  1.00  0.00     0.198 A 
ATOM     85  F   UNL A   1      46.343  33.072  31.022  1.00  0.00    -0.203 F 
ATOM     86  F   UNL A   1      45.707  36.930  27.217  1.00  0.00    -0.200 F 
ATOM     87  C   UNL A   1      46.636  36.228  29.271  1.00  0.00     0.200 A 
ATOM     88  F   UNL A   1      47.555  35.473  31.310  1.00  0.00    -0.200 F 
ATOM     89  F   UNL A   1      47.268  37.401  29.404  1.00  0.00    -0.200 F 
ENDBRANCH  56  79
ENDBRANCH  30  31
ENDBRANCH  23  25
ENDBRANCH  22  23
ENDBRANCH  21  22
ENDBRANCH   1  21
TORSDOF 13
ENDMDL
