MODEL 1
REMARK VINA RESULT:     -14.2      0.000      0.000
REMARK SMILES CC(C)[C@H](NC(=O)OCc1ccccc1)C(=O)NCC(=O)OCCOC(=O)c1ccc(-c2c3nc(c(-c4c(F)c(F)c(F)c(F)c4F)c4ccc([nH]4)c(-c4c(F)c(F)c(F)c(F)c4F)c4nc(c(-c5c(F)c(F)c(F)c(F)c5F)c5ccc2[nH]5)C=C4)C=C3)cc1
REMARK SMILES IDX 20 1 21 2 19 3 18 4 16 5 17 6 4 8 2 9 1 10 3 11 5 12 6 13
REMARK SMILES IDX 7 15 8 16 9 17 10 18 11 19 15 20 12 21 14 22 13 23 22 24
REMARK SMILES IDX 23 25 24 26 25 27 26 28 27 29 28 30 29 31 90 32 30 33 89 34
REMARK SMILES IDX 31 35 32 36 33 37 83 38 34 39 88 40 82 41 84 42 35 43 87 44
REMARK SMILES IDX 81 45 80 46 36 48 68 49 48 50 67 51 49 52 52 53 66 54 85 55
REMARK SMILES IDX 50 56 51 57 65 59 86 60 53 61 37 62 38 63 46 64 39 65 40 66
REMARK SMILES IDX 44 67 47 68 41 69 42 70 45 71 43 72 69 73 70 74 78 75 71 76
REMARK SMILES IDX 72 77 76 78 79 79 73 80 74 81 77 82 75 83 54 84 55 85 63 86
REMARK SMILES IDX 56 87 57 88 61 89 64 90 58 91 59 92 62 93 60 94
REMARK H PARENT 18 7 5 14 84 47 52 58
REMARK Flexibility Score: inf
ROOT
ATOM      1  C   UNL A   1      31.794  27.955  26.874  1.00  0.00     0.325 C 
ATOM      2  O   UNL A   1      31.291  27.883  28.007  1.00  0.00    -0.250 OA
ENDROOT
BRANCH   1   3
ATOM      3  C   UNL A   1      32.280  26.452  26.259  1.00  0.00     0.238 C 
BRANCH   3   4
ATOM      4  N   UNL A   1      31.678  25.292  25.488  1.00  0.00    -0.343 N 
ATOM      5  C   UNL A   1      31.047  25.279  24.259  1.00  0.00     0.243 C 
ATOM      6  O   UNL A   1      30.361  24.322  23.907  1.00  0.00    -0.273 OA
ATOM      7  H   UNL A   1      31.748  24.415  25.930  1.00  0.00     0.164 HD
BRANCH   5   8
ATOM      8  C   UNL A   1      31.394  26.411  23.333  1.00  0.00     0.177 C 
BRANCH   8   9
ATOM      9  C   UNL A   1      30.241  27.491  23.492  1.00  0.00     0.015 C 
ATOM     10  C   UNL A   1      30.106  28.589  22.432  1.00  0.00     0.010 C 
ATOM     11  C   UNL A   1      28.837  26.862  23.728  1.00  0.00     0.010 C 
ENDBRANCH   8   9
BRANCH   8  12
ATOM     12  N   UNL A   1      31.646  25.778  22.044  1.00  0.00    -0.309 N 
ATOM     13  C   UNL A   1      32.927  25.553  21.538  1.00  0.00     0.408 C 
ATOM     14  H   UNL A   1      30.875  25.493  21.503  1.00  0.00     0.167 HD
ATOM     15  O   UNL A   1      33.102  25.754  20.344  1.00  0.00    -0.225 OA
BRANCH  13  16
ATOM     16  O   UNL A   1      33.964  25.127  22.361  1.00  0.00    -0.445 OA
BRANCH  16  17
ATOM     17  C   UNL A   1      34.415  24.086  23.542  1.00  0.00     0.270 C 
BRANCH  17  18
ATOM     18  C   UNL A   1      34.096  22.449  24.015  1.00  0.00    -0.011 A 
ATOM     19  C   UNL A   1      34.990  21.514  24.659  1.00  0.00     0.007 A 
ATOM     20  C   UNL A   1      32.832  21.883  23.794  1.00  0.00     0.007 A 
ATOM     21  C   UNL A   1      34.717  20.168  24.946  1.00  0.00     0.000 A 
ATOM     22  C   UNL A   1      32.547  20.520  24.066  1.00  0.00     0.000 A 
ATOM     23  C   UNL A   1      33.488  19.659  24.623  1.00  0.00     0.000 A 
ENDBRANCH  17  18
ENDBRANCH  16  17
ENDBRANCH  13  16
ENDBRANCH   8  12
ENDBRANCH   5   8
ENDBRANCH   3   4
ENDBRANCH   1   3
BRANCH   1  24
ATOM     24  O   UNL A   1      31.834  29.210  26.292  1.00  0.00    -0.461 OA
BRANCH  24  25
ATOM     25  C   UNL A   1      31.590  30.822  25.938  1.00  0.00     0.274 C 
BRANCH  25  26
ATOM     26  C   UNL A   1      31.411  32.258  26.939  1.00  0.00     0.275 C 
BRANCH  26  27
ATOM     27  O   UNL A   1      32.277  33.535  26.875  1.00  0.00    -0.458 OA
BRANCH  27  28
ATOM     28  C   UNL A   1      32.997  34.058  27.952  1.00  0.00     0.338 C 
ATOM     29  O   UNL A   1      32.542  34.912  28.701  1.00  0.00    -0.246 OA
BRANCH  28  30
ATOM     30  C   UNL A   1      34.271  33.279  28.380  1.00  0.00     0.060 A 
ATOM     31  C   UNL A   1      34.192  31.909  28.737  1.00  0.00     0.016 A 
ATOM     32  C   UNL A   1      35.518  33.868  28.594  1.00  0.00     0.016 A 
ATOM     33  C   UNL A   1      35.319  31.124  29.120  1.00  0.00     0.010 A 
ATOM     34  C   UNL A   1      36.636  33.102  29.083  1.00  0.00     0.010 A 
ATOM     35  C   UNL A   1      36.569  31.710  29.328  1.00  0.00    -0.014 A 
BRANCH  35  36
ATOM     36  C   UNL A   1      37.689  30.935  30.008  1.00  0.00     0.031 A 
ATOM     37  C   UNL A   1      37.962  31.185  31.481  1.00  0.00     0.074 A 
ATOM     38  C   UNL A   1      38.451  29.984  29.414  1.00  0.00     0.049 A 
ATOM     39  N   UNL A   1      38.929  30.741  32.252  1.00  0.00    -0.248 NA
ATOM     40  C   UNL A   1      36.996  32.046  32.176  1.00  0.00     0.031 C 
ATOM     41  C   UNL A   1      38.291  29.488  28.052  1.00  0.00     0.029 A 
ATOM     42  N   UNL A   1      39.535  29.261  29.896  1.00  0.00    -0.354 N 
ATOM     43  C   UNL A   1      38.701  31.288  33.512  1.00  0.00     0.074 A 
ATOM     44  C   UNL A   1      37.501  32.092  33.400  1.00  0.00     0.031 C 
ATOM     45  C   UNL A   1      39.251  28.576  27.796  1.00  0.00     0.029 A 
ATOM     46  C   UNL A   1      40.133  28.443  28.960  1.00  0.00     0.049 A 
ATOM     47  H   UNL A   1      39.849  29.327  30.826  1.00  0.00     0.167 HD
ATOM     48  C   UNL A   1      39.417  31.153  34.659  1.00  0.00     0.037 A 
ATOM     49  C   UNL A   1      41.270  27.703  29.006  1.00  0.00     0.037 A 
ATOM     50  C   UNL A   1      40.609  30.359  34.819  1.00  0.00     0.049 A 
ATOM     51  C   UNL A   1      42.125  27.662  30.260  1.00  0.00     0.074 A 
ATOM     52  C   UNL A   1      41.382  30.187  35.958  1.00  0.00     0.029 A 
ATOM     53  N   UNL A   1      41.208  29.609  33.821  1.00  0.00    -0.354 N 
ATOM     54  N   UNL A   1      41.910  28.208  31.432  1.00  0.00    -0.248 NA
ATOM     55  C   UNL A   1      43.389  26.903  30.193  1.00  0.00     0.031 C 
ATOM     56  C   UNL A   1      42.483  29.389  35.633  1.00  0.00     0.029 A 
ATOM     57  C   UNL A   1      42.357  29.002  34.311  1.00  0.00     0.049 A 
ATOM     58  H   UNL A   1      40.870  29.520  32.901  1.00  0.00     0.167 HD
ATOM     59  C   UNL A   1      42.981  27.829  32.239  1.00  0.00     0.074 A 
ATOM     60  C   UNL A   1      43.843  26.996  31.435  1.00  0.00     0.031 C 
ATOM     61  C   UNL A   1      43.219  28.149  33.535  1.00  0.00     0.037 A 
BRANCH  48  62
ATOM     62  C   UNL A   1      38.958  31.938  35.855  1.00  0.00     0.064 A 
ATOM     63  C   UNL A   1      38.161  31.368  36.858  1.00  0.00     0.173 A 
ATOM     64  C   UNL A   1      39.376  33.269  36.026  1.00  0.00     0.173 A 
ATOM     65  F   UNL A   1      37.730  30.103  36.740  1.00  0.00    -0.203 F 
ATOM     66  C   UNL A   1      37.778  32.109  37.974  1.00  0.00     0.198 A 
ATOM     67  C   UNL A   1      39.017  33.994  37.157  1.00  0.00     0.198 A 
ATOM     68  F   UNL A   1      40.152  33.856  35.102  1.00  0.00    -0.203 F 
ATOM     69  F   UNL A   1      36.979  31.559  38.899  1.00  0.00    -0.200 F 
ATOM     70  C   UNL A   1      38.213  33.418  38.126  1.00  0.00     0.200 A 
ATOM     71  F   UNL A   1      39.457  35.252  37.311  1.00  0.00    -0.200 F 
ATOM     72  F   UNL A   1      37.852  34.124  39.205  1.00  0.00    -0.200 F 
ENDBRANCH  48  62
BRANCH  49  73
ATOM     73  C   UNL A   1      41.748  26.961  27.796  1.00  0.00     0.064 A 
ATOM     74  C   UNL A   1      41.375  25.628  27.554  1.00  0.00     0.173 A 
ATOM     75  C   UNL A   1      42.673  27.538  26.912  1.00  0.00     0.173 A 
ATOM     76  F   UNL A   1      40.537  25.004  28.396  1.00  0.00    -0.203 F 
ATOM     77  C   UNL A   1      41.924  24.901  26.496  1.00  0.00     0.198 A 
ATOM     78  C   UNL A   1      43.193  26.823  25.833  1.00  0.00     0.198 A 
ATOM     79  F   UNL A   1      43.091  28.798  27.106  1.00  0.00    -0.203 F 
ATOM     80  F   UNL A   1      41.604  23.610  26.335  1.00  0.00    -0.200 F 
ATOM     81  C   UNL A   1      42.826  25.501  25.631  1.00  0.00     0.200 A 
ATOM     82  F   UNL A   1      44.064  27.409  25.000  1.00  0.00    -0.200 F 
ATOM     83  F   UNL A   1      43.356  24.803  24.618  1.00  0.00    -0.200 F 
ENDBRANCH  49  73
BRANCH  61  84
ATOM     84  C   UNL A   1      44.430  27.557  34.212  1.00  0.00     0.064 A 
ATOM     85  C   UNL A   1      45.653  28.238  34.283  1.00  0.00     0.173 A 
ATOM     86  C   UNL A   1      44.346  26.307  34.850  1.00  0.00     0.173 A 
ATOM     87  F   UNL A   1      45.798  29.431  33.686  1.00  0.00    -0.203 F 
ATOM     88  C   UNL A   1      46.750  27.685  34.945  1.00  0.00     0.198 A 
ATOM     89  C   UNL A   1      45.433  25.771  35.536  1.00  0.00     0.198 A 
ATOM     90  F   UNL A   1      43.199  25.611  34.824  1.00  0.00    -0.203 F 
ATOM     91  F   UNL A   1      47.920  28.338  34.962  1.00  0.00    -0.200 F 
ATOM     92  C   UNL A   1      46.637  26.457  35.577  1.00  0.00     0.200 A 
ATOM     93  F   UNL A   1      45.315  24.591  36.161  1.00  0.00    -0.200 F 
ATOM     94  F   UNL A   1      47.688  25.931  36.222  1.00  0.00    -0.200 F 
ENDBRANCH  61  84
ENDBRANCH  35  36
ENDBRANCH  28  30
ENDBRANCH  27  28
ENDBRANCH  26  27
ENDBRANCH  25  26
ENDBRANCH  24  25
ENDBRANCH   1  24
TORSDOF 18
ENDMDL
MODEL 2
REMARK VINA RESULT:     -13.9      4.187      7.055
REMARK SMILES CC(C)[C@H](NC(=O)OCc1ccccc1)C(=O)NCC(=O)OCCOC(=O)c1ccc(-c2c3nc(c(-c4c(F)c(F)c(F)c(F)c4F)c4ccc([nH]4)c(-c4c(F)c(F)c(F)c(F)c4F)c4nc(c(-c5c(F)c(F)c(F)c(F)c5F)c5ccc2[nH]5)C=C4)C=C3)cc1
REMARK SMILES IDX 20 1 21 2 19 3 18 4 16 5 17 6 4 8 2 9 1 10 3 11 5 12 6 13
REMARK SMILES IDX 7 15 8 16 9 17 10 18 11 19 15 20 12 21 14 22 13 23 22 24
REMARK SMILES IDX 23 25 24 26 25 27 26 28 27 29 28 30 29 31 90 32 30 33 89 34
REMARK SMILES IDX 31 35 32 36 33 37 83 38 34 39 88 40 82 41 84 42 35 43 87 44
REMARK SMILES IDX 81 45 80 46 36 48 68 49 48 50 67 51 49 52 52 53 66 54 85 55
REMARK SMILES IDX 50 56 51 57 65 59 86 60 53 61 37 62 38 63 46 64 39 65 40 66
REMARK SMILES IDX 44 67 47 68 41 69 42 70 45 71 43 72 69 73 70 74 78 75 71 76
REMARK SMILES IDX 72 77 76 78 79 79 73 80 74 81 77 82 75 83 54 84 55 85 63 86
REMARK SMILES IDX 56 87 57 88 61 89 64 90 58 91 59 92 62 93 60 94
REMARK H PARENT 18 7 5 14 84 47 52 58
REMARK Flexibility Score: inf
ROOT
ATOM      1  C   UNL A   1      32.130  23.599  26.747  1.00  0.00     0.325 C 
ATOM      2  O   UNL A   1      32.130  22.781  27.682  1.00  0.00    -0.250 OA
ENDROOT
BRANCH   1   3
ATOM      3  C   UNL A   1      30.621  24.329  26.495  1.00  0.00     0.238 C 
BRANCH   3   4
ATOM      4  N   UNL A   1      29.880  25.050  25.384  1.00  0.00    -0.343 N 
ATOM      5  C   UNL A   1      30.282  26.110  24.594  1.00  0.00     0.243 C 
ATOM      6  O   UNL A   1      29.468  26.764  23.947  1.00  0.00    -0.273 OA
ATOM      7  H   UNL A   1      28.974  24.712  25.199  1.00  0.00     0.164 HD
BRANCH   5   8
ATOM      8  C   UNL A   1      31.767  26.289  24.446  1.00  0.00     0.177 C 
BRANCH   8   9
ATOM      9  C   UNL A   1      32.126  27.666  25.147  1.00  0.00     0.015 C 
ATOM     10  C   UNL A   1      31.781  27.854  26.628  1.00  0.00     0.010 C 
ATOM     11  C   UNL A   1      33.605  28.102  24.928  1.00  0.00     0.010 C 
ENDBRANCH   8   9
BRANCH   8  12
ATOM     12  N   UNL A   1      32.029  26.086  23.026  1.00  0.00    -0.309 N 
ATOM     13  C   UNL A   1      32.592  24.918  22.508  1.00  0.00     0.408 C 
ATOM     14  H   UNL A   1      31.796  26.809  22.399  1.00  0.00     0.167 HD
ATOM     15  O   UNL A   1      33.423  25.043  21.619  1.00  0.00    -0.225 OA
BRANCH  13  16
ATOM     16  O   UNL A   1      32.230  23.666  22.993  1.00  0.00    -0.445 OA
BRANCH  16  17
ATOM     17  C   UNL A   1      32.156  22.062  22.676  1.00  0.00     0.270 C 
BRANCH  17  18
ATOM     18  C   UNL A   1      32.373  20.564  23.521  1.00  0.00    -0.011 A 
ATOM     19  C   UNL A   1      32.647  20.360  24.926  1.00  0.00     0.007 A 
ATOM     20  C   UNL A   1      32.273  19.345  22.834  1.00  0.00     0.007 A 
ATOM     21  C   UNL A   1      32.902  19.131  25.551  1.00  0.00     0.000 A 
ATOM     22  C   UNL A   1      32.542  18.096  23.452  1.00  0.00     0.000 A 
ATOM     23  C   UNL A   1      32.872  17.988  24.800  1.00  0.00     0.000 A 
ENDBRANCH  17  18
ENDBRANCH  16  17
ENDBRANCH  13  16
ENDBRANCH   8  12
ENDBRANCH   5   8
ENDBRANCH   3   4
ENDBRANCH   1   3
BRANCH   1  24
ATOM     24  O   UNL A   1      33.339  23.811  26.109  1.00  0.00    -0.461 OA
BRANCH  24  25
ATOM     25  C   UNL A   1      34.740  23.621  25.221  1.00  0.00     0.274 C 
BRANCH  25  26
ATOM     26  C   UNL A   1      35.708  22.215  24.792  1.00  0.00     0.275 C 
BRANCH  26  27
ATOM     27  O   UNL A   1      36.538  21.344  25.759  1.00  0.00    -0.458 OA
BRANCH  27  28
ATOM     28  C   UNL A   1      37.926  21.199  25.702  1.00  0.00     0.338 C 
ATOM     29  O   UNL A   1      38.478  20.366  24.996  1.00  0.00    -0.246 OA
BRANCH  28  30
ATOM     30  C   UNL A   1      38.770  22.357  26.304  1.00  0.00     0.060 A 
ATOM     31  C   UNL A   1      38.361  23.705  26.146  1.00  0.00     0.016 A 
ATOM     32  C   UNL A   1      40.027  22.192  26.889  1.00  0.00     0.016 A 
ATOM     33  C   UNL A   1      39.071  24.817  26.687  1.00  0.00     0.010 A 
ATOM     34  C   UNL A   1      40.798  23.322  27.341  1.00  0.00     0.010 A 
ATOM     35  C   UNL A   1      40.326  24.653  27.278  1.00  0.00    -0.014 A 
BRANCH  35  36
ATOM     36  C   UNL A   1      41.202  25.858  27.590  1.00  0.00     0.031 A 
ATOM     37  C   UNL A   1      40.614  26.998  28.404  1.00  0.00     0.074 A 
ATOM     38  C   UNL A   1      42.505  25.986  27.242  1.00  0.00     0.049 A 
ATOM     39  N   UNL A   1      41.116  28.177  28.699  1.00  0.00    -0.248 NA
ATOM     40  C   UNL A   1      39.280  26.762  28.971  1.00  0.00     0.031 C 
ATOM     41  C   UNL A   1      43.314  24.974  26.571  1.00  0.00     0.029 A 
ATOM     42  N   UNL A   1      43.386  27.048  27.403  1.00  0.00    -0.354 N 
ATOM     43  C   UNL A   1      40.150  28.828  29.462  1.00  0.00     0.074 A 
ATOM     44  C   UNL A   1      39.037  27.910  29.586  1.00  0.00     0.031 C 
ATOM     45  C   UNL A   1      44.549  25.468  26.350  1.00  0.00     0.029 A 
ATOM     46  C   UNL A   1      44.622  26.854  26.822  1.00  0.00     0.049 A 
ATOM     47  H   UNL A   1      43.148  27.869  27.891  1.00  0.00     0.167 HD
ATOM     48  C   UNL A   1      40.168  30.073  30.005  1.00  0.00     0.037 A 
ATOM     49  C   UNL A   1      45.678  27.690  26.650  1.00  0.00     0.037 A 
ATOM     50  C   UNL A   1      41.255  31.016  29.914  1.00  0.00     0.049 A 
ATOM     51  C   UNL A   1      45.631  29.120  27.156  1.00  0.00     0.074 A 
ATOM     52  C   UNL A   1      41.329  32.297  30.440  1.00  0.00     0.029 A 
ATOM     53  N   UNL A   1      42.452  30.793  29.255  1.00  0.00    -0.354 N 
ATOM     54  N   UNL A   1      44.700  29.728  27.850  1.00  0.00    -0.248 NA
ATOM     55  C   UNL A   1      46.788  29.985  26.848  1.00  0.00     0.031 C 
ATOM     56  C   UNL A   1      42.540  32.872  30.045  1.00  0.00     0.029 A 
ATOM     57  C   UNL A   1      43.253  31.924  29.335  1.00  0.00     0.049 A 
ATOM     58  H   UNL A   1      42.698  29.957  28.798  1.00  0.00     0.167 HD
ATOM     59  C   UNL A   1      45.172  31.017  28.088  1.00  0.00     0.074 A 
ATOM     60  C   UNL A   1      46.478  31.109  27.480  1.00  0.00     0.031 C 
ATOM     61  C   UNL A   1      44.568  32.030  28.757  1.00  0.00     0.037 A 
BRANCH  48  62
ATOM     62  C   UNL A   1      38.929  30.532  30.722  1.00  0.00     0.064 A 
ATOM     63  C   UNL A   1      38.811  30.469  32.117  1.00  0.00     0.173 A 
ATOM     64  C   UNL A   1      37.867  31.098  29.997  1.00  0.00     0.173 A 
ATOM     65  F   UNL A   1      39.795  29.931  32.854  1.00  0.00    -0.203 F 
ATOM     66  C   UNL A   1      37.665  30.932  32.759  1.00  0.00     0.198 A 
ATOM     67  C   UNL A   1      36.738  31.589  30.645  1.00  0.00     0.198 A 
ATOM     68  F   UNL A   1      37.937  31.196  28.660  1.00  0.00    -0.203 F 
ATOM     69  F   UNL A   1      37.553  30.822  34.090  1.00  0.00    -0.200 F 
ATOM     70  C   UNL A   1      36.633  31.499  32.023  1.00  0.00     0.200 A 
ATOM     71  F   UNL A   1      35.752  32.156  29.933  1.00  0.00    -0.200 F 
ATOM     72  F   UNL A   1      35.537  31.954  32.644  1.00  0.00    -0.200 F 
ENDBRANCH  48  62
BRANCH  49  73
ATOM     73  C   UNL A   1      46.890  27.243  25.893  1.00  0.00     0.064 A 
ATOM     74  C   UNL A   1      47.975  26.625  26.537  1.00  0.00     0.173 A 
ATOM     75  C   UNL A   1      47.033  27.523  24.525  1.00  0.00     0.173 A 
ATOM     76  F   UNL A   1      47.920  26.383  27.856  1.00  0.00    -0.203 F 
ATOM     77  C   UNL A   1      49.154  26.326  25.852  1.00  0.00     0.198 A 
ATOM     78  C   UNL A   1      48.197  27.191  23.832  1.00  0.00     0.198 A 
ATOM     79  F   UNL A   1      46.045  28.139  23.859  1.00  0.00    -0.203 F 
ATOM     80  F   UNL A   1      50.196  25.803  26.511  1.00  0.00    -0.200 F 
ATOM     81  C   UNL A   1      49.261  26.602  24.497  1.00  0.00     0.200 A 
ATOM     82  F   UNL A   1      48.294  27.459  22.523  1.00  0.00    -0.200 F 
ATOM     83  F   UNL A   1      50.394  26.321  23.840  1.00  0.00    -0.200 F 
ENDBRANCH  49  73
BRANCH  61  84
ATOM     84  C   UNL A   1      45.320  33.325  28.934  1.00  0.00     0.064 A 
ATOM     85  C   UNL A   1      45.168  34.404  28.051  1.00  0.00     0.173 A 
ATOM     86  C   UNL A   1      46.165  33.509  30.042  1.00  0.00     0.173 A 
ATOM     87  F   UNL A   1      44.383  34.286  26.969  1.00  0.00    -0.203 F 
ATOM     88  C   UNL A   1      45.848  35.605  28.254  1.00  0.00     0.198 A 
ATOM     89  C   UNL A   1      46.819  34.720  30.260  1.00  0.00     0.198 A 
ATOM     90  F   UNL A   1      46.343  32.517  30.928  1.00  0.00    -0.203 F 
ATOM     91  F   UNL A   1      45.720  36.605  27.372  1.00  0.00    -0.200 F 
ATOM     92  C   UNL A   1      46.666  35.765  29.363  1.00  0.00     0.200 A 
ATOM     93  F   UNL A   1      47.594  34.877  31.342  1.00  0.00    -0.200 F 
ATOM     94  F   UNL A   1      47.310  36.923  29.563  1.00  0.00    -0.200 F 
ENDBRANCH  61  84
ENDBRANCH  35  36
ENDBRANCH  28  30
ENDBRANCH  27  28
ENDBRANCH  26  27
ENDBRANCH  25  26
ENDBRANCH  24  25
ENDBRANCH   1  24
TORSDOF 18
ENDMDL
MODEL 3
REMARK VINA RESULT:     -13.9      1.196      3.727
REMARK SMILES CC(C)[C@H](NC(=O)OCc1ccccc1)C(=O)NCC(=O)OCCOC(=O)c1ccc(-c2c3nc(c(-c4c(F)c(F)c(F)c(F)c4F)c4ccc([nH]4)c(-c4c(F)c(F)c(F)c(F)c4F)c4nc(c(-c5c(F)c(F)c(F)c(F)c5F)c5ccc2[nH]5)C=C4)C=C3)cc1
REMARK SMILES IDX 20 1 21 2 19 3 18 4 16 5 17 6 4 8 2 9 1 10 3 11 5 12 6 13
REMARK SMILES IDX 7 15 8 16 9 17 10 18 11 19 15 20 12 21 14 22 13 23 22 24
REMARK SMILES IDX 23 25 24 26 25 27 26 28 27 29 28 30 29 31 90 32 30 33 89 34
REMARK SMILES IDX 31 35 32 36 33 37 83 38 34 39 88 40 82 41 84 42 35 43 87 44
REMARK SMILES IDX 81 45 80 46 36 48 68 49 48 50 67 51 49 52 52 53 66 54 85 55
REMARK SMILES IDX 50 56 51 57 65 59 86 60 53 61 37 62 38 63 46 64 39 65 40 66
REMARK SMILES IDX 44 67 47 68 41 69 42 70 45 71 43 72 69 73 70 74 78 75 71 76
REMARK SMILES IDX 72 77 76 78 79 79 73 80 74 81 77 82 75 83 54 84 55 85 63 86
REMARK SMILES IDX 56 87 57 88 61 89 64 90 58 91 59 92 62 93 60 94
REMARK H PARENT 18 7 5 14 84 47 52 58
REMARK Flexibility Score: inf
ROOT
ATOM      1  C   UNL A   1      33.563  28.953  25.885  1.00  0.00     0.325 C 
ATOM      2  O   UNL A   1      34.079  28.695  26.985  1.00  0.00    -0.250 OA
ENDROOT
BRANCH   1   3
ATOM      3  C   UNL A   1      34.081  27.923  24.643  1.00  0.00     0.238 C 
BRANCH   3   4
ATOM      4  N   UNL A   1      33.821  27.707  23.163  1.00  0.00    -0.343 N 
ATOM      5  C   UNL A   1      33.549  26.541  22.474  1.00  0.00     0.243 C 
ATOM      6  O   UNL A   1      33.652  26.488  21.250  1.00  0.00    -0.273 OA
ATOM      7  H   UNL A   1      33.852  28.521  22.611  1.00  0.00     0.164 HD
BRANCH   5   8
ATOM      8  C   UNL A   1      32.959  25.423  23.287  1.00  0.00     0.177 C 
BRANCH   8   9
ATOM      9  C   UNL A   1      33.944  24.188  23.132  1.00  0.00     0.015 C 
ATOM     10  C   UNL A   1      35.118  24.053  24.107  1.00  0.00     0.010 C 
ATOM     11  C   UNL A   1      33.207  22.818  23.060  1.00  0.00     0.010 C 
ENDBRANCH   8   9
BRANCH   8  12
ATOM     12  N   UNL A   1      31.573  25.328  22.844  1.00  0.00    -0.309 N 
ATOM     13  C   UNL A   1      30.549  26.129  23.354  1.00  0.00     0.408 C 
ATOM     14  H   UNL A   1      31.347  24.667  22.151  1.00  0.00     0.167 HD
ATOM     15  O   UNL A   1      29.469  25.593  23.562  1.00  0.00    -0.225 OA
BRANCH  13  16
ATOM     16  O   UNL A   1      30.753  27.478  23.622  1.00  0.00    -0.445 OA
BRANCH  16  17
ATOM     17  C   UNL A   1      30.042  28.929  23.881  1.00  0.00     0.270 C 
BRANCH  17  18
ATOM     18  C   UNL A   1      29.234  30.157  22.962  1.00  0.00    -0.011 A 
ATOM     19  C   UNL A   1      28.729  30.077  21.610  1.00  0.00     0.007 A 
ATOM     20  C   UNL A   1      28.987  31.416  23.529  1.00  0.00     0.007 A 
ATOM     21  C   UNL A   1      28.158  31.126  20.874  1.00  0.00     0.000 A 
ATOM     22  C   UNL A   1      28.424  32.489  22.791  1.00  0.00     0.000 A 
ATOM     23  C   UNL A   1      28.027  32.353  21.464  1.00  0.00     0.000 A 
ENDBRANCH  17  18
ENDBRANCH  16  17
ENDBRANCH  13  16
ENDBRANCH   8  12
ENDBRANCH   5   8
ENDBRANCH   3   4
ENDBRANCH   1   3
BRANCH   1  24
ATOM     24  O   UNL A   1      32.640  29.984  25.859  1.00  0.00    -0.461 OA
BRANCH  24  25
ATOM     25  C   UNL A   1      31.413  31.048  26.244  1.00  0.00     0.274 C 
BRANCH  25  26
ATOM     26  C   UNL A   1      31.402  32.691  26.874  1.00  0.00     0.275 C 
BRANCH  26  27
ATOM     27  O   UNL A   1      32.582  33.687  26.860  1.00  0.00    -0.458 OA
BRANCH  27  28
ATOM     28  C   UNL A   1      33.251  34.139  28.000  1.00  0.00     0.338 C 
ATOM     29  O   UNL A   1      32.757  34.936  28.786  1.00  0.00    -0.246 OA
BRANCH  28  30
ATOM     30  C   UNL A   1      34.511  33.338  28.428  1.00  0.00     0.060 A 
ATOM     31  C   UNL A   1      34.420  31.955  28.725  1.00  0.00     0.016 A 
ATOM     32  C   UNL A   1      35.753  33.913  28.700  1.00  0.00     0.016 A 
ATOM     33  C   UNL A   1      35.536  31.150  29.104  1.00  0.00     0.010 A 
ATOM     34  C   UNL A   1      36.856  33.124  29.186  1.00  0.00     0.010 A 
ATOM     35  C   UNL A   1      36.781  31.724  29.370  1.00  0.00    -0.014 A 
BRANCH  35  36
ATOM     36  C   UNL A   1      37.881  30.917  30.046  1.00  0.00     0.031 A 
ATOM     37  C   UNL A   1      38.161  31.154  31.520  1.00  0.00     0.074 A 
ATOM     38  C   UNL A   1      38.616  29.949  29.448  1.00  0.00     0.049 A 
ATOM     39  N   UNL A   1      39.117  30.682  32.288  1.00  0.00    -0.248 NA
ATOM     40  C   UNL A   1      37.218  32.037  32.219  1.00  0.00     0.031 C 
ATOM     41  C   UNL A   1      38.443  29.462  28.084  1.00  0.00     0.029 A 
ATOM     42  N   UNL A   1      39.682  29.196  29.926  1.00  0.00    -0.354 N 
ATOM     43  C   UNL A   1      38.904  31.230  33.550  1.00  0.00     0.074 A 
ATOM     44  C   UNL A   1      37.726  32.065  33.442  1.00  0.00     0.031 C 
ATOM     45  C   UNL A   1      39.378  28.526  27.824  1.00  0.00     0.029 A 
ATOM     46  C   UNL A   1      40.258  28.366  28.986  1.00  0.00     0.049 A 
ATOM     47  H   UNL A   1      39.998  29.250  30.856  1.00  0.00     0.167 HD
ATOM     48  C   UNL A   1      39.617  31.072  34.696  1.00  0.00     0.037 A 
ATOM     49  C   UNL A   1      41.375  27.596  29.028  1.00  0.00     0.037 A 
ATOM     50  C   UNL A   1      40.788  30.246  34.851  1.00  0.00     0.049 A 
ATOM     51  C   UNL A   1      42.230  27.529  30.281  1.00  0.00     0.074 A 
ATOM     52  C   UNL A   1      41.558  30.051  35.989  1.00  0.00     0.029 A 
ATOM     53  N   UNL A   1      41.367  29.485  33.851  1.00  0.00    -0.354 N 
ATOM     54  N   UNL A   1      42.030  28.075  31.455  1.00  0.00    -0.248 NA
ATOM     55  C   UNL A   1      43.474  26.737  30.210  1.00  0.00     0.031 C 
ATOM     56  C   UNL A   1      42.637  29.225  35.660  1.00  0.00     0.029 A 
ATOM     57  C   UNL A   1      42.501  28.847  34.337  1.00  0.00     0.049 A 
ATOM     58  H   UNL A   1      41.026  29.408  32.930  1.00  0.00     0.167 HD
ATOM     59  C   UNL A   1      43.091  27.666  32.260  1.00  0.00     0.074 A 
ATOM     60  C   UNL A   1      43.931  26.814  31.452  1.00  0.00     0.031 C 
ATOM     61  C   UNL A   1      43.339  27.974  33.557  1.00  0.00     0.037 A 
BRANCH  48  62
ATOM     62  C   UNL A   1      39.180  31.865  35.896  1.00  0.00     0.064 A 
ATOM     63  C   UNL A   1      39.627  33.174  36.125  1.00  0.00     0.173 A 
ATOM     64  C   UNL A   1      38.250  31.321  36.797  1.00  0.00     0.173 A 
ATOM     65  F   UNL A   1      40.521  33.736  35.298  1.00  0.00    -0.203 F 
ATOM     66  C   UNL A   1      39.180  33.898  37.228  1.00  0.00     0.198 A 
ATOM     67  C   UNL A   1      37.781  32.060  37.878  1.00  0.00     0.198 A 
ATOM     68  F   UNL A   1      37.778  30.078  36.613  1.00  0.00    -0.203 F 
ATOM     69  F   UNL A   1      39.655  35.131  37.454  1.00  0.00    -0.200 F 
ATOM     70  C   UNL A   1      38.252  33.344  38.098  1.00  0.00     0.200 A 
ATOM     71  F   UNL A   1      36.867  31.530  38.705  1.00  0.00    -0.200 F 
ATOM     72  F   UNL A   1      37.815  34.047  39.151  1.00  0.00    -0.200 F 
ENDBRANCH  48  62
BRANCH  49  73
ATOM     73  C   UNL A   1      41.832  26.847  27.815  1.00  0.00     0.064 A 
ATOM     74  C   UNL A   1      41.437  25.520  27.576  1.00  0.00     0.173 A 
ATOM     75  C   UNL A   1      42.761  27.409  26.924  1.00  0.00     0.173 A 
ATOM     76  F   UNL A   1      40.596  24.910  28.424  1.00  0.00    -0.203 F 
ATOM     77  C   UNL A   1      41.966  24.784  26.514  1.00  0.00     0.198 A 
ATOM     78  C   UNL A   1      43.261  26.686  25.842  1.00  0.00     0.198 A 
ATOM     79  F   UNL A   1      43.200  28.662  27.115  1.00  0.00    -0.203 F 
ATOM     80  F   UNL A   1      41.625  23.499  26.355  1.00  0.00    -0.200 F 
ATOM     81  C   UNL A   1      42.872  25.370  25.643  1.00  0.00     0.200 A 
ATOM     82  F   UNL A   1      44.135  27.258  25.003  1.00  0.00    -0.200 F 
ATOM     83  F   UNL A   1      43.384  24.664  24.626  1.00  0.00    -0.200 F 
ENDBRANCH  49  73
BRANCH  61  84
ATOM     84  C   UNL A   1      44.534  27.349  34.230  1.00  0.00     0.064 A 
ATOM     85  C   UNL A   1      45.769  28.007  34.323  1.00  0.00     0.173 A 
ATOM     86  C   UNL A   1      44.425  26.089  34.844  1.00  0.00     0.173 A 
ATOM     87  F   UNL A   1      45.939  29.208  33.749  1.00  0.00    -0.203 F 
ATOM     88  C   UNL A   1      46.852  27.422  34.981  1.00  0.00     0.198 A 
ATOM     89  C   UNL A   1      45.498  25.520  35.527  1.00  0.00     0.198 A 
ATOM     90  F   UNL A   1      43.266  25.413  34.797  1.00  0.00    -0.203 F 
ATOM     91  F   UNL A   1      48.033  28.054  35.018  1.00  0.00    -0.200 F 
ATOM     92  C   UNL A   1      46.713  26.184  35.589  1.00  0.00     0.200 A 
ATOM     93  F   UNL A   1      45.355  24.331  36.128  1.00  0.00    -0.200 F 
ATOM     94  F   UNL A   1      47.750  25.628  36.230  1.00  0.00    -0.200 F 
ENDBRANCH  61  84
ENDBRANCH  35  36
ENDBRANCH  28  30
ENDBRANCH  27  28
ENDBRANCH  26  27
ENDBRANCH  25  26
ENDBRANCH  24  25
ENDBRANCH   1  24
TORSDOF 18
ENDMDL
