MODEL 1
REMARK VINA RESULT:     -12.9      0.000      0.000
REMARK SMILES C[C@H]1Oc2ccccc2C=C1/C=C/C(=O)N[C@H](C(=O)OCCOC(=O)c1ccc(-c2c3nc(c(-c4c(F)c(F)c(F)c(F)c4F)c4ccc([nH]4)c(-c4c(F)c(F)c(F)c(F)c4F)c4nc(c(-c5c(F)c(F)c(F)c(F)c5F)c5ccc2[nH]5)C=C4)C=C3)cc1)c1ccccc1
REMARK SMILES IDX 21 1 20 2 18 3 19 4 17 5 16 6 14 7 15 8 13 10 12 11 11 12
REMARK SMILES IDX 1 13 2 14 3 15 4 16 10 17 5 18 9 19 6 20 8 21 7 22 89 23
REMARK SMILES IDX 90 24 94 25 91 26 93 27 92 28 22 29 23 30 24 31 25 32 26 33
REMARK SMILES IDX 27 34 88 35 28 36 87 37 29 38 30 39 31 40 81 41 32 42 86 43
REMARK SMILES IDX 80 44 82 45 33 46 85 47 79 48 78 49 34 51 66 52 46 53 65 54
REMARK SMILES IDX 47 55 50 56 64 57 83 58 48 59 49 60 63 62 84 63 51 64 35 65
REMARK SMILES IDX 36 66 44 67 37 68 38 69 42 70 45 71 39 72 40 73 43 74 41 75
REMARK SMILES IDX 67 76 68 77 76 78 69 79 70 80 74 81 77 82 71 83 72 84 75 85
REMARK SMILES IDX 73 86 52 87 53 88 61 89 54 90 55 91 59 92 62 93 56 94 57 95
REMARK SMILES IDX 60 96 58 97
REMARK H PARENT 16 9 82 50 50 61
REMARK Flexibility Score: inf
ROOT
ATOM      1  C   UNL A   1      35.891  22.333  24.126  1.00  0.00     0.274 C 
ENDROOT
BRANCH   1   2
ATOM      2  O   UNL A   1      34.597  22.939  24.389  1.00  0.00    -0.460 OA
BRANCH   2   3
ATOM      3  C   UNL A   1      33.532  22.255  23.899  1.00  0.00     0.333 C 
ATOM      4  O   UNL A   1      33.046  22.498  22.801  1.00  0.00    -0.249 OA
BRANCH   3   5
ATOM      5  C   UNL A   1      32.964  21.173  24.859  1.00  0.00     0.223 C 
BRANCH   5   6
ATOM      6  N   UNL A   1      31.690  21.527  25.546  1.00  0.00    -0.335 N 
ATOM      7  C   UNL A   1      31.115  22.563  26.213  1.00  0.00     0.244 C 
ATOM      8  O   UNL A   1      29.921  22.432  26.504  1.00  0.00    -0.270 OA
ATOM      9  H   UNL A   1      31.065  20.767  25.503  1.00  0.00     0.165 HD
BRANCH   7  10
ATOM     10  C   UNL A   1      31.768  23.829  26.659  1.00  0.00     0.071 C 
ATOM     11  C   UNL A   1      31.717  24.959  25.966  1.00  0.00     0.013 C 
BRANCH  11  12
ATOM     12  C   UNL A   1      32.220  26.310  26.134  1.00  0.00    -0.007 C 
ATOM     13  C   UNL A   1      33.733  26.132  24.233  1.00  0.00     0.058 C 
ATOM     14  C   UNL A   1      33.688  26.369  25.745  1.00  0.00     0.200 C 
ATOM     15  O   UNL A   1      34.440  27.511  26.138  1.00  0.00    -0.485 OA
ATOM     16  C   UNL A   1      33.749  28.588  26.595  1.00  0.00     0.127 A 
ATOM     17  C   UNL A   1      31.562  27.428  26.462  1.00  0.00     0.019 C 
ATOM     18  C   UNL A   1      34.540  29.669  26.991  1.00  0.00     0.047 A 
ATOM     19  C   UNL A   1      32.354  28.654  26.623  1.00  0.00     0.017 A 
ATOM     20  C   UNL A   1      33.939  30.871  27.333  1.00  0.00     0.004 A 
ATOM     21  C   UNL A   1      31.762  29.889  26.901  1.00  0.00     0.012 A 
ATOM     22  C   UNL A   1      32.553  30.991  27.248  1.00  0.00     0.001 A 
ENDBRANCH  11  12
ENDBRANCH   7  10
ENDBRANCH   5   6
BRANCH   5  23
ATOM     23  C   UNL A   1      33.028  19.756  24.257  1.00  0.00    -0.014 A 
ATOM     24  C   UNL A   1      34.034  18.871  24.704  1.00  0.00     0.006 A 
ATOM     25  C   UNL A   1      32.192  19.307  23.221  1.00  0.00     0.006 A 
ATOM     26  C   UNL A   1      34.251  17.635  24.083  1.00  0.00     0.000 A 
ATOM     27  C   UNL A   1      32.419  18.074  22.591  1.00  0.00     0.000 A 
ATOM     28  C   UNL A   1      33.458  17.247  23.009  1.00  0.00     0.000 A 
ENDBRANCH   5  23
ENDBRANCH   3   5
ENDBRANCH   2   3
ENDBRANCH   1   2
BRANCH   1  29
ATOM     29  C   UNL A   1      37.129  23.090  24.659  1.00  0.00     0.275 C 
BRANCH  29  30
ATOM     30  O   UNL A   1      37.489  22.703  26.012  1.00  0.00    -0.458 OA
BRANCH  30  31
ATOM     31  C   UNL A   1      38.816  22.699  26.311  1.00  0.00     0.338 C 
ATOM     32  O   UNL A   1      39.619  21.833  26.007  1.00  0.00    -0.246 OA
BRANCH  31  33
ATOM     33  C   UNL A   1      39.229  24.011  26.893  1.00  0.00     0.060 A 
ATOM     34  C   UNL A   1      38.907  24.453  28.178  1.00  0.00     0.016 A 
ATOM     35  C   UNL A   1      40.037  24.820  26.098  1.00  0.00     0.016 A 
ATOM     36  C   UNL A   1      39.306  25.749  28.608  1.00  0.00     0.010 A 
ATOM     37  C   UNL A   1      40.445  26.086  26.538  1.00  0.00     0.010 A 
ATOM     38  C   UNL A   1      40.023  26.619  27.762  1.00  0.00    -0.014 A 
BRANCH  38  39
ATOM     39  C   UNL A   1      40.559  27.951  28.193  1.00  0.00     0.031 A 
ATOM     40  C   UNL A   1      42.003  28.297  28.481  1.00  0.00     0.074 A 
ATOM     41  C   UNL A   1      39.683  28.862  28.643  1.00  0.00     0.049 A 
ATOM     42  N   UNL A   1      42.666  29.414  28.275  1.00  0.00    -0.248 NA
ATOM     43  C   UNL A   1      42.804  27.317  29.196  1.00  0.00     0.031 C 
ATOM     44  C   UNL A   1      38.238  28.681  28.734  1.00  0.00     0.029 A 
ATOM     45  N   UNL A   1      39.914  30.101  29.179  1.00  0.00    -0.354 N 
ATOM     46  C   UNL A   1      43.994  29.136  28.611  1.00  0.00     0.074 A 
ATOM     47  C   UNL A   1      44.030  27.819  29.171  1.00  0.00     0.031 C 
ATOM     48  C   UNL A   1      37.707  29.770  29.310  1.00  0.00     0.029 A 
ATOM     49  C   UNL A   1      38.772  30.737  29.570  1.00  0.00     0.049 A 
ATOM     50  H   UNL A   1      40.812  30.493  29.271  1.00  0.00     0.167 HD
ATOM     51  C   UNL A   1      45.076  29.943  28.585  1.00  0.00     0.037 A 
ATOM     52  C   UNL A   1      38.610  31.987  30.034  1.00  0.00     0.037 A 
ATOM     53  C   UNL A   1      44.969  31.359  28.734  1.00  0.00     0.049 A 
ATOM     54  C   UNL A   1      39.794  32.912  30.121  1.00  0.00     0.074 A 
ATOM     55  C   UNL A   1      45.977  32.299  28.825  1.00  0.00     0.029 A 
ATOM     56  N   UNL A   1      43.778  31.990  29.038  1.00  0.00    -0.354 N 
ATOM     57  N   UNL A   1      41.055  32.690  29.831  1.00  0.00    -0.248 NA
ATOM     58  C   UNL A   1      39.514  34.284  30.565  1.00  0.00     0.031 C 
ATOM     59  C   UNL A   1      45.404  33.477  29.312  1.00  0.00     0.029 A 
ATOM     60  C   UNL A   1      44.034  33.285  29.427  1.00  0.00     0.049 A 
ATOM     61  H   UNL A   1      42.887  31.578  28.984  1.00  0.00     0.167 HD
ATOM     62  C   UNL A   1      41.708  33.904  30.019  1.00  0.00     0.074 A 
ATOM     63  C   UNL A   1      40.703  34.856  30.438  1.00  0.00     0.031 C 
ATOM     64  C   UNL A   1      43.019  34.209  29.852  1.00  0.00     0.037 A 
BRANCH  51  65
ATOM     65  C   UNL A   1      46.455  29.368  28.476  1.00  0.00     0.064 A 
ATOM     66  C   UNL A   1      46.967  29.140  27.187  1.00  0.00     0.173 A 
ATOM     67  C   UNL A   1      47.328  29.216  29.557  1.00  0.00     0.173 A 
ATOM     68  F   UNL A   1      46.178  29.299  26.111  1.00  0.00    -0.203 F 
ATOM     69  C   UNL A   1      48.290  28.760  26.986  1.00  0.00     0.198 A 
ATOM     70  C   UNL A   1      48.658  28.838  29.355  1.00  0.00     0.198 A 
ATOM     71  F   UNL A   1      46.907  29.464  30.806  1.00  0.00    -0.203 F 
ATOM     72  F   UNL A   1      48.743  28.532  25.746  1.00  0.00    -0.200 F 
ATOM     73  C   UNL A   1      49.137  28.611  28.072  1.00  0.00     0.200 A 
ATOM     74  F   UNL A   1      49.487  28.714  30.402  1.00  0.00    -0.200 F 
ATOM     75  F   UNL A   1      50.412  28.244  27.880  1.00  0.00    -0.200 F 
ENDBRANCH  51  65
BRANCH  52  76
ATOM     76  C   UNL A   1      37.230  32.467  30.264  1.00  0.00     0.064 A 
ATOM     77  C   UNL A   1      36.673  32.378  31.547  1.00  0.00     0.173 A 
ATOM     78  C   UNL A   1      36.484  33.097  29.260  1.00  0.00     0.173 A 
ATOM     79  F   UNL A   1      37.363  31.790  32.535  1.00  0.00    -0.203 F 
ATOM     80  C   UNL A   1      35.408  32.885  31.813  1.00  0.00     0.198 A 
ATOM     81  C   UNL A   1      35.226  33.626  29.535  1.00  0.00     0.198 A 
ATOM     82  F   UNL A   1      36.994  33.233  28.026  1.00  0.00    -0.203 F 
ATOM     83  F   UNL A   1      34.888  32.765  33.043  1.00  0.00    -0.200 F 
ATOM     84  C   UNL A   1      34.687  33.514  30.809  1.00  0.00     0.200 A 
ATOM     85  F   UNL A   1      34.541  34.258  28.571  1.00  0.00    -0.200 F 
ATOM     86  F   UNL A   1      33.474  34.017  31.071  1.00  0.00    -0.200 F 
ENDBRANCH  52  76
BRANCH  64  87
ATOM     87  C   UNL A   1      43.471  35.610  30.123  1.00  0.00     0.064 A 
ATOM     88  C   UNL A   1      43.377  36.612  29.148  1.00  0.00     0.173 A 
ATOM     89  C   UNL A   1      43.869  35.979  31.417  1.00  0.00     0.173 A 
ATOM     90  F   UNL A   1      42.992  36.309  27.900  1.00  0.00    -0.203 F 
ATOM     91  C   UNL A   1      43.684  37.933  29.456  1.00  0.00     0.198 A 
ATOM     92  C   UNL A   1      44.137  37.306  31.730  1.00  0.00     0.198 A 
ATOM     93  F   UNL A   1      43.948  35.059  32.390  1.00  0.00    -0.203 F 
ATOM     94  F   UNL A   1      43.616  38.873  28.503  1.00  0.00    -0.200 F 
ATOM     95  C   UNL A   1      44.050  38.281  30.749  1.00  0.00     0.200 A 
ATOM     96  F   UNL A   1      44.458  37.644  32.987  1.00  0.00    -0.200 F 
ATOM     97  F   UNL A   1      44.313  39.560  31.050  1.00  0.00    -0.200 F 
ENDBRANCH  64  87
ENDBRANCH  38  39
ENDBRANCH  31  33
ENDBRANCH  30  31
ENDBRANCH  29  30
ENDBRANCH   1  29
TORSDOF 15
ENDMDL
MODEL 2
REMARK VINA RESULT:     -12.9      3.628      9.735
REMARK SMILES C[C@H]1Oc2ccccc2C=C1/C=C/C(=O)N[C@H](C(=O)OCCOC(=O)c1ccc(-c2c3nc(c(-c4c(F)c(F)c(F)c(F)c4F)c4ccc([nH]4)c(-c4c(F)c(F)c(F)c(F)c4F)c4nc(c(-c5c(F)c(F)c(F)c(F)c5F)c5ccc2[nH]5)C=C4)C=C3)cc1)c1ccccc1
REMARK SMILES IDX 21 1 20 2 18 3 19 4 17 5 16 6 14 7 15 8 13 10 12 11 11 12
REMARK SMILES IDX 1 13 2 14 3 15 4 16 10 17 5 18 9 19 6 20 8 21 7 22 89 23
REMARK SMILES IDX 90 24 94 25 91 26 93 27 92 28 22 29 23 30 24 31 25 32 26 33
REMARK SMILES IDX 27 34 88 35 28 36 87 37 29 38 30 39 31 40 81 41 32 42 86 43
REMARK SMILES IDX 80 44 82 45 33 46 85 47 79 48 78 49 34 51 66 52 46 53 65 54
REMARK SMILES IDX 47 55 50 56 64 57 83 58 48 59 49 60 63 62 84 63 51 64 35 65
REMARK SMILES IDX 36 66 44 67 37 68 38 69 42 70 45 71 39 72 40 73 43 74 41 75
REMARK SMILES IDX 67 76 68 77 76 78 69 79 70 80 74 81 77 82 71 83 72 84 75 85
REMARK SMILES IDX 73 86 52 87 53 88 61 89 54 90 55 91 59 92 62 93 56 94 57 95
REMARK SMILES IDX 60 96 58 97
REMARK H PARENT 16 9 82 50 50 61
REMARK Flexibility Score: inf
ROOT
ATOM      1  C   UNL A   1      34.601  34.520  30.324  1.00  0.00     0.274 C 
ENDROOT
BRANCH   1   2
ATOM      2  O   UNL A   1      34.116  33.272  29.758  1.00  0.00    -0.460 OA
BRANCH   2   3
ATOM      3  C   UNL A   1      34.827  32.807  28.700  1.00  0.00     0.333 C 
ATOM      4  O   UNL A   1      35.537  33.533  28.017  1.00  0.00    -0.249 OA
BRANCH   3   5
ATOM      5  C   UNL A   1      34.632  31.292  28.410  1.00  0.00     0.223 C 
BRANCH   5   6
ATOM      6  N   UNL A   1      33.866  30.967  27.174  1.00  0.00    -0.335 N 
ATOM      7  C   UNL A   1      33.383  29.892  26.497  1.00  0.00     0.244 C 
ATOM      8  O   UNL A   1      32.654  30.136  25.530  1.00  0.00    -0.270 OA
ATOM      9  H   UNL A   1      33.637  31.796  26.695  1.00  0.00     0.165 HD
BRANCH   7  10
ATOM     10  C   UNL A   1      33.657  28.449  26.770  1.00  0.00     0.071 C 
ATOM     11  C   UNL A   1      33.291  27.471  25.952  1.00  0.00     0.013 C 
BRANCH  11  12
ATOM     12  C   UNL A   1      33.418  26.025  25.932  1.00  0.00    -0.007 C 
ATOM     13  C   UNL A   1      31.044  25.683  25.509  1.00  0.00     0.058 C 
ATOM     14  C   UNL A   1      32.165  25.386  26.509  1.00  0.00     0.200 C 
ATOM     15  O   UNL A   1      32.220  24.012  26.870  1.00  0.00    -0.485 OA
ATOM     16  C   UNL A   1      33.288  23.292  26.437  1.00  0.00     0.127 A 
ATOM     17  C   UNL A   1      34.387  25.264  25.411  1.00  0.00     0.019 C 
ATOM     18  C   UNL A   1      33.302  21.957  26.845  1.00  0.00     0.047 A 
ATOM     19  C   UNL A   1      34.279  23.811  25.600  1.00  0.00     0.017 A 
ATOM     20  C   UNL A   1      34.263  21.095  26.340  1.00  0.00     0.004 A 
ATOM     21  C   UNL A   1      35.199  22.920  25.043  1.00  0.00     0.012 A 
ATOM     22  C   UNL A   1      35.185  21.568  25.409  1.00  0.00     0.001 A 
ENDBRANCH  11  12
ENDBRANCH   7  10
ENDBRANCH   5   6
BRANCH   5  23
ATOM     23  C   UNL A   1      35.921  30.477  28.632  1.00  0.00    -0.014 A 
ATOM     24  C   UNL A   1      36.811  30.303  27.549  1.00  0.00     0.006 A 
ATOM     25  C   UNL A   1      36.233  29.817  29.833  1.00  0.00     0.006 A 
ATOM     26  C   UNL A   1      37.910  29.439  27.636  1.00  0.00     0.000 A 
ATOM     27  C   UNL A   1      37.326  28.942  29.914  1.00  0.00     0.000 A 
ATOM     28  C   UNL A   1      38.153  28.739  28.812  1.00  0.00     0.000 A 
ENDBRANCH   5  23
ENDBRANCH   3   5
ENDBRANCH   2   3
ENDBRANCH   1   2
BRANCH   1  29
ATOM     29  C   UNL A   1      35.065  34.476  31.797  1.00  0.00     0.275 C 
BRANCH  29  30
ATOM     30  O   UNL A   1      36.468  34.127  31.938  1.00  0.00    -0.458 OA
BRANCH  30  31
ATOM     31  C   UNL A   1      36.743  32.953  32.569  1.00  0.00     0.338 C 
ATOM     32  O   UNL A   1      36.040  32.403  33.402  1.00  0.00    -0.246 OA
BRANCH  31  33
ATOM     33  C   UNL A   1      37.935  32.293  31.960  1.00  0.00     0.060 A 
ATOM     34  C   UNL A   1      38.755  31.367  32.608  1.00  0.00     0.016 A 
ATOM     35  C   UNL A   1      38.206  32.598  30.628  1.00  0.00     0.016 A 
ATOM     36  C   UNL A   1      39.902  30.844  31.948  1.00  0.00     0.010 A 
ATOM     37  C   UNL A   1      39.324  32.060  29.977  1.00  0.00     0.010 A 
ATOM     38  C   UNL A   1      40.246  31.241  30.640  1.00  0.00    -0.014 A 
BRANCH  38  39
ATOM     39  C   UNL A   1      41.379  30.649  29.858  1.00  0.00     0.031 A 
ATOM     40  C   UNL A   1      41.532  29.206  29.433  1.00  0.00     0.074 A 
ATOM     41  C   UNL A   1      42.508  31.368  29.748  1.00  0.00     0.049 A 
ATOM     42  N   UNL A   1      42.059  28.692  28.343  1.00  0.00    -0.248 NA
ATOM     43  C   UNL A   1      41.151  28.176  30.386  1.00  0.00     0.031 C 
ATOM     44  C   UNL A   1      42.727  32.697  30.311  1.00  0.00     0.029 A 
ATOM     45  N   UNL A   1      43.705  31.026  29.180  1.00  0.00    -0.354 N 
ATOM     46  C   UNL A   1      41.820  27.316  28.416  1.00  0.00     0.074 A 
ATOM     47  C   UNL A   1      41.248  27.046  29.700  1.00  0.00     0.031 C 
ATOM     48  C   UNL A   1      43.997  33.055  30.071  1.00  0.00     0.029 A 
ATOM     49  C   UNL A   1      44.650  32.005  29.293  1.00  0.00     0.049 A 
ATOM     50  H   UNL A   1      43.868  30.164  28.734  1.00  0.00     0.167 HD
ATOM     51  C   UNL A   1      42.163  26.335  27.554  1.00  0.00     0.037 A 
ATOM     52  C   UNL A   1      45.886  32.058  28.771  1.00  0.00     0.037 A 
ATOM     53  C   UNL A   1      43.295  26.446  26.691  1.00  0.00     0.049 A 
ATOM     54  C   UNL A   1      46.369  30.949  27.874  1.00  0.00     0.074 A 
ATOM     55  C   UNL A   1      43.826  25.503  25.834  1.00  0.00     0.029 A 
ATOM     56  N   UNL A   1      44.188  27.499  26.762  1.00  0.00    -0.354 N 
ATOM     57  N   UNL A   1      45.764  29.843  27.509  1.00  0.00    -0.248 NA
ATOM     58  C   UNL A   1      47.702  31.126  27.285  1.00  0.00     0.031 C 
ATOM     59  C   UNL A   1      45.109  25.935  25.484  1.00  0.00     0.029 A 
ATOM     60  C   UNL A   1      45.323  27.184  26.051  1.00  0.00     0.049 A 
ATOM     61  H   UNL A   1      44.035  28.342  27.246  1.00  0.00     0.167 HD
ATOM     62  C   UNL A   1      46.627  29.214  26.616  1.00  0.00     0.074 A 
ATOM     63  C   UNL A   1      47.788  30.066  26.491  1.00  0.00     0.031 C 
ATOM     64  C   UNL A   1      46.470  28.042  25.951  1.00  0.00     0.037 A 
BRANCH  51  65
ATOM     65  C   UNL A   1      41.403  25.045  27.525  1.00  0.00     0.064 A 
ATOM     66  C   UNL A   1      40.177  25.025  26.839  1.00  0.00     0.173 A 
ATOM     67  C   UNL A   1      41.916  23.824  27.974  1.00  0.00     0.173 A 
ATOM     68  F   UNL A   1      39.653  26.165  26.361  1.00  0.00    -0.203 F 
ATOM     69  C   UNL A   1      39.483  23.837  26.624  1.00  0.00     0.198 A 
ATOM     70  C   UNL A   1      41.220  22.632  27.755  1.00  0.00     0.198 A 
ATOM     71  F   UNL A   1      43.104  23.777  28.596  1.00  0.00    -0.203 F 
ATOM     72  F   UNL A   1      38.307  23.854  25.983  1.00  0.00    -0.200 F 
ATOM     73  C   UNL A   1      40.007  22.640  27.082  1.00  0.00     0.200 A 
ATOM     74  F   UNL A   1      41.735  21.468  28.178  1.00  0.00    -0.200 F 
ATOM     75  F   UNL A   1      39.339  21.496  26.876  1.00  0.00    -0.200 F 
ENDBRANCH  51  65
BRANCH  52  76
ATOM     76  C   UNL A   1      46.659  33.307  28.946  1.00  0.00     0.064 A 
ATOM     77  C   UNL A   1      47.567  33.413  30.009  1.00  0.00     0.173 A 
ATOM     78  C   UNL A   1      46.585  34.363  28.030  1.00  0.00     0.173 A 
ATOM     79  F   UNL A   1      47.671  32.415  30.900  1.00  0.00    -0.203 F 
ATOM     80  C   UNL A   1      48.360  34.542  30.161  1.00  0.00     0.198 A 
ATOM     81  C   UNL A   1      47.399  35.484  28.171  1.00  0.00     0.198 A 
ATOM     82  F   UNL A   1      45.754  34.288  26.980  1.00  0.00    -0.203 F 
ATOM     83  F   UNL A   1      49.203  34.629  31.199  1.00  0.00    -0.200 F 
ATOM     84  C   UNL A   1      48.280  35.575  29.239  1.00  0.00     0.200 A 
ATOM     85  F   UNL A   1      47.341  36.470  27.264  1.00  0.00    -0.200 F 
ATOM     86  F   UNL A   1      49.058  36.657  29.377  1.00  0.00    -0.200 F 
ENDBRANCH  52  76
BRANCH  64  87
ATOM     87  C   UNL A   1      47.562  27.585  25.036  1.00  0.00     0.064 A 
ATOM     88  C   UNL A   1      47.514  27.829  23.657  1.00  0.00     0.173 A 
ATOM     89  C   UNL A   1      48.733  27.023  25.568  1.00  0.00     0.173 A 
ATOM     90  F   UNL A   1      46.419  28.374  23.104  1.00  0.00    -0.203 F 
ATOM     91  C   UNL A   1      48.593  27.508  22.840  1.00  0.00     0.198 A 
ATOM     92  C   UNL A   1      49.823  26.741  24.755  1.00  0.00     0.198 A 
ATOM     93  F   UNL A   1      48.836  26.795  26.887  1.00  0.00    -0.203 F 
ATOM     94  F   UNL A   1      48.516  27.722  21.519  1.00  0.00    -0.200 F 
ATOM     95  C   UNL A   1      49.750  26.978  23.391  1.00  0.00     0.200 A 
ATOM     96  F   UNL A   1      50.952  26.259  25.294  1.00  0.00    -0.200 F 
ATOM     97  F   UNL A   1      50.801  26.701  22.606  1.00  0.00    -0.200 F 
ENDBRANCH  64  87
ENDBRANCH  38  39
ENDBRANCH  31  33
ENDBRANCH  30  31
ENDBRANCH  29  30
ENDBRANCH   1  29
TORSDOF 15
ENDMDL
MODEL 3
REMARK VINA RESULT:     -12.8      2.516      3.755
REMARK SMILES C[C@H]1Oc2ccccc2C=C1/C=C/C(=O)N[C@H](C(=O)OCCOC(=O)c1ccc(-c2c3nc(c(-c4c(F)c(F)c(F)c(F)c4F)c4ccc([nH]4)c(-c4c(F)c(F)c(F)c(F)c4F)c4nc(c(-c5c(F)c(F)c(F)c(F)c5F)c5ccc2[nH]5)C=C4)C=C3)cc1)c1ccccc1
REMARK SMILES IDX 21 1 20 2 18 3 19 4 17 5 16 6 14 7 15 8 13 10 12 11 11 12
REMARK SMILES IDX 1 13 2 14 3 15 4 16 10 17 5 18 9 19 6 20 8 21 7 22 89 23
REMARK SMILES IDX 90 24 94 25 91 26 93 27 92 28 22 29 23 30 24 31 25 32 26 33
REMARK SMILES IDX 27 34 88 35 28 36 87 37 29 38 30 39 31 40 81 41 32 42 86 43
REMARK SMILES IDX 80 44 82 45 33 46 85 47 79 48 78 49 34 51 66 52 46 53 65 54
REMARK SMILES IDX 47 55 50 56 64 57 83 58 48 59 49 60 63 62 84 63 51 64 35 65
REMARK SMILES IDX 36 66 44 67 37 68 38 69 42 70 45 71 39 72 40 73 43 74 41 75
REMARK SMILES IDX 67 76 68 77 76 78 69 79 70 80 74 81 77 82 71 83 72 84 75 85
REMARK SMILES IDX 73 86 52 87 53 88 61 89 54 90 55 91 59 92 62 93 56 94 57 95
REMARK SMILES IDX 60 96 58 97
REMARK H PARENT 16 9 82 50 50 61
REMARK Flexibility Score: inf
ROOT
ATOM      1  C   UNL A   1      35.248  20.189  25.004  1.00  0.00     0.274 C 
ENDROOT
BRANCH   1   2
ATOM      2  O   UNL A   1      34.248  20.652  25.951  1.00  0.00    -0.460 OA
BRANCH   2   3
ATOM      3  C   UNL A   1      32.961  20.505  25.546  1.00  0.00     0.333 C 
ATOM      4  O   UNL A   1      32.460  19.406  25.343  1.00  0.00    -0.249 OA
BRANCH   3   5
ATOM      5  C   UNL A   1      32.198  21.840  25.328  1.00  0.00     0.223 C 
BRANCH   5   6
ATOM      6  N   UNL A   1      31.186  22.182  26.367  1.00  0.00    -0.335 N 
ATOM      7  C   UNL A   1      30.366  23.203  26.732  1.00  0.00     0.244 C 
ATOM      8  O   UNL A   1      29.564  22.964  27.640  1.00  0.00    -0.270 OA
ATOM      9  H   UNL A   1      31.078  21.426  26.988  1.00  0.00     0.165 HD
BRANCH   7  10
ATOM     10  C   UNL A   1      30.344  24.590  26.180  1.00  0.00     0.071 C 
ATOM     11  C   UNL A   1      29.934  24.878  24.951  1.00  0.00     0.013 C 
BRANCH  11  12
ATOM     12  C   UNL A   1      29.786  26.084  24.156  1.00  0.00    -0.007 C 
ATOM     13  C   UNL A   1      31.299  25.290  22.420  1.00  0.00     0.058 C 
ATOM     14  C   UNL A   1      31.094  26.404  23.451  1.00  0.00     0.200 C 
ATOM     15  O   UNL A   1      31.252  27.700  22.888  1.00  0.00    -0.485 OA
ATOM     16  C   UNL A   1      30.141  28.476  22.780  1.00  0.00     0.127 A 
ATOM     17  C   UNL A   1      28.692  26.815  23.916  1.00  0.00     0.019 C 
ATOM     18  C   UNL A   1      30.361  29.747  22.247  1.00  0.00     0.047 A 
ATOM     19  C   UNL A   1      28.859  28.036  23.116  1.00  0.00     0.017 A 
ATOM     20  C   UNL A   1      29.281  30.565  21.953  1.00  0.00     0.004 A 
ATOM     21  C   UNL A   1      27.774  28.838  22.752  1.00  0.00     0.012 A 
ATOM     22  C   UNL A   1      27.987  30.093  22.168  1.00  0.00     0.001 A 
ENDBRANCH  11  12
ENDBRANCH   7  10
ENDBRANCH   5   6
BRANCH   5  23
ATOM     23  C   UNL A   1      33.129  22.991  24.898  1.00  0.00    -0.014 A 
ATOM     24  C   UNL A   1      33.525  23.077  23.544  1.00  0.00     0.006 A 
ATOM     25  C   UNL A   1      33.684  23.924  25.790  1.00  0.00     0.006 A 
ATOM     26  C   UNL A   1      34.496  23.993  23.123  1.00  0.00     0.000 A 
ATOM     27  C   UNL A   1      34.667  24.831  25.369  1.00  0.00     0.000 A 
ATOM     28  C   UNL A   1      35.086  24.854  24.041  1.00  0.00     0.000 A 
ENDBRANCH   5  23
ENDBRANCH   3   5
ENDBRANCH   2   3
ENDBRANCH   1   2
BRANCH   1  29
ATOM     29  C   UNL A   1      36.415  21.156  24.703  1.00  0.00     0.275 C 
BRANCH  29  30
ATOM     30  O   UNL A   1      37.080  21.631  25.904  1.00  0.00    -0.458 OA
BRANCH  30  31
ATOM     31  C   UNL A   1      38.391  21.296  26.047  1.00  0.00     0.338 C 
ATOM     32  O   UNL A   1      38.902  20.236  25.723  1.00  0.00    -0.246 OA
BRANCH  31  33
ATOM     33  C   UNL A   1      39.195  22.481  26.467  1.00  0.00     0.060 A 
ATOM     34  C   UNL A   1      40.362  22.426  27.233  1.00  0.00     0.016 A 
ATOM     35  C   UNL A   1      38.763  23.724  26.011  1.00  0.00     0.016 A 
ATOM     36  C   UNL A   1      41.017  23.626  27.625  1.00  0.00     0.010 A 
ATOM     37  C   UNL A   1      39.426  24.901  26.383  1.00  0.00     0.010 A 
ATOM     38  C   UNL A   1      40.514  24.893  27.264  1.00  0.00    -0.014 A 
BRANCH  38  39
ATOM     39  C   UNL A   1      41.214  26.185  27.558  1.00  0.00     0.031 A 
ATOM     40  C   UNL A   1      42.685  26.483  27.371  1.00  0.00     0.074 A 
ATOM     41  C   UNL A   1      40.571  27.087  28.317  1.00  0.00     0.049 A 
ATOM     42  N   UNL A   1      43.287  27.596  27.013  1.00  0.00    -0.248 NA
ATOM     43  C   UNL A   1      43.637  25.445  27.733  1.00  0.00     0.031 C 
ATOM     44  C   UNL A   1      39.230  26.931  28.870  1.00  0.00     0.029 A 
ATOM     45  N   UNL A   1      41.014  28.286  28.806  1.00  0.00    -0.354 N 
ATOM     46  C   UNL A   1      44.641  27.270  26.878  1.00  0.00     0.074 A 
ATOM     47  C   UNL A   1      44.806  25.922  27.330  1.00  0.00     0.031 C 
ATOM     48  C   UNL A   1      38.961  27.995  29.641  1.00  0.00     0.029 A 
ATOM     49  C   UNL A   1      40.089  28.922  29.583  1.00  0.00     0.049 A 
ATOM     50  H   UNL A   1      41.908  28.653  28.616  1.00  0.00     0.167 HD
ATOM     51  C   UNL A   1      45.685  28.054  26.536  1.00  0.00     0.037 A 
ATOM     52  C   UNL A   1      40.138  30.145  30.135  1.00  0.00     0.037 A 
ATOM     53  C   UNL A   1      45.689  29.461  26.781  1.00  0.00     0.049 A 
ATOM     54  C   UNL A   1      41.321  31.039  29.871  1.00  0.00     0.074 A 
ATOM     55  C   UNL A   1      46.707  30.372  26.580  1.00  0.00     0.029 A 
ATOM     56  N   UNL A   1      44.690  30.098  27.491  1.00  0.00    -0.354 N 
ATOM     57  N   UNL A   1      42.407  30.808  29.171  1.00  0.00    -0.248 NA
ATOM     58  C   UNL A   1      41.256  32.387  30.449  1.00  0.00     0.031 C 
ATOM     59  C   UNL A   1      46.372  31.531  27.287  1.00  0.00     0.029 A 
ATOM     60  C   UNL A   1      45.110  31.362  27.837  1.00  0.00     0.049 A 
ATOM     61  H   UNL A   1      43.814  29.708  27.714  1.00  0.00     0.167 HD
ATOM     62  C   UNL A   1      43.133  31.994  29.192  1.00  0.00     0.074 A 
ATOM     63  C   UNL A   1      42.360  32.941  29.965  1.00  0.00     0.031 C 
ATOM     64  C   UNL A   1      44.328  32.280  28.617  1.00  0.00     0.037 A 
BRANCH  51  65
ATOM     65  C   UNL A   1      46.928  27.457  25.950  1.00  0.00     0.064 A 
ATOM     66  C   UNL A   1      47.061  27.471  24.551  1.00  0.00     0.173 A 
ATOM     67  C   UNL A   1      48.036  27.058  26.705  1.00  0.00     0.173 A 
ATOM     68  F   UNL A   1      46.038  27.873  23.780  1.00  0.00    -0.203 F 
ATOM     69  C   UNL A   1      48.246  27.086  23.930  1.00  0.00     0.198 A 
ATOM     70  C   UNL A   1      49.225  26.675  26.080  1.00  0.00     0.198 A 
ATOM     71  F   UNL A   1      47.980  27.068  28.045  1.00  0.00    -0.203 F 
ATOM     72  F   UNL A   1      48.335  27.092  22.593  1.00  0.00    -0.200 F 
ATOM     73  C   UNL A   1      49.329  26.689  24.696  1.00  0.00     0.200 A 
ATOM     74  F   UNL A   1      50.283  26.310  26.819  1.00  0.00    -0.200 F 
ATOM     75  F   UNL A   1      50.470  26.317  24.099  1.00  0.00    -0.200 F 
ENDBRANCH  51  65
BRANCH  52  76
ATOM     76  C   UNL A   1      38.930  30.640  30.830  1.00  0.00     0.064 A 
ATOM     77  C   UNL A   1      37.879  31.187  30.081  1.00  0.00     0.173 A 
ATOM     78  C   UNL A   1      38.757  30.500  32.212  1.00  0.00     0.173 A 
ATOM     79  F   UNL A   1      38.007  31.328  28.753  1.00  0.00    -0.203 F 
ATOM     80  C   UNL A   1      36.702  31.595  30.695  1.00  0.00     0.198 A 
ATOM     81  C   UNL A   1      37.566  30.887  32.822  1.00  0.00     0.198 A 
ATOM     82  F   UNL A   1      39.724  29.950  32.961  1.00  0.00    -0.203 F 
ATOM     83  F   UNL A   1      35.721  32.137  29.959  1.00  0.00    -0.200 F 
ATOM     84  C   UNL A   1      36.543  31.440  32.064  1.00  0.00     0.200 A 
ATOM     85  F   UNL A   1      37.403  30.711  34.141  1.00  0.00    -0.200 F 
ATOM     86  F   UNL A   1      35.401  31.818  32.652  1.00  0.00    -0.200 F 
ENDBRANCH  52  76
BRANCH  64  87
ATOM     87  C   UNL A   1      44.898  33.653  28.792  1.00  0.00     0.064 A 
ATOM     88  C   UNL A   1      45.806  33.945  29.819  1.00  0.00     0.173 A 
ATOM     89  C   UNL A   1      44.639  34.647  27.835  1.00  0.00     0.173 A 
ATOM     90  F   UNL A   1      46.092  33.024  30.751  1.00  0.00    -0.203 F 
ATOM     91  C   UNL A   1      46.420  35.191  29.892  1.00  0.00     0.198 A 
ATOM     92  C   UNL A   1      45.285  35.875  27.889  1.00  0.00     0.198 A 
ATOM     93  F   UNL A   1      43.797  34.405  26.819  1.00  0.00    -0.203 F 
ATOM     94  F   UNL A   1      47.263  35.460  30.898  1.00  0.00    -0.200 F 
ATOM     95  C   UNL A   1      46.170  36.149  28.920  1.00  0.00     0.200 A 
ATOM     96  F   UNL A   1      45.066  36.787  26.931  1.00  0.00    -0.200 F 
ATOM     97  F   UNL A   1      46.789  37.336  28.974  1.00  0.00    -0.200 F 
ENDBRANCH  64  87
ENDBRANCH  38  39
ENDBRANCH  31  33
ENDBRANCH  30  31
ENDBRANCH  29  30
ENDBRANCH   1  29
TORSDOF 15
ENDMDL
