MODEL 1
REMARK VINA RESULT:     -12.7      0.000      0.000
REMARK SMILES CCCN1CCC[C@@]2(CCN(c3ccc(C(=O)OCCOC(=O)c4ccc(-c5c6nc(c(-c7c(F)c(F)c(F)c(F)c7F)c7ccc([nH]7)c(-c7c(F)c(F)c(F)c(F)c7F)c7nc(c(-c8c(F)c(F)c(F)c(F)c8F)c8ccc5[nH]8)C=C7)C=C6)cc4)cn3)C2)C1=O
REMARK SMILES IDX 19 1 18 2 16 3 17 4 15 5 12 6 13 7 88 8 14 9 87 10 11 11
REMARK SMILES IDX 4 12 5 13 90 14 6 15 8 16 91 17 7 18 9 19 89 20 10 21 3 22
REMARK SMILES IDX 2 23 1 24 20 25 21 26 22 27 23 28 24 29 25 30 86 31 26 32
REMARK SMILES IDX 85 33 27 34 28 35 29 36 79 37 30 38 84 39 78 40 80 41 31 42
REMARK SMILES IDX 83 43 77 44 76 45 32 47 64 48 44 49 63 50 45 51 48 52 62 53
REMARK SMILES IDX 81 54 46 55 47 56 61 58 82 59 49 60 33 61 34 62 42 63 35 64
REMARK SMILES IDX 36 65 40 66 43 67 37 68 38 69 41 70 39 71 65 72 66 73 74 74
REMARK SMILES IDX 67 75 68 76 72 77 75 78 69 79 70 80 73 81 71 82 50 83 51 84
REMARK SMILES IDX 59 85 52 86 53 87 57 88 60 89 54 90 55 91 58 92 56 93
REMARK H PARENT 80 46 48 57
REMARK Flexibility Score: inf
ROOT
ATOM      1  C   UNL A   1      42.829  20.855  26.140  1.00  0.00     0.275 C 
ENDROOT
BRANCH   1   2
ATOM      2  O   UNL A   1      41.463  21.013  25.704  1.00  0.00    -0.458 OA
BRANCH   2   3
ATOM      3  C   UNL A   1      40.542  21.199  26.681  1.00  0.00     0.339 C 
ATOM      4  O   UNL A   1      40.704  21.032  27.877  1.00  0.00    -0.246 OA
BRANCH   3   5
ATOM      5  C   UNL A   1      39.290  21.729  26.113  1.00  0.00     0.078 A 
ATOM      6  C   UNL A   1      36.905  22.848  25.285  1.00  0.00     0.128 A 
ATOM      7  C   UNL A   1      37.205  21.520  24.963  1.00  0.00     0.048 A 
ATOM      8  N   UNL A   1      37.766  23.610  25.978  1.00  0.00    -0.238 NA
ATOM      9  C   UNL A   1      38.418  20.956  25.362  1.00  0.00     0.021 A 
ATOM     10  C   UNL A   1      38.908  23.029  26.405  1.00  0.00     0.129 A 
BRANCH   6  11
ATOM     11  N   UNL A   1      35.610  23.310  25.100  1.00  0.00    -0.356 N 
ATOM     12  N   UNL A   1      32.514  20.485  23.848  1.00  0.00    -0.342 N 
ATOM     13  C   UNL A   1      31.918  20.974  22.614  1.00  0.00     0.119 C 
ATOM     14  C   UNL A   1      32.756  21.373  24.896  1.00  0.00     0.230 C 
ATOM     15  C   UNL A   1      32.623  22.213  22.094  1.00  0.00     0.023 C 
ATOM     16  C   UNL A   1      33.378  22.706  24.462  1.00  0.00     0.069 C 
ATOM     17  O   UNL A   1      32.653  21.050  26.077  1.00  0.00    -0.274 OA
ATOM     18  C   UNL A   1      32.708  23.264  23.199  1.00  0.00     0.021 C 
ATOM     19  C   UNL A   1      33.391  23.740  25.609  1.00  0.00     0.040 C 
ATOM     20  C   UNL A   1      34.873  22.408  24.213  1.00  0.00     0.135 C 
ATOM     21  C   UNL A   1      34.766  23.563  26.262  1.00  0.00     0.119 C 
BRANCH  12  22
ATOM     22  C   UNL A   1      32.534  19.048  24.101  1.00  0.00     0.119 C 
BRANCH  22  23
ATOM     23  C   UNL A   1      32.872  18.230  22.846  1.00  0.00     0.018 C 
ATOM     24  C   UNL A   1      33.730  17.001  23.127  1.00  0.00     0.006 C 
ENDBRANCH  22  23
ENDBRANCH  12  22
ENDBRANCH   6  11
ENDBRANCH   3   5
ENDBRANCH   2   3
ENDBRANCH   1   2
BRANCH   1  25
ATOM     25  C   UNL A   1      43.789  21.676  25.277  1.00  0.00     0.275 C 
BRANCH  25  26
ATOM     26  O   UNL A   1      43.134  22.850  24.760  1.00  0.00    -0.458 OA
BRANCH  26  27
ATOM     27  C   UNL A   1      43.810  24.006  24.938  1.00  0.00     0.338 C 
ATOM     28  O   UNL A   1      44.806  24.385  24.344  1.00  0.00    -0.246 OA
BRANCH  27  29
ATOM     29  C   UNL A   1      43.102  24.869  25.892  1.00  0.00     0.060 A 
ATOM     30  C   UNL A   1      43.502  26.194  25.959  1.00  0.00     0.016 A 
ATOM     31  C   UNL A   1      42.231  24.358  26.848  1.00  0.00     0.016 A 
ATOM     32  C   UNL A   1      43.172  26.978  27.056  1.00  0.00     0.010 A 
ATOM     33  C   UNL A   1      41.772  25.197  27.875  1.00  0.00     0.010 A 
ATOM     34  C   UNL A   1      42.273  26.505  28.019  1.00  0.00    -0.014 A 
BRANCH  34  35
ATOM     35  C   UNL A   1      41.883  27.393  29.153  1.00  0.00     0.031 A 
ATOM     36  C   UNL A   1      42.675  27.410  30.434  1.00  0.00     0.074 A 
ATOM     37  C   UNL A   1      40.823  28.218  29.025  1.00  0.00     0.049 A 
ATOM     38  N   UNL A   1      42.417  28.024  31.563  1.00  0.00    -0.248 NA
ATOM     39  C   UNL A   1      43.911  26.614  30.458  1.00  0.00     0.031 C 
ATOM     40  C   UNL A   1      39.977  28.327  27.834  1.00  0.00     0.029 A 
ATOM     41  N   UNL A   1      40.280  29.131  29.896  1.00  0.00    -0.354 N 
ATOM     42  C   UNL A   1      43.422  27.644  32.445  1.00  0.00     0.074 A 
ATOM     43  C   UNL A   1      44.284  26.730  31.725  1.00  0.00     0.031 C 
ATOM     44  C   UNL A   1      39.061  29.283  28.028  1.00  0.00     0.029 A 
ATOM     45  C   UNL A   1      39.178  29.778  29.392  1.00  0.00     0.049 A 
ATOM     46  H   UNL A   1      40.644  29.304  30.794  1.00  0.00     0.167 HD
ATOM     47  C   UNL A   1      43.604  28.020  33.735  1.00  0.00     0.037 A 
ATOM     48  C   UNL A   1      38.317  30.637  29.970  1.00  0.00     0.037 A 
ATOM     49  C   UNL A   1      42.767  28.969  34.430  1.00  0.00     0.049 A 
ATOM     50  C   UNL A   1      38.526  31.026  31.403  1.00  0.00     0.074 A 
ATOM     51  C   UNL A   1      42.898  29.454  35.720  1.00  0.00     0.029 A 
ATOM     52  N   UNL A   1      41.642  29.579  33.890  1.00  0.00    -0.354 N 
ATOM     53  N   UNL A   1      39.466  30.644  32.233  1.00  0.00    -0.248 NA
ATOM     54  C   UNL A   1      37.549  31.955  31.982  1.00  0.00     0.031 C 
ATOM     55  C   UNL A   1      41.816  30.303  35.983  1.00  0.00     0.029 A 
ATOM     56  C   UNL A   1      41.047  30.404  34.834  1.00  0.00     0.049 A 
ATOM     57  H   UNL A   1      41.314  29.445  32.971  1.00  0.00     0.167 HD
ATOM     58  C   UNL A   1      39.198  31.286  33.432  1.00  0.00     0.074 A 
ATOM     59  C   UNL A   1      38.024  32.107  33.210  1.00  0.00     0.031 C 
ATOM     60  C   UNL A   1      39.862  31.197  34.612  1.00  0.00     0.037 A 
BRANCH  47  61
ATOM     61  C   UNL A   1      44.721  27.359  34.500  1.00  0.00     0.064 A 
ATOM     62  C   UNL A   1      46.018  27.892  34.555  1.00  0.00     0.173 A 
ATOM     63  C   UNL A   1      44.482  26.159  35.190  1.00  0.00     0.173 A 
ATOM     64  F   UNL A   1      46.308  29.032  33.910  1.00  0.00    -0.203 F 
ATOM     65  C   UNL A   1      47.042  27.225  35.225  1.00  0.00     0.198 A 
ATOM     66  C   UNL A   1      45.498  25.515  35.892  1.00  0.00     0.198 A 
ATOM     67  F   UNL A   1      43.259  25.607  35.185  1.00  0.00    -0.203 F 
ATOM     68  F   UNL A   1      48.289  27.716  35.201  1.00  0.00    -0.200 F 
ATOM     69  C   UNL A   1      46.780  26.040  35.896  1.00  0.00     0.200 A 
ATOM     70  F   UNL A   1      45.237  24.380  36.555  1.00  0.00    -0.200 F 
ATOM     71  F   UNL A   1      47.767  25.398  36.537  1.00  0.00    -0.200 F 
ENDBRANCH  47  61
BRANCH  48  72
ATOM     72  C   UNL A   1      37.155  31.134  29.187  1.00  0.00     0.064 A 
ATOM     73  C   UNL A   1      36.045  30.318  28.933  1.00  0.00     0.173 A 
ATOM     74  C   UNL A   1      37.111  32.461  28.726  1.00  0.00     0.173 A 
ATOM     75  F   UNL A   1      36.050  29.038  29.328  1.00  0.00    -0.203 F 
ATOM     76  C   UNL A   1      34.933  30.812  28.252  1.00  0.00     0.198 A 
ATOM     77  C   UNL A   1      35.985  32.962  28.079  1.00  0.00     0.198 A 
ATOM     78  F   UNL A   1      38.147  33.284  28.946  1.00  0.00    -0.203 F 
ATOM     79  F   UNL A   1      33.894  30.004  27.997  1.00  0.00    -0.200 F 
ATOM     80  C   UNL A   1      34.898  32.136  27.839  1.00  0.00     0.200 A 
ATOM     81  F   UNL A   1      35.948  34.247  27.703  1.00  0.00    -0.200 F 
ATOM     82  F   UNL A   1      33.817  32.616  27.210  1.00  0.00    -0.200 F 
ENDBRANCH  48  72
BRANCH  60  83
ATOM     83  C   UNL A   1      39.331  32.020  35.751  1.00  0.00     0.064 A 
ATOM     84  C   UNL A   1      38.428  31.489  36.686  1.00  0.00     0.173 A 
ATOM     85  C   UNL A   1      39.729  33.356  35.911  1.00  0.00     0.173 A 
ATOM     86  F   UNL A   1      38.001  30.222  36.568  1.00  0.00    -0.203 F 
ATOM     87  C   UNL A   1      37.915  32.275  37.714  1.00  0.00     0.198 A 
ATOM     88  C   UNL A   1      39.241  34.128  36.962  1.00  0.00     0.198 A 
ATOM     89  F   UNL A   1      40.593  33.913  35.051  1.00  0.00    -0.203 F 
ATOM     90  F   UNL A   1      37.003  31.765  38.553  1.00  0.00    -0.200 F 
ATOM     91  C   UNL A   1      38.325  33.593  37.854  1.00  0.00     0.200 A 
ATOM     92  F   UNL A   1      39.650  35.396  37.105  1.00  0.00    -0.200 F 
ATOM     93  F   UNL A   1      37.829  34.348  38.843  1.00  0.00    -0.200 F 
ENDBRANCH  60  83
ENDBRANCH  34  35
ENDBRANCH  27  29
ENDBRANCH  26  27
ENDBRANCH  25  26
ENDBRANCH   1  25
TORSDOF 14
ENDMDL
MODEL 2
REMARK VINA RESULT:     -12.5      4.733      9.623
REMARK SMILES CCCN1CCC[C@@]2(CCN(c3ccc(C(=O)OCCOC(=O)c4ccc(-c5c6nc(c(-c7c(F)c(F)c(F)c(F)c7F)c7ccc([nH]7)c(-c7c(F)c(F)c(F)c(F)c7F)c7nc(c(-c8c(F)c(F)c(F)c(F)c8F)c8ccc5[nH]8)C=C7)C=C6)cc4)cn3)C2)C1=O
REMARK SMILES IDX 19 1 18 2 16 3 17 4 15 5 12 6 13 7 88 8 14 9 87 10 11 11
REMARK SMILES IDX 4 12 5 13 90 14 6 15 8 16 91 17 7 18 9 19 89 20 10 21 3 22
REMARK SMILES IDX 2 23 1 24 20 25 21 26 22 27 23 28 24 29 25 30 86 31 26 32
REMARK SMILES IDX 85 33 27 34 28 35 29 36 79 37 30 38 84 39 78 40 80 41 31 42
REMARK SMILES IDX 83 43 77 44 76 45 32 47 64 48 44 49 63 50 45 51 48 52 62 53
REMARK SMILES IDX 81 54 46 55 47 56 61 58 82 59 49 60 33 61 34 62 42 63 35 64
REMARK SMILES IDX 36 65 40 66 43 67 37 68 38 69 41 70 39 71 65 72 66 73 74 74
REMARK SMILES IDX 67 75 68 76 72 77 75 78 69 79 70 80 73 81 71 82 50 83 51 84
REMARK SMILES IDX 59 85 52 86 53 87 57 88 60 89 54 90 55 91 58 92 56 93
REMARK H PARENT 80 46 48 57
REMARK Flexibility Score: inf
ROOT
ATOM      1  C   UNL A   1      33.994  34.833  28.584  1.00  0.00     0.275 C 
ENDROOT
BRANCH   1   2
ATOM      2  O   UNL A   1      33.425  33.582  28.143  1.00  0.00    -0.458 OA
BRANCH   2   3
ATOM      3  C   UNL A   1      33.967  32.459  28.674  1.00  0.00     0.339 C 
ATOM      4  O   UNL A   1      34.425  32.331  29.795  1.00  0.00    -0.246 OA
BRANCH   3   5
ATOM      5  C   UNL A   1      33.861  31.338  27.724  1.00  0.00     0.078 A 
ATOM      6  C   UNL A   1      33.401  29.223  26.009  1.00  0.00     0.128 A 
ATOM      7  C   UNL A   1      34.569  29.259  26.779  1.00  0.00     0.048 A 
ATOM      8  N   UNL A   1      32.495  30.213  26.066  1.00  0.00    -0.238 NA
ATOM      9  C   UNL A   1      34.816  30.336  27.632  1.00  0.00     0.021 A 
ATOM     10  C   UNL A   1      32.724  31.216  26.941  1.00  0.00     0.129 A 
BRANCH   6  11
ATOM     11  N   UNL A   1      33.056  28.044  25.362  1.00  0.00    -0.356 N 
ATOM     12  N   UNL A   1      29.213  27.817  23.287  1.00  0.00    -0.342 N 
ATOM     13  C   UNL A   1      28.462  26.697  23.832  1.00  0.00     0.119 C 
ATOM     14  C   UNL A   1      30.568  27.663  22.996  1.00  0.00     0.230 C 
ATOM     15  C   UNL A   1      29.176  26.051  25.005  1.00  0.00     0.023 C 
ATOM     16  C   UNL A   1      31.365  26.927  24.079  1.00  0.00     0.069 C 
ATOM     17  O   UNL A   1      31.112  28.223  22.046  1.00  0.00    -0.274 OA
ATOM     18  C   UNL A   1      30.610  25.702  24.612  1.00  0.00     0.021 C 
ATOM     19  C   UNL A   1      32.788  26.561  23.604  1.00  0.00     0.040 C 
ATOM     20  C   UNL A   1      31.604  27.964  25.199  1.00  0.00     0.135 C 
ATOM     21  C   UNL A   1      33.657  27.733  24.070  1.00  0.00     0.119 C 
BRANCH  12  22
ATOM     22  C   UNL A   1      28.483  28.957  22.739  1.00  0.00     0.119 C 
BRANCH  22  23
ATOM     23  C   UNL A   1      28.858  30.282  23.420  1.00  0.00     0.018 C 
ATOM     24  C   UNL A   1      27.700  31.267  23.525  1.00  0.00     0.006 C 
ENDBRANCH  22  23
ENDBRANCH  12  22
ENDBRANCH   6  11
ENDBRANCH   3   5
ENDBRANCH   2   3
ENDBRANCH   1   2
BRANCH   1  25
ATOM     25  C   UNL A   1      32.943  35.716  29.261  1.00  0.00     0.275 C 
BRANCH  25  26
ATOM     26  O   UNL A   1      32.482  35.112  30.485  1.00  0.00    -0.458 OA
BRANCH  26  27
ATOM     27  C   UNL A   1      32.822  35.775  31.612  1.00  0.00     0.338 C 
ATOM     28  O   UNL A   1      32.285  36.763  32.086  1.00  0.00    -0.246 OA
BRANCH  27  29
ATOM     29  C   UNL A   1      33.894  35.061  32.318  1.00  0.00     0.060 A 
ATOM     30  C   UNL A   1      35.168  35.601  32.238  1.00  0.00     0.016 A 
ATOM     31  C   UNL A   1      33.711  33.791  32.854  1.00  0.00     0.016 A 
ATOM     32  C   UNL A   1      36.283  34.830  32.539  1.00  0.00     0.010 A 
ATOM     33  C   UNL A   1      34.827  33.069  33.304  1.00  0.00     0.010 A 
ATOM     34  C   UNL A   1      36.133  33.561  33.109  1.00  0.00    -0.014 A 
BRANCH  34  35
ATOM     35  C   UNL A   1      37.348  32.780  33.484  1.00  0.00     0.031 A 
ATOM     36  C   UNL A   1      38.042  33.010  34.801  1.00  0.00     0.074 A 
ATOM     37  C   UNL A   1      37.820  31.833  32.648  1.00  0.00     0.049 A 
ATOM     38  N   UNL A   1      39.173  32.513  35.242  1.00  0.00    -0.248 NA
ATOM     39  C   UNL A   1      37.392  33.936  35.739  1.00  0.00     0.031 C 
ATOM     40  C   UNL A   1      37.237  31.484  31.351  1.00  0.00     0.029 A 
ATOM     41  N   UNL A   1      38.890  30.977  32.765  1.00  0.00    -0.354 N 
ATOM     42  C   UNL A   1      39.397  33.109  36.477  1.00  0.00     0.074 A 
ATOM     43  C   UNL A   1      38.294  34.019  36.708  1.00  0.00     0.031 C 
ATOM     44  C   UNL A   1      37.918  30.463  30.819  1.00  0.00     0.029 A 
ATOM     45  C   UNL A   1      39.052  30.154  31.678  1.00  0.00     0.049 A 
ATOM     46  H   UNL A   1      39.482  30.958  33.551  1.00  0.00     0.167 HD
ATOM     47  C   UNL A   1      40.428  32.917  37.337  1.00  0.00     0.037 A 
ATOM     48  C   UNL A   1      40.029  29.281  31.370  1.00  0.00     0.037 A 
ATOM     49  C   UNL A   1      41.498  31.972  37.121  1.00  0.00     0.049 A 
ATOM     50  C   UNL A   1      41.171  29.097  32.325  1.00  0.00     0.074 A 
ATOM     51  C   UNL A   1      42.562  31.666  37.954  1.00  0.00     0.029 A 
ATOM     52  N   UNL A   1      41.640  31.179  35.990  1.00  0.00    -0.354 N 
ATOM     53  N   UNL A   1      41.384  29.680  33.479  1.00  0.00    -0.248 NA
ATOM     54  C   UNL A   1      42.213  28.142  31.929  1.00  0.00     0.031 C 
ATOM     55  C   UNL A   1      43.382  30.740  37.298  1.00  0.00     0.029 A 
ATOM     56  C   UNL A   1      42.794  30.413  36.086  1.00  0.00     0.049 A 
ATOM     57  H   UNL A   1      41.013  31.161  35.231  1.00  0.00     0.167 HD
ATOM     58  C   UNL A   1      42.581  29.165  33.951  1.00  0.00     0.074 A 
ATOM     59  C   UNL A   1      43.031  28.196  32.971  1.00  0.00     0.031 C 
ATOM     60  C   UNL A   1      43.249  29.472  35.092  1.00  0.00     0.037 A 
BRANCH  47  61
ATOM     61  C   UNL A   1      40.481  33.788  38.565  1.00  0.00     0.064 A 
ATOM     62  C   UNL A   1      39.818  33.455  39.756  1.00  0.00     0.173 A 
ATOM     63  C   UNL A   1      41.212  34.988  38.541  1.00  0.00     0.173 A 
ATOM     64  F   UNL A   1      39.099  32.325  39.837  1.00  0.00    -0.203 F 
ATOM     65  C   UNL A   1      39.842  34.311  40.856  1.00  0.00     0.198 A 
ATOM     66  C   UNL A   1      41.265  35.822  39.654  1.00  0.00     0.198 A 
ATOM     67  F   UNL A   1      41.876  35.354  37.435  1.00  0.00    -0.203 F 
ATOM     68  F   UNL A   1      39.141  34.007  41.956  1.00  0.00    -0.200 F 
ATOM     69  C   UNL A   1      40.568  35.491  40.805  1.00  0.00     0.200 A 
ATOM     70  F   UNL A   1      41.983  36.953  39.609  1.00  0.00    -0.200 F 
ATOM     71  F   UNL A   1      40.586  36.316  41.862  1.00  0.00    -0.200 F 
ENDBRANCH  47  61
BRANCH  48  72
ATOM     72  C   UNL A   1      39.976  28.565  30.068  1.00  0.00     0.064 A 
ATOM     73  C   UNL A   1      40.561  29.104  28.915  1.00  0.00     0.173 A 
ATOM     74  C   UNL A   1      39.386  27.294  29.969  1.00  0.00     0.173 A 
ATOM     75  F   UNL A   1      41.113  30.324  28.952  1.00  0.00    -0.203 F 
ATOM     76  C   UNL A   1      40.562  28.397  27.714  1.00  0.00     0.198 A 
ATOM     77  C   UNL A   1      39.420  26.575  28.778  1.00  0.00     0.198 A 
ATOM     78  F   UNL A   1      38.815  26.732  31.044  1.00  0.00    -0.203 F 
ATOM     79  F   UNL A   1      41.103  28.945  26.617  1.00  0.00    -0.200 F 
ATOM     80  C   UNL A   1      40.005  27.128  27.650  1.00  0.00     0.200 A 
ATOM     81  F   UNL A   1      38.901  25.341  28.728  1.00  0.00    -0.200 F 
ATOM     82  F   UNL A   1      40.031  26.439  26.500  1.00  0.00    -0.200 F 
ENDBRANCH  48  72
BRANCH  60  83
ATOM     83  C   UNL A   1      44.537  28.740  35.338  1.00  0.00     0.064 A 
ATOM     84  C   UNL A   1      45.759  29.207  34.829  1.00  0.00     0.173 A 
ATOM     85  C   UNL A   1      44.552  27.558  36.094  1.00  0.00     0.173 A 
ATOM     86  F   UNL A   1      45.799  30.323  34.084  1.00  0.00    -0.203 F 
ATOM     87  C   UNL A   1      46.939  28.497  35.033  1.00  0.00     0.198 A 
ATOM     88  C   UNL A   1      45.740  26.870  36.328  1.00  0.00     0.198 A 
ATOM     89  F   UNL A   1      43.415  27.069  36.610  1.00  0.00    -0.203 F 
ATOM     90  F   UNL A   1      48.082  28.927  34.479  1.00  0.00    -0.200 F 
ATOM     91  C   UNL A   1      46.930  27.332  35.786  1.00  0.00     0.200 A 
ATOM     92  F   UNL A   1      45.732  25.753  37.068  1.00  0.00    -0.200 F 
ATOM     93  F   UNL A   1      48.067  26.650  35.981  1.00  0.00    -0.200 F 
ENDBRANCH  60  83
ENDBRANCH  34  35
ENDBRANCH  27  29
ENDBRANCH  26  27
ENDBRANCH  25  26
ENDBRANCH   1  25
TORSDOF 14
ENDMDL
MODEL 3
REMARK VINA RESULT:     -12.2      3.420      8.566
REMARK SMILES CCCN1CCC[C@@]2(CCN(c3ccc(C(=O)OCCOC(=O)c4ccc(-c5c6nc(c(-c7c(F)c(F)c(F)c(F)c7F)c7ccc([nH]7)c(-c7c(F)c(F)c(F)c(F)c7F)c7nc(c(-c8c(F)c(F)c(F)c(F)c8F)c8ccc5[nH]8)C=C7)C=C6)cc4)cn3)C2)C1=O
REMARK SMILES IDX 19 1 18 2 16 3 17 4 15 5 12 6 13 7 88 8 14 9 87 10 11 11
REMARK SMILES IDX 4 12 5 13 90 14 6 15 8 16 91 17 7 18 9 19 89 20 10 21 3 22
REMARK SMILES IDX 2 23 1 24 20 25 21 26 22 27 23 28 24 29 25 30 86 31 26 32
REMARK SMILES IDX 85 33 27 34 28 35 29 36 79 37 30 38 84 39 78 40 80 41 31 42
REMARK SMILES IDX 83 43 77 44 76 45 32 47 64 48 44 49 63 50 45 51 48 52 62 53
REMARK SMILES IDX 81 54 46 55 47 56 61 58 82 59 49 60 33 61 34 62 42 63 35 64
REMARK SMILES IDX 36 65 40 66 43 67 37 68 38 69 41 70 39 71 65 72 66 73 74 74
REMARK SMILES IDX 67 75 68 76 72 77 75 78 69 79 70 80 73 81 71 82 50 83 51 84
REMARK SMILES IDX 59 85 52 86 53 87 57 88 60 89 54 90 55 91 58 92 56 93
REMARK H PARENT 80 46 48 57
REMARK Flexibility Score: inf
ROOT
ATOM      1  C   UNL A   1      31.367  29.760  24.662  1.00  0.00     0.275 C 
ENDROOT
BRANCH   1   2
ATOM      2  O   UNL A   1      30.171  29.929  23.872  1.00  0.00    -0.458 OA
BRANCH   2   3
ATOM      3  C   UNL A   1      30.097  29.194  22.735  1.00  0.00     0.339 C 
ATOM      4  O   UNL A   1      29.988  29.617  21.599  1.00  0.00    -0.246 OA
BRANCH   3   5
ATOM      5  C   UNL A   1      30.254  27.760  23.040  1.00  0.00     0.078 A 
ATOM      6  C   UNL A   1      30.477  25.135  23.864  1.00  0.00     0.128 A 
ATOM      7  C   UNL A   1      31.424  25.677  22.989  1.00  0.00     0.048 A 
ATOM      8  N   UNL A   1      29.436  25.860  24.304  1.00  0.00    -0.238 NA
ATOM      9  C   UNL A   1      31.304  26.997  22.553  1.00  0.00     0.021 A 
ATOM     10  C   UNL A   1      29.370  27.152  23.918  1.00  0.00     0.129 A 
BRANCH   6  11
ATOM     11  N   UNL A   1      30.743  23.917  24.475  1.00  0.00    -0.356 N 
ATOM     12  N   UNL A   1      34.896  22.837  25.319  1.00  0.00    -0.342 N 
ATOM     13  C   UNL A   1      35.181  21.566  24.671  1.00  0.00     0.119 C 
ATOM     14  C   UNL A   1      33.698  23.004  26.013  1.00  0.00     0.230 C 
ATOM     15  C   UNL A   1      34.017  21.087  23.824  1.00  0.00     0.023 C 
ATOM     16  C   UNL A   1      32.466  22.457  25.284  1.00  0.00     0.069 C 
ATOM     17  O   UNL A   1      33.609  23.687  27.031  1.00  0.00    -0.274 OA
ATOM     18  C   UNL A   1      32.736  21.084  24.655  1.00  0.00     0.021 C 
ATOM     19  C   UNL A   1      31.216  22.435  26.191  1.00  0.00     0.040 C 
ATOM     20  C   UNL A   1      32.121  23.506  24.203  1.00  0.00     0.135 C 
ATOM     21  C   UNL A   1      30.520  23.771  25.909  1.00  0.00     0.119 C 
BRANCH  12  22
ATOM     22  C   UNL A   1      35.987  23.784  25.526  1.00  0.00     0.119 C 
BRANCH  22  23
ATOM     23  C   UNL A   1      37.301  23.096  25.922  1.00  0.00     0.018 C 
ATOM     24  C   UNL A   1      38.402  24.065  26.338  1.00  0.00     0.006 C 
ENDBRANCH  22  23
ENDBRANCH  12  22
ENDBRANCH   6  11
ENDBRANCH   3   5
ENDBRANCH   2   3
ENDBRANCH   1   2
BRANCH   1  25
ATOM     25  C   UNL A   1      31.417  30.760  25.819  1.00  0.00     0.275 C 
BRANCH  25  26
ATOM     26  O   UNL A   1      32.577  30.529  26.643  1.00  0.00    -0.458 OA
BRANCH  26  27
ATOM     27  C   UNL A   1      33.156  31.644  27.138  1.00  0.00     0.338 C 
ATOM     28  O   UNL A   1      32.645  32.740  27.301  1.00  0.00    -0.246 OA
BRANCH  27  29
ATOM     29  C   UNL A   1      34.515  31.345  27.607  1.00  0.00     0.060 A 
ATOM     30  C   UNL A   1      34.791  30.029  27.941  1.00  0.00     0.016 A 
ATOM     31  C   UNL A   1      35.426  32.347  27.925  1.00  0.00     0.016 A 
ATOM     32  C   UNL A   1      35.889  29.714  28.729  1.00  0.00     0.010 A 
ATOM     33  C   UNL A   1      36.616  32.007  28.587  1.00  0.00     0.010 A 
ATOM     34  C   UNL A   1      36.841  30.692  29.040  1.00  0.00    -0.014 A 
BRANCH  34  35
ATOM     35  C   UNL A   1      38.047  30.312  29.832  1.00  0.00     0.031 A 
ATOM     36  C   UNL A   1      39.107  29.414  29.251  1.00  0.00     0.074 A 
ATOM     37  C   UNL A   1      38.211  30.801  31.079  1.00  0.00     0.049 A 
ATOM     38  N   UNL A   1      40.157  28.884  29.831  1.00  0.00    -0.248 NA
ATOM     39  C   UNL A   1      38.957  29.043  27.837  1.00  0.00     0.031 C 
ATOM     40  C   UNL A   1      37.279  31.700  31.763  1.00  0.00     0.029 A 
ATOM     41  N   UNL A   1      39.223  30.624  31.992  1.00  0.00    -0.354 N 
ATOM     42  C   UNL A   1      40.757  28.076  28.873  1.00  0.00     0.074 A 
ATOM     43  C   UNL A   1      39.942  28.170  27.679  1.00  0.00     0.031 C 
ATOM     44  C   UNL A   1      37.781  32.036  32.957  1.00  0.00     0.029 A 
ATOM     45  C   UNL A   1      39.014  31.292  33.174  1.00  0.00     0.049 A 
ATOM     46  H   UNL A   1      40.018  30.072  31.816  1.00  0.00     0.167 HD
ATOM     47  C   UNL A   1      41.880  27.323  28.981  1.00  0.00     0.037 A 
ATOM     48  C   UNL A   1      39.702  31.274  34.331  1.00  0.00     0.037 A 
ATOM     49  C   UNL A   1      42.712  27.272  30.160  1.00  0.00     0.049 A 
ATOM     50  C   UNL A   1      40.931  30.421  34.437  1.00  0.00     0.074 A 
ATOM     51  C   UNL A   1      43.896  26.582  30.352  1.00  0.00     0.029 A 
ATOM     52  N   UNL A   1      42.447  27.942  31.347  1.00  0.00    -0.354 N 
ATOM     53  N   UNL A   1      41.476  29.645  33.533  1.00  0.00    -0.248 NA
ATOM     54  C   UNL A   1      41.632  30.432  35.726  1.00  0.00     0.031 C 
ATOM     55  C   UNL A   1      44.310  26.778  31.675  1.00  0.00     0.029 A 
ATOM     56  C   UNL A   1      43.423  27.649  32.289  1.00  0.00     0.049 A 
ATOM     57  H   UNL A   1      41.678  28.539  31.499  1.00  0.00     0.167 HD
ATOM     58  C   UNL A   1      42.585  29.076  34.139  1.00  0.00     0.074 A 
ATOM     59  C   UNL A   1      42.652  29.623  35.480  1.00  0.00     0.031 C 
ATOM     60  C   UNL A   1      43.466  28.177  33.631  1.00  0.00     0.037 A 
BRANCH  47  61
ATOM     61  C   UNL A   1      42.243  26.446  27.812  1.00  0.00     0.064 A 
ATOM     62  C   UNL A   1      41.726  25.151  27.648  1.00  0.00     0.173 A 
ATOM     63  C   UNL A   1      43.136  26.917  26.834  1.00  0.00     0.173 A 
ATOM     64  F   UNL A   1      40.874  24.645  28.552  1.00  0.00    -0.203 F 
ATOM     65  C   UNL A   1      42.127  24.346  26.584  1.00  0.00     0.198 A 
ATOM     66  C   UNL A   1      43.504  26.124  25.751  1.00  0.00     0.198 A 
ATOM     67  F   UNL A   1      43.654  28.150  26.929  1.00  0.00    -0.203 F 
ATOM     68  F   UNL A   1      41.676  23.087  26.491  1.00  0.00    -0.200 F 
ATOM     69  C   UNL A   1      43.012  24.834  25.635  1.00  0.00     0.200 A 
ATOM     70  F   UNL A   1      44.345  26.604  24.825  1.00  0.00    -0.200 F 
ATOM     71  F   UNL A   1      43.399  24.056  24.614  1.00  0.00    -0.200 F 
ENDBRANCH  47  61
BRANCH  48  72
ATOM     72  C   UNL A   1      39.194  32.059  35.487  1.00  0.00     0.064 A 
ATOM     73  C   UNL A   1      38.382  31.474  36.466  1.00  0.00     0.173 A 
ATOM     74  C   UNL A   1      39.565  33.404  35.663  1.00  0.00     0.173 A 
ATOM     75  F   UNL A   1      37.981  30.203  36.330  1.00  0.00    -0.203 F 
ATOM     76  C   UNL A   1      37.963  32.201  37.579  1.00  0.00     0.198 A 
ATOM     77  C   UNL A   1      39.175  34.116  36.793  1.00  0.00     0.198 A 
ATOM     78  F   UNL A   1      40.343  34.011  34.756  1.00  0.00    -0.203 F 
ATOM     79  F   UNL A   1      37.163  31.626  38.489  1.00  0.00    -0.200 F 
ATOM     80  C   UNL A   1      38.371  33.515  37.749  1.00  0.00     0.200 A 
ATOM     81  F   UNL A   1      39.591  35.379  36.963  1.00  0.00    -0.200 F 
ATOM     82  F   UNL A   1      37.989  34.203  38.834  1.00  0.00    -0.200 F 
ENDBRANCH  48  72
BRANCH  60  83
ATOM     83  C   UNL A   1      44.581  27.737  34.536  1.00  0.00     0.064 A 
ATOM     84  C   UNL A   1      45.792  28.443  34.609  1.00  0.00     0.173 A 
ATOM     85  C   UNL A   1      44.439  26.597  35.340  1.00  0.00     0.173 A 
ATOM     86  F   UNL A   1      45.988  29.531  33.847  1.00  0.00    -0.203 F 
ATOM     87  C   UNL A   1      46.832  28.002  35.423  1.00  0.00     0.198 A 
ATOM     88  C   UNL A   1      45.467  26.179  36.181  1.00  0.00     0.198 A 
ATOM     89  F   UNL A   1      43.302  25.887  35.314  1.00  0.00    -0.203 F 
ATOM     90  F   UNL A   1      48.003  28.655  35.425  1.00  0.00    -0.200 F 
ATOM     91  C   UNL A   1      46.667  26.873  36.212  1.00  0.00     0.200 A 
ATOM     92  F   UNL A   1      45.302  25.097  36.953  1.00  0.00    -0.200 F 
ATOM     93  F   UNL A   1      47.669  26.449  36.994  1.00  0.00    -0.200 F 
ENDBRANCH  60  83
ENDBRANCH  34  35
ENDBRANCH  27  29
ENDBRANCH  26  27
ENDBRANCH  25  26
ENDBRANCH   1  25
TORSDOF 14
ENDMDL
