MODEL 1
REMARK VINA RESULT:     -10.2      0.000      0.000
REMARK SMILES CC(=O)N1CCC[C@H]1COCC(=O)OCCOC(=O)c1ccc(-c2c3nc(c(-c4c(F)c(F)c(F)c(F)c4F)c4ccc([nH]4)c(-c4c(F)c(F)c(F)c(F)c4F)c4nc(c(-c5c(F)c(F)c(F)c(F)c5F)c5ccc2[nH]5)C=C4)C=C3)cc1
REMARK SMILES IDX 15 1 14 2 12 3 13 4 11 5 10 6 9 7 8 8 4 9 5 10 6 11 7 12
REMARK SMILES IDX 2 13 1 14 3 15 16 16 17 17 18 18 19 19 20 20 21 21 82 22
REMARK SMILES IDX 22 23 81 24 23 25 24 26 25 27 75 28 26 29 80 30 74 31 76 32
REMARK SMILES IDX 27 33 79 34 73 35 72 36 28 38 60 39 40 40 59 41 41 42 44 43
REMARK SMILES IDX 58 44 77 45 42 46 43 47 57 49 78 50 45 51 29 52 30 53 38 54
REMARK SMILES IDX 31 55 32 56 36 57 39 58 33 59 34 60 37 61 35 62 61 63 62 64
REMARK SMILES IDX 70 65 63 66 64 67 68 68 71 69 65 70 66 71 69 72 67 73 46 74
REMARK SMILES IDX 47 75 55 76 48 77 49 78 53 79 56 80 50 81 51 82 54 83 52 84
REMARK H PARENT 76 37 44 48
REMARK Flexibility Score: inf
ROOT
ATOM      1  C   UNL A   1      42.048  19.213  26.349  1.00  0.00     0.274 C 
ENDROOT
BRANCH   1   2
ATOM      2  O   UNL A   1      42.677  19.184  25.049  1.00  0.00    -0.460 OA
BRANCH   2   3
ATOM      3  C   UNL A   1      43.991  18.837  25.032  1.00  0.00     0.332 C 
ATOM      4  O   UNL A   1      44.529  18.085  25.839  1.00  0.00    -0.250 OA
BRANCH   3   5
ATOM      5  C   UNL A   1      44.777  19.559  23.923  1.00  0.00     0.282 C 
BRANCH   5   6
ATOM      6  O   UNL A   1      45.093  20.935  23.865  1.00  0.00    -0.368 OA
BRANCH   6   7
ATOM      7  C   UNL A   1      46.028  21.446  24.813  1.00  0.00     0.186 C 
BRANCH   7   8
ATOM      8  C   UNL A   1      45.534  22.572  25.752  1.00  0.00     0.111 C 
ATOM      9  N   UNL A   1      45.547  23.906  25.162  1.00  0.00    -0.338 N 
ATOM     10  C   UNL A   1      44.248  24.251  24.620  1.00  0.00     0.120 C 
ATOM     11  C   UNL A   1      43.257  23.401  25.395  1.00  0.00     0.024 C 
ATOM     12  C   UNL A   1      44.102  22.458  26.246  1.00  0.00     0.029 C 
BRANCH   9  13
ATOM     13  C   UNL A   1      46.649  24.725  25.259  1.00  0.00     0.219 C 
ATOM     14  C   UNL A   1      47.322  24.793  26.606  1.00  0.00     0.114 C 
ATOM     15  O   UNL A   1      47.114  25.323  24.289  1.00  0.00    -0.275 OA
ENDBRANCH   9  13
ENDBRANCH   7   8
ENDBRANCH   6   7
ENDBRANCH   5   6
ENDBRANCH   3   5
ENDBRANCH   2   3
ENDBRANCH   1   2
BRANCH   1  16
ATOM     16  C   UNL A   1      40.622  19.750  26.269  1.00  0.00     0.275 C 
BRANCH  16  17
ATOM     17  O   UNL A   1      40.646  21.162  25.988  1.00  0.00    -0.458 OA
BRANCH  17  18
ATOM     18  C   UNL A   1      39.504  21.833  26.255  1.00  0.00     0.338 C 
ATOM     19  O   UNL A   1      38.364  21.462  26.026  1.00  0.00    -0.246 OA
BRANCH  18  20
ATOM     20  C   UNL A   1      39.797  23.126  26.910  1.00  0.00     0.060 A 
ATOM     21  C   UNL A   1      39.250  24.316  26.434  1.00  0.00     0.016 A 
ATOM     22  C   UNL A   1      40.750  23.165  27.931  1.00  0.00     0.016 A 
ATOM     23  C   UNL A   1      39.753  25.541  26.882  1.00  0.00     0.010 A 
ATOM     24  C   UNL A   1      41.172  24.394  28.452  1.00  0.00     0.010 A 
ATOM     25  C   UNL A   1      40.723  25.602  27.897  1.00  0.00    -0.014 A 
BRANCH  25  26
ATOM     26  C   UNL A   1      41.301  26.908  28.343  1.00  0.00     0.031 A 
ATOM     27  C   UNL A   1      40.431  27.945  29.016  1.00  0.00     0.074 A 
ATOM     28  C   UNL A   1      42.610  27.181  28.169  1.00  0.00     0.049 A 
ATOM     29  N   UNL A   1      40.686  29.208  29.258  1.00  0.00    -0.248 NA
ATOM     30  C   UNL A   1      39.099  27.512  29.464  1.00  0.00     0.031 C 
ATOM     31  C   UNL A   1      43.598  26.274  27.587  1.00  0.00     0.029 A 
ATOM     32  N   UNL A   1      43.341  28.302  28.483  1.00  0.00    -0.354 N 
ATOM     33  C   UNL A   1      39.522  29.736  29.804  1.00  0.00     0.074 A 
ATOM     34  C   UNL A   1      38.567  28.652  29.887  1.00  0.00     0.031 C 
ATOM     35  C   UNL A   1      44.812  26.841  27.650  1.00  0.00     0.029 A 
ATOM     36  C   UNL A   1      44.675  28.194  28.176  1.00  0.00     0.049 A 
ATOM     37  H   UNL A   1      42.945  29.107  28.890  1.00  0.00     0.167 HD
ATOM     38  C   UNL A   1      39.271  31.010  30.190  1.00  0.00     0.037 A 
ATOM     39  C   UNL A   1      45.675  29.092  28.262  1.00  0.00     0.037 A 
ATOM     40  C   UNL A   1      40.245  32.073  30.194  1.00  0.00     0.049 A 
ATOM     41  C   UNL A   1      45.380  30.494  28.705  1.00  0.00     0.074 A 
ATOM     42  C   UNL A   1      40.079  33.396  30.567  1.00  0.00     0.029 A 
ATOM     43  N   UNL A   1      41.576  31.923  29.840  1.00  0.00    -0.354 N 
ATOM     44  N   UNL A   1      44.242  31.014  29.093  1.00  0.00    -0.248 NA
ATOM     45  C   UNL A   1      46.501  31.445  28.682  1.00  0.00     0.031 C 
ATOM     46  C   UNL A   1      41.309  34.051  30.429  1.00  0.00     0.029 A 
ATOM     47  C   UNL A   1      42.244  33.127  29.995  1.00  0.00     0.049 A 
ATOM     48  H   UNL A   1      41.987  31.085  29.527  1.00  0.00     0.167 HD
ATOM     49  C   UNL A   1      44.505  32.351  29.349  1.00  0.00     0.074 A 
ATOM     50  C   UNL A   1      45.916  32.559  29.102  1.00  0.00     0.031 C 
ATOM     51  C   UNL A   1      43.647  33.323  29.739  1.00  0.00     0.037 A 
BRANCH  38  52
ATOM     52  C   UNL A   1      37.876  31.355  30.618  1.00  0.00     0.064 A 
ATOM     53  C   UNL A   1      37.515  31.440  31.969  1.00  0.00     0.173 A 
ATOM     54  C   UNL A   1      36.912  31.692  29.656  1.00  0.00     0.173 A 
ATOM     55  F   UNL A   1      38.399  31.120  32.925  1.00  0.00    -0.203 F 
ATOM     56  C   UNL A   1      36.235  31.846  32.341  1.00  0.00     0.198 A 
ATOM     57  C   UNL A   1      35.640  32.116  30.030  1.00  0.00     0.198 A 
ATOM     58  F   UNL A   1      37.214  31.636  28.349  1.00  0.00    -0.203 F 
ATOM     59  F   UNL A   1      35.903  31.907  33.638  1.00  0.00    -0.200 F 
ATOM     60  C   UNL A   1      35.303  32.192  31.372  1.00  0.00     0.200 A 
ATOM     61  F   UNL A   1      34.747  32.464  29.094  1.00  0.00    -0.200 F 
ATOM     62  F   UNL A   1      34.079  32.602  31.734  1.00  0.00    -0.200 F 
ENDBRANCH  38  52
BRANCH  39  63
ATOM     63  C   UNL A   1      47.051  28.690  27.876  1.00  0.00     0.064 A 
ATOM     64  C   UNL A   1      47.981  28.304  28.850  1.00  0.00     0.173 A 
ATOM     65  C   UNL A   1      47.452  28.652  26.534  1.00  0.00     0.173 A 
ATOM     66  F   UNL A   1      47.649  28.352  30.149  1.00  0.00    -0.203 F 
ATOM     67  C   UNL A   1      49.261  27.886  28.494  1.00  0.00     0.198 A 
ATOM     68  C   UNL A   1      48.723  28.209  26.176  1.00  0.00     0.198 A 
ATOM     69  F   UNL A   1      46.596  29.015  25.566  1.00  0.00    -0.203 F 
ATOM     70  F   UNL A   1      50.140  27.542  29.444  1.00  0.00    -0.200 F 
ATOM     71  C   UNL A   1      49.627  27.829  27.157  1.00  0.00     0.200 A 
ATOM     72  F   UNL A   1      49.068  28.142  24.883  1.00  0.00    -0.200 F 
ATOM     73  F   UNL A   1      50.852  27.409  26.813  1.00  0.00    -0.200 F 
ENDBRANCH  39  63
BRANCH  51  74
ATOM     74  C   UNL A   1      44.212  34.696  29.927  1.00  0.00     0.064 A 
ATOM     75  C   UNL A   1      44.759  35.093  31.156  1.00  0.00     0.173 A 
ATOM     76  C   UNL A   1      44.229  35.613  28.867  1.00  0.00     0.173 A 
ATOM     77  F   UNL A   1      44.749  34.254  32.202  1.00  0.00    -0.203 F 
ATOM     78  C   UNL A   1      45.288  36.370  31.320  1.00  0.00     0.198 A 
ATOM     79  C   UNL A   1      44.773  36.883  29.031  1.00  0.00     0.198 A 
ATOM     80  F   UNL A   1      43.717  35.276  27.673  1.00  0.00    -0.203 F 
ATOM     81  F   UNL A   1      45.774  36.743  32.513  1.00  0.00    -0.200 F 
ATOM     82  C   UNL A   1      45.297  37.262  30.258  1.00  0.00     0.200 A 
ATOM     83  F   UNL A   1      44.786  37.743  28.003  1.00  0.00    -0.200 F 
ATOM     84  F   UNL A   1      45.804  38.492  30.420  1.00  0.00    -0.200 F 
ENDBRANCH  51  74
ENDBRANCH  25  26
ENDBRANCH  18  20
ENDBRANCH  17  18
ENDBRANCH  16  17
ENDBRANCH   1  16
TORSDOF 15
ENDMDL
MODEL 2
REMARK VINA RESULT:      -9.7      5.771     11.919
REMARK SMILES CC(=O)N1CCC[C@H]1COCC(=O)OCCOC(=O)c1ccc(-c2c3nc(c(-c4c(F)c(F)c(F)c(F)c4F)c4ccc([nH]4)c(-c4c(F)c(F)c(F)c(F)c4F)c4nc(c(-c5c(F)c(F)c(F)c(F)c5F)c5ccc2[nH]5)C=C4)C=C3)cc1
REMARK SMILES IDX 15 1 14 2 12 3 13 4 11 5 10 6 9 7 8 8 4 9 5 10 6 11 7 12
REMARK SMILES IDX 2 13 1 14 3 15 16 16 17 17 18 18 19 19 20 20 21 21 82 22
REMARK SMILES IDX 22 23 81 24 23 25 24 26 25 27 75 28 26 29 80 30 74 31 76 32
REMARK SMILES IDX 27 33 79 34 73 35 72 36 28 38 60 39 40 40 59 41 41 42 44 43
REMARK SMILES IDX 58 44 77 45 42 46 43 47 57 49 78 50 45 51 29 52 30 53 38 54
REMARK SMILES IDX 31 55 32 56 36 57 39 58 33 59 34 60 37 61 35 62 61 63 62 64
REMARK SMILES IDX 70 65 63 66 64 67 68 68 71 69 65 70 66 71 69 72 67 73 46 74
REMARK SMILES IDX 47 75 55 76 48 77 49 78 53 79 56 80 50 81 51 82 54 83 52 84
REMARK H PARENT 76 37 44 48
REMARK Flexibility Score: inf
ROOT
ATOM      1  C   UNL A   1      32.794  34.979  28.771  1.00  0.00     0.274 C 
ENDROOT
BRANCH   1   2
ATOM      2  O   UNL A   1      33.584  35.355  29.920  1.00  0.00    -0.460 OA
BRANCH   2   3
ATOM      3  C   UNL A   1      33.089  36.373  30.674  1.00  0.00     0.332 C 
ATOM      4  O   UNL A   1      32.894  37.514  30.270  1.00  0.00    -0.250 OA
BRANCH   3   5
ATOM      5  C   UNL A   1      32.867  35.964  32.141  1.00  0.00     0.282 C 
BRANCH   5   6
ATOM      6  O   UNL A   1      33.737  35.197  32.949  1.00  0.00    -0.368 OA
BRANCH   6   7
ATOM      7  C   UNL A   1      35.093  35.622  33.062  1.00  0.00     0.186 C 
BRANCH   7   8
ATOM      8  C   UNL A   1      36.187  34.585  32.715  1.00  0.00     0.111 C 
ATOM      9  N   UNL A   1      36.292  33.474  33.655  1.00  0.00    -0.338 N 
ATOM     10  C   UNL A   1      35.535  32.326  33.196  1.00  0.00     0.120 C 
ATOM     11  C   UNL A   1      35.447  32.486  31.689  1.00  0.00     0.024 C 
ATOM     12  C   UNL A   1      36.034  33.862  31.387  1.00  0.00     0.029 C 
BRANCH   9  13
ATOM     13  C   UNL A   1      37.125  33.534  34.749  1.00  0.00     0.219 C 
ATOM     14  C   UNL A   1      38.230  34.557  34.699  1.00  0.00     0.114 C 
ATOM     15  O   UNL A   1      36.948  32.843  35.752  1.00  0.00    -0.275 OA
ENDBRANCH   9  13
ENDBRANCH   7   8
ENDBRANCH   6   7
ENDBRANCH   5   6
ENDBRANCH   3   5
ENDBRANCH   2   3
ENDBRANCH   1   2
BRANCH   1  16
ATOM     16  C   UNL A   1      33.548  34.005  27.868  1.00  0.00     0.275 C 
BRANCH  16  17
ATOM     17  O   UNL A   1      33.791  32.773  28.573  1.00  0.00    -0.458 OA
BRANCH  17  18
ATOM     18  C   UNL A   1      34.069  31.700  27.800  1.00  0.00     0.338 C 
ATOM     19  O   UNL A   1      33.360  31.218  26.932  1.00  0.00    -0.246 OA
BRANCH  18  20
ATOM     20  C   UNL A   1      35.406  31.156  28.120  1.00  0.00     0.060 A 
ATOM     21  C   UNL A   1      35.569  29.832  28.521  1.00  0.00     0.016 A 
ATOM     22  C   UNL A   1      36.498  32.027  28.158  1.00  0.00     0.016 A 
ATOM     23  C   UNL A   1      36.781  29.420  29.083  1.00  0.00     0.010 A 
ATOM     24  C   UNL A   1      37.740  31.579  28.621  1.00  0.00     0.010 A 
ATOM     25  C   UNL A   1      37.887  30.284  29.145  1.00  0.00    -0.014 A 
BRANCH  25  26
ATOM     26  C   UNL A   1      39.168  29.864  29.792  1.00  0.00     0.031 A 
ATOM     27  C   UNL A   1      40.066  28.844  29.130  1.00  0.00     0.074 A 
ATOM     28  C   UNL A   1      39.556  30.395  30.969  1.00  0.00     0.049 A 
ATOM     29  N   UNL A   1      41.083  28.185  29.633  1.00  0.00    -0.248 NA
ATOM     30  C   UNL A   1      39.779  28.510  27.726  1.00  0.00     0.031 C 
ATOM     31  C   UNL A   1      38.837  31.427  31.715  1.00  0.00     0.029 A 
ATOM     32  N   UNL A   1      40.669  30.151  31.738  1.00  0.00    -0.354 N 
ATOM     33  C   UNL A   1      41.497  27.305  28.640  1.00  0.00     0.074 A 
ATOM     34  C   UNL A   1      40.644  27.531  27.493  1.00  0.00     0.031 C 
ATOM     35  C   UNL A   1      39.556  31.777  32.792  1.00  0.00     0.029 A 
ATOM     36  C   UNL A   1      40.733  30.920  32.873  1.00  0.00     0.049 A 
ATOM     37  H   UNL A   1      41.355  29.486  31.499  1.00  0.00     0.167 HD
ATOM     38  C   UNL A   1      42.492  26.386  28.687  1.00  0.00     0.037 A 
ATOM     39  C   UNL A   1      41.612  30.915  33.894  1.00  0.00     0.037 A 
ATOM     40  C   UNL A   1      43.402  26.217  29.791  1.00  0.00     0.049 A 
ATOM     41  C   UNL A   1      42.714  29.898  33.921  1.00  0.00     0.074 A 
ATOM     42  C   UNL A   1      44.439  25.310  29.926  1.00  0.00     0.029 A 
ATOM     43  N   UNL A   1      43.405  26.998  30.935  1.00  0.00    -0.354 N 
ATOM     44  N   UNL A   1      43.013  28.983  33.034  1.00  0.00    -0.248 NA
ATOM     45  C   UNL A   1      43.576  29.888  35.112  1.00  0.00     0.031 C 
ATOM     46  C   UNL A   1      45.064  25.535  31.158  1.00  0.00     0.029 A 
ATOM     47  C   UNL A   1      44.431  26.600  31.777  1.00  0.00     0.049 A 
ATOM     48  H   UNL A   1      42.773  27.730  31.123  1.00  0.00     0.167 HD
ATOM     49  C   UNL A   1      44.087  28.281  33.560  1.00  0.00     0.074 A 
ATOM     50  C   UNL A   1      44.409  28.894  34.832  1.00  0.00     0.031 C 
ATOM     51  C   UNL A   1      44.737  27.213  33.042  1.00  0.00     0.037 A 
BRANCH  38  52
ATOM     52  C   UNL A   1      42.645  25.454  27.522  1.00  0.00     0.064 A 
ATOM     53  C   UNL A   1      43.626  25.649  26.541  1.00  0.00     0.173 A 
ATOM     54  C   UNL A   1      41.851  24.300  27.440  1.00  0.00     0.173 A 
ATOM     55  F   UNL A   1      44.404  26.740  26.572  1.00  0.00    -0.203 F 
ATOM     56  C   UNL A   1      43.803  24.722  25.516  1.00  0.00     0.198 A 
ATOM     57  C   UNL A   1      42.043  23.366  26.426  1.00  0.00     0.198 A 
ATOM     58  F   UNL A   1      40.904  24.064  28.362  1.00  0.00    -0.203 F 
ATOM     59  F   UNL A   1      44.738  24.932  24.578  1.00  0.00    -0.200 F 
ATOM     60  C   UNL A   1      43.019  23.578  25.465  1.00  0.00     0.200 A 
ATOM     61  F   UNL A   1      41.295  22.255  26.387  1.00  0.00    -0.200 F 
ATOM     62  F   UNL A   1      43.206  22.678  24.489  1.00  0.00    -0.200 F 
ENDBRANCH  38  52
BRANCH  39  63
ATOM     63  C   UNL A   1      41.451  31.890  35.001  1.00  0.00     0.064 A 
ATOM     64  C   UNL A   1      40.473  31.698  35.986  1.00  0.00     0.173 A 
ATOM     65  C   UNL A   1      42.287  33.009  35.118  1.00  0.00     0.173 A 
ATOM     66  F   UNL A   1      39.632  30.656  35.900  1.00  0.00    -0.203 F 
ATOM     67  C   UNL A   1      40.342  32.586  37.051  1.00  0.00     0.198 A 
ATOM     68  C   UNL A   1      42.174  33.882  36.196  1.00  0.00     0.198 A 
ATOM     69  F   UNL A   1      43.237  33.236  34.198  1.00  0.00    -0.203 F 
ATOM     70  F   UNL A   1      39.385  32.393  37.968  1.00  0.00    -0.200 F 
ATOM     71  C   UNL A   1      41.200  33.671  37.161  1.00  0.00     0.200 A 
ATOM     72  F   UNL A   1      43.013  34.921  36.306  1.00  0.00    -0.200 F 
ATOM     73  F   UNL A   1      41.086  34.514  38.196  1.00  0.00    -0.200 F 
ENDBRANCH  39  63
BRANCH  51  74
ATOM     74  C   UNL A   1      45.863  26.643  33.847  1.00  0.00     0.064 A 
ATOM     75  C   UNL A   1      45.647  25.603  34.763  1.00  0.00     0.173 A 
ATOM     76  C   UNL A   1      47.170  27.122  33.686  1.00  0.00     0.173 A 
ATOM     77  F   UNL A   1      44.409  25.125  34.961  1.00  0.00    -0.203 F 
ATOM     78  C   UNL A   1      46.701  25.075  35.503  1.00  0.00     0.198 A 
ATOM     79  C   UNL A   1      48.224  26.581  34.416  1.00  0.00     0.198 A 
ATOM     80  F   UNL A   1      47.424  28.115  32.820  1.00  0.00    -0.203 F 
ATOM     81  F   UNL A   1      46.468  24.106  36.399  1.00  0.00    -0.200 F 
ATOM     82  C   UNL A   1      47.987  25.562  35.326  1.00  0.00     0.200 A 
ATOM     83  F   UNL A   1      49.468  27.049  34.243  1.00  0.00    -0.200 F 
ATOM     84  F   UNL A   1      49.000  25.054  36.043  1.00  0.00    -0.200 F 
ENDBRANCH  51  74
ENDBRANCH  25  26
ENDBRANCH  18  20
ENDBRANCH  17  18
ENDBRANCH  16  17
ENDBRANCH   1  16
TORSDOF 15
ENDMDL
MODEL 3
REMARK VINA RESULT:      -9.6      5.847     11.256
REMARK SMILES CC(=O)N1CCC[C@H]1COCC(=O)OCCOC(=O)c1ccc(-c2c3nc(c(-c4c(F)c(F)c(F)c(F)c4F)c4ccc([nH]4)c(-c4c(F)c(F)c(F)c(F)c4F)c4nc(c(-c5c(F)c(F)c(F)c(F)c5F)c5ccc2[nH]5)C=C4)C=C3)cc1
REMARK SMILES IDX 15 1 14 2 12 3 13 4 11 5 10 6 9 7 8 8 4 9 5 10 6 11 7 12
REMARK SMILES IDX 2 13 1 14 3 15 16 16 17 17 18 18 19 19 20 20 21 21 82 22
REMARK SMILES IDX 22 23 81 24 23 25 24 26 25 27 75 28 26 29 80 30 74 31 76 32
REMARK SMILES IDX 27 33 79 34 73 35 72 36 28 38 60 39 40 40 59 41 41 42 44 43
REMARK SMILES IDX 58 44 77 45 42 46 43 47 57 49 78 50 45 51 29 52 30 53 38 54
REMARK SMILES IDX 31 55 32 56 36 57 39 58 33 59 34 60 37 61 35 62 61 63 62 64
REMARK SMILES IDX 70 65 63 66 64 67 68 68 71 69 65 70 66 71 69 72 67 73 46 74
REMARK SMILES IDX 47 75 55 76 48 77 49 78 53 79 56 80 50 81 51 82 54 83 52 84
REMARK H PARENT 76 37 44 48
REMARK Flexibility Score: inf
ROOT
ATOM      1  C   UNL A   1      31.223  29.314  24.742  1.00  0.00     0.274 C 
ENDROOT
BRANCH   1   2
ATOM      2  O   UNL A   1      31.188  29.312  23.298  1.00  0.00    -0.460 OA
BRANCH   2   3
ATOM      3  C   UNL A   1      30.132  28.669  22.731  1.00  0.00     0.332 C 
ATOM      4  O   UNL A   1      29.615  28.975  21.662  1.00  0.00    -0.250 OA
BRANCH   3   5
ATOM      5  C   UNL A   1      29.582  27.541  23.623  1.00  0.00     0.282 C 
BRANCH   5   6
ATOM      6  O   UNL A   1      29.845  26.158  23.502  1.00  0.00    -0.368 OA
BRANCH   6   7
ATOM      7  C   UNL A   1      31.159  25.760  23.117  1.00  0.00     0.186 C 
BRANCH   7   8
ATOM      8  C   UNL A   1      31.995  24.990  24.167  1.00  0.00     0.111 C 
ATOM      9  N   UNL A   1      31.599  25.223  25.551  1.00  0.00    -0.338 N 
ATOM     10  C   UNL A   1      30.691  24.193  26.016  1.00  0.00     0.120 C 
ATOM     11  C   UNL A   1      30.984  22.985  25.145  1.00  0.00     0.024 C 
ATOM     12  C   UNL A   1      31.958  23.473  24.078  1.00  0.00     0.029 C 
BRANCH   9  13
ATOM     13  C   UNL A   1      32.155  26.237  26.298  1.00  0.00     0.219 C 
ATOM     14  C   UNL A   1      33.580  26.607  25.975  1.00  0.00     0.114 C 
ATOM     15  O   UNL A   1      31.515  26.864  27.141  1.00  0.00    -0.275 OA
ENDBRANCH   9  13
ENDBRANCH   7   8
ENDBRANCH   6   7
ENDBRANCH   5   6
ENDBRANCH   3   5
ENDBRANCH   2   3
ENDBRANCH   1   2
BRANCH   1  16
ATOM     16  C   UNL A   1      32.473  30.014  25.269  1.00  0.00     0.275 C 
BRANCH  16  17
ATOM     17  O   UNL A   1      32.317  30.304  26.671  1.00  0.00    -0.458 OA
BRANCH  17  18
ATOM     18  C   UNL A   1      32.958  31.407  27.117  1.00  0.00     0.338 C 
ATOM     19  O   UNL A   1      32.515  32.542  27.167  1.00  0.00    -0.246 OA
BRANCH  18  20
ATOM     20  C   UNL A   1      34.320  31.069  27.583  1.00  0.00     0.060 A 
ATOM     21  C   UNL A   1      34.686  29.751  27.847  1.00  0.00     0.016 A 
ATOM     22  C   UNL A   1      35.202  32.106  27.898  1.00  0.00     0.016 A 
ATOM     23  C   UNL A   1      35.868  29.485  28.546  1.00  0.00     0.010 A 
ATOM     24  C   UNL A   1      36.434  31.824  28.501  1.00  0.00     0.010 A 
ATOM     25  C   UNL A   1      36.762  30.514  28.885  1.00  0.00    -0.014 A 
BRANCH  25  26
ATOM     26  C   UNL A   1      38.000  30.240  29.677  1.00  0.00     0.031 A 
ATOM     27  C   UNL A   1      39.139  29.448  29.074  1.00  0.00     0.074 A 
ATOM     28  C   UNL A   1      38.135  30.704  30.936  1.00  0.00     0.049 A 
ATOM     29  N   UNL A   1      40.179  28.913  29.667  1.00  0.00    -0.248 NA
ATOM     30  C   UNL A   1      39.100  29.218  27.622  1.00  0.00     0.031 C 
ATOM     31  C   UNL A   1      37.158  31.526  31.649  1.00  0.00     0.029 A 
ATOM     32  N   UNL A   1      39.163  30.562  31.838  1.00  0.00    -0.354 N 
ATOM     33  C   UNL A   1      40.865  28.216  28.679  1.00  0.00     0.074 A 
ATOM     34  C   UNL A   1      40.142  28.418  27.441  1.00  0.00     0.031 C 
ATOM     35  C   UNL A   1      37.659  31.875  32.842  1.00  0.00     0.029 A 
ATOM     36  C   UNL A   1      38.945  31.213  33.027  1.00  0.00     0.049 A 
ATOM     37  H   UNL A   1      39.978  30.043  31.649  1.00  0.00     0.167 HD
ATOM     38  C   UNL A   1      41.988  27.466  28.797  1.00  0.00     0.037 A 
ATOM     39  C   UNL A   1      39.671  31.243  34.162  1.00  0.00     0.037 A 
ATOM     40  C   UNL A   1      42.761  27.333  30.006  1.00  0.00     0.049 A 
ATOM     41  C   UNL A   1      40.918  30.418  34.268  1.00  0.00     0.074 A 
ATOM     42  C   UNL A   1      43.913  26.594  30.219  1.00  0.00     0.029 A 
ATOM     43  N   UNL A   1      42.481  27.984  31.196  1.00  0.00    -0.354 N 
ATOM     44  N   UNL A   1      41.484  29.657  33.365  1.00  0.00    -0.248 NA
ATOM     45  C   UNL A   1      41.607  30.424  35.568  1.00  0.00     0.031 C 
ATOM     46  C   UNL A   1      44.324  26.789  31.542  1.00  0.00     0.029 A 
ATOM     47  C   UNL A   1      43.442  27.671  32.144  1.00  0.00     0.049 A 
ATOM     48  H   UNL A   1      41.713  28.583  31.347  1.00  0.00     0.167 HD
ATOM     49  C   UNL A   1      42.584  29.086  33.985  1.00  0.00     0.074 A 
ATOM     50  C   UNL A   1      42.627  29.609  35.335  1.00  0.00     0.031 C 
ATOM     51  C   UNL A   1      43.470  28.192  33.485  1.00  0.00     0.037 A 
BRANCH  38  52
ATOM     52  C   UNL A   1      42.450  26.694  27.598  1.00  0.00     0.064 A 
ATOM     53  C   UNL A   1      43.458  27.173  26.751  1.00  0.00     0.173 A 
ATOM     54  C   UNL A   1      41.932  25.414  27.348  1.00  0.00     0.173 A 
ATOM     55  F   UNL A   1      43.978  28.394  26.944  1.00  0.00    -0.203 F 
ATOM     56  C   UNL A   1      43.928  26.398  25.693  1.00  0.00     0.198 A 
ATOM     57  C   UNL A   1      42.418  24.635  26.302  1.00  0.00     0.198 A 
ATOM     58  F   UNL A   1      40.972  24.908  28.137  1.00  0.00    -0.203 F 
ATOM     59  F   UNL A   1      44.883  26.879  24.885  1.00  0.00    -0.200 F 
ATOM     60  C   UNL A   1      43.415  25.128  25.476  1.00  0.00     0.200 A 
ATOM     61  F   UNL A   1      41.931  23.402  26.103  1.00  0.00    -0.200 F 
ATOM     62  F   UNL A   1      43.884  24.377  24.469  1.00  0.00    -0.200 F 
ENDBRANCH  38  52
BRANCH  39  63
ATOM     63  C   UNL A   1      39.201  32.063  35.306  1.00  0.00     0.064 A 
ATOM     64  C   UNL A   1      38.442  31.486  36.333  1.00  0.00     0.173 A 
ATOM     65  C   UNL A   1      39.529  33.421  35.416  1.00  0.00     0.173 A 
ATOM     66  F   UNL A   1      38.082  30.197  36.256  1.00  0.00    -0.203 F 
ATOM     67  C   UNL A   1      38.032  32.238  37.431  1.00  0.00     0.198 A 
ATOM     68  C   UNL A   1      39.142  34.166  36.527  1.00  0.00     0.198 A 
ATOM     69  F   UNL A   1      40.253  34.017  34.457  1.00  0.00    -0.203 F 
ATOM     70  F   UNL A   1      37.288  31.671  38.390  1.00  0.00    -0.200 F 
ATOM     71  C   UNL A   1      38.392  33.575  37.533  1.00  0.00     0.200 A 
ATOM     72  F   UNL A   1      39.504  35.452  36.628  1.00  0.00    -0.200 F 
ATOM     73  F   UNL A   1      38.015  34.293  38.599  1.00  0.00    -0.200 F 
ENDBRANCH  39  63
BRANCH  51  74
ATOM     74  C   UNL A   1      44.563  27.731  34.398  1.00  0.00     0.064 A 
ATOM     75  C   UNL A   1      45.768  28.440  34.503  1.00  0.00     0.173 A 
ATOM     76  C   UNL A   1      44.396  26.587  35.190  1.00  0.00     0.173 A 
ATOM     77  F   UNL A   1      45.977  29.531  33.751  1.00  0.00    -0.203 F 
ATOM     78  C   UNL A   1      46.777  28.007  35.359  1.00  0.00     0.198 A 
ATOM     79  C   UNL A   1      45.400  26.166  36.057  1.00  0.00     0.198 A 
ATOM     80  F   UNL A   1      43.258  25.878  35.123  1.00  0.00    -0.203 F 
ATOM     81  F   UNL A   1      47.935  28.678  35.419  1.00  0.00    -0.200 F 
ATOM     82  C   UNL A   1      46.590  26.874  36.137  1.00  0.00     0.200 A 
ATOM     83  F   UNL A   1      45.219  25.073  36.810  1.00  0.00    -0.200 F 
ATOM     84  F   UNL A   1      47.565  26.456  36.958  1.00  0.00    -0.200 F 
ENDBRANCH  51  74
ENDBRANCH  25  26
ENDBRANCH  18  20
ENDBRANCH  17  18
ENDBRANCH  16  17
ENDBRANCH   1  16
TORSDOF 15
ENDMDL
