MODEL 1
REMARK VINA RESULT:     -12.8      0.000      0.000
REMARK SMILES O=C(OCCOC(=O)[C@@]1([NH2+]C2CC2)CCC[C@@H](n2cncn2)C1)c1ccc(-c2c3nc(c(-c4c(F)c(F)c(F)c(F)c4F)c4ccc([nH]4)c(-c4c(F)c(F)c(F)c(F)c4F)c4nc(c(-c5c(F)c(F)c(F)c(F)c5F)c5ccc2[nH]5)C=C4)C=C3)cc1
REMARK SMILES IDX 4 1 3 2 2 3 1 4 24 5 25 6 86 7 26 8 85 9 27 10 28 11 29 12
REMARK SMILES IDX 79 13 30 14 84 15 78 16 80 17 31 18 83 19 77 20 76 21 32 23
REMARK SMILES IDX 64 24 44 25 63 26 45 27 48 28 62 29 81 30 46 31 47 32 61 34
REMARK SMILES IDX 82 35 49 36 33 37 34 38 42 39 35 40 36 41 40 42 43 43 37 44
REMARK SMILES IDX 38 45 41 46 39 47 65 48 66 49 74 50 67 51 68 52 72 53 75 54
REMARK SMILES IDX 69 55 70 56 73 57 71 58 50 59 51 60 59 61 52 62 53 63 57 64
REMARK SMILES IDX 60 65 54 66 55 67 58 68 56 69 5 70 6 71 7 72 8 73 9 74 14 75
REMARK SMILES IDX 23 76 15 77 17 78 16 79 10 80 11 83 12 84 13 85 18 86 19 87
REMARK SMILES IDX 22 88 20 89 21 90
REMARK H PARENT 80 22 48 33 10 81 10 82
REMARK Flexibility Score: inf
ROOT
ATOM      1  C   UNL A   1      33.047  31.297  27.209  1.00  0.00     0.275 C 
ENDROOT
BRANCH   1   2
ATOM      2  O   UNL A   1      34.051  31.451  28.232  1.00  0.00    -0.458 OA
BRANCH   2   3
ATOM      3  C   UNL A   1      35.132  32.209  27.968  1.00  0.00     0.338 C 
ATOM      4  O   UNL A   1      35.132  33.371  27.593  1.00  0.00    -0.246 OA
BRANCH   3   5
ATOM      5  C   UNL A   1      36.355  31.414  28.202  1.00  0.00     0.060 A 
ATOM      6  C   UNL A   1      37.441  31.954  28.902  1.00  0.00     0.016 A 
ATOM      7  C   UNL A   1      36.376  30.082  27.788  1.00  0.00     0.016 A 
ATOM      8  C   UNL A   1      38.556  31.169  29.165  1.00  0.00     0.010 A 
ATOM      9  C   UNL A   1      37.496  29.299  28.054  1.00  0.00     0.010 A 
ATOM     10  C   UNL A   1      38.593  29.837  28.738  1.00  0.00    -0.014 A 
BRANCH  10  11
ATOM     11  C   UNL A   1      39.782  29.048  29.070  1.00  0.00     0.031 A 
ATOM     12  C   UNL A   1      40.118  28.866  30.518  1.00  0.00     0.074 A 
ATOM     13  C   UNL A   1      40.542  28.396  28.168  1.00  0.00     0.049 A 
ATOM     14  N   UNL A   1      41.143  29.319  31.170  1.00  0.00    -0.248 NA
ATOM     15  C   UNL A   1      39.189  28.098  31.353  1.00  0.00     0.031 C 
ATOM     16  C   UNL A   1      40.286  28.159  26.748  1.00  0.00     0.029 A 
ATOM     17  N   UNL A   1      41.712  27.727  28.391  1.00  0.00    -0.354 N 
ATOM     18  C   UNL A   1      41.074  28.771  32.454  1.00  0.00     0.074 A 
ATOM     19  C   UNL A   1      39.795  28.121  32.541  1.00  0.00     0.031 C 
ATOM     20  C   UNL A   1      41.158  27.235  26.286  1.00  0.00     0.029 A 
ATOM     21  C   UNL A   1      42.127  26.946  27.328  1.00  0.00     0.049 A 
ATOM     22  H   UNL A   1      42.216  27.796  29.234  1.00  0.00     0.167 HD
ATOM     23  C   UNL A   1      42.151  28.742  33.292  1.00  0.00     0.037 A 
ATOM     24  C   UNL A   1      43.184  26.102  27.306  1.00  0.00     0.037 A 
ATOM     25  C   UNL A   1      43.166  29.675  32.877  1.00  0.00     0.049 A 
ATOM     26  C   UNL A   1      44.124  26.514  28.373  1.00  0.00     0.074 A 
ATOM     27  C   UNL A   1      43.205  31.036  32.642  1.00  0.00     0.029 A 
ATOM     28  N   UNL A   1      44.328  29.189  32.333  1.00  0.00    -0.354 N 
ATOM     29  N   UNL A   1      44.847  27.598  28.337  1.00  0.00    -0.248 NA
ATOM     30  C   UNL A   1      44.005  25.887  29.681  1.00  0.00     0.031 C 
ATOM     31  C   UNL A   1      44.086  31.192  31.531  1.00  0.00     0.029 A 
ATOM     32  C   UNL A   1      44.550  29.920  31.196  1.00  0.00     0.049 A 
ATOM     33  H   UNL A   1      44.888  28.461  32.686  1.00  0.00     0.167 HD
ATOM     34  C   UNL A   1      44.910  28.022  29.654  1.00  0.00     0.074 A 
ATOM     35  C   UNL A   1      44.491  26.870  30.444  1.00  0.00     0.031 C 
ATOM     36  C   UNL A   1      45.028  29.346  29.963  1.00  0.00     0.037 A 
BRANCH  23  37
ATOM     37  C   UNL A   1      42.441  27.662  34.317  1.00  0.00     0.064 A 
ATOM     38  C   UNL A   1      43.047  26.458  33.893  1.00  0.00     0.173 A 
ATOM     39  C   UNL A   1      41.882  27.630  35.611  1.00  0.00     0.173 A 
ATOM     40  F   UNL A   1      43.611  26.364  32.680  1.00  0.00    -0.203 F 
ATOM     41  C   UNL A   1      43.002  25.290  34.662  1.00  0.00     0.198 A 
ATOM     42  C   UNL A   1      41.891  26.477  36.401  1.00  0.00     0.198 A 
ATOM     43  F   UNL A   1      41.213  28.668  36.123  1.00  0.00    -0.203 F 
ATOM     44  F   UNL A   1      43.465  24.141  34.153  1.00  0.00    -0.200 F 
ATOM     45  C   UNL A   1      42.416  25.299  35.912  1.00  0.00     0.200 A 
ATOM     46  F   UNL A   1      41.312  26.503  37.609  1.00  0.00    -0.200 F 
ATOM     47  F   UNL A   1      42.312  24.169  36.624  1.00  0.00    -0.200 F 
ENDBRANCH  23  37
BRANCH  24  48
ATOM     48  C   UNL A   1      43.354  24.856  26.534  1.00  0.00     0.064 A 
ATOM     49  C   UNL A   1      44.268  24.776  25.473  1.00  0.00     0.173 A 
ATOM     50  C   UNL A   1      42.811  23.641  26.995  1.00  0.00     0.173 A 
ATOM     51  F   UNL A   1      44.859  25.886  25.006  1.00  0.00    -0.203 F 
ATOM     52  C   UNL A   1      44.638  23.548  24.921  1.00  0.00     0.198 A 
ATOM     53  C   UNL A   1      43.175  22.416  26.437  1.00  0.00     0.198 A 
ATOM     54  F   UNL A   1      41.990  23.614  28.055  1.00  0.00    -0.203 F 
ATOM     55  F   UNL A   1      45.561  23.505  23.950  1.00  0.00    -0.200 F 
ATOM     56  C   UNL A   1      44.099  22.369  25.410  1.00  0.00     0.200 A 
ATOM     57  F   UNL A   1      42.673  21.280  26.940  1.00  0.00    -0.200 F 
ATOM     58  F   UNL A   1      44.500  21.188  24.920  1.00  0.00    -0.200 F 
ENDBRANCH  24  48
BRANCH  36  59
ATOM     59  C   UNL A   1      45.406  30.302  28.871  1.00  0.00     0.064 A 
ATOM     60  C   UNL A   1      44.493  30.845  27.952  1.00  0.00     0.173 A 
ATOM     61  C   UNL A   1      46.720  30.790  28.842  1.00  0.00     0.173 A 
ATOM     62  F   UNL A   1      43.195  30.517  27.989  1.00  0.00    -0.203 F 
ATOM     63  C   UNL A   1      44.895  31.790  27.010  1.00  0.00     0.198 A 
ATOM     64  C   UNL A   1      47.109  31.764  27.927  1.00  0.00     0.198 A 
ATOM     65  F   UNL A   1      47.620  30.355  29.738  1.00  0.00    -0.203 F 
ATOM     66  F   UNL A   1      44.010  32.279  26.129  1.00  0.00    -0.200 F 
ATOM     67  C   UNL A   1      46.201  32.252  27.003  1.00  0.00     0.200 A 
ATOM     68  F   UNL A   1      48.358  32.248  27.961  1.00  0.00    -0.200 F 
ATOM     69  F   UNL A   1      46.578  33.191  26.122  1.00  0.00    -0.200 F 
ENDBRANCH  36  59
ENDBRANCH  10  11
ENDBRANCH   3   5
ENDBRANCH   2   3
ENDBRANCH   1   2
BRANCH   1  70
ATOM     70  C   UNL A   1      32.874  29.914  26.581  1.00  0.00     0.274 C 
BRANCH  70  71
ATOM     71  O   UNL A   1      32.127  30.003  25.353  1.00  0.00    -0.457 OA
BRANCH  71  72
ATOM     72  C   UNL A   1      32.523  29.120  24.387  1.00  0.00     0.368 C 
ATOM     73  O   UNL A   1      33.671  28.698  24.282  1.00  0.00    -0.245 OA
BRANCH  72  74
ATOM     74  C   UNL A   1      31.383  28.727  23.402  1.00  0.00     0.196 C 
ATOM     75  C   UNL A   1      30.333  27.889  24.170  1.00  0.00     0.081 C 
ATOM     76  C   UNL A   1      30.675  30.033  22.931  1.00  0.00     0.108 C 
ATOM     77  C   UNL A   1      29.112  27.543  23.327  1.00  0.00     0.009 C 
ATOM     78  C   UNL A   1      29.357  29.800  22.154  1.00  0.00     0.116 C 
ATOM     79  C   UNL A   1      28.416  28.808  22.860  1.00  0.00     0.028 C 
BRANCH  74  80
ATOM     80  N   UNL A   1      31.896  28.016  22.200  1.00  0.00    -0.330 N 
ATOM     81  H   UNL A   1      32.820  28.403  22.010  1.00  0.00     0.347 HD
ATOM     82  H   UNL A   1      31.150  28.169  21.521  1.00  0.00     0.347 HD
BRANCH  80  83
ATOM     83  C   UNL A   1      32.047  26.555  22.177  1.00  0.00     0.183 C 
ATOM     84  C   UNL A   1      32.555  25.714  21.042  1.00  0.00     0.071 C 
ATOM     85  C   UNL A   1      33.426  25.950  22.239  1.00  0.00     0.071 C 
ENDBRANCH  80  83
ENDBRANCH  74  80
BRANCH  78  86
ATOM     86  N   UNL A   1      28.671  31.054  21.834  1.00  0.00    -0.250 N 
ATOM     87  C   UNL A   1      28.678  32.204  22.559  1.00  0.00     0.220 A 
ATOM     88  N   UNL A   1      28.056  31.257  20.653  1.00  0.00    -0.160 NA
ATOM     89  N   UNL A   1      28.095  33.168  21.891  1.00  0.00    -0.224 NA
ATOM     90  C   UNL A   1      27.728  32.548  20.733  1.00  0.00     0.246 A 
ENDBRANCH  78  86
ENDBRANCH  72  74
ENDBRANCH  71  72
ENDBRANCH  70  71
ENDBRANCH   1  70
TORSDOF 14
ENDMDL
MODEL 2
REMARK VINA RESULT:     -12.8      4.147      6.621
REMARK SMILES O=C(OCCOC(=O)[C@@]1([NH2+]C2CC2)CCC[C@@H](n2cncn2)C1)c1ccc(-c2c3nc(c(-c4c(F)c(F)c(F)c(F)c4F)c4ccc([nH]4)c(-c4c(F)c(F)c(F)c(F)c4F)c4nc(c(-c5c(F)c(F)c(F)c(F)c5F)c5ccc2[nH]5)C=C4)C=C3)cc1
REMARK SMILES IDX 4 1 3 2 2 3 1 4 24 5 25 6 86 7 26 8 85 9 27 10 28 11 29 12
REMARK SMILES IDX 79 13 30 14 84 15 78 16 80 17 31 18 83 19 77 20 76 21 32 23
REMARK SMILES IDX 64 24 44 25 63 26 45 27 48 28 62 29 81 30 46 31 47 32 61 34
REMARK SMILES IDX 82 35 49 36 33 37 34 38 42 39 35 40 36 41 40 42 43 43 37 44
REMARK SMILES IDX 38 45 41 46 39 47 65 48 66 49 74 50 67 51 68 52 72 53 75 54
REMARK SMILES IDX 69 55 70 56 73 57 71 58 50 59 51 60 59 61 52 62 53 63 57 64
REMARK SMILES IDX 60 65 54 66 55 67 58 68 56 69 5 70 6 71 7 72 8 73 9 74 14 75
REMARK SMILES IDX 23 76 15 77 17 78 16 79 10 80 11 83 12 84 13 85 18 86 19 87
REMARK SMILES IDX 22 88 20 89 21 90
REMARK H PARENT 80 22 48 33 10 81 10 82
REMARK Flexibility Score: inf
ROOT
ATOM      1  C   UNL A   1      34.151  34.078  27.876  1.00  0.00     0.275 C 
ENDROOT
BRANCH   1   2
ATOM      2  O   UNL A   1      35.139  33.060  27.626  1.00  0.00    -0.458 OA
BRANCH   2   3
ATOM      3  C   UNL A   1      34.808  31.771  27.835  1.00  0.00     0.338 C 
ATOM      4  O   UNL A   1      33.698  31.276  27.716  1.00  0.00    -0.246 OA
BRANCH   3   5
ATOM      5  C   UNL A   1      36.011  31.018  28.242  1.00  0.00     0.060 A 
ATOM      6  C   UNL A   1      36.094  29.634  28.046  1.00  0.00     0.016 A 
ATOM      7  C   UNL A   1      37.102  31.724  28.750  1.00  0.00     0.016 A 
ATOM      8  C   UNL A   1      37.258  28.954  28.379  1.00  0.00     0.010 A 
ATOM      9  C   UNL A   1      38.268  31.038  29.083  1.00  0.00     0.010 A 
ATOM     10  C   UNL A   1      38.352  29.652  28.905  1.00  0.00    -0.014 A 
BRANCH  10  11
ATOM     11  C   UNL A   1      39.565  28.888  29.210  1.00  0.00     0.031 A 
ATOM     12  C   UNL A   1      39.940  28.716  30.650  1.00  0.00     0.074 A 
ATOM     13  C   UNL A   1      40.315  28.248  28.291  1.00  0.00     0.049 A 
ATOM     14  N   UNL A   1      40.971  29.191  31.275  1.00  0.00    -0.248 NA
ATOM     15  C   UNL A   1      39.047  27.933  31.509  1.00  0.00     0.031 C 
ATOM     16  C   UNL A   1      40.028  28.002  26.878  1.00  0.00     0.029 A 
ATOM     17  N   UNL A   1      41.503  27.604  28.486  1.00  0.00    -0.354 N 
ATOM     18  C   UNL A   1      40.945  28.646  32.561  1.00  0.00     0.074 A 
ATOM     19  C   UNL A   1      39.681  27.971  32.681  1.00  0.00     0.031 C 
ATOM     20  C   UNL A   1      40.906  27.095  26.396  1.00  0.00     0.029 A 
ATOM     21  C   UNL A   1      41.907  26.828  27.416  1.00  0.00     0.049 A 
ATOM     22  H   UNL A   1      42.026  27.685  29.316  1.00  0.00     0.167 HD
ATOM     23  C   UNL A   1      42.043  28.641  33.373  1.00  0.00     0.037 A 
ATOM     24  C   UNL A   1      42.979  26.005  27.369  1.00  0.00     0.037 A 
ATOM     25  C   UNL A   1      43.028  29.593  32.930  1.00  0.00     0.049 A 
ATOM     26  C   UNL A   1      43.937  26.439  28.412  1.00  0.00     0.074 A 
ATOM     27  C   UNL A   1      43.034  30.954  32.692  1.00  0.00     0.029 A 
ATOM     28  N   UNL A   1      44.186  29.129  32.358  1.00  0.00    -0.354 N 
ATOM     29  N   UNL A   1      44.637  27.537  28.355  1.00  0.00    -0.248 NA
ATOM     30  C   UNL A   1      43.863  25.814  29.724  1.00  0.00     0.031 C 
ATOM     31  C   UNL A   1      43.884  31.124  31.558  1.00  0.00     0.029 A 
ATOM     32  C   UNL A   1      44.365  29.861  31.215  1.00  0.00     0.049 A 
ATOM     33  H   UNL A   1      44.769  28.413  32.700  1.00  0.00     0.167 HD
ATOM     34  C   UNL A   1      44.725  27.966  29.668  1.00  0.00     0.074 A 
ATOM     35  C   UNL A   1      44.348  26.808  30.472  1.00  0.00     0.031 C 
ATOM     36  C   UNL A   1      44.824  29.293  29.972  1.00  0.00     0.037 A 
BRANCH  23  37
ATOM     37  C   UNL A   1      42.379  27.570  34.392  1.00  0.00     0.064 A 
ATOM     38  C   UNL A   1      43.003  26.379  33.957  1.00  0.00     0.173 A 
ATOM     39  C   UNL A   1      41.850  27.528  35.698  1.00  0.00     0.173 A 
ATOM     40  F   UNL A   1      43.543  26.295  32.732  1.00  0.00    -0.203 F 
ATOM     41  C   UNL A   1      43.001  25.212  34.729  1.00  0.00     0.198 A 
ATOM     42  C   UNL A   1      41.903  26.377  36.490  1.00  0.00     0.198 A 
ATOM     43  F   UNL A   1      41.169  28.551  36.224  1.00  0.00    -0.203 F 
ATOM     44  F   UNL A   1      43.480  24.073  34.212  1.00  0.00    -0.200 F 
ATOM     45  C   UNL A   1      42.443  25.210  35.991  1.00  0.00     0.200 A 
ATOM     46  F   UNL A   1      41.350  26.392  37.711  1.00  0.00    -0.200 F 
ATOM     47  F   UNL A   1      42.381  24.080  36.707  1.00  0.00    -0.200 F 
ENDBRANCH  23  37
BRANCH  24  48
ATOM     48  C   UNL A   1      43.156  24.761  26.596  1.00  0.00     0.064 A 
ATOM     49  C   UNL A   1      44.035  24.699  25.505  1.00  0.00     0.173 A 
ATOM     50  C   UNL A   1      42.660  23.534  27.079  1.00  0.00     0.173 A 
ATOM     51  F   UNL A   1      44.581  25.822  25.014  1.00  0.00    -0.203 F 
ATOM     52  C   UNL A   1      44.418  23.479  24.945  1.00  0.00     0.198 A 
ATOM     53  C   UNL A   1      43.036  22.317  26.513  1.00  0.00     0.198 A 
ATOM     54  F   UNL A   1      41.876  23.491  28.166  1.00  0.00    -0.203 F 
ATOM     55  F   UNL A   1      45.308  23.455  23.943  1.00  0.00    -0.200 F 
ATOM     56  C   UNL A   1      43.926  22.289  25.456  1.00  0.00     0.200 A 
ATOM     57  F   UNL A   1      42.580  21.171  27.037  1.00  0.00    -0.200 F 
ATOM     58  F   UNL A   1      44.340  21.116  24.957  1.00  0.00    -0.200 F 
ENDBRANCH  24  48
BRANCH  36  59
ATOM     59  C   UNL A   1      45.155  30.253  28.868  1.00  0.00     0.064 A 
ATOM     60  C   UNL A   1      44.214  30.753  27.954  1.00  0.00     0.173 A 
ATOM     61  C   UNL A   1      46.450  30.791  28.824  1.00  0.00     0.173 A 
ATOM     62  F   UNL A   1      42.930  30.377  28.006  1.00  0.00    -0.203 F 
ATOM     63  C   UNL A   1      44.572  31.704  27.000  1.00  0.00     0.198 A 
ATOM     64  C   UNL A   1      46.793  31.771  27.897  1.00  0.00     0.198 A 
ATOM     65  F   UNL A   1      47.374  30.397  29.715  1.00  0.00    -0.203 F 
ATOM     66  F   UNL A   1      43.661  32.152  26.124  1.00  0.00    -0.200 F 
ATOM     67  C   UNL A   1      45.859  32.216  26.977  1.00  0.00     0.200 A 
ATOM     68  F   UNL A   1      48.023  32.302  27.914  1.00  0.00    -0.200 F 
ATOM     69  F   UNL A   1      46.192  33.161  26.085  1.00  0.00    -0.200 F 
ENDBRANCH  36  59
ENDBRANCH  10  11
ENDBRANCH   3   5
ENDBRANCH   2   3
ENDBRANCH   1   2
BRANCH   1  70
ATOM     70  C   UNL A   1      33.934  34.520  29.324  1.00  0.00     0.274 C 
BRANCH  70  71
ATOM     71  O   UNL A   1      35.163  34.436  30.070  1.00  0.00    -0.457 OA
BRANCH  71  72
ATOM     72  C   UNL A   1      35.078  33.694  31.215  1.00  0.00     0.368 C 
ATOM     73  O   UNL A   1      34.403  32.673  31.314  1.00  0.00    -0.245 OA
BRANCH  72  74
ATOM     74  C   UNL A   1      35.891  34.288  32.402  1.00  0.00     0.196 C 
ATOM     75  C   UNL A   1      35.694  33.383  33.641  1.00  0.00     0.081 C 
ATOM     76  C   UNL A   1      37.404  34.235  32.029  1.00  0.00     0.108 C 
ATOM     77  C   UNL A   1      36.537  33.811  34.835  1.00  0.00     0.009 C 
ATOM     78  C   UNL A   1      38.362  34.548  33.204  1.00  0.00     0.116 C 
ATOM     79  C   UNL A   1      38.013  33.766  34.483  1.00  0.00     0.028 C 
BRANCH  74  80
ATOM     80  N   UNL A   1      35.531  35.705  32.680  1.00  0.00    -0.330 N 
ATOM     81  H   UNL A   1      35.948  36.259  31.933  1.00  0.00     0.347 HD
ATOM     82  H   UNL A   1      35.869  35.833  33.634  1.00  0.00     0.347 HD
BRANCH  80  83
ATOM     83  C   UNL A   1      34.130  36.135  32.783  1.00  0.00     0.183 C 
ATOM     84  C   UNL A   1      33.523  36.995  33.853  1.00  0.00     0.071 C 
ATOM     85  C   UNL A   1      33.771  37.570  32.491  1.00  0.00     0.071 C 
ENDBRANCH  80  83
ENDBRANCH  74  80
BRANCH  78  86
ATOM     86  N   UNL A   1      39.769  34.372  32.837  1.00  0.00    -0.250 N 
ATOM     87  C   UNL A   1      40.268  34.094  31.603  1.00  0.00     0.220 A 
ATOM     88  N   UNL A   1      40.775  34.631  33.694  1.00  0.00    -0.160 NA
ATOM     89  N   UNL A   1      41.576  34.172  31.612  1.00  0.00    -0.224 NA
ATOM     90  C   UNL A   1      41.846  34.499  32.908  1.00  0.00     0.246 A 
ENDBRANCH  78  86
ENDBRANCH  72  74
ENDBRANCH  71  72
ENDBRANCH  70  71
ENDBRANCH   1  70
TORSDOF 14
ENDMDL
MODEL 3
REMARK VINA RESULT:     -12.7      4.751      9.853
REMARK SMILES O=C(OCCOC(=O)[C@@]1([NH2+]C2CC2)CCC[C@@H](n2cncn2)C1)c1ccc(-c2c3nc(c(-c4c(F)c(F)c(F)c(F)c4F)c4ccc([nH]4)c(-c4c(F)c(F)c(F)c(F)c4F)c4nc(c(-c5c(F)c(F)c(F)c(F)c5F)c5ccc2[nH]5)C=C4)C=C3)cc1
REMARK SMILES IDX 4 1 3 2 2 3 1 4 24 5 25 6 86 7 26 8 85 9 27 10 28 11 29 12
REMARK SMILES IDX 79 13 30 14 84 15 78 16 80 17 31 18 83 19 77 20 76 21 32 23
REMARK SMILES IDX 64 24 44 25 63 26 45 27 48 28 62 29 81 30 46 31 47 32 61 34
REMARK SMILES IDX 82 35 49 36 33 37 34 38 42 39 35 40 36 41 40 42 43 43 37 44
REMARK SMILES IDX 38 45 41 46 39 47 65 48 66 49 74 50 67 51 68 52 72 53 75 54
REMARK SMILES IDX 69 55 70 56 73 57 71 58 50 59 51 60 59 61 52 62 53 63 57 64
REMARK SMILES IDX 60 65 54 66 55 67 58 68 56 69 5 70 6 71 7 72 8 73 9 74 14 75
REMARK SMILES IDX 23 76 15 77 17 78 16 79 10 80 11 83 12 84 13 85 18 86 19 87
REMARK SMILES IDX 22 88 20 89 21 90
REMARK H PARENT 80 22 48 33 10 81 10 82
REMARK Flexibility Score: inf
ROOT
ATOM      1  C   UNL A   1      38.500  21.466  25.644  1.00  0.00     0.275 C 
ENDROOT
BRANCH   1   2
ATOM      2  O   UNL A   1      39.240  22.009  26.755  1.00  0.00    -0.458 OA
BRANCH   2   3
ATOM      3  C   UNL A   1      40.496  22.448  26.543  1.00  0.00     0.338 C 
ATOM      4  O   UNL A   1      41.417  21.811  26.059  1.00  0.00    -0.246 OA
BRANCH   3   5
ATOM      5  C   UNL A   1      40.605  23.850  26.994  1.00  0.00     0.060 A 
ATOM      6  C   UNL A   1      39.721  24.828  26.522  1.00  0.00     0.016 A 
ATOM      7  C   UNL A   1      41.553  24.168  27.967  1.00  0.00     0.016 A 
ATOM      8  C   UNL A   1      39.801  26.127  27.006  1.00  0.00     0.010 A 
ATOM      9  C   UNL A   1      41.630  25.472  28.449  1.00  0.00     0.010 A 
ATOM     10  C   UNL A   1      40.761  26.460  27.969  1.00  0.00    -0.014 A 
BRANCH  10  11
ATOM     11  C   UNL A   1      40.779  27.839  28.465  1.00  0.00     0.031 A 
ATOM     12  C   UNL A   1      41.895  28.729  28.013  1.00  0.00     0.074 A 
ATOM     13  C   UNL A   1      39.811  28.389  29.224  1.00  0.00     0.049 A 
ATOM     14  N   UNL A   1      42.851  29.244  28.721  1.00  0.00    -0.248 NA
ATOM     15  C   UNL A   1      41.969  29.079  26.591  1.00  0.00     0.031 C 
ATOM     16  C   UNL A   1      38.491  27.857  29.563  1.00  0.00     0.029 A 
ATOM     17  N   UNL A   1      39.807  29.628  29.800  1.00  0.00    -0.354 N 
ATOM     18  C   UNL A   1      43.557  30.103  27.875  1.00  0.00     0.074 A 
ATOM     19  C   UNL A   1      43.038  29.874  26.553  1.00  0.00     0.031 C 
ATOM     20  C   UNL A   1      37.741  28.840  30.107  1.00  0.00     0.029 A 
ATOM     21  C   UNL A   1      38.578  30.011  30.304  1.00  0.00     0.049 A 
ATOM     22  H   UNL A   1      40.609  30.196  29.853  1.00  0.00     0.167 HD
ATOM     23  C   UNL A   1      44.397  31.067  28.351  1.00  0.00     0.037 A 
ATOM     24  C   UNL A   1      38.257  31.215  30.831  1.00  0.00     0.037 A 
ATOM     25  C   UNL A   1      44.768  30.812  29.718  1.00  0.00     0.049 A 
ATOM     26  C   UNL A   1      39.509  31.873  31.268  1.00  0.00     0.074 A 
ATOM     27  C   UNL A   1      45.365  29.762  30.390  1.00  0.00     0.029 A 
ATOM     28  N   UNL A   1      44.251  31.613  30.705  1.00  0.00    -0.354 N 
ATOM     29  N   UNL A   1      40.222  31.491  32.290  1.00  0.00    -0.248 NA
ATOM     30  C   UNL A   1      40.181  32.770  30.340  1.00  0.00     0.031 C 
ATOM     31  C   UNL A   1      44.710  29.717  31.657  1.00  0.00     0.029 A 
ATOM     32  C   UNL A   1      43.794  30.768  31.680  1.00  0.00     0.049 A 
ATOM     33  H   UNL A   1      44.215  32.597  30.710  1.00  0.00     0.167 HD
ATOM     34  C   UNL A   1      41.532  31.738  31.917  1.00  0.00     0.074 A 
ATOM     35  C   UNL A   1      41.437  32.638  30.773  1.00  0.00     0.031 C 
ATOM     36  C   UNL A   1      42.557  30.972  32.392  1.00  0.00     0.037 A 
BRANCH  23  37
ATOM     37  C   UNL A   1      44.652  32.413  27.700  1.00  0.00     0.064 A 
ATOM     38  C   UNL A   1      45.838  32.603  26.955  1.00  0.00     0.173 A 
ATOM     39  C   UNL A   1      43.951  33.593  28.023  1.00  0.00     0.173 A 
ATOM     40  F   UNL A   1      46.593  31.557  26.589  1.00  0.00    -0.203 F 
ATOM     41  C   UNL A   1      46.332  33.876  26.653  1.00  0.00     0.198 A 
ATOM     42  C   UNL A   1      44.418  34.862  27.668  1.00  0.00     0.198 A 
ATOM     43  F   UNL A   1      42.850  33.582  28.782  1.00  0.00    -0.203 F 
ATOM     44  F   UNL A   1      47.532  34.003  26.071  1.00  0.00    -0.200 F 
ATOM     45  C   UNL A   1      45.626  35.005  27.018  1.00  0.00     0.200 A 
ATOM     46  F   UNL A   1      43.721  35.946  28.036  1.00  0.00    -0.200 F 
ATOM     47  F   UNL A   1      46.126  36.226  26.789  1.00  0.00    -0.200 F 
ENDBRANCH  23  37
BRANCH  24  48
ATOM     48  C   UNL A   1      36.954  31.908  30.825  1.00  0.00     0.064 A 
ATOM     49  C   UNL A   1      36.129  31.916  31.959  1.00  0.00     0.173 A 
ATOM     50  C   UNL A   1      36.615  32.799  29.789  1.00  0.00     0.173 A 
ATOM     51  F   UNL A   1      36.410  31.125  33.005  1.00  0.00    -0.203 F 
ATOM     52  C   UNL A   1      35.041  32.785  32.062  1.00  0.00     0.198 A 
ATOM     53  C   UNL A   1      35.523  33.660  29.890  1.00  0.00     0.198 A 
ATOM     54  F   UNL A   1      37.391  32.916  28.702  1.00  0.00    -0.203 F 
ATOM     55  F   UNL A   1      34.311  32.809  33.186  1.00  0.00    -0.200 F 
ATOM     56  C   UNL A   1      34.745  33.663  31.032  1.00  0.00     0.200 A 
ATOM     57  F   UNL A   1      35.267  34.528  28.901  1.00  0.00    -0.200 F 
ATOM     58  F   UNL A   1      33.737  34.537  31.157  1.00  0.00    -0.200 F 
ENDBRANCH  24  48
BRANCH  36  59
ATOM     59  C   UNL A   1      42.290  30.071  33.561  1.00  0.00     0.064 A 
ATOM     60  C   UNL A   1      41.788  28.764  33.447  1.00  0.00     0.173 A 
ATOM     61  C   UNL A   1      42.688  30.501  34.835  1.00  0.00     0.173 A 
ATOM     62  F   UNL A   1      41.494  28.237  32.251  1.00  0.00    -0.203 F 
ATOM     63  C   UNL A   1      41.636  27.950  34.567  1.00  0.00     0.198 A 
ATOM     64  C   UNL A   1      42.575  29.671  35.946  1.00  0.00     0.198 A 
ATOM     65  F   UNL A   1      43.235  31.717  34.995  1.00  0.00    -0.203 F 
ATOM     66  F   UNL A   1      41.135  26.713  34.436  1.00  0.00    -0.200 F 
ATOM     67  C   UNL A   1      42.035  28.402  35.814  1.00  0.00     0.200 A 
ATOM     68  F   UNL A   1      43.013  30.093  37.140  1.00  0.00    -0.200 F 
ATOM     69  F   UNL A   1      41.927  27.604  36.886  1.00  0.00    -0.200 F 
ENDBRANCH  36  59
ENDBRANCH  10  11
ENDBRANCH   3   5
ENDBRANCH   2   3
ENDBRANCH   1   2
BRANCH   1  70
ATOM     70  C   UNL A   1      37.216  22.181  25.225  1.00  0.00     0.274 C 
BRANCH  70  71
ATOM     71  O   UNL A   1      36.061  21.505  25.755  1.00  0.00    -0.457 OA
BRANCH  71  72
ATOM     72  C   UNL A   1      34.934  22.277  25.817  1.00  0.00     0.368 C 
ATOM     73  O   UNL A   1      34.922  23.430  26.236  1.00  0.00    -0.245 OA
BRANCH  72  74
ATOM     74  C   UNL A   1      33.650  21.538  25.338  1.00  0.00     0.196 C 
ATOM     75  C   UNL A   1      33.375  21.927  23.866  1.00  0.00     0.081 C 
ATOM     76  C   UNL A   1      33.932  20.005  25.364  1.00  0.00     0.108 C 
ATOM     77  C   UNL A   1      32.200  21.172  23.257  1.00  0.00     0.009 C 
ATOM     78  C   UNL A   1      32.848  19.145  24.671  1.00  0.00     0.116 C 
ATOM     79  C   UNL A   1      32.462  19.678  23.280  1.00  0.00     0.028 C 
BRANCH  74  80
ATOM     80  N   UNL A   1      32.480  21.811  26.216  1.00  0.00    -0.330 N 
ATOM     81  H   UNL A   1      32.764  21.552  27.161  1.00  0.00     0.347 HD
ATOM     82  H   UNL A   1      31.738  21.278  25.763  1.00  0.00     0.347 HD
BRANCH  80  83
ATOM     83  C   UNL A   1      31.889  23.152  26.314  1.00  0.00     0.183 C 
ATOM     84  C   UNL A   1      30.860  23.757  25.404  1.00  0.00     0.071 C 
ATOM     85  C   UNL A   1      30.462  23.302  26.776  1.00  0.00     0.071 C 
ENDBRANCH  80  83
ENDBRANCH  74  80
BRANCH  78  86
ATOM     86  N   UNL A   1      33.212  17.727  24.620  1.00  0.00    -0.250 N 
ATOM     87  C   UNL A   1      33.956  17.103  23.668  1.00  0.00     0.220 A 
ATOM     88  N   UNL A   1      32.965  16.882  25.640  1.00  0.00    -0.160 NA
ATOM     89  N   UNL A   1      34.219  15.871  24.029  1.00  0.00    -0.224 NA
ATOM     90  C   UNL A   1      33.595  15.776  25.238  1.00  0.00     0.246 A 
ENDBRANCH  78  86
ENDBRANCH  72  74
ENDBRANCH  71  72
ENDBRANCH  70  71
ENDBRANCH   1  70
TORSDOF 14
ENDMDL
