MODEL 1
REMARK VINA RESULT:     -12.0      0.000      0.000
REMARK SMILES O=C(OCCOC(=O)[C@@]1([NH2+]C2CC2)CCC[C@@H](Sc2ncn[nH]2)C1)c1ccc(-c2c3nc(c(-c4c(F)c(F)c(F)c(F)c4F)c4ccc([nH]4)c(-c4c(F)c(F)c(F)c(F)c4F)c4nc(c(-c5c(F)c(F)c(F)c(F)c5F)c5ccc2[nH]5)C=C4)C=C3)cc1
REMARK SMILES IDX 4 1 3 2 2 3 1 4 25 5 26 6 87 7 27 8 86 9 28 10 29 11 30 12
REMARK SMILES IDX 80 13 31 14 85 15 79 16 81 17 32 18 84 19 78 20 77 21 33 23
REMARK SMILES IDX 65 24 45 25 64 26 46 27 49 28 63 29 82 30 47 31 48 32 62 34
REMARK SMILES IDX 83 35 50 36 34 37 35 38 43 39 36 40 37 41 41 42 44 43 38 44
REMARK SMILES IDX 39 45 42 46 40 47 66 48 67 49 75 50 68 51 69 52 73 53 76 54
REMARK SMILES IDX 70 55 71 56 74 57 72 58 51 59 52 60 60 61 53 62 54 63 58 64
REMARK SMILES IDX 61 65 55 66 56 67 59 68 57 69 5 70 6 71 7 72 8 73 9 74 14 75
REMARK SMILES IDX 24 76 15 77 17 78 16 79 10 80 11 83 12 84 13 85 18 86 19 87
REMARK SMILES IDX 20 88 23 89 21 90 22 91
REMARK H PARENT 81 22 49 33 10 81 10 82 23 92
REMARK Flexibility Score: inf
ROOT
ATOM      1  C   UNL A   1      31.776  29.878  26.721  1.00  0.00     0.275 C 
ENDROOT
BRANCH   1   2
ATOM      2  O   UNL A   1      33.033  30.516  26.419  1.00  0.00    -0.458 OA
BRANCH   2   3
ATOM      3  C   UNL A   1      33.608  31.410  27.242  1.00  0.00     0.338 C 
ATOM      4  O   UNL A   1      33.005  32.423  27.609  1.00  0.00    -0.246 OA
BRANCH   3   5
ATOM      5  C   UNL A   1      34.956  31.091  27.792  1.00  0.00     0.060 A 
ATOM      6  C   UNL A   1      35.984  32.021  27.974  1.00  0.00     0.016 A 
ATOM      7  C   UNL A   1      35.178  29.769  28.189  1.00  0.00     0.016 A 
ATOM      8  C   UNL A   1      37.163  31.664  28.642  1.00  0.00     0.010 A 
ATOM      9  C   UNL A   1      36.324  29.427  28.904  1.00  0.00     0.010 A 
ATOM     10  C   UNL A   1      37.334  30.368  29.142  1.00  0.00    -0.014 A 
BRANCH  10  11
ATOM     11  C   UNL A   1      38.586  29.964  29.832  1.00  0.00     0.031 A 
ATOM     12  C   UNL A   1      38.902  30.551  31.179  1.00  0.00     0.074 A 
ATOM     13  C   UNL A   1      39.465  29.114  29.261  1.00  0.00     0.049 A 
ATOM     14  N   UNL A   1      39.877  30.254  32.000  1.00  0.00    -0.248 NA
ATOM     15  C   UNL A   1      38.026  31.632  31.662  1.00  0.00     0.031 C 
ATOM     16  C   UNL A   1      39.340  28.527  27.929  1.00  0.00     0.029 A 
ATOM     17  N   UNL A   1      40.658  28.613  29.727  1.00  0.00    -0.354 N 
ATOM     18  C   UNL A   1      39.684  31.068  33.104  1.00  0.00     0.074 A 
ATOM     19  C   UNL A   1      38.634  31.999  32.776  1.00  0.00     0.031 C 
ATOM     20  C   UNL A   1      40.426  27.775  27.677  1.00  0.00     0.029 A 
ATOM     21  C   UNL A   1      41.303  27.791  28.836  1.00  0.00     0.049 A 
ATOM     22  H   UNL A   1      41.016  28.824  30.619  1.00  0.00     0.167 HD
ATOM     23  C   UNL A   1      40.241  30.969  34.332  1.00  0.00     0.037 A 
ATOM     24  C   UNL A   1      42.451  27.095  28.946  1.00  0.00     0.037 A 
ATOM     25  C   UNL A   1      41.276  30.036  34.662  1.00  0.00     0.049 A 
ATOM     26  C   UNL A   1      43.136  27.060  30.285  1.00  0.00     0.074 A 
ATOM     27  C   UNL A   1      41.864  29.783  35.886  1.00  0.00     0.029 A 
ATOM     28  N   UNL A   1      41.890  29.203  33.737  1.00  0.00    -0.354 N 
ATOM     29  N   UNL A   1      42.815  27.683  31.393  1.00  0.00    -0.248 NA
ATOM     30  C   UNL A   1      44.297  26.169  30.413  1.00  0.00     0.031 C 
ATOM     31  C   UNL A   1      42.862  28.820  35.693  1.00  0.00     0.029 A 
ATOM     32  C   UNL A   1      42.868  28.449  34.357  1.00  0.00     0.049 A 
ATOM     33  H   UNL A   1      41.662  29.157  32.780  1.00  0.00     0.167 HD
ATOM     34  C   UNL A   1      43.671  27.194  32.368  1.00  0.00     0.074 A 
ATOM     35  C   UNL A   1      44.550  26.246  31.712  1.00  0.00     0.031 C 
ATOM     36  C   UNL A   1      43.706  27.483  33.691  1.00  0.00     0.037 A 
BRANCH  23  37
ATOM     37  C   UNL A   1      39.655  31.856  35.389  1.00  0.00     0.064 A 
ATOM     38  C   UNL A   1      40.191  33.135  35.628  1.00  0.00     0.173 A 
ATOM     39  C   UNL A   1      38.629  31.406  36.229  1.00  0.00     0.173 A 
ATOM     40  F   UNL A   1      41.194  33.600  34.865  1.00  0.00    -0.203 F 
ATOM     41  C   UNL A   1      39.768  33.901  36.709  1.00  0.00     0.198 A 
ATOM     42  C   UNL A   1      38.184  32.192  37.290  1.00  0.00     0.198 A 
ATOM     43  F   UNL A   1      38.087  30.194  36.045  1.00  0.00    -0.203 F 
ATOM     44  F   UNL A   1      40.364  35.072  36.973  1.00  0.00    -0.200 F 
ATOM     45  C   UNL A   1      38.765  33.428  37.540  1.00  0.00     0.200 A 
ATOM     46  F   UNL A   1      37.213  31.738  38.094  1.00  0.00    -0.200 F 
ATOM     47  F   UNL A   1      38.375  34.153  38.597  1.00  0.00    -0.200 F 
ENDBRANCH  23  37
BRANCH  24  48
ATOM     48  C   UNL A   1      42.960  26.283  27.807  1.00  0.00     0.064 A 
ATOM     49  C   UNL A   1      43.885  26.812  26.895  1.00  0.00     0.173 A 
ATOM     50  C   UNL A   1      42.516  24.971  27.593  1.00  0.00     0.173 A 
ATOM     51  F   UNL A   1      44.331  28.068  27.049  1.00  0.00    -0.203 F 
ATOM     52  C   UNL A   1      44.315  26.078  25.790  1.00  0.00     0.198 A 
ATOM     53  C   UNL A   1      42.964  24.228  26.501  1.00  0.00     0.198 A 
ATOM     54  F   UNL A   1      41.644  24.406  28.441  1.00  0.00    -0.203 F 
ATOM     55  F   UNL A   1      45.151  26.632  24.901  1.00  0.00    -0.200 F 
ATOM     56  C   UNL A   1      43.852  24.785  25.593  1.00  0.00     0.200 A 
ATOM     57  F   UNL A   1      42.539  22.968  26.330  1.00  0.00    -0.200 F 
ATOM     58  F   UNL A   1      44.251  24.082  24.525  1.00  0.00    -0.200 F 
ENDBRANCH  24  48
BRANCH  36  59
ATOM     59  C   UNL A   1      44.661  26.700  34.539  1.00  0.00     0.064 A 
ATOM     60  C   UNL A   1      44.317  25.459  35.091  1.00  0.00     0.173 A 
ATOM     61  C   UNL A   1      45.958  27.187  34.760  1.00  0.00     0.173 A 
ATOM     62  F   UNL A   1      43.083  24.964  34.922  1.00  0.00    -0.203 F 
ATOM     63  C   UNL A   1      45.234  24.743  35.855  1.00  0.00     0.198 A 
ATOM     64  C   UNL A   1      46.881  26.454  35.496  1.00  0.00     0.198 A 
ATOM     65  F   UNL A   1      46.334  28.370  34.249  1.00  0.00    -0.203 F 
ATOM     66  F   UNL A   1      44.871  23.580  36.413  1.00  0.00    -0.200 F 
ATOM     67  C   UNL A   1      46.517  25.235  36.049  1.00  0.00     0.200 A 
ATOM     68  F   UNL A   1      48.123  26.924  35.670  1.00  0.00    -0.200 F 
ATOM     69  F   UNL A   1      47.400  24.537  36.774  1.00  0.00    -0.200 F 
ENDBRANCH  36  59
ENDBRANCH  10  11
ENDBRANCH   3   5
ENDBRANCH   2   3
ENDBRANCH   1   2
BRANCH   1  70
ATOM     70  C   UNL A   1      31.801  28.466  27.321  1.00  0.00     0.274 C 
BRANCH  70  71
ATOM     71  O   UNL A   1      32.604  27.502  26.610  1.00  0.00    -0.457 OA
BRANCH  71  72
ATOM     72  C   UNL A   1      31.941  26.335  26.301  1.00  0.00     0.368 C 
ATOM     73  O   UNL A   1      30.811  26.080  26.712  1.00  0.00    -0.245 OA
BRANCH  72  74
ATOM     74  C   UNL A   1      32.830  25.299  25.534  1.00  0.00     0.195 C 
ATOM     75  C   UNL A   1      34.326  25.633  25.504  1.00  0.00     0.081 C 
ATOM     76  C   UNL A   1      32.696  23.993  26.367  1.00  0.00     0.096 C 
ATOM     77  C   UNL A   1      35.206  24.542  24.900  1.00  0.00     0.008 C 
ATOM     78  C   UNL A   1      33.618  22.848  25.914  1.00  0.00     0.061 C 
ATOM     79  C   UNL A   1      35.079  23.248  25.683  1.00  0.00     0.015 C 
BRANCH  74  80
ATOM     80  N   UNL A   1      32.282  25.059  24.166  1.00  0.00    -0.330 N 
ATOM     81  H   UNL A   1      31.328  24.723  24.299  1.00  0.00     0.347 HD
ATOM     82  H   UNL A   1      32.982  24.435  23.765  1.00  0.00     0.347 HD
BRANCH  80  83
ATOM     83  C   UNL A   1      32.205  26.128  23.145  1.00  0.00     0.183 C 
ATOM     84  C   UNL A   1      33.224  26.403  22.070  1.00  0.00     0.071 C 
ATOM     85  C   UNL A   1      31.933  25.718  21.727  1.00  0.00     0.071 C 
ENDBRANCH  80  83
ENDBRANCH  74  80
BRANCH  78  86
ATOM     86  S   UNL A   1      33.512  21.395  27.028  1.00  0.00    -0.083 SA
BRANCH  86  87
ATOM     87  C   UNL A   1      33.033  20.105  25.994  1.00  0.00     0.183 A 
ATOM     88  N   UNL A   1      32.800  20.106  24.705  1.00  0.00    -0.210 NA
ATOM     89  N   UNL A   1      32.864  18.852  26.492  1.00  0.00    -0.254 N 
ATOM     90  C   UNL A   1      32.506  18.794  24.453  1.00  0.00     0.247 A 
ATOM     91  N   UNL A   1      32.469  17.997  25.528  1.00  0.00    -0.162 NA
ATOM     92  H   UNL A   1      33.011  18.601  27.434  1.00  0.00     0.192 HD
ENDBRANCH  86  87
ENDBRANCH  78  86
ENDBRANCH  72  74
ENDBRANCH  71  72
ENDBRANCH  70  71
ENDBRANCH   1  70
TORSDOF 15
ENDMDL
MODEL 2
REMARK VINA RESULT:     -12.0      4.564     10.015
REMARK SMILES O=C(OCCOC(=O)[C@@]1([NH2+]C2CC2)CCC[C@@H](Sc2ncn[nH]2)C1)c1ccc(-c2c3nc(c(-c4c(F)c(F)c(F)c(F)c4F)c4ccc([nH]4)c(-c4c(F)c(F)c(F)c(F)c4F)c4nc(c(-c5c(F)c(F)c(F)c(F)c5F)c5ccc2[nH]5)C=C4)C=C3)cc1
REMARK SMILES IDX 4 1 3 2 2 3 1 4 25 5 26 6 87 7 27 8 86 9 28 10 29 11 30 12
REMARK SMILES IDX 80 13 31 14 85 15 79 16 81 17 32 18 84 19 78 20 77 21 33 23
REMARK SMILES IDX 65 24 45 25 64 26 46 27 49 28 63 29 82 30 47 31 48 32 62 34
REMARK SMILES IDX 83 35 50 36 34 37 35 38 43 39 36 40 37 41 41 42 44 43 38 44
REMARK SMILES IDX 39 45 42 46 40 47 66 48 67 49 75 50 68 51 69 52 73 53 76 54
REMARK SMILES IDX 70 55 71 56 74 57 72 58 51 59 52 60 60 61 53 62 54 63 58 64
REMARK SMILES IDX 61 65 55 66 56 67 59 68 57 69 5 70 6 71 7 72 8 73 9 74 14 75
REMARK SMILES IDX 24 76 15 77 17 78 16 79 10 80 11 83 12 84 13 85 18 86 19 87
REMARK SMILES IDX 20 88 23 89 21 90 22 91
REMARK H PARENT 81 22 49 33 10 81 10 82 23 92
REMARK Flexibility Score: inf
ROOT
ATOM      1  C   UNL A   1      37.158  21.349  24.418  1.00  0.00     0.275 C 
ENDROOT
BRANCH   1   2
ATOM      2  O   UNL A   1      37.625  21.513  25.772  1.00  0.00    -0.458 OA
BRANCH   2   3
ATOM      3  C   UNL A   1      38.930  21.493  26.095  1.00  0.00     0.338 C 
ATOM      4  O   UNL A   1      39.644  20.525  25.816  1.00  0.00    -0.246 OA
BRANCH   3   5
ATOM      5  C   UNL A   1      39.521  22.720  26.700  1.00  0.00     0.060 A 
ATOM      6  C   UNL A   1      40.529  22.724  27.670  1.00  0.00     0.016 A 
ATOM      7  C   UNL A   1      39.052  23.947  26.224  1.00  0.00     0.016 A 
ATOM      8  C   UNL A   1      41.134  23.925  28.068  1.00  0.00     0.010 A 
ATOM      9  C   UNL A   1      39.690  25.135  26.576  1.00  0.00     0.010 A 
ATOM     10  C   UNL A   1      40.741  25.142  27.502  1.00  0.00    -0.014 A 
BRANCH  10  11
ATOM     11  C   UNL A   1      41.354  26.427  27.929  1.00  0.00     0.031 A 
ATOM     12  C   UNL A   1      42.796  26.694  27.603  1.00  0.00     0.074 A 
ATOM     13  C   UNL A   1      40.657  27.342  28.636  1.00  0.00     0.049 A 
ATOM     14  N   UNL A   1      43.493  27.788  27.781  1.00  0.00    -0.248 NA
ATOM     15  C   UNL A   1      43.570  25.583  27.024  1.00  0.00     0.031 C 
ATOM     16  C   UNL A   1      39.279  27.193  29.098  1.00  0.00     0.029 A 
ATOM     17  N   UNL A   1      41.028  28.578  29.111  1.00  0.00    -0.354 N 
ATOM     18  C   UNL A   1      44.753  27.502  27.282  1.00  0.00     0.074 A 
ATOM     19  C   UNL A   1      44.787  26.093  26.978  1.00  0.00     0.031 C 
ATOM     20  C   UNL A   1      38.936  28.278  29.814  1.00  0.00     0.029 A 
ATOM     21  C   UNL A   1      40.047  29.215  29.830  1.00  0.00     0.049 A 
ATOM     22  H   UNL A   1      41.917  28.970  28.950  1.00  0.00     0.167 HD
ATOM     23  C   UNL A   1      45.754  28.359  26.979  1.00  0.00     0.037 A 
ATOM     24  C   UNL A   1      40.024  30.432  30.409  1.00  0.00     0.037 A 
ATOM     25  C   UNL A   1      45.715  29.760  27.269  1.00  0.00     0.049 A 
ATOM     26  C   UNL A   1      41.181  31.359  30.161  1.00  0.00     0.074 A 
ATOM     27  C   UNL A   1      46.628  30.744  26.942  1.00  0.00     0.029 A 
ATOM     28  N   UNL A   1      44.694  30.375  27.980  1.00  0.00    -0.354 N 
ATOM     29  N   UNL A   1      42.291  31.136  29.500  1.00  0.00    -0.248 NA
ATOM     30  C   UNL A   1      41.055  32.729  30.675  1.00  0.00     0.031 C 
ATOM     31  C   UNL A   1      46.175  31.951  27.489  1.00  0.00     0.029 A 
ATOM     32  C   UNL A   1      44.963  31.723  28.123  1.00  0.00     0.049 A 
ATOM     33  H   UNL A   1      43.896  29.917  28.332  1.00  0.00     0.167 HD
ATOM     34  C   UNL A   1      42.951  32.354  29.438  1.00  0.00     0.074 A 
ATOM     35  C   UNL A   1      42.131  33.307  30.160  1.00  0.00     0.031 C 
ATOM     36  C   UNL A   1      44.113  32.661  28.814  1.00  0.00     0.037 A 
BRANCH  23  37
ATOM     37  C   UNL A   1      46.914  27.771  26.232  1.00  0.00     0.064 A 
ATOM     38  C   UNL A   1      48.058  27.327  26.922  1.00  0.00     0.173 A 
ATOM     39  C   UNL A   1      46.935  27.736  24.833  1.00  0.00     0.173 A 
ATOM     40  F   UNL A   1      48.095  27.366  28.263  1.00  0.00    -0.203 F 
ATOM     41  C   UNL A   1      49.202  26.934  26.236  1.00  0.00     0.198 A 
ATOM     42  C   UNL A   1      48.071  27.308  24.150  1.00  0.00     0.198 A 
ATOM     43  F   UNL A   1      45.872  28.150  24.130  1.00  0.00    -0.203 F 
ATOM     44  F   UNL A   1      50.311  26.611  26.915  1.00  0.00    -0.200 F 
ATOM     45  C   UNL A   1      49.208  26.926  24.850  1.00  0.00     0.200 A 
ATOM     46  F   UNL A   1      48.080  27.297  22.811  1.00  0.00    -0.200 F 
ATOM     47  F   UNL A   1      50.318  26.573  24.188  1.00  0.00    -0.200 F 
ENDBRANCH  23  37
BRANCH  24  48
ATOM     48  C   UNL A   1      38.828  30.889  31.168  1.00  0.00     0.064 A 
ATOM     49  C   UNL A   1      37.767  31.545  30.526  1.00  0.00     0.173 A 
ATOM     50  C   UNL A   1      38.730  30.701  32.554  1.00  0.00     0.173 A 
ATOM     51  F   UNL A   1      37.819  31.761  29.204  1.00  0.00    -0.203 F 
ATOM     52  C   UNL A   1      36.675  32.032  31.244  1.00  0.00     0.198 A 
ATOM     53  C   UNL A   1      37.626  31.167  33.269  1.00  0.00     0.198 A 
ATOM     54  F   UNL A   1      39.706  30.065  33.220  1.00  0.00    -0.203 F 
ATOM     55  F   UNL A   1      35.707  32.709  30.612  1.00  0.00    -0.200 F 
ATOM     56  C   UNL A   1      36.606  31.843  32.617  1.00  0.00     0.200 A 
ATOM     57  F   UNL A   1      37.548  30.957  34.590  1.00  0.00    -0.200 F 
ATOM     58  F   UNL A   1      35.566  32.322  33.312  1.00  0.00    -0.200 F 
ENDBRANCH  24  48
BRANCH  36  59
ATOM     59  C   UNL A   1      44.526  34.101  28.802  1.00  0.00     0.064 A 
ATOM     60  C   UNL A   1      44.100  34.986  27.804  1.00  0.00     0.173 A 
ATOM     61  C   UNL A   1      45.327  34.606  29.837  1.00  0.00     0.173 A 
ATOM     62  F   UNL A   1      43.349  34.543  26.784  1.00  0.00    -0.203 F 
ATOM     63  C   UNL A   1      44.479  36.325  27.831  1.00  0.00     0.198 A 
ATOM     64  C   UNL A   1      45.677  35.950  29.879  1.00  0.00     0.198 A 
ATOM     65  F   UNL A   1      45.757  33.796  30.817  1.00  0.00    -0.203 F 
ATOM     66  F   UNL A   1      44.100  37.145  26.842  1.00  0.00    -0.200 F 
ATOM     67  C   UNL A   1      45.259  36.808  28.872  1.00  0.00     0.200 A 
ATOM     68  F   UNL A   1      46.418  36.417  30.893  1.00  0.00    -0.200 F 
ATOM     69  F   UNL A   1      45.612  38.099  28.902  1.00  0.00    -0.200 F 
ENDBRANCH  36  59
ENDBRANCH  10  11
ENDBRANCH   3   5
ENDBRANCH   2   3
ENDBRANCH   1   2
BRANCH   1  70
ATOM     70  C   UNL A   1      36.809  22.607  23.611  1.00  0.00     0.274 C 
BRANCH  70  71
ATOM     71  O   UNL A   1      35.919  23.536  24.260  1.00  0.00    -0.457 OA
BRANCH  71  72
ATOM     72  C   UNL A   1      34.763  23.794  23.556  1.00  0.00     0.368 C 
ATOM     73  O   UNL A   1      34.560  23.361  22.425  1.00  0.00    -0.245 OA
BRANCH  72  74
ATOM     74  C   UNL A   1      33.825  24.833  24.260  1.00  0.00     0.195 C 
ATOM     75  C   UNL A   1      34.436  25.526  25.483  1.00  0.00     0.081 C 
ATOM     76  C   UNL A   1      33.619  25.944  23.192  1.00  0.00     0.096 C 
ATOM     77  C   UNL A   1      33.584  26.651  26.065  1.00  0.00     0.008 C 
ATOM     78  C   UNL A   1      32.859  27.182  23.696  1.00  0.00     0.061 C 
ATOM     79  C   UNL A   1      33.351  27.741  25.035  1.00  0.00     0.015 C 
BRANCH  74  80
ATOM     80  N   UNL A   1      32.505  24.209  24.571  1.00  0.00    -0.330 N 
ATOM     81  H   UNL A   1      32.168  23.808  23.696  1.00  0.00     0.347 HD
ATOM     82  H   UNL A   1      31.998  24.987  24.993  1.00  0.00     0.347 HD
BRANCH  80  83
ATOM     83  C   UNL A   1      32.349  23.153  25.596  1.00  0.00     0.183 C 
ATOM     84  C   UNL A   1      31.769  23.332  26.974  1.00  0.00     0.071 C 
ATOM     85  C   UNL A   1      30.959  22.672  25.896  1.00  0.00     0.071 C 
ENDBRANCH  80  83
ENDBRANCH  74  80
BRANCH  78  86
ATOM     86  S   UNL A   1      32.781  28.506  22.430  1.00  0.00    -0.083 SA
BRANCH  86  87
ATOM     87  C   UNL A   1      31.104  28.871  22.304  1.00  0.00     0.183 A 
ATOM     88  N   UNL A   1      30.065  28.202  22.738  1.00  0.00    -0.210 NA
ATOM     89  N   UNL A   1      30.694  30.016  21.697  1.00  0.00    -0.254 N 
ATOM     90  C   UNL A   1      29.018  29.008  22.382  1.00  0.00     0.247 A 
ATOM     91  N   UNL A   1      29.349  30.102  21.684  1.00  0.00    -0.162 NA
ATOM     92  H   UNL A   1      31.299  30.694  21.316  1.00  0.00     0.192 HD
ENDBRANCH  86  87
ENDBRANCH  78  86
ENDBRANCH  72  74
ENDBRANCH  71  72
ENDBRANCH  70  71
ENDBRANCH   1  70
TORSDOF 15
ENDMDL
MODEL 3
REMARK VINA RESULT:     -11.9      1.961      3.053
REMARK SMILES O=C(OCCOC(=O)[C@@]1([NH2+]C2CC2)CCC[C@@H](Sc2ncn[nH]2)C1)c1ccc(-c2c3nc(c(-c4c(F)c(F)c(F)c(F)c4F)c4ccc([nH]4)c(-c4c(F)c(F)c(F)c(F)c4F)c4nc(c(-c5c(F)c(F)c(F)c(F)c5F)c5ccc2[nH]5)C=C4)C=C3)cc1
REMARK SMILES IDX 4 1 3 2 2 3 1 4 25 5 26 6 87 7 27 8 86 9 28 10 29 11 30 12
REMARK SMILES IDX 80 13 31 14 85 15 79 16 81 17 32 18 84 19 78 20 77 21 33 23
REMARK SMILES IDX 65 24 45 25 64 26 46 27 49 28 63 29 82 30 47 31 48 32 62 34
REMARK SMILES IDX 83 35 50 36 34 37 35 38 43 39 36 40 37 41 41 42 44 43 38 44
REMARK SMILES IDX 39 45 42 46 40 47 66 48 67 49 75 50 68 51 69 52 73 53 76 54
REMARK SMILES IDX 70 55 71 56 74 57 72 58 51 59 52 60 60 61 53 62 54 63 58 64
REMARK SMILES IDX 61 65 55 66 56 67 59 68 57 69 5 70 6 71 7 72 8 73 9 74 14 75
REMARK SMILES IDX 24 76 15 77 17 78 16 79 10 80 11 83 12 84 13 85 18 86 19 87
REMARK SMILES IDX 20 88 23 89 21 90 22 91
REMARK H PARENT 81 22 49 33 10 81 10 82 23 92
REMARK Flexibility Score: inf
ROOT
ATOM      1  C   UNL A   1      31.745  32.521  27.116  1.00  0.00     0.275 C 
ENDROOT
BRANCH   1   2
ATOM      2  O   UNL A   1      32.635  33.654  27.122  1.00  0.00    -0.458 OA
BRANCH   2   3
ATOM      3  C   UNL A   1      33.236  34.098  28.241  1.00  0.00     0.338 C 
ATOM      4  O   UNL A   1      32.708  34.958  28.952  1.00  0.00    -0.246 OA
BRANCH   3   5
ATOM      5  C   UNL A   1      34.506  33.442  28.662  1.00  0.00     0.060 A 
ATOM      6  C   UNL A   1      35.780  33.823  28.230  1.00  0.00     0.016 A 
ATOM      7  C   UNL A   1      34.401  32.400  29.587  1.00  0.00     0.016 A 
ATOM      8  C   UNL A   1      36.928  33.252  28.797  1.00  0.00     0.010 A 
ATOM      9  C   UNL A   1      35.540  31.873  30.193  1.00  0.00     0.010 A 
ATOM     10  C   UNL A   1      36.821  32.291  29.808  1.00  0.00    -0.014 A 
BRANCH  10  11
ATOM     11  C   UNL A   1      38.025  31.658  30.405  1.00  0.00     0.031 A 
ATOM     12  C   UNL A   1      38.499  32.114  31.756  1.00  0.00     0.074 A 
ATOM     13  C   UNL A   1      38.727  30.712  29.746  1.00  0.00     0.049 A 
ATOM     14  N   UNL A   1      39.454  31.623  32.505  1.00  0.00    -0.248 NA
ATOM     15  C   UNL A   1      37.832  33.292  32.338  1.00  0.00     0.031 C 
ATOM     16  C   UNL A   1      38.442  30.224  28.398  1.00  0.00     0.029 A 
ATOM     17  N   UNL A   1      39.846  30.004  30.119  1.00  0.00    -0.354 N 
ATOM     18  C   UNL A   1      39.450  32.396  33.654  1.00  0.00     0.074 A 
ATOM     19  C   UNL A   1      38.547  33.498  33.430  1.00  0.00     0.031 C 
ATOM     20  C   UNL A   1      39.379  29.325  28.049  1.00  0.00     0.029 A 
ATOM     21  C   UNL A   1      40.304  29.140  29.155  1.00  0.00     0.049 A 
ATOM     22  H   UNL A   1      40.278  30.109  30.997  1.00  0.00     0.167 HD
ATOM     23  C   UNL A   1      40.045  32.145  34.842  1.00  0.00     0.037 A 
ATOM     24  C   UNL A   1      41.331  28.268  29.167  1.00  0.00     0.037 A 
ATOM     25  C   UNL A   1      40.932  31.044  35.068  1.00  0.00     0.049 A 
ATOM     26  C   UNL A   1      42.067  28.053  30.460  1.00  0.00     0.074 A 
ATOM     27  C   UNL A   1      41.533  30.637  36.243  1.00  0.00     0.029 A 
ATOM     28  N   UNL A   1      41.357  30.177  34.073  1.00  0.00    -0.354 N 
ATOM     29  N   UNL A   1      41.907  28.658  31.611  1.00  0.00    -0.248 NA
ATOM     30  C   UNL A   1      43.076  26.985  30.479  1.00  0.00     0.031 C 
ATOM     31  C   UNL A   1      42.353  29.540  35.949  1.00  0.00     0.029 A 
ATOM     32  C   UNL A   1      42.232  29.245  34.600  1.00  0.00     0.049 A 
ATOM     33  H   UNL A   1      41.077  30.218  33.130  1.00  0.00     0.167 HD
ATOM     34  C   UNL A   1      42.722  27.989  32.512  1.00  0.00     0.074 A 
ATOM     35  C   UNL A   1      43.403  26.951  31.764  1.00  0.00     0.031 C 
ATOM     36  C   UNL A   1      42.869  28.196  33.843  1.00  0.00     0.037 A 
BRANCH  23  37
ATOM     37  C   UNL A   1      39.663  33.056  35.970  1.00  0.00     0.064 A 
ATOM     38  C   UNL A   1      40.456  34.174  36.288  1.00  0.00     0.173 A 
ATOM     39  C   UNL A   1      38.569  32.770  36.796  1.00  0.00     0.173 A 
ATOM     40  F   UNL A   1      41.531  34.473  35.541  1.00  0.00    -0.203 F 
ATOM     41  C   UNL A   1      40.208  34.930  37.429  1.00  0.00     0.198 A 
ATOM     42  C   UNL A   1      38.303  33.551  37.918  1.00  0.00     0.198 A 
ATOM     43  F   UNL A   1      37.784  31.715  36.537  1.00  0.00    -0.203 F 
ATOM     44  F   UNL A   1      41.037  35.927  37.763  1.00  0.00    -0.200 F 
ATOM     45  C   UNL A   1      39.132  34.617  38.244  1.00  0.00     0.200 A 
ATOM     46  F   UNL A   1      37.262  33.253  38.707  1.00  0.00    -0.200 F 
ATOM     47  F   UNL A   1      38.907  35.328  39.357  1.00  0.00    -0.200 F 
ENDBRANCH  23  37
BRANCH  24  48
ATOM     48  C   UNL A   1      41.645  27.448  27.964  1.00  0.00     0.064 A 
ATOM     49  C   UNL A   1      41.034  26.203  27.754  1.00  0.00     0.173 A 
ATOM     50  C   UNL A   1      42.577  27.882  27.012  1.00  0.00     0.173 A 
ATOM     51  F   UNL A   1      40.144  25.738  28.643  1.00  0.00    -0.203 F 
ATOM     52  C   UNL A   1      41.374  25.404  26.662  1.00  0.00     0.198 A 
ATOM     53  C   UNL A   1      42.900  27.093  25.907  1.00  0.00     0.198 A 
ATOM     54  F   UNL A   1      43.182  29.072  27.151  1.00  0.00    -0.203 F 
ATOM     55  F   UNL A   1      40.819  24.193  26.521  1.00  0.00    -0.200 F 
ATOM     56  C   UNL A   1      42.308  25.850  25.739  1.00  0.00     0.200 A 
ATOM     57  F   UNL A   1      43.781  27.539  25.001  1.00  0.00    -0.200 F 
ATOM     58  F   UNL A   1      42.648  25.079  24.698  1.00  0.00    -0.200 F 
ENDBRANCH  24  48
BRANCH  36  59
ATOM     59  C   UNL A   1      43.728  27.228  34.597  1.00  0.00     0.064 A 
ATOM     60  C   UNL A   1      45.081  27.481  34.853  1.00  0.00     0.173 A 
ATOM     61  C   UNL A   1      43.166  26.049  35.108  1.00  0.00     0.173 A 
ATOM     62  F   UNL A   1      45.665  28.587  34.368  1.00  0.00    -0.203 F 
ATOM     63  C   UNL A   1      45.849  26.575  35.578  1.00  0.00     0.198 A 
ATOM     64  C   UNL A   1      43.928  25.161  35.859  1.00  0.00     0.198 A 
ATOM     65  F   UNL A   1      41.873  25.765  34.891  1.00  0.00    -0.203 F 
ATOM     66  F   UNL A   1      47.154  26.813  35.772  1.00  0.00    -0.200 F 
ATOM     67  C   UNL A   1      45.271  25.422  36.089  1.00  0.00     0.200 A 
ATOM     68  F   UNL A   1      43.364  24.056  36.363  1.00  0.00    -0.200 F 
ATOM     69  F   UNL A   1      46.010  24.557  36.796  1.00  0.00    -0.200 F 
ENDBRANCH  36  59
ENDBRANCH  10  11
ENDBRANCH   3   5
ENDBRANCH   2   3
ENDBRANCH   1   2
BRANCH   1  70
ATOM     70  C   UNL A   1      32.318  31.147  26.744  1.00  0.00     0.274 C 
BRANCH  70  71
ATOM     71  O   UNL A   1      31.680  30.487  25.632  1.00  0.00    -0.457 OA
BRANCH  71  72
ATOM     72  C   UNL A   1      31.720  29.111  25.695  1.00  0.00     0.368 C 
ATOM     73  O   UNL A   1      31.710  28.492  26.756  1.00  0.00    -0.245 OA
BRANCH  72  74
ATOM     74  C   UNL A   1      31.960  28.431  24.305  1.00  0.00     0.195 C 
ATOM     75  C   UNL A   1      33.424  28.095  23.998  1.00  0.00     0.081 C 
ATOM     76  C   UNL A   1      31.217  27.069  24.415  1.00  0.00     0.096 C 
ATOM     77  C   UNL A   1      33.632  27.287  22.720  1.00  0.00     0.008 C 
ATOM     78  C   UNL A   1      31.440  26.122  23.224  1.00  0.00     0.061 C 
ATOM     79  C   UNL A   1      32.901  25.959  22.792  1.00  0.00     0.015 C 
BRANCH  74  80
ATOM     80  N   UNL A   1      31.331  29.239  23.219  1.00  0.00    -0.330 N 
ATOM     81  H   UNL A   1      31.707  28.877  22.342  1.00  0.00     0.347 HD
ATOM     82  H   UNL A   1      31.557  30.191  23.506  1.00  0.00     0.347 HD
BRANCH  80  83
ATOM     83  C   UNL A   1      29.863  29.316  23.037  1.00  0.00     0.183 C 
ATOM     84  C   UNL A   1      29.006  30.536  23.249  1.00  0.00     0.071 C 
ATOM     85  C   UNL A   1      29.347  30.088  21.857  1.00  0.00     0.071 C 
ENDBRANCH  80  83
ENDBRANCH  74  80
BRANCH  78  86
ATOM     86  S   UNL A   1      30.656  24.485  23.489  1.00  0.00    -0.083 SA
BRANCH  86  87
ATOM     87  C   UNL A   1      31.134  24.042  25.082  1.00  0.00     0.183 A 
ATOM     88  N   UNL A   1      32.316  23.721  25.544  1.00  0.00    -0.210 NA
ATOM     89  N   UNL A   1      30.221  24.011  26.089  1.00  0.00    -0.254 N 
ATOM     90  C   UNL A   1      32.073  23.518  26.875  1.00  0.00     0.247 A 
ATOM     91  N   UNL A   1      30.791  23.621  27.246  1.00  0.00    -0.162 NA
ATOM     92  H   UNL A   1      29.269  24.242  25.986  1.00  0.00     0.192 HD
ENDBRANCH  86  87
ENDBRANCH  78  86
ENDBRANCH  72  74
ENDBRANCH  71  72
ENDBRANCH  70  71
ENDBRANCH   1  70
TORSDOF 15
ENDMDL
