MODEL 1
REMARK VINA RESULT:     -13.2      0.000      0.000
REMARK SMILES O=C(OCCOC(=O)[C@@H]1CN(c2ncccn2)CCN1C(=O)C1CCOCC1)c1ccc(-c2c3nc(c(-c4c(F)c(F)c(F)c(F)c4F)c4ccc([nH]4)c(-c4c(F)c(F)c(F)c(F)c4F)c4nc(c(-c5c(F)c(F)c(F)c(F)c5F)c5ccc2[nH]5)C=C4)C=C3)cc1
REMARK SMILES IDX 4 1 3 2 2 3 1 4 29 5 30 6 91 7 31 8 90 9 32 10 33 11 34 12
REMARK SMILES IDX 84 13 35 14 89 15 83 16 85 17 36 18 88 19 82 20 81 21 37 23
REMARK SMILES IDX 69 24 49 25 68 26 50 27 53 28 67 29 86 30 51 31 52 32 66 34
REMARK SMILES IDX 87 35 54 36 38 37 39 38 47 39 40 40 41 41 45 42 48 43 42 44
REMARK SMILES IDX 43 45 46 46 44 47 70 48 71 49 79 50 72 51 73 52 77 53 80 54
REMARK SMILES IDX 74 55 75 56 78 57 76 58 55 59 56 60 64 61 57 62 58 63 62 64
REMARK SMILES IDX 65 65 59 66 60 67 63 68 61 69 5 70 6 71 7 72 8 73 9 74 10 75
REMARK SMILES IDX 20 76 11 77 19 78 18 79 21 80 22 81 23 82 24 83 28 84 25 85
REMARK SMILES IDX 27 86 26 87 12 88 13 89 17 90 14 91 16 92 15 93
REMARK H PARENT 85 22 53 33
REMARK Flexibility Score: inf
ROOT
ATOM      1  C   UNL A   1      32.076  32.739  26.955  1.00  0.00     0.275 C 
ENDROOT
BRANCH   1   2
ATOM      2  O   UNL A   1      32.610  33.587  27.978  1.00  0.00    -0.458 OA
BRANCH   2   3
ATOM      3  C   UNL A   1      33.883  33.974  28.212  1.00  0.00     0.338 C 
ATOM      4  O   UNL A   1      34.160  35.159  28.033  1.00  0.00    -0.246 OA
BRANCH   3   5
ATOM      5  C   UNL A   1      35.001  33.053  28.614  1.00  0.00     0.060 A 
ATOM      6  C   UNL A   1      34.890  31.743  29.096  1.00  0.00     0.016 A 
ATOM      7  C   UNL A   1      36.298  33.570  28.452  1.00  0.00     0.016 A 
ATOM      8  C   UNL A   1      36.021  30.959  29.347  1.00  0.00     0.010 A 
ATOM      9  C   UNL A   1      37.437  32.804  28.711  1.00  0.00     0.010 A 
ATOM     10  C   UNL A   1      37.296  31.500  29.190  1.00  0.00    -0.014 A 
BRANCH  10  11
ATOM     11  C   UNL A   1      38.427  30.836  29.865  1.00  0.00     0.031 A 
ATOM     12  C   UNL A   1      38.648  31.213  31.299  1.00  0.00     0.074 A 
ATOM     13  C   UNL A   1      39.160  29.882  29.268  1.00  0.00     0.049 A 
ATOM     14  N   UNL A   1      39.500  30.737  32.163  1.00  0.00    -0.248 NA
ATOM     15  C   UNL A   1      37.747  32.247  31.845  1.00  0.00     0.031 C 
ATOM     16  C   UNL A   1      38.937  29.369  27.923  1.00  0.00     0.029 A 
ATOM     17  N   UNL A   1      40.239  29.169  29.721  1.00  0.00    -0.354 N 
ATOM     18  C   UNL A   1      39.214  31.387  33.354  1.00  0.00     0.074 A 
ATOM     19  C   UNL A   1      38.154  32.331  33.097  1.00  0.00     0.031 C 
ATOM     20  C   UNL A   1      39.883  28.461  27.630  1.00  0.00     0.029 A 
ATOM     21  C   UNL A   1      40.768  28.317  28.780  1.00  0.00     0.049 A 
ATOM     22  H   UNL A   1      40.599  29.257  30.633  1.00  0.00     0.167 HD
ATOM     23  C   UNL A   1      39.775  31.191  34.566  1.00  0.00     0.037 A 
ATOM     24  C   UNL A   1      41.846  27.516  28.862  1.00  0.00     0.037 A 
ATOM     25  C   UNL A   1      40.864  30.285  34.785  1.00  0.00     0.049 A 
ATOM     26  C   UNL A   1      42.561  27.430  30.188  1.00  0.00     0.074 A 
ATOM     27  C   UNL A   1      41.561  30.035  35.949  1.00  0.00     0.029 A 
ATOM     28  N   UNL A   1      41.428  29.492  33.792  1.00  0.00    -0.354 N 
ATOM     29  N   UNL A   1      42.275  28.029  31.322  1.00  0.00    -0.248 NA
ATOM     30  C   UNL A   1      43.723  26.537  30.259  1.00  0.00     0.031 C 
ATOM     31  C   UNL A   1      42.591  29.137  35.646  1.00  0.00     0.029 A 
ATOM     32  C   UNL A   1      42.487  28.772  34.312  1.00  0.00     0.049 A 
ATOM     33  H   UNL A   1      41.117  29.449  32.859  1.00  0.00     0.167 HD
ATOM     34  C   UNL A   1      43.181  27.542  32.253  1.00  0.00     0.074 A 
ATOM     35  C   UNL A   1      44.029  26.601  31.547  1.00  0.00     0.031 C 
ATOM     36  C   UNL A   1      43.296  27.831  33.574  1.00  0.00     0.037 A 
BRANCH  23  37
ATOM     37  C   UNL A   1      39.247  32.028  35.691  1.00  0.00     0.064 A 
ATOM     38  C   UNL A   1      39.729  33.325  35.937  1.00  0.00     0.173 A 
ATOM     39  C   UNL A   1      38.309  31.496  36.585  1.00  0.00     0.173 A 
ATOM     40  F   UNL A   1      40.661  33.863  35.134  1.00  0.00    -0.203 F 
ATOM     41  C   UNL A   1      39.319  34.040  37.060  1.00  0.00     0.198 A 
ATOM     42  C   UNL A   1      37.878  32.226  37.689  1.00  0.00     0.198 A 
ATOM     43  F   UNL A   1      37.832  30.255  36.406  1.00  0.00    -0.203 F 
ATOM     44  F   UNL A   1      39.852  35.242  37.318  1.00  0.00    -0.200 F 
ATOM     45  C   UNL A   1      38.393  33.491  37.932  1.00  0.00     0.200 A 
ATOM     46  F   UNL A   1      36.985  31.693  38.534  1.00  0.00    -0.200 F 
ATOM     47  F   UNL A   1      38.011  34.173  39.021  1.00  0.00    -0.200 F 
ENDBRANCH  23  37
BRANCH  24  48
ATOM     48  C   UNL A   1      42.298  26.721  27.686  1.00  0.00     0.064 A 
ATOM     49  C   UNL A   1      41.812  25.427  27.448  1.00  0.00     0.173 A 
ATOM     50  C   UNL A   1      43.260  27.224  26.797  1.00  0.00     0.173 A 
ATOM     51  F   UNL A   1      40.909  24.889  28.281  1.00  0.00    -0.203 F 
ATOM     52  C   UNL A   1      42.290  24.657  26.389  1.00  0.00     0.198 A 
ATOM     53  C   UNL A   1      43.720  26.464  25.721  1.00  0.00     0.198 A 
ATOM     54  F   UNL A   1      43.766  28.453  26.978  1.00  0.00    -0.203 F 
ATOM     55  F   UNL A   1      41.851  23.403  26.223  1.00  0.00    -0.200 F 
ATOM     56  C   UNL A   1      43.242  25.177  25.524  1.00  0.00     0.200 A 
ATOM     57  F   UNL A   1      44.639  26.970  24.887  1.00  0.00    -0.200 F 
ATOM     58  F   UNL A   1      43.712  24.432  24.514  1.00  0.00    -0.200 F 
ENDBRANCH  24  48
BRANCH  36  59
ATOM     59  C   UNL A   1      44.333  27.075  34.350  1.00  0.00     0.064 A 
ATOM     60  C   UNL A   1      45.627  27.575  34.542  1.00  0.00     0.173 A 
ATOM     61  C   UNL A   1      43.999  25.853  34.955  1.00  0.00     0.173 A 
ATOM     62  F   UNL A   1      45.996  28.734  33.975  1.00  0.00    -0.203 F 
ATOM     63  C   UNL A   1      46.562  26.862  35.286  1.00  0.00     0.198 A 
ATOM     64  C   UNL A   1      44.924  25.163  35.731  1.00  0.00     0.198 A 
ATOM     65  F   UNL A   1      42.767  25.339  34.810  1.00  0.00    -0.203 F 
ATOM     66  F   UNL A   1      47.811  27.331  35.412  1.00  0.00    -0.200 F 
ATOM     67  C   UNL A   1      46.207  25.663  35.887  1.00  0.00     0.200 A 
ATOM     68  F   UNL A   1      44.572  24.016  36.328  1.00  0.00    -0.200 F 
ATOM     69  F   UNL A   1      47.106  24.986  36.613  1.00  0.00    -0.200 F 
ENDBRANCH  36  59
ENDBRANCH  10  11
ENDBRANCH   3   5
ENDBRANCH   2   3
ENDBRANCH   1   2
BRANCH   1  70
ATOM     70  C   UNL A   1      32.502  31.281  27.083  1.00  0.00     0.274 C 
BRANCH  70  71
ATOM     71  O   UNL A   1      31.872  30.425  26.110  1.00  0.00    -0.460 OA
BRANCH  71  72
ATOM     72  C   UNL A   1      32.565  29.364  25.608  1.00  0.00     0.330 C 
ATOM     73  O   UNL A   1      33.585  28.899  26.115  1.00  0.00    -0.250 OA
BRANCH  72  74
ATOM     74  C   UNL A   1      31.889  28.842  24.321  1.00  0.00     0.214 C 
ATOM     75  C   UNL A   1      30.618  29.758  24.195  1.00  0.00     0.157 C 
ATOM     76  N   UNL A   1      31.546  27.388  24.099  1.00  0.00    -0.325 N 
ATOM     77  N   UNL A   1      29.861  29.457  22.983  1.00  0.00    -0.336 N 
ATOM     78  C   UNL A   1      30.645  27.180  22.934  1.00  0.00     0.142 C 
ATOM     79  C   UNL A   1      29.413  28.086  22.854  1.00  0.00     0.141 C 
BRANCH  76  80
ATOM     80  C   UNL A   1      32.470  26.346  24.216  1.00  0.00     0.226 C 
ATOM     81  O   UNL A   1      33.593  26.441  23.699  1.00  0.00    -0.275 OA
BRANCH  80  82
ATOM     82  C   UNL A   1      32.162  25.024  24.917  1.00  0.00     0.083 C 
ATOM     83  C   UNL A   1      30.710  24.763  25.303  1.00  0.00     0.042 C 
ATOM     84  C   UNL A   1      33.236  24.687  25.949  1.00  0.00     0.042 C 
ATOM     85  C   UNL A   1      30.487  23.873  26.525  1.00  0.00     0.161 C 
ATOM     86  C   UNL A   1      32.816  23.498  26.786  1.00  0.00     0.161 C 
ATOM     87  O   UNL A   1      31.585  23.799  27.422  1.00  0.00    -0.381 OA
ENDBRANCH  80  82
ENDBRANCH  76  80
BRANCH  77  88
ATOM     88  C   UNL A   1      29.142  30.455  22.374  1.00  0.00     0.225 A 
ATOM     89  N   UNL A   1      28.596  30.248  21.166  1.00  0.00    -0.221 NA
ATOM     90  N   UNL A   1      29.104  31.649  22.987  1.00  0.00    -0.221 NA
ATOM     91  C   UNL A   1      27.976  31.293  20.578  1.00  0.00     0.117 A 
ATOM     92  C   UNL A   1      28.527  32.677  22.339  1.00  0.00     0.117 A 
ATOM     93  C   UNL A   1      27.927  32.553  21.116  1.00  0.00     0.040 A 
ENDBRANCH  77  88
ENDBRANCH  72  74
ENDBRANCH  71  72
ENDBRANCH  70  71
ENDBRANCH   1  70
TORSDOF 14
ENDMDL
MODEL 2
REMARK VINA RESULT:     -13.1      1.204      1.957
REMARK SMILES O=C(OCCOC(=O)[C@@H]1CN(c2ncccn2)CCN1C(=O)C1CCOCC1)c1ccc(-c2c3nc(c(-c4c(F)c(F)c(F)c(F)c4F)c4ccc([nH]4)c(-c4c(F)c(F)c(F)c(F)c4F)c4nc(c(-c5c(F)c(F)c(F)c(F)c5F)c5ccc2[nH]5)C=C4)C=C3)cc1
REMARK SMILES IDX 4 1 3 2 2 3 1 4 29 5 30 6 91 7 31 8 90 9 32 10 33 11 34 12
REMARK SMILES IDX 84 13 35 14 89 15 83 16 85 17 36 18 88 19 82 20 81 21 37 23
REMARK SMILES IDX 69 24 49 25 68 26 50 27 53 28 67 29 86 30 51 31 52 32 66 34
REMARK SMILES IDX 87 35 54 36 38 37 39 38 47 39 40 40 41 41 45 42 48 43 42 44
REMARK SMILES IDX 43 45 46 46 44 47 70 48 71 49 79 50 72 51 73 52 77 53 80 54
REMARK SMILES IDX 74 55 75 56 78 57 76 58 55 59 56 60 64 61 57 62 58 63 62 64
REMARK SMILES IDX 65 65 59 66 60 67 63 68 61 69 5 70 6 71 7 72 8 73 9 74 10 75
REMARK SMILES IDX 20 76 11 77 19 78 18 79 21 80 22 81 23 82 24 83 28 84 25 85
REMARK SMILES IDX 27 86 26 87 12 88 13 89 17 90 14 91 16 92 15 93
REMARK H PARENT 85 22 53 33
REMARK Flexibility Score: inf
ROOT
ATOM      1  C   UNL A   1      31.800  32.340  27.241  1.00  0.00     0.275 C 
ENDROOT
BRANCH   1   2
ATOM      2  O   UNL A   1      32.432  33.625  27.280  1.00  0.00    -0.458 OA
BRANCH   2   3
ATOM      3  C   UNL A   1      33.028  34.271  28.305  1.00  0.00     0.338 C 
ATOM      4  O   UNL A   1      32.528  35.332  28.678  1.00  0.00    -0.246 OA
BRANCH   3   5
ATOM      5  C   UNL A   1      34.291  33.823  28.986  1.00  0.00     0.060 A 
ATOM      6  C   UNL A   1      35.601  34.220  28.693  1.00  0.00     0.016 A 
ATOM      7  C   UNL A   1      34.117  32.928  30.056  1.00  0.00     0.016 A 
ATOM      8  C   UNL A   1      36.685  33.796  29.469  1.00  0.00     0.010 A 
ATOM      9  C   UNL A   1      35.190  32.485  30.833  1.00  0.00     0.010 A 
ATOM     10  C   UNL A   1      36.486  32.899  30.517  1.00  0.00    -0.014 A 
BRANCH  10  11
ATOM     11  C   UNL A   1      37.645  32.139  31.019  1.00  0.00     0.031 A 
ATOM     12  C   UNL A   1      38.099  32.475  32.408  1.00  0.00     0.074 A 
ATOM     13  C   UNL A   1      38.206  31.139  30.320  1.00  0.00     0.049 A 
ATOM     14  N   UNL A   1      39.025  31.919  33.138  1.00  0.00    -0.248 NA
ATOM     15  C   UNL A   1      37.371  33.567  33.083  1.00  0.00     0.031 C 
ATOM     16  C   UNL A   1      37.753  30.667  29.018  1.00  0.00     0.029 A 
ATOM     17  N   UNL A   1      39.278  30.337  30.609  1.00  0.00    -0.354 N 
ATOM     18  C   UNL A   1      38.965  32.571  34.361  1.00  0.00     0.074 A 
ATOM     19  C   UNL A   1      37.959  33.599  34.264  1.00  0.00     0.031 C 
ATOM     20  C   UNL A   1      38.571  29.692  28.588  1.00  0.00     0.029 A 
ATOM     21  C   UNL A   1      39.597  29.461  29.598  1.00  0.00     0.049 A 
ATOM     22  H   UNL A   1      39.772  30.382  31.459  1.00  0.00     0.167 HD
ATOM     23  C   UNL A   1      39.676  32.313  35.479  1.00  0.00     0.037 A 
ATOM     24  C   UNL A   1      40.609  28.576  29.520  1.00  0.00     0.037 A 
ATOM     25  C   UNL A   1      40.710  31.320  35.535  1.00  0.00     0.049 A 
ATOM     26  C   UNL A   1      41.497  28.414  30.729  1.00  0.00     0.074 A 
ATOM     27  C   UNL A   1      41.544  30.998  36.585  1.00  0.00     0.029 A 
ATOM     28  N   UNL A   1      41.060  30.501  34.468  1.00  0.00    -0.354 N 
ATOM     29  N   UNL A   1      41.425  29.015  31.895  1.00  0.00    -0.248 NA
ATOM     30  C   UNL A   1      42.582  27.431  30.628  1.00  0.00     0.031 C 
ATOM     31  C   UNL A   1      42.445  30.027  36.133  1.00  0.00     0.029 A 
ATOM     32  C   UNL A   1      42.122  29.692  34.826  1.00  0.00     0.049 A 
ATOM     33  H   UNL A   1      40.617  30.497  33.589  1.00  0.00     0.167 HD
ATOM     34  C   UNL A   1      42.413  28.444  32.683  1.00  0.00     0.074 A 
ATOM     35  C   UNL A   1      43.074  27.450  31.859  1.00  0.00     0.031 C 
ATOM     36  C   UNL A   1      42.739  28.703  33.975  1.00  0.00     0.037 A 
BRANCH  23  37
ATOM     37  C   UNL A   1      39.384  33.170  36.672  1.00  0.00     0.064 A 
ATOM     38  C   UNL A   1      40.070  34.375  36.902  1.00  0.00     0.173 A 
ATOM     39  C   UNL A   1      38.467  32.742  37.641  1.00  0.00     0.173 A 
ATOM     40  F   UNL A   1      40.989  34.808  36.024  1.00  0.00    -0.203 F 
ATOM     41  C   UNL A   1      39.876  35.097  38.078  1.00  0.00     0.198 A 
ATOM     42  C   UNL A   1      38.253  33.481  38.800  1.00  0.00     0.198 A 
ATOM     43  F   UNL A   1      37.801  31.589  37.478  1.00  0.00    -0.203 F 
ATOM     44  F   UNL A   1      40.599  36.200  38.313  1.00  0.00    -0.200 F 
ATOM     45  C   UNL A   1      38.967  34.650  39.024  1.00  0.00     0.200 A 
ATOM     46  F   UNL A   1      37.376  33.047  39.715  1.00  0.00    -0.200 F 
ATOM     47  F   UNL A   1      38.791  35.336  40.162  1.00  0.00    -0.200 F 
ENDBRANCH  23  37
BRANCH  24  48
ATOM     48  C   UNL A   1      40.822  27.767  28.288  1.00  0.00     0.064 A 
ATOM     49  C   UNL A   1      40.258  26.492  28.145  1.00  0.00     0.173 A 
ATOM     50  C   UNL A   1      41.632  28.237  27.243  1.00  0.00     0.173 A 
ATOM     51  F   UNL A   1      39.494  25.985  29.124  1.00  0.00    -0.203 F 
ATOM     52  C   UNL A   1      40.518  25.706  27.022  1.00  0.00     0.198 A 
ATOM     53  C   UNL A   1      41.873  27.462  26.108  1.00  0.00     0.198 A 
ATOM     54  F   UNL A   1      42.205  29.447  27.327  1.00  0.00    -0.203 F 
ATOM     55  F   UNL A   1      40.014  24.468  26.941  1.00  0.00    -0.200 F 
ATOM     56  C   UNL A   1      41.324  26.193  26.004  1.00  0.00     0.200 A 
ATOM     57  F   UNL A   1      42.650  27.936  25.125  1.00  0.00    -0.200 F 
ATOM     58  F   UNL A   1      41.586  25.432  24.931  1.00  0.00    -0.200 F 
ENDBRANCH  24  48
BRANCH  36  59
ATOM     59  C   UNL A   1      43.812  27.855  34.590  1.00  0.00     0.064 A 
ATOM     60  C   UNL A   1      43.532  26.615  35.180  1.00  0.00     0.173 A 
ATOM     61  C   UNL A   1      45.151  28.273  34.535  1.00  0.00     0.173 A 
ATOM     62  F   UNL A   1      42.266  26.178  35.267  1.00  0.00    -0.203 F 
ATOM     63  C   UNL A   1      44.551  25.839  35.723  1.00  0.00     0.198 A 
ATOM     64  C   UNL A   1      46.171  27.476  35.042  1.00  0.00     0.198 A 
ATOM     65  F   UNL A   1      45.471  29.447  33.968  1.00  0.00    -0.203 F 
ATOM     66  F   UNL A   1      44.256  24.683  36.333  1.00  0.00    -0.200 F 
ATOM     67  C   UNL A   1      45.869  26.265  35.645  1.00  0.00     0.200 A 
ATOM     68  F   UNL A   1      47.445  27.880  34.946  1.00  0.00    -0.200 F 
ATOM     69  F   UNL A   1      46.849  25.509  36.157  1.00  0.00    -0.200 F 
ENDBRANCH  36  59
ENDBRANCH  10  11
ENDBRANCH   3   5
ENDBRANCH   2   3
ENDBRANCH   1   2
BRANCH   1  70
ATOM     70  C   UNL A   1      32.776  31.183  27.052  1.00  0.00     0.274 C 
BRANCH  70  71
ATOM     71  O   UNL A   1      32.182  30.054  26.383  1.00  0.00    -0.460 OA
BRANCH  71  72
ATOM     72  C   UNL A   1      32.988  29.152  25.755  1.00  0.00     0.330 C 
ATOM     73  O   UNL A   1      34.079  28.780  26.184  1.00  0.00    -0.250 OA
BRANCH  72  74
ATOM     74  C   UNL A   1      32.338  28.676  24.438  1.00  0.00     0.214 C 
ATOM     75  C   UNL A   1      30.994  29.492  24.394  1.00  0.00     0.157 C 
ATOM     76  N   UNL A   1      32.112  27.220  24.106  1.00  0.00    -0.325 N 
ATOM     77  N   UNL A   1      30.246  29.223  23.169  1.00  0.00    -0.336 N 
ATOM     78  C   UNL A   1      31.213  27.029  22.936  1.00  0.00     0.142 C 
ATOM     79  C   UNL A   1      29.910  27.833  22.938  1.00  0.00     0.141 C 
BRANCH  76  80
ATOM     80  C   UNL A   1      33.119  26.252  24.134  1.00  0.00     0.226 C 
ATOM     81  O   UNL A   1      33.827  26.054  23.135  1.00  0.00    -0.275 OA
BRANCH  80  82
ATOM     82  C   UNL A   1      33.382  25.347  25.337  1.00  0.00     0.083 C 
ATOM     83  C   UNL A   1      34.639  24.485  25.296  1.00  0.00     0.042 C 
ATOM     84  C   UNL A   1      32.091  24.688  25.819  1.00  0.00     0.042 C 
ATOM     85  C   UNL A   1      34.576  23.165  26.065  1.00  0.00     0.161 C 
ATOM     86  C   UNL A   1      32.390  23.634  26.863  1.00  0.00     0.161 C 
ATOM     87  O   UNL A   1      33.267  22.671  26.301  1.00  0.00    -0.381 OA
ENDBRANCH  80  82
ENDBRANCH  76  80
BRANCH  77  88
ATOM     88  C   UNL A   1      29.439  30.202  22.646  1.00  0.00     0.225 A 
ATOM     89  N   UNL A   1      29.059  30.143  21.360  1.00  0.00    -0.221 NA
ATOM     90  N   UNL A   1      29.145  31.245  23.437  1.00  0.00    -0.221 NA
ATOM     91  C   UNL A   1      28.339  31.177  20.878  1.00  0.00     0.117 A 
ATOM     92  C   UNL A   1      28.476  32.281  22.899  1.00  0.00     0.117 A 
ATOM     93  C   UNL A   1      28.031  32.298  21.605  1.00  0.00     0.040 A 
ENDBRANCH  77  88
ENDBRANCH  72  74
ENDBRANCH  71  72
ENDBRANCH  70  71
ENDBRANCH   1  70
TORSDOF 14
ENDMDL
MODEL 3
REMARK VINA RESULT:     -13.0      5.170     11.005
REMARK SMILES O=C(OCCOC(=O)[C@@H]1CN(c2ncccn2)CCN1C(=O)C1CCOCC1)c1ccc(-c2c3nc(c(-c4c(F)c(F)c(F)c(F)c4F)c4ccc([nH]4)c(-c4c(F)c(F)c(F)c(F)c4F)c4nc(c(-c5c(F)c(F)c(F)c(F)c5F)c5ccc2[nH]5)C=C4)C=C3)cc1
REMARK SMILES IDX 4 1 3 2 2 3 1 4 29 5 30 6 91 7 31 8 90 9 32 10 33 11 34 12
REMARK SMILES IDX 84 13 35 14 89 15 83 16 85 17 36 18 88 19 82 20 81 21 37 23
REMARK SMILES IDX 69 24 49 25 68 26 50 27 53 28 67 29 86 30 51 31 52 32 66 34
REMARK SMILES IDX 87 35 54 36 38 37 39 38 47 39 40 40 41 41 45 42 48 43 42 44
REMARK SMILES IDX 43 45 46 46 44 47 70 48 71 49 79 50 72 51 73 52 77 53 80 54
REMARK SMILES IDX 74 55 75 56 78 57 76 58 55 59 56 60 64 61 57 62 58 63 62 64
REMARK SMILES IDX 65 65 59 66 60 67 63 68 61 69 5 70 6 71 7 72 8 73 9 74 10 75
REMARK SMILES IDX 20 76 11 77 19 78 18 79 21 80 22 81 23 82 24 83 28 84 25 85
REMARK SMILES IDX 27 86 26 87 12 88 13 89 17 90 14 91 16 92 15 93
REMARK H PARENT 85 22 53 33
REMARK Flexibility Score: inf
ROOT
ATOM      1  C   UNL A   1      38.828  19.905  25.048  1.00  0.00     0.275 C 
ENDROOT
BRANCH   1   2
ATOM      2  O   UNL A   1      39.795  19.408  25.982  1.00  0.00    -0.458 OA
BRANCH   2   3
ATOM      3  C   UNL A   1      41.120  19.649  26.074  1.00  0.00     0.338 C 
ATOM      4  O   UNL A   1      41.887  18.728  25.797  1.00  0.00    -0.246 OA
BRANCH   3   5
ATOM      5  C   UNL A   1      41.728  20.938  26.549  1.00  0.00     0.060 A 
ATOM      6  C   UNL A   1      42.069  21.284  27.863  1.00  0.00     0.016 A 
ATOM      7  C   UNL A   1      42.008  21.881  25.545  1.00  0.00     0.016 A 
ATOM      8  C   UNL A   1      42.718  22.487  28.157  1.00  0.00     0.010 A 
ATOM      9  C   UNL A   1      42.645  23.093  25.825  1.00  0.00     0.010 A 
ATOM     10  C   UNL A   1      42.974  23.410  27.145  1.00  0.00    -0.014 A 
BRANCH  10  11
ATOM     11  C   UNL A   1      43.238  24.811  27.522  1.00  0.00     0.031 A 
ATOM     12  C   UNL A   1      44.637  25.299  27.294  1.00  0.00     0.074 A 
ATOM     13  C   UNL A   1      42.269  25.633  27.955  1.00  0.00     0.049 A 
ATOM     14  N   UNL A   1      45.137  26.493  27.448  1.00  0.00    -0.248 NA
ATOM     15  C   UNL A   1      45.597  24.304  26.776  1.00  0.00     0.031 C 
ATOM     16  C   UNL A   1      40.863  25.276  28.090  1.00  0.00     0.029 A 
ATOM     17  N   UNL A   1      42.320  26.942  28.357  1.00  0.00    -0.354 N 
ATOM     18  C   UNL A   1      46.452  26.396  27.016  1.00  0.00     0.074 A 
ATOM     19  C   UNL A   1      46.695  25.023  26.649  1.00  0.00     0.031 C 
ATOM     20  C   UNL A   1      40.185  26.321  28.596  1.00  0.00     0.029 A 
ATOM     21  C   UNL A   1      41.113  27.426  28.803  1.00  0.00     0.049 A 
ATOM     22  H   UNL A   1      43.141  27.483  28.328  1.00  0.00     0.167 HD
ATOM     23  C   UNL A   1      47.369  27.381  26.911  1.00  0.00     0.037 A 
ATOM     24  C   UNL A   1      40.813  28.635  29.314  1.00  0.00     0.037 A 
ATOM     25  C   UNL A   1      47.120  28.729  27.333  1.00  0.00     0.049 A 
ATOM     26  C   UNL A   1      41.901  29.680  29.337  1.00  0.00     0.074 A 
ATOM     27  C   UNL A   1      47.980  29.808  27.337  1.00  0.00     0.029 A 
ATOM     28  N   UNL A   1      45.908  29.169  27.853  1.00  0.00    -0.354 N 
ATOM     29  N   UNL A   1      43.139  29.594  28.907  1.00  0.00    -0.248 NA
ATOM     30  C   UNL A   1      41.546  30.995  29.883  1.00  0.00     0.031 C 
ATOM     31  C   UNL A   1      47.308  30.888  27.920  1.00  0.00     0.029 A 
ATOM     32  C   UNL A   1      46.007  30.501  28.210  1.00  0.00     0.049 A 
ATOM     33  H   UNL A   1      45.100  28.616  27.951  1.00  0.00     0.167 HD
ATOM     34  C   UNL A   1      43.692  30.856  29.074  1.00  0.00     0.074 A 
ATOM     35  C   UNL A   1      42.652  31.687  29.650  1.00  0.00     0.031 C 
ATOM     36  C   UNL A   1      44.938  31.295  28.766  1.00  0.00     0.037 A 
BRANCH  23  37
ATOM     37  C   UNL A   1      48.716  26.988  26.388  1.00  0.00     0.064 A 
ATOM     38  C   UNL A   1      49.050  27.122  25.029  1.00  0.00     0.173 A 
ATOM     39  C   UNL A   1      49.657  26.392  27.238  1.00  0.00     0.173 A 
ATOM     40  F   UNL A   1      48.166  27.648  24.166  1.00  0.00    -0.203 F 
ATOM     41  C   UNL A   1      50.259  26.636  24.537  1.00  0.00     0.198 A 
ATOM     42  C   UNL A   1      50.877  25.935  26.748  1.00  0.00     0.198 A 
ATOM     43  F   UNL A   1      49.380  26.223  28.540  1.00  0.00    -0.203 F 
ATOM     44  F   UNL A   1      50.521  26.702  23.225  1.00  0.00    -0.200 F 
ATOM     45  C   UNL A   1      51.171  26.046  25.397  1.00  0.00     0.200 A 
ATOM     46  F   UNL A   1      51.758  25.363  27.580  1.00  0.00    -0.200 F 
ATOM     47  F   UNL A   1      52.328  25.565  24.921  1.00  0.00    -0.200 F 
ENDBRANCH  23  37
BRANCH  24  48
ATOM     48  C   UNL A   1      39.441  28.933  29.814  1.00  0.00     0.064 A 
ATOM     49  C   UNL A   1      38.481  29.540  28.993  1.00  0.00     0.173 A 
ATOM     50  C   UNL A   1      39.077  28.655  31.140  1.00  0.00     0.173 A 
ATOM     51  F   UNL A   1      38.785  29.849  27.723  1.00  0.00    -0.203 F 
ATOM     52  C   UNL A   1      37.222  29.885  29.484  1.00  0.00     0.198 A 
ATOM     53  C   UNL A   1      37.808  28.976  31.625  1.00  0.00     0.198 A 
ATOM     54  F   UNL A   1      39.957  28.081  31.974  1.00  0.00    -0.203 F 
ATOM     55  F   UNL A   1      36.346  30.518  28.693  1.00  0.00    -0.200 F 
ATOM     56  C   UNL A   1      36.886  29.601  30.799  1.00  0.00     0.200 A 
ATOM     57  F   UNL A   1      37.487  28.699  32.896  1.00  0.00    -0.200 F 
ATOM     58  F   UNL A   1      35.681  29.944  31.275  1.00  0.00    -0.200 F 
ENDBRANCH  24  48
BRANCH  36  59
ATOM     59  C   UNL A   1      45.221  32.752  28.988  1.00  0.00     0.064 A 
ATOM     60  C   UNL A   1      45.817  33.221  30.166  1.00  0.00     0.173 A 
ATOM     61  C   UNL A   1      44.938  33.681  27.974  1.00  0.00     0.173 A 
ATOM     62  F   UNL A   1      46.097  32.372  31.167  1.00  0.00    -0.203 F 
ATOM     63  C   UNL A   1      46.090  34.575  30.335  1.00  0.00     0.198 A 
ATOM     64  C   UNL A   1      45.248  35.027  28.131  1.00  0.00     0.198 A 
ATOM     65  F   UNL A   1      44.379  33.277  26.823  1.00  0.00    -0.203 F 
ATOM     66  F   UNL A   1      46.608  35.011  31.491  1.00  0.00    -0.200 F 
ATOM     67  C   UNL A   1      45.814  35.474  29.315  1.00  0.00     0.200 A 
ATOM     68  F   UNL A   1      45.001  35.889  27.136  1.00  0.00    -0.200 F 
ATOM     69  F   UNL A   1      46.089  36.775  29.476  1.00  0.00    -0.200 F 
ENDBRANCH  36  59
ENDBRANCH  10  11
ENDBRANCH   3   5
ENDBRANCH   2   3
ENDBRANCH   1   2
BRANCH   1  70
ATOM     70  C   UNL A   1      38.250  21.263  25.429  1.00  0.00     0.274 C 
BRANCH  70  71
ATOM     71  O   UNL A   1      36.868  21.410  25.048  1.00  0.00    -0.460 OA
BRANCH  71  72
ATOM     72  C   UNL A   1      36.095  22.330  25.690  1.00  0.00     0.330 C 
ATOM     73  O   UNL A   1      36.530  23.340  26.240  1.00  0.00    -0.250 OA
BRANCH  72  74
ATOM     74  C   UNL A   1      34.607  21.918  25.629  1.00  0.00     0.214 C 
ATOM     75  C   UNL A   1      34.657  20.531  24.892  1.00  0.00     0.157 C 
ATOM     76  N   UNL A   1      33.526  22.807  25.062  1.00  0.00    -0.325 N 
ATOM     77  N   UNL A   1      33.328  19.934  24.786  1.00  0.00    -0.336 N 
ATOM     78  C   UNL A   1      32.244  22.085  24.840  1.00  0.00     0.142 C 
ATOM     79  C   UNL A   1      32.336  20.743  24.109  1.00  0.00     0.141 C 
BRANCH  76  80
ATOM     80  C   UNL A   1      33.300  24.120  25.483  1.00  0.00     0.226 C 
ATOM     81  O   UNL A   1      32.643  24.346  26.511  1.00  0.00    -0.275 OA
BRANCH  80  82
ATOM     82  C   UNL A   1      33.776  25.346  24.706  1.00  0.00     0.083 C 
ATOM     83  C   UNL A   1      33.729  26.689  25.427  1.00  0.00     0.042 C 
ATOM     84  C   UNL A   1      33.281  25.305  23.261  1.00  0.00     0.042 C 
ATOM     85  C   UNL A   1      33.531  27.921  24.545  1.00  0.00     0.161 C 
ATOM     86  C   UNL A   1      33.570  26.616  22.562  1.00  0.00     0.161 C 
ATOM     87  O   UNL A   1      32.939  27.664  23.280  1.00  0.00    -0.381 OA
ENDBRANCH  80  82
ENDBRANCH  76  80
BRANCH  77  88
ATOM     88  C   UNL A   1      33.204  18.568  24.767  1.00  0.00     0.225 A 
ATOM     89  N   UNL A   1      32.521  17.941  25.737  1.00  0.00    -0.221 NA
ATOM     90  N   UNL A   1      33.871  17.903  23.810  1.00  0.00    -0.221 NA
ATOM     91  C   UNL A   1      32.507  16.592  25.713  1.00  0.00     0.117 A 
ATOM     92  C   UNL A   1      33.879  16.558  23.859  1.00  0.00     0.117 A 
ATOM     93  C   UNL A   1      33.194  15.836  24.798  1.00  0.00     0.040 A 
ENDBRANCH  77  88
ENDBRANCH  72  74
ENDBRANCH  71  72
ENDBRANCH  70  71
ENDBRANCH   1  70
TORSDOF 14
ENDMDL
