MODEL 1
REMARK VINA RESULT:     -11.3      0.000      0.000
REMARK SMILES O=C(OCCOC(=O)[C@H]1CC[C@@H]2CCCC[C@H]2[NH2+]1)c1ccc(-c2c3nc(c(-c4c(F)c(F)c(F)c(F)c4F)c4ccc([nH]4)c(-c4c(F)c(F)c(F)c(F)c4F)c4nc(c(-c5c(F)c(F)c(F)c(F)c5F)c5ccc2[nH]5)C=C4)C=C3)cc1
REMARK SMILES IDX 4 1 3 2 2 3 1 4 19 5 20 6 81 7 21 8 80 9 22 10 23 11 24 12
REMARK SMILES IDX 74 13 25 14 79 15 73 16 75 17 26 18 78 19 72 20 71 21 27 23
REMARK SMILES IDX 59 24 39 25 58 26 40 27 43 28 57 29 76 30 41 31 42 32 56 34
REMARK SMILES IDX 77 35 44 36 28 37 29 38 37 39 30 40 31 41 35 42 38 43 32 44
REMARK SMILES IDX 33 45 36 46 34 47 60 48 61 49 69 50 62 51 63 52 67 53 70 54
REMARK SMILES IDX 64 55 65 56 68 57 66 58 45 59 46 60 54 61 47 62 48 63 52 64
REMARK SMILES IDX 55 65 49 66 50 67 53 68 51 69 5 70 6 71 7 72 8 73 9 74 10 75
REMARK SMILES IDX 18 76 11 77 17 78 12 81 16 82 13 83 15 84 14 85
REMARK H PARENT 75 22 43 33 18 79 18 80
REMARK Flexibility Score: inf
ROOT
ATOM      1  C   UNL A   1      41.306  19.842  27.018  1.00  0.00     0.275 C 
ENDROOT
BRANCH   1   2
ATOM      2  O   UNL A   1      41.125  21.088  26.318  1.00  0.00    -0.458 OA
BRANCH   2   3
ATOM      3  C   UNL A   1      40.107  21.964  26.478  1.00  0.00     0.338 C 
ATOM      4  O   UNL A   1      38.966  21.636  26.154  1.00  0.00    -0.246 OA
BRANCH   3   5
ATOM      5  C   UNL A   1      40.330  23.311  27.083  1.00  0.00     0.060 A 
ATOM      6  C   UNL A   1      39.692  24.487  26.678  1.00  0.00     0.016 A 
ATOM      7  C   UNL A   1      41.284  23.395  28.103  1.00  0.00     0.016 A 
ATOM      8  C   UNL A   1      39.946  25.703  27.324  1.00  0.00     0.010 A 
ATOM      9  C   UNL A   1      41.549  24.611  28.735  1.00  0.00     0.010 A 
ATOM     10  C   UNL A   1      40.884  25.782  28.357  1.00  0.00    -0.014 A 
BRANCH  10  11
ATOM     11  C   UNL A   1      41.287  27.114  28.886  1.00  0.00     0.031 A 
ATOM     12  C   UNL A   1      42.725  27.540  28.748  1.00  0.00     0.074 A 
ATOM     13  C   UNL A   1      40.376  27.966  29.397  1.00  0.00     0.049 A 
ATOM     14  N   UNL A   1      43.280  28.698  29.006  1.00  0.00    -0.248 NA
ATOM     15  C   UNL A   1      43.674  26.520  28.273  1.00  0.00     0.031 C 
ATOM     16  C   UNL A   1      38.964  27.660  29.631  1.00  0.00     0.029 A 
ATOM     17  N   UNL A   1      40.495  29.282  29.781  1.00  0.00    -0.354 N 
ATOM     18  C   UNL A   1      44.629  28.537  28.717  1.00  0.00     0.074 A 
ATOM     19  C   UNL A   1      44.830  27.151  28.369  1.00  0.00     0.031 C 
ATOM     20  C   UNL A   1      38.337  28.771  30.061  1.00  0.00     0.029 A 
ATOM     21  C   UNL A   1      39.303  29.865  30.142  1.00  0.00     0.049 A 
ATOM     22  H   UNL A   1      41.355  29.762  29.794  1.00  0.00     0.167 HD
ATOM     23  C   UNL A   1      45.609  29.469  28.676  1.00  0.00     0.037 A 
ATOM     24  C   UNL A   1      39.025  31.144  30.472  1.00  0.00     0.037 A 
ATOM     25  C   UNL A   1      45.409  30.855  28.989  1.00  0.00     0.049 A 
ATOM     26  C   UNL A   1      40.137  32.166  30.429  1.00  0.00     0.074 A 
ATOM     27  C   UNL A   1      46.328  31.886  28.987  1.00  0.00     0.029 A 
ATOM     28  N   UNL A   1      44.186  31.401  29.351  1.00  0.00    -0.354 N 
ATOM     29  N   UNL A   1      41.394  32.013  30.086  1.00  0.00    -0.248 NA
ATOM     30  C   UNL A   1      39.786  33.546  30.801  1.00  0.00     0.031 C 
ATOM     31  C   UNL A   1      45.666  33.056  29.369  1.00  0.00     0.029 A 
ATOM     32  C   UNL A   1      44.327  32.758  29.573  1.00  0.00     0.049 A 
ATOM     33  H   UNL A   1      43.345  30.898  29.436  1.00  0.00     0.167 HD
ATOM     34  C   UNL A   1      41.972  33.274  30.169  1.00  0.00     0.074 A 
ATOM     35  C   UNL A   1      40.924  34.187  30.573  1.00  0.00     0.031 C 
ATOM     36  C   UNL A   1      43.255  33.647  29.942  1.00  0.00     0.037 A 
BRANCH  23  37
ATOM     37  C   UNL A   1      46.968  28.997  28.251  1.00  0.00     0.064 A 
ATOM     38  C   UNL A   1      47.293  28.845  26.893  1.00  0.00     0.173 A 
ATOM     39  C   UNL A   1      47.935  28.642  29.202  1.00  0.00     0.173 A 
ATOM     40  F   UNL A   1      46.391  29.148  25.946  1.00  0.00    -0.203 F 
ATOM     41  C   UNL A   1      48.514  28.302  26.504  1.00  0.00     0.198 A 
ATOM     42  C   UNL A   1      49.170  28.132  28.806  1.00  0.00     0.198 A 
ATOM     43  F   UNL A   1      47.677  28.770  30.511  1.00  0.00    -0.203 F 
ATOM     44  F   UNL A   1      48.766  28.089  25.205  1.00  0.00    -0.200 F 
ATOM     45  C   UNL A   1      49.451  27.949  27.461  1.00  0.00     0.200 A 
ATOM     46  F   UNL A   1      50.081  27.796  29.731  1.00  0.00    -0.200 F 
ATOM     47  F   UNL A   1      50.622  27.413  27.086  1.00  0.00    -0.200 F 
ENDBRANCH  23  37
BRANCH  24  48
ATOM     48  C   UNL A   1      37.638  31.560  30.831  1.00  0.00     0.064 A 
ATOM     49  C   UNL A   1      36.702  31.900  29.842  1.00  0.00     0.173 A 
ATOM     50  C   UNL A   1      37.242  31.695  32.169  1.00  0.00     0.173 A 
ATOM     51  F   UNL A   1      37.035  31.811  28.545  1.00  0.00    -0.203 F 
ATOM     52  C   UNL A   1      35.442  32.396  30.176  1.00  0.00     0.198 A 
ATOM     53  C   UNL A   1      35.970  32.164  32.503  1.00  0.00     0.198 A 
ATOM     54  F   UNL A   1      38.093  31.385  33.157  1.00  0.00    -0.203 F 
ATOM     55  F   UNL A   1      34.596  32.780  29.210  1.00  0.00    -0.200 F 
ATOM     56  C   UNL A   1      35.076  32.527  31.507  1.00  0.00     0.200 A 
ATOM     57  F   UNL A   1      35.618  32.279  33.791  1.00  0.00    -0.200 F 
ATOM     58  F   UNL A   1      33.872  33.018  31.828  1.00  0.00    -0.200 F 
ENDBRANCH  24  48
BRANCH  36  59
ATOM     59  C   UNL A   1      43.590  35.102  30.081  1.00  0.00     0.064 A 
ATOM     60  C   UNL A   1      43.480  35.987  28.999  1.00  0.00     0.173 A 
ATOM     61  C   UNL A   1      43.961  35.628  31.328  1.00  0.00     0.173 A 
ATOM     62  F   UNL A   1      43.141  35.530  27.784  1.00  0.00    -0.203 F 
ATOM     63  C   UNL A   1      43.745  37.344  29.158  1.00  0.00     0.198 A 
ATOM     64  C   UNL A   1      44.195  36.990  31.490  1.00  0.00     0.198 A 
ATOM     65  F   UNL A   1      44.071  34.822  32.396  1.00  0.00    -0.203 F 
ATOM     66  F   UNL A   1      43.671  38.167  28.102  1.00  0.00    -0.200 F 
ATOM     67  C   UNL A   1      44.093  37.846  30.404  1.00  0.00     0.200 A 
ATOM     68  F   UNL A   1      44.516  37.474  32.697  1.00  0.00    -0.200 F 
ATOM     69  F   UNL A   1      44.333  39.155  30.557  1.00  0.00    -0.200 F 
ENDBRANCH  36  59
ENDBRANCH  10  11
ENDBRANCH   3   5
ENDBRANCH   2   3
ENDBRANCH   1   2
BRANCH   1  70
ATOM     70  C   UNL A   1      42.195  18.786  26.353  1.00  0.00     0.274 C 
BRANCH  70  71
ATOM     71  O   UNL A   1      42.659  19.162  25.054  1.00  0.00    -0.458 OA
BRANCH  71  72
ATOM     72  C   UNL A   1      44.003  19.360  24.955  1.00  0.00     0.364 C 
ATOM     73  O   UNL A   1      44.788  18.523  24.520  1.00  0.00    -0.245 OA
BRANCH  72  74
ATOM     74  C   UNL A   1      44.435  20.764  25.412  1.00  0.00     0.293 C 
ATOM     75  C   UNL A   1      45.902  21.020  25.041  1.00  0.00     0.078 C 
ATOM     76  N   UNL A   1      43.537  21.824  24.892  1.00  0.00    -0.332 N 
ATOM     77  C   UNL A   1      46.352  22.403  25.494  1.00  0.00     0.016 C 
ATOM     78  C   UNL A   1      43.948  23.153  25.389  1.00  0.00     0.186 C 
ATOM     79  H   UNL A   1      42.583  21.633  25.198  1.00  0.00     0.347 HD
ATOM     80  H   UNL A   1      43.590  21.825  23.874  1.00  0.00     0.347 HD
ATOM     81  C   UNL A   1      45.394  23.468  24.953  1.00  0.00     0.048 C 
ATOM     82  C   UNL A   1      42.975  24.246  24.914  1.00  0.00     0.065 C 
ATOM     83  C   UNL A   1      45.823  24.868  25.405  1.00  0.00     0.010 C 
ATOM     84  C   UNL A   1      43.432  25.650  25.309  1.00  0.00     0.006 C 
ATOM     85  C   UNL A   1      44.867  25.929  24.873  1.00  0.00     0.001 C 
ENDBRANCH  72  74
ENDBRANCH  71  72
ENDBRANCH  70  71
ENDBRANCH   1  70
TORSDOF 11
ENDMDL
MODEL 2
REMARK VINA RESULT:     -11.1      5.381     12.058
REMARK SMILES O=C(OCCOC(=O)[C@H]1CC[C@@H]2CCCC[C@H]2[NH2+]1)c1ccc(-c2c3nc(c(-c4c(F)c(F)c(F)c(F)c4F)c4ccc([nH]4)c(-c4c(F)c(F)c(F)c(F)c4F)c4nc(c(-c5c(F)c(F)c(F)c(F)c5F)c5ccc2[nH]5)C=C4)C=C3)cc1
REMARK SMILES IDX 4 1 3 2 2 3 1 4 19 5 20 6 81 7 21 8 80 9 22 10 23 11 24 12
REMARK SMILES IDX 74 13 25 14 79 15 73 16 75 17 26 18 78 19 72 20 71 21 27 23
REMARK SMILES IDX 59 24 39 25 58 26 40 27 43 28 57 29 76 30 41 31 42 32 56 34
REMARK SMILES IDX 77 35 44 36 28 37 29 38 37 39 30 40 31 41 35 42 38 43 32 44
REMARK SMILES IDX 33 45 36 46 34 47 60 48 61 49 69 50 62 51 63 52 67 53 70 54
REMARK SMILES IDX 64 55 65 56 68 57 66 58 45 59 46 60 54 61 47 62 48 63 52 64
REMARK SMILES IDX 55 65 49 66 50 67 53 68 51 69 5 70 6 71 7 72 8 73 9 74 10 75
REMARK SMILES IDX 18 76 11 77 17 78 12 81 16 82 13 83 15 84 14 85
REMARK H PARENT 75 22 43 33 18 79 18 80
REMARK Flexibility Score: inf
ROOT
ATOM      1  C   UNL A   1      33.394  34.932  28.233  1.00  0.00     0.275 C 
ENDROOT
BRANCH   1   2
ATOM      2  O   UNL A   1      34.617  34.175  28.168  1.00  0.00    -0.458 OA
BRANCH   2   3
ATOM      3  C   UNL A   1      34.730  32.834  28.030  1.00  0.00     0.338 C 
ATOM      4  O   UNL A   1      33.788  32.189  27.570  1.00  0.00    -0.246 OA
BRANCH   3   5
ATOM      5  C   UNL A   1      35.993  32.120  28.385  1.00  0.00     0.060 A 
ATOM      6  C   UNL A   1      36.147  30.731  28.415  1.00  0.00     0.016 A 
ATOM      7  C   UNL A   1      37.085  32.914  28.753  1.00  0.00     0.016 A 
ATOM      8  C   UNL A   1      37.381  30.151  28.734  1.00  0.00     0.010 A 
ATOM      9  C   UNL A   1      38.310  32.334  29.088  1.00  0.00     0.010 A 
ATOM     10  C   UNL A   1      38.477  30.946  29.082  1.00  0.00    -0.014 A 
BRANCH  10  11
ATOM     11  C   UNL A   1      39.711  30.306  29.616  1.00  0.00     0.031 A 
ATOM     12  C   UNL A   1      40.202  30.713  30.980  1.00  0.00     0.074 A 
ATOM     13  C   UNL A   1      40.332  29.319  28.940  1.00  0.00     0.049 A 
ATOM     14  N   UNL A   1      41.165  30.202  31.706  1.00  0.00    -0.248 NA
ATOM     15  C   UNL A   1      39.531  31.863  31.609  1.00  0.00     0.031 C 
ATOM     16  C   UNL A   1      39.989  28.866  27.592  1.00  0.00     0.029 A 
ATOM     17  N   UNL A   1      41.366  28.491  29.313  1.00  0.00    -0.354 N 
ATOM     18  C   UNL A   1      41.201  30.965  32.866  1.00  0.00     0.074 A 
ATOM     19  C   UNL A   1      40.244  32.033  32.707  1.00  0.00     0.031 C 
ATOM     20  C   UNL A   1      40.757  27.807  27.274  1.00  0.00     0.029 A 
ATOM     21  C   UNL A   1      41.652  27.511  28.391  1.00  0.00     0.049 A 
ATOM     22  H   UNL A   1      41.855  28.591  30.162  1.00  0.00     0.167 HD
ATOM     23  C   UNL A   1      41.917  30.762  33.997  1.00  0.00     0.037 A 
ATOM     24  C   UNL A   1      42.517  26.478  28.460  1.00  0.00     0.037 A 
ATOM     25  C   UNL A   1      42.845  29.684  34.174  1.00  0.00     0.049 A 
ATOM     26  C   UNL A   1      43.312  26.276  29.729  1.00  0.00     0.074 A 
ATOM     27  C   UNL A   1      43.628  29.384  35.272  1.00  0.00     0.029 A 
ATOM     28  N   UNL A   1      43.103  28.715  33.215  1.00  0.00    -0.354 N 
ATOM     29  N   UNL A   1      43.285  26.965  30.845  1.00  0.00    -0.248 NA
ATOM     30  C   UNL A   1      44.246  25.139  29.755  1.00  0.00     0.031 C 
ATOM     31  C   UNL A   1      44.378  28.244  34.971  1.00  0.00     0.029 A 
ATOM     32  C   UNL A   1      44.034  27.814  33.698  1.00  0.00     0.049 A 
ATOM     33  H   UNL A   1      42.686  28.676  32.324  1.00  0.00     0.167 HD
ATOM     34  C   UNL A   1      44.168  26.330  31.711  1.00  0.00     0.074 A 
ATOM     35  C   UNL A   1      44.698  25.187  31.000  1.00  0.00     0.031 C 
ATOM     36  C   UNL A   1      44.518  26.664  32.977  1.00  0.00     0.037 A 
BRANCH  23  37
ATOM     37  C   UNL A   1      41.682  31.727  35.122  1.00  0.00     0.064 A 
ATOM     38  C   UNL A   1      40.578  31.589  35.980  1.00  0.00     0.173 A 
ATOM     39  C   UNL A   1      42.530  32.826  35.314  1.00  0.00     0.173 A 
ATOM     40  F   UNL A   1      39.724  30.565  35.820  1.00  0.00    -0.203 F 
ATOM     41  C   UNL A   1      40.301  32.545  36.952  1.00  0.00     0.198 A 
ATOM     42  C   UNL A   1      42.268  33.763  36.311  1.00  0.00     0.198 A 
ATOM     43  F   UNL A   1      43.599  33.004  34.524  1.00  0.00    -0.203 F 
ATOM     44  F   UNL A   1      39.196  32.434  37.702  1.00  0.00    -0.200 F 
ATOM     45  C   UNL A   1      41.147  33.630  37.118  1.00  0.00     0.200 A 
ATOM     46  F   UNL A   1      43.090  34.810  36.478  1.00  0.00    -0.200 F 
ATOM     47  F   UNL A   1      40.872  34.559  38.045  1.00  0.00    -0.200 F 
ENDBRANCH  23  37
BRANCH  24  48
ATOM     48  C   UNL A   1      42.661  25.520  27.326  1.00  0.00     0.064 A 
ATOM     49  C   UNL A   1      41.812  24.410  27.199  1.00  0.00     0.173 A 
ATOM     50  C   UNL A   1      43.694  25.653  26.386  1.00  0.00     0.173 A 
ATOM     51  F   UNL A   1      40.820  24.220  28.082  1.00  0.00    -0.203 F 
ATOM     52  C   UNL A   1      42.014  23.452  26.204  1.00  0.00     0.198 A 
ATOM     53  C   UNL A   1      43.877  24.710  25.374  1.00  0.00     0.198 A 
ATOM     54  F   UNL A   1      44.536  26.693  26.457  1.00  0.00    -0.203 F 
ATOM     55  F   UNL A   1      41.230  22.366  26.153  1.00  0.00    -0.200 F 
ATOM     56  C   UNL A   1      43.046  23.604  25.292  1.00  0.00     0.200 A 
ATOM     57  F   UNL A   1      44.871  24.866  24.488  1.00  0.00    -0.200 F 
ATOM     58  F   UNL A   1      43.250  22.676  24.347  1.00  0.00    -0.200 F 
ENDBRANCH  24  48
BRANCH  36  59
ATOM     59  C   UNL A   1      45.483  25.766  33.691  1.00  0.00     0.064 A 
ATOM     60  C   UNL A   1      46.865  25.998  33.655  1.00  0.00     0.173 A 
ATOM     61  C   UNL A   1      45.013  24.702  34.475  1.00  0.00     0.173 A 
ATOM     62  F   UNL A   1      47.364  26.996  32.909  1.00  0.00    -0.203 F 
ATOM     63  C   UNL A   1      47.744  25.185  34.366  1.00  0.00     0.198 A 
ATOM     64  C   UNL A   1      45.892  23.910  35.208  1.00  0.00     0.198 A 
ATOM     65  F   UNL A   1      43.698  24.445  34.548  1.00  0.00    -0.203 F 
ATOM     66  F   UNL A   1      49.065  25.400  34.287  1.00  0.00    -0.200 F 
ATOM     67  C   UNL A   1      47.256  24.149  35.148  1.00  0.00     0.200 A 
ATOM     68  F   UNL A   1      45.417  22.919  35.976  1.00  0.00    -0.200 F 
ATOM     69  F   UNL A   1      48.103  23.377  35.843  1.00  0.00    -0.200 F 
ENDBRANCH  36  59
ENDBRANCH  10  11
ENDBRANCH   3   5
ENDBRANCH   2   3
ENDBRANCH   1   2
BRANCH   1  70
ATOM     70  C   UNL A   1      33.349  36.109  29.215  1.00  0.00     0.274 C 
BRANCH  70  71
ATOM     71  O   UNL A   1      32.234  36.065  30.110  1.00  0.00    -0.458 OA
BRANCH  71  72
ATOM     72  C   UNL A   1      32.545  36.218  31.427  1.00  0.00     0.364 C 
ATOM     73  O   UNL A   1      31.835  36.810  32.234  1.00  0.00    -0.245 OA
BRANCH  72  74
ATOM     74  C   UNL A   1      33.868  35.533  31.812  1.00  0.00     0.293 C 
ATOM     75  C   UNL A   1      34.292  35.943  33.229  1.00  0.00     0.078 C 
ATOM     76  N   UNL A   1      33.802  34.059  31.656  1.00  0.00    -0.332 N 
ATOM     77  C   UNL A   1      35.606  35.282  33.624  1.00  0.00     0.016 C 
ATOM     78  C   UNL A   1      35.101  33.436  31.983  1.00  0.00     0.186 C 
ATOM     79  H   UNL A   1      33.558  33.836  30.691  1.00  0.00     0.347 HD
ATOM     80  H   UNL A   1      33.095  33.695  32.295  1.00  0.00     0.347 HD
ATOM     81  C   UNL A   1      35.506  33.765  33.435  1.00  0.00     0.048 C 
ATOM     82  C   UNL A   1      35.059  31.916  31.751  1.00  0.00     0.065 C 
ATOM     83  C   UNL A   1      36.821  33.079  33.819  1.00  0.00     0.010 C 
ATOM     84  C   UNL A   1      36.347  31.219  32.190  1.00  0.00     0.006 C 
ATOM     85  C   UNL A   1      36.726  31.570  33.626  1.00  0.00     0.001 C 
ENDBRANCH  72  74
ENDBRANCH  71  72
ENDBRANCH  70  71
ENDBRANCH   1  70
TORSDOF 11
ENDMDL
MODEL 3
REMARK VINA RESULT:     -11.1      5.216     11.944
REMARK SMILES O=C(OCCOC(=O)[C@H]1CC[C@@H]2CCCC[C@H]2[NH2+]1)c1ccc(-c2c3nc(c(-c4c(F)c(F)c(F)c(F)c4F)c4ccc([nH]4)c(-c4c(F)c(F)c(F)c(F)c4F)c4nc(c(-c5c(F)c(F)c(F)c(F)c5F)c5ccc2[nH]5)C=C4)C=C3)cc1
REMARK SMILES IDX 4 1 3 2 2 3 1 4 19 5 20 6 81 7 21 8 80 9 22 10 23 11 24 12
REMARK SMILES IDX 74 13 25 14 79 15 73 16 75 17 26 18 78 19 72 20 71 21 27 23
REMARK SMILES IDX 59 24 39 25 58 26 40 27 43 28 57 29 76 30 41 31 42 32 56 34
REMARK SMILES IDX 77 35 44 36 28 37 29 38 37 39 30 40 31 41 35 42 38 43 32 44
REMARK SMILES IDX 33 45 36 46 34 47 60 48 61 49 69 50 62 51 63 52 67 53 70 54
REMARK SMILES IDX 64 55 65 56 68 57 66 58 45 59 46 60 54 61 47 62 48 63 52 64
REMARK SMILES IDX 55 65 49 66 50 67 53 68 51 69 5 70 6 71 7 72 8 73 9 74 10 75
REMARK SMILES IDX 18 76 11 77 17 78 12 81 16 82 13 83 15 84 14 85
REMARK H PARENT 75 22 43 33 18 79 18 80
REMARK Flexibility Score: inf
ROOT
ATOM      1  C   UNL A   1      33.179  33.986  27.989  1.00  0.00     0.275 C 
ENDROOT
BRANCH   1   2
ATOM      2  O   UNL A   1      34.425  33.269  27.904  1.00  0.00    -0.458 OA
BRANCH   2   3
ATOM      3  C   UNL A   1      34.580  31.929  27.807  1.00  0.00     0.338 C 
ATOM      4  O   UNL A   1      33.651  31.238  27.388  1.00  0.00    -0.246 OA
BRANCH   3   5
ATOM      5  C   UNL A   1      35.873  31.269  28.158  1.00  0.00     0.060 A 
ATOM      6  C   UNL A   1      36.063  29.889  28.276  1.00  0.00     0.016 A 
ATOM      7  C   UNL A   1      36.958  32.110  28.428  1.00  0.00     0.016 A 
ATOM      8  C   UNL A   1      37.323  29.360  28.583  1.00  0.00     0.010 A 
ATOM      9  C   UNL A   1      38.209  31.582  28.752  1.00  0.00     0.010 A 
ATOM     10  C   UNL A   1      38.411  30.201  28.833  1.00  0.00    -0.014 A 
BRANCH  10  11
ATOM     11  C   UNL A   1      39.679  29.626  29.359  1.00  0.00     0.031 A 
ATOM     12  C   UNL A   1      40.182  30.095  30.699  1.00  0.00     0.074 A 
ATOM     13  C   UNL A   1      40.325  28.643  28.701  1.00  0.00     0.049 A 
ATOM     14  N   UNL A   1      41.180  29.645  31.419  1.00  0.00    -0.248 NA
ATOM     15  C   UNL A   1      39.480  31.237  31.307  1.00  0.00     0.031 C 
ATOM     16  C   UNL A   1      39.972  28.134  27.376  1.00  0.00     0.029 A 
ATOM     17  N   UNL A   1      41.398  27.868  29.076  1.00  0.00    -0.354 N 
ATOM     18  C   UNL A   1      41.210  30.445  32.554  1.00  0.00     0.074 A 
ATOM     19  C   UNL A   1      40.209  31.470  32.383  1.00  0.00     0.031 C 
ATOM     20  C   UNL A   1      40.774  27.096  27.073  1.00  0.00     0.029 A 
ATOM     21  C   UNL A   1      41.703  26.870  28.179  1.00  0.00     0.049 A 
ATOM     22  H   UNL A   1      41.900  28.013  29.910  1.00  0.00     0.167 HD
ATOM     23  C   UNL A   1      41.956  30.307  33.674  1.00  0.00     0.037 A 
ATOM     24  C   UNL A   1      42.610  25.874  28.261  1.00  0.00     0.037 A 
ATOM     25  C   UNL A   1      42.930  29.271  33.864  1.00  0.00     0.049 A 
ATOM     26  C   UNL A   1      43.438  25.744  29.518  1.00  0.00     0.074 A 
ATOM     27  C   UNL A   1      43.747  29.037  34.954  1.00  0.00     0.029 A 
ATOM     28  N   UNL A   1      43.206  28.283  32.930  1.00  0.00    -0.354 N 
ATOM     29  N   UNL A   1      43.407  26.467  30.613  1.00  0.00    -0.248 NA
ATOM     30  C   UNL A   1      44.417  24.645  29.559  1.00  0.00     0.031 C 
ATOM     31  C   UNL A   1      44.534  27.918  34.671  1.00  0.00     0.029 A 
ATOM     32  C   UNL A   1      44.181  27.434  33.421  1.00  0.00     0.049 A 
ATOM     33  H   UNL A   1      42.773  28.199  32.051  1.00  0.00     0.167 HD
ATOM     34  C   UNL A   1      44.332  25.894  31.478  1.00  0.00     0.074 A 
ATOM     35  C   UNL A   1      44.892  24.750  30.792  1.00  0.00     0.031 C 
ATOM     36  C   UNL A   1      44.695  26.282  32.725  1.00  0.00     0.037 A 
BRANCH  23  37
ATOM     37  C   UNL A   1      41.708  31.297  34.774  1.00  0.00     0.064 A 
ATOM     38  C   UNL A   1      40.600  31.171  35.629  1.00  0.00     0.173 A 
ATOM     39  C   UNL A   1      42.545  32.408  34.943  1.00  0.00     0.173 A 
ATOM     40  F   UNL A   1      39.756  30.136  35.490  1.00  0.00    -0.203 F 
ATOM     41  C   UNL A   1      40.310  32.149  36.576  1.00  0.00     0.198 A 
ATOM     42  C   UNL A   1      42.270  33.367  35.915  1.00  0.00     0.198 A 
ATOM     43  F   UNL A   1      43.617  32.575  34.155  1.00  0.00    -0.203 F 
ATOM     44  F   UNL A   1      39.201  32.047  37.322  1.00  0.00    -0.200 F 
ATOM     45  C   UNL A   1      41.146  33.244  36.719  1.00  0.00     0.200 A 
ATOM     46  F   UNL A   1      43.082  34.424  36.060  1.00  0.00    -0.200 F 
ATOM     47  F   UNL A   1      40.858  34.193  37.621  1.00  0.00    -0.200 F 
ENDBRANCH  23  37
BRANCH  24  48
ATOM     48  C   UNL A   1      42.767  24.887  27.154  1.00  0.00     0.064 A 
ATOM     49  C   UNL A   1      41.982  23.726  27.097  1.00  0.00     0.173 A 
ATOM     50  C   UNL A   1      43.754  25.047  26.171  1.00  0.00     0.173 A 
ATOM     51  F   UNL A   1      41.037  23.510  28.025  1.00  0.00    -0.203 F 
ATOM     52  C   UNL A   1      42.202  22.747  26.128  1.00  0.00     0.198 A 
ATOM     53  C   UNL A   1      43.955  24.081  25.183  1.00  0.00     0.198 A 
ATOM     54  F   UNL A   1      44.536  26.136  26.174  1.00  0.00    -0.203 F 
ATOM     55  F   UNL A   1      41.483  21.616  26.143  1.00  0.00    -0.200 F 
ATOM     56  C   UNL A   1      43.189  22.926  25.171  1.00  0.00     0.200 A 
ATOM     57  F   UNL A   1      44.904  24.263  24.254  1.00  0.00    -0.200 F 
ATOM     58  F   UNL A   1      43.411  21.979  24.250  1.00  0.00    -0.200 F 
ENDBRANCH  24  48
BRANCH  36  59
ATOM     59  C   UNL A   1      45.709  25.445  33.445  1.00  0.00     0.064 A 
ATOM     60  C   UNL A   1      45.327  24.385  34.280  1.00  0.00     0.173 A 
ATOM     61  C   UNL A   1      47.080  25.663  33.241  1.00  0.00     0.173 A 
ATOM     62  F   UNL A   1      44.028  24.145  34.516  1.00  0.00    -0.203 F 
ATOM     63  C   UNL A   1      46.283  23.585  34.900  1.00  0.00     0.198 A 
ATOM     64  C   UNL A   1      48.032  24.841  33.838  1.00  0.00     0.198 A 
ATOM     65  F   UNL A   1      47.496  26.658  32.443  1.00  0.00    -0.203 F 
ATOM     66  F   UNL A   1      45.897  22.602  35.725  1.00  0.00    -0.200 F 
ATOM     67  C   UNL A   1      47.633  23.808  34.671  1.00  0.00     0.200 A 
ATOM     68  F   UNL A   1      49.335  25.048  33.604  1.00  0.00    -0.200 F 
ATOM     69  F   UNL A   1      48.551  23.027  35.257  1.00  0.00    -0.200 F 
ENDBRANCH  36  59
ENDBRANCH  10  11
ENDBRANCH   3   5
ENDBRANCH   2   3
ENDBRANCH   1   2
BRANCH   1  70
ATOM     70  C   UNL A   1      33.161  35.263  28.836  1.00  0.00     0.274 C 
BRANCH  70  71
ATOM     71  O   UNL A   1      32.504  35.105  30.097  1.00  0.00    -0.458 OA
BRANCH  71  72
ATOM     72  C   UNL A   1      33.066  35.791  31.131  1.00  0.00     0.364 C 
ATOM     73  O   UNL A   1      32.591  36.815  31.611  1.00  0.00    -0.245 OA
BRANCH  72  74
ATOM     74  C   UNL A   1      34.346  35.125  31.665  1.00  0.00     0.293 C 
ATOM     75  C   UNL A   1      34.639  35.595  33.095  1.00  0.00     0.078 C 
ATOM     76  N   UNL A   1      34.291  33.645  31.566  1.00  0.00    -0.332 N 
ATOM     77  C   UNL A   1      35.909  34.953  33.638  1.00  0.00     0.016 C 
ATOM     78  C   UNL A   1      35.552  33.039  32.038  1.00  0.00     0.186 C 
ATOM     79  H   UNL A   1      34.136  33.381  30.593  1.00  0.00     0.347 HD
ATOM     80  H   UNL A   1      33.527  33.308  32.152  1.00  0.00     0.347 HD
ATOM     81  C   UNL A   1      35.823  33.429  33.506  1.00  0.00     0.048 C 
ATOM     82  C   UNL A   1      35.528  31.510  31.868  1.00  0.00     0.065 C 
ATOM     83  C   UNL A   1      37.095  32.763  34.038  1.00  0.00     0.010 C 
ATOM     84  C   UNL A   1      36.767  30.834  32.453  1.00  0.00     0.006 C 
ATOM     85  C   UNL A   1      37.014  31.246  33.901  1.00  0.00     0.001 C 
ENDBRANCH  72  74
ENDBRANCH  71  72
ENDBRANCH  70  71
ENDBRANCH   1  70
TORSDOF 11
ENDMDL
