MODEL 1
REMARK VINA RESULT:      -9.9      0.000      0.000
REMARK SMILES C#CCN(CC(=O)OCCOC(=O)c1ccc(-c2c3nc(c(-c4c(F)c(F)c(F)c(F)c4F)c4ccc([nH]4)c(-c4c(F)c(F)c(F)c(F)c4F)c4nc(c(-c5c(F)c(F)c(F)c(F)c5F)c5ccc2[nH]5)C=C4)C=C3)cc1)C(=O)N(C)[C@H](C)c1cccs1
REMARK SMILES IDX 8 1 6 2 7 3 5 4 4 5 3 6 2 7 1 8 77 9 78 10 79 11 80 12 81 13
REMARK SMILES IDX 82 14 83 15 84 16 87 17 85 18 86 19 9 20 10 21 11 22 12 23
REMARK SMILES IDX 13 24 14 25 15 26 76 27 16 28 75 29 17 30 18 31 19 32 69 33
REMARK SMILES IDX 20 34 74 35 68 36 70 37 21 38 73 39 67 40 66 41 22 43 54 44
REMARK SMILES IDX 34 45 53 46 35 47 38 48 52 49 71 50 36 51 37 52 51 54 72 55
REMARK SMILES IDX 39 56 23 57 24 58 32 59 25 60 26 61 30 62 33 63 27 64 28 65
REMARK SMILES IDX 31 66 29 67 55 68 56 69 64 70 57 71 58 72 62 73 65 74 59 75
REMARK SMILES IDX 60 76 63 77 61 78 40 79 41 80 49 81 42 82 43 83 47 84 50 85
REMARK SMILES IDX 44 86 45 87 48 88 46 89
REMARK H PARENT 70 42 38 53
REMARK Flexibility Score: inf
ROOT
ATOM      1  O   UNL A   1      32.639  29.681  24.290  1.00  0.00    -0.461 OA
ENDROOT
BRANCH   1   2
ATOM      2  C   UNL A   1      32.785  28.717  23.344  1.00  0.00     0.325 C 
ATOM      3  O   UNL A   1      33.458  28.837  22.324  1.00  0.00    -0.250 OA
BRANCH   2   4
ATOM      4  C   UNL A   1      32.247  27.362  23.782  1.00  0.00     0.245 C 
BRANCH   4   5
ATOM      5  N   UNL A   1      33.163  26.402  24.380  1.00  0.00    -0.302 N 
BRANCH   5   6
ATOM      6  C   UNL A   1      33.672  26.734  25.707  1.00  0.00     0.211 C 
BRANCH   6   7
ATOM      7  C   UNL A   1      32.448  27.085  26.538  1.00  0.00    -0.085 C 
ATOM      8  C   UNL A   1      31.399  27.386  27.251  1.00  0.00     0.006 C 
ENDBRANCH   6   7
ENDBRANCH   5   6
BRANCH   5   9
ATOM      9  C   UNL A   1      33.640  25.238  23.790  1.00  0.00     0.321 C 
ATOM     10  O   UNL A   1      33.956  25.248  22.598  1.00  0.00    -0.248 OA
BRANCH   9  11
ATOM     11  N   UNL A   1      33.870  24.128  24.600  1.00  0.00    -0.320 N 
ATOM     12  C   UNL A   1      35.156  23.433  24.604  1.00  0.00     0.149 C 
BRANCH  11  13
ATOM     13  C   UNL A   1      32.746  23.285  25.080  1.00  0.00     0.124 C 
ATOM     14  C   UNL A   1      32.688  23.191  26.609  1.00  0.00     0.037 C 
BRANCH  13  15
ATOM     15  C   UNL A   1      32.637  21.918  24.433  1.00  0.00     0.027 A 
ATOM     16  C   UNL A   1      32.743  20.660  25.001  1.00  0.00     0.017 A 
ATOM     17  S   UNL A   1      32.150  21.790  22.783  1.00  0.00    -0.147 S 
ATOM     18  C   UNL A   1      32.529  19.605  24.069  1.00  0.00     0.012 A 
ATOM     19  C   UNL A   1      32.232  20.083  22.816  1.00  0.00     0.065 A 
ENDBRANCH  13  15
ENDBRANCH  11  13
ENDBRANCH   9  11
ENDBRANCH   5   9
ENDBRANCH   4   5
ENDBRANCH   2   4
ENDBRANCH   1   2
BRANCH   1  20
ATOM     20  C   UNL A   1      31.276  30.000  24.627  1.00  0.00     0.274 C 
BRANCH  20  21
ATOM     21  C   UNL A   1      31.202  31.010  25.778  1.00  0.00     0.275 C 
BRANCH  21  22
ATOM     22  O   UNL A   1      32.128  30.683  26.837  1.00  0.00    -0.458 OA
BRANCH  22  23
ATOM     23  C   UNL A   1      32.861  31.739  27.260  1.00  0.00     0.338 C 
ATOM     24  O   UNL A   1      32.519  32.907  27.245  1.00  0.00    -0.246 OA
BRANCH  23  25
ATOM     25  C   UNL A   1      34.178  31.348  27.790  1.00  0.00     0.060 A 
ATOM     26  C   UNL A   1      34.513  30.005  27.956  1.00  0.00     0.016 A 
ATOM     27  C   UNL A   1      35.004  32.347  28.314  1.00  0.00     0.016 A 
ATOM     28  C   UNL A   1      35.621  29.664  28.734  1.00  0.00     0.010 A 
ATOM     29  C   UNL A   1      36.171  32.003  29.002  1.00  0.00     0.010 A 
ATOM     30  C   UNL A   1      36.476  30.656  29.249  1.00  0.00    -0.014 A 
BRANCH  30  31
ATOM     31  C   UNL A   1      37.701  30.277  30.005  1.00  0.00     0.031 A 
ATOM     32  C   UNL A   1      38.782  29.433  29.384  1.00  0.00     0.074 A 
ATOM     33  C   UNL A   1      37.843  30.704  31.276  1.00  0.00     0.049 A 
ATOM     34  N   UNL A   1      39.861  28.935  29.939  1.00  0.00    -0.248 NA
ATOM     35  C   UNL A   1      38.639  29.099  27.958  1.00  0.00     0.031 C 
ATOM     36  C   UNL A   1      36.878  31.529  32.002  1.00  0.00     0.029 A 
ATOM     37  N   UNL A   1      38.862  30.516  32.177  1.00  0.00    -0.354 N 
ATOM     38  C   UNL A   1      40.500  28.200  28.949  1.00  0.00     0.074 A 
ATOM     39  C   UNL A   1      39.694  28.320  27.752  1.00  0.00     0.031 C 
ATOM     40  C   UNL A   1      37.371  31.825  33.211  1.00  0.00     0.029 A 
ATOM     41  C   UNL A   1      38.653  31.149  33.377  1.00  0.00     0.049 A 
ATOM     42  H   UNL A   1      39.663  29.978  31.982  1.00  0.00     0.167 HD
ATOM     43  C   UNL A   1      41.651  27.489  29.034  1.00  0.00     0.037 A 
ATOM     44  C   UNL A   1      39.393  31.167  34.500  1.00  0.00     0.037 A 
ATOM     45  C   UNL A   1      42.478  27.398  30.210  1.00  0.00     0.049 A 
ATOM     46  C   UNL A   1      40.656  30.368  34.568  1.00  0.00     0.074 A 
ATOM     47  C   UNL A   1      43.672  26.713  30.375  1.00  0.00     0.029 A 
ATOM     48  N   UNL A   1      42.205  28.018  31.418  1.00  0.00    -0.354 N 
ATOM     49  N   UNL A   1      41.217  29.635  33.640  1.00  0.00    -0.248 NA
ATOM     50  C   UNL A   1      41.375  30.374  35.850  1.00  0.00     0.031 C 
ATOM     51  C   UNL A   1      44.111  26.906  31.691  1.00  0.00     0.029 A 
ATOM     52  C   UNL A   1      43.203  27.728  32.336  1.00  0.00     0.049 A 
ATOM     53  H   UNL A   1      41.419  28.584  31.598  1.00  0.00     0.167 HD
ATOM     54  C   UNL A   1      42.342  29.076  34.227  1.00  0.00     0.074 A 
ATOM     55  C   UNL A   1      42.402  29.579  35.584  1.00  0.00     0.031 C 
ATOM     56  C   UNL A   1      43.235  28.214  33.688  1.00  0.00     0.037 A 
BRANCH  43  57
ATOM     57  C   UNL A   1      42.092  26.728  27.821  1.00  0.00     0.064 A 
ATOM     58  C   UNL A   1      43.039  27.253  26.933  1.00  0.00     0.173 A 
ATOM     59  C   UNL A   1      41.625  25.424  27.596  1.00  0.00     0.173 A 
ATOM     60  F   UNL A   1      43.507  28.499  27.104  1.00  0.00    -0.203 F 
ATOM     61  C   UNL A   1      43.504  26.500  25.857  1.00  0.00     0.198 A 
ATOM     62  C   UNL A   1      42.101  24.669  26.528  1.00  0.00     0.198 A 
ATOM     63  F   UNL A   1      40.723  24.877  28.424  1.00  0.00    -0.203 F 
ATOM     64  F   UNL A   1      44.400  27.024  25.011  1.00  0.00    -0.200 F 
ATOM     65  C   UNL A   1      43.040  25.207  25.659  1.00  0.00     0.200 A 
ATOM     66  F   UNL A   1      41.659  23.418  26.343  1.00  0.00    -0.200 F 
ATOM     67  F   UNL A   1      43.498  24.479  24.632  1.00  0.00    -0.200 F 
ENDBRANCH  43  57
BRANCH  44  68
ATOM     68  C   UNL A   1      38.922  31.960  35.659  1.00  0.00     0.064 A 
ATOM     69  C   UNL A   1      38.159  31.362  36.670  1.00  0.00     0.173 A 
ATOM     70  C   UNL A   1      39.275  33.309  35.808  1.00  0.00     0.173 A 
ATOM     71  F   UNL A   1      37.785  30.079  36.557  1.00  0.00    -0.203 F 
ATOM     72  C   UNL A   1      37.771  32.086  37.794  1.00  0.00     0.198 A 
ATOM     73  C   UNL A   1      38.902  34.024  36.941  1.00  0.00     0.198 A 
ATOM     74  F   UNL A   1      40.007  33.917  34.864  1.00  0.00    -0.203 F 
ATOM     75  F   UNL A   1      37.032  31.498  38.745  1.00  0.00    -0.200 F 
ATOM     76  C   UNL A   1      38.151  33.414  37.933  1.00  0.00     0.200 A 
ATOM     77  F   UNL A   1      39.283  35.303  37.078  1.00  0.00    -0.200 F 
ATOM     78  F   UNL A   1      37.794  34.103  39.026  1.00  0.00    -0.200 F 
ENDBRANCH  44  68
BRANCH  56  79
ATOM     79  C   UNL A   1      44.340  27.744  34.583  1.00  0.00     0.064 A 
ATOM     80  C   UNL A   1      44.211  26.563  35.325  1.00  0.00     0.173 A 
ATOM     81  C   UNL A   1      45.532  28.472  34.693  1.00  0.00     0.173 A 
ATOM     82  F   UNL A   1      43.078  25.846  35.262  1.00  0.00    -0.203 F 
ATOM     83  C   UNL A   1      45.236  26.132  36.162  1.00  0.00     0.198 A 
ATOM     84  C   UNL A   1      46.560  28.032  35.520  1.00  0.00     0.198 A 
ATOM     85  F   UNL A   1      45.695  29.610  34.002  1.00  0.00    -0.203 F 
ATOM     86  F   UNL A   1      45.082  25.017  36.889  1.00  0.00    -0.200 F 
ATOM     87  C   UNL A   1      46.410  26.865  36.257  1.00  0.00     0.200 A 
ATOM     88  F   UNL A   1      47.694  28.741  35.613  1.00  0.00    -0.200 F 
ATOM     89  F   UNL A   1      47.394  26.453  37.069  1.00  0.00    -0.200 F 
ENDBRANCH  56  79
ENDBRANCH  30  31
ENDBRANCH  23  25
ENDBRANCH  22  23
ENDBRANCH  21  22
ENDBRANCH  20  21
ENDBRANCH   1  20
TORSDOF 18
ENDMDL
MODEL 2
REMARK VINA RESULT:      -9.9      4.329      9.832
REMARK SMILES C#CCN(CC(=O)OCCOC(=O)c1ccc(-c2c3nc(c(-c4c(F)c(F)c(F)c(F)c4F)c4ccc([nH]4)c(-c4c(F)c(F)c(F)c(F)c4F)c4nc(c(-c5c(F)c(F)c(F)c(F)c5F)c5ccc2[nH]5)C=C4)C=C3)cc1)C(=O)N(C)[C@H](C)c1cccs1
REMARK SMILES IDX 8 1 6 2 7 3 5 4 4 5 3 6 2 7 1 8 77 9 78 10 79 11 80 12 81 13
REMARK SMILES IDX 82 14 83 15 84 16 87 17 85 18 86 19 9 20 10 21 11 22 12 23
REMARK SMILES IDX 13 24 14 25 15 26 76 27 16 28 75 29 17 30 18 31 19 32 69 33
REMARK SMILES IDX 20 34 74 35 68 36 70 37 21 38 73 39 67 40 66 41 22 43 54 44
REMARK SMILES IDX 34 45 53 46 35 47 38 48 52 49 71 50 36 51 37 52 51 54 72 55
REMARK SMILES IDX 39 56 23 57 24 58 32 59 25 60 26 61 30 62 33 63 27 64 28 65
REMARK SMILES IDX 31 66 29 67 55 68 56 69 64 70 57 71 58 72 62 73 65 74 59 75
REMARK SMILES IDX 60 76 63 77 61 78 40 79 41 80 49 81 42 82 43 83 47 84 50 85
REMARK SMILES IDX 44 86 45 87 48 88 46 89
REMARK H PARENT 70 42 38 53
REMARK Flexibility Score: inf
ROOT
ATOM      1  O   UNL A   1      35.228  21.821  26.451  1.00  0.00    -0.461 OA
ENDROOT
BRANCH   1   2
ATOM      2  C   UNL A   1      34.031  22.363  26.796  1.00  0.00     0.325 C 
ATOM      3  O   UNL A   1      33.365  22.022  27.771  1.00  0.00    -0.250 OA
BRANCH   2   4
ATOM      4  C   UNL A   1      33.696  23.625  26.012  1.00  0.00     0.245 C 
BRANCH   4   5
ATOM      5  N   UNL A   1      32.306  23.898  25.680  1.00  0.00    -0.302 N 
BRANCH   5   6
ATOM      6  C   UNL A   1      31.673  22.977  24.741  1.00  0.00     0.211 C 
BRANCH   6   7
ATOM      7  C   UNL A   1      32.565  22.971  23.510  1.00  0.00    -0.085 C 
ATOM      8  C   UNL A   1      33.331  22.967  22.455  1.00  0.00     0.006 C 
ENDBRANCH   6   7
ENDBRANCH   5   6
BRANCH   5   9
ATOM      9  C   UNL A   1      31.546  24.973  26.124  1.00  0.00     0.321 C 
ATOM     10  O   UNL A   1      30.541  24.764  26.806  1.00  0.00    -0.248 OA
BRANCH   9  11
ATOM     11  N   UNL A   1      32.022  26.262  25.894  1.00  0.00    -0.320 N 
ATOM     12  C   UNL A   1      31.760  27.356  26.828  1.00  0.00     0.149 C 
BRANCH  11  13
ATOM     13  C   UNL A   1      32.336  26.727  24.520  1.00  0.00     0.124 C 
ATOM     14  C   UNL A   1      33.634  27.541  24.454  1.00  0.00     0.037 C 
BRANCH  13  15
ATOM     15  C   UNL A   1      31.203  27.427  23.796  1.00  0.00     0.027 A 
ATOM     16  C   UNL A   1      29.834  27.255  23.919  1.00  0.00     0.017 A 
ATOM     17  S   UNL A   1      31.545  28.767  22.765  1.00  0.00    -0.147 S 
ATOM     18  C   UNL A   1      29.082  28.142  23.097  1.00  0.00     0.012 A 
ATOM     19  C   UNL A   1      29.894  28.995  22.390  1.00  0.00     0.065 A 
ENDBRANCH  13  15
ENDBRANCH  11  13
ENDBRANCH   9  11
ENDBRANCH   5   9
ENDBRANCH   4   5
ENDBRANCH   2   4
ENDBRANCH   1   2
BRANCH   1  20
ATOM     20  C   UNL A   1      35.175  20.869  25.373  1.00  0.00     0.274 C 
BRANCH  20  21
ATOM     21  C   UNL A   1      36.574  20.377  24.986  1.00  0.00     0.275 C 
BRANCH  21  22
ATOM     22  O   UNL A   1      37.540  21.451  24.997  1.00  0.00    -0.458 OA
BRANCH  22  23
ATOM     23  C   UNL A   1      38.599  21.219  25.805  1.00  0.00     0.338 C 
ATOM     24  O   UNL A   1      39.092  20.134  26.056  1.00  0.00    -0.246 OA
BRANCH  23  25
ATOM     25  C   UNL A   1      39.161  22.451  26.386  1.00  0.00     0.060 A 
ATOM     26  C   UNL A   1      38.613  23.697  26.084  1.00  0.00     0.016 A 
ATOM     27  C   UNL A   1      40.373  22.365  27.076  1.00  0.00     0.016 A 
ATOM     28  C   UNL A   1      39.333  24.854  26.387  1.00  0.00     0.010 A 
ATOM     29  C   UNL A   1      41.039  23.529  27.471  1.00  0.00     0.010 A 
ATOM     30  C   UNL A   1      40.544  24.788  27.101  1.00  0.00    -0.014 A 
BRANCH  30  31
ATOM     31  C   UNL A   1      41.258  26.034  27.492  1.00  0.00     0.031 A 
ATOM     32  C   UNL A   1      40.608  27.077  28.364  1.00  0.00     0.074 A 
ATOM     33  C   UNL A   1      42.518  26.230  27.054  1.00  0.00     0.049 A 
ATOM     34  N   UNL A   1      41.060  28.258  28.710  1.00  0.00    -0.248 NA
ATOM     35  C   UNL A   1      39.283  26.759  28.917  1.00  0.00     0.031 C 
ATOM     36  C   UNL A   1      43.270  25.304  26.207  1.00  0.00     0.029 A 
ATOM     37  N   UNL A   1      43.393  27.264  27.274  1.00  0.00    -0.354 N 
ATOM     38  C   UNL A   1      40.063  28.839  29.484  1.00  0.00     0.074 A 
ATOM     39  C   UNL A   1      38.982  27.878  29.565  1.00  0.00     0.031 C 
ATOM     40  C   UNL A   1      44.509  25.779  26.025  1.00  0.00     0.029 A 
ATOM     41  C   UNL A   1      44.617  27.079  26.678  1.00  0.00     0.049 A 
ATOM     42  H   UNL A   1      43.167  28.061  27.805  1.00  0.00     0.167 HD
ATOM     43  C   UNL A   1      40.051  30.061  30.069  1.00  0.00     0.037 A 
ATOM     44  C   UNL A   1      45.701  27.874  26.636  1.00  0.00     0.037 A 
ATOM     45  C   UNL A   1      41.138  31.006  30.026  1.00  0.00     0.049 A 
ATOM     46  C   UNL A   1      45.659  29.221  27.285  1.00  0.00     0.074 A 
ATOM     47  C   UNL A   1      41.216  32.261  30.609  1.00  0.00     0.029 A 
ATOM     48  N   UNL A   1      42.341  30.796  29.373  1.00  0.00    -0.354 N 
ATOM     49  N   UNL A   1      44.688  29.776  27.966  1.00  0.00    -0.248 NA
ATOM     50  C   UNL A   1      46.852  30.066  27.135  1.00  0.00     0.031 C 
ATOM     51  C   UNL A   1      42.461  32.816  30.293  1.00  0.00     0.029 A 
ATOM     52  C   UNL A   1      43.165  31.899  29.532  1.00  0.00     0.049 A 
ATOM     53  H   UNL A   1      42.578  29.982  28.871  1.00  0.00     0.167 HD
ATOM     54  C   UNL A   1      45.141  31.040  28.310  1.00  0.00     0.074 A 
ATOM     55  C   UNL A   1      46.487  31.160  27.788  1.00  0.00     0.031 C 
ATOM     56  C   UNL A   1      44.491  32.015  28.987  1.00  0.00     0.037 A 
BRANCH  43  57
ATOM     57  C   UNL A   1      38.812  30.472  30.805  1.00  0.00     0.064 A 
ATOM     58  C   UNL A   1      38.716  30.357  32.198  1.00  0.00     0.173 A 
ATOM     59  C   UNL A   1      37.744  31.066  30.115  1.00  0.00     0.173 A 
ATOM     60  F   UNL A   1      39.709  29.787  32.897  1.00  0.00    -0.203 F 
ATOM     61  C   UNL A   1      37.592  30.821  32.877  1.00  0.00     0.198 A 
ATOM     62  C   UNL A   1      36.628  31.541  30.798  1.00  0.00     0.198 A 
ATOM     63  F   UNL A   1      37.793  31.203  28.782  1.00  0.00    -0.203 F 
ATOM     64  F   UNL A   1      37.514  30.691  34.207  1.00  0.00    -0.200 F 
ATOM     65  C   UNL A   1      36.552  31.418  32.178  1.00  0.00     0.200 A 
ATOM     66  F   UNL A   1      35.628  32.125  30.123  1.00  0.00    -0.200 F 
ATOM     67  F   UNL A   1      35.478  31.877  32.834  1.00  0.00    -0.200 F 
ENDBRANCH  43  57
BRANCH  44  68
ATOM     68  C   UNL A   1      46.909  27.405  25.917  1.00  0.00     0.064 A 
ATOM     69  C   UNL A   1      47.041  27.602  24.537  1.00  0.00     0.173 A 
ATOM     70  C   UNL A   1      47.975  26.807  26.604  1.00  0.00     0.173 A 
ATOM     71  F   UNL A   1      46.036  28.154  23.841  1.00  0.00    -0.203 F 
ATOM     72  C   UNL A   1      48.203  27.225  23.870  1.00  0.00     0.198 A 
ATOM     73  C   UNL A   1      49.143  26.448  25.938  1.00  0.00     0.198 A 
ATOM     74  F   UNL A   1      47.890  26.604  27.926  1.00  0.00    -0.203 F 
ATOM     75  F   UNL A   1      48.304  27.413  22.547  1.00  0.00    -0.200 F 
ATOM     76  C   UNL A   1      49.256  26.657  24.572  1.00  0.00     0.200 A 
ATOM     77  F   UNL A   1      50.163  25.912  26.623  1.00  0.00    -0.200 F 
ATOM     78  F   UNL A   1      50.382  26.312  23.932  1.00  0.00    -0.200 F 
ENDBRANCH  44  68
BRANCH  56  79
ATOM     79  C   UNL A   1      45.225  33.305  29.178  1.00  0.00     0.064 A 
ATOM     80  C   UNL A   1      46.058  33.502  30.287  1.00  0.00     0.173 A 
ATOM     81  C   UNL A   1      45.102  34.344  28.247  1.00  0.00     0.173 A 
ATOM     82  F   UNL A   1      46.189  32.538  31.212  1.00  0.00    -0.203 F 
ATOM     83  C   UNL A   1      46.734  34.704  30.466  1.00  0.00     0.198 A 
ATOM     84  C   UNL A   1      45.790  35.541  28.422  1.00  0.00     0.198 A 
ATOM     85  F   UNL A   1      44.312  34.200  27.172  1.00  0.00    -0.203 F 
ATOM     86  F   UNL A   1      47.500  34.886  31.550  1.00  0.00    -0.200 F 
ATOM     87  C   UNL A   1      46.601  35.723  29.533  1.00  0.00     0.200 A 
ATOM     88  F   UNL A   1      45.660  36.526  27.521  1.00  0.00    -0.200 F 
ATOM     89  F   UNL A   1      47.247  36.883  29.711  1.00  0.00    -0.200 F 
ENDBRANCH  56  79
ENDBRANCH  30  31
ENDBRANCH  23  25
ENDBRANCH  22  23
ENDBRANCH  21  22
ENDBRANCH  20  21
ENDBRANCH   1  20
TORSDOF 18
ENDMDL
MODEL 3
REMARK VINA RESULT:      -9.8      1.202      2.606
REMARK SMILES C#CCN(CC(=O)OCCOC(=O)c1ccc(-c2c3nc(c(-c4c(F)c(F)c(F)c(F)c4F)c4ccc([nH]4)c(-c4c(F)c(F)c(F)c(F)c4F)c4nc(c(-c5c(F)c(F)c(F)c(F)c5F)c5ccc2[nH]5)C=C4)C=C3)cc1)C(=O)N(C)[C@H](C)c1cccs1
REMARK SMILES IDX 8 1 6 2 7 3 5 4 4 5 3 6 2 7 1 8 77 9 78 10 79 11 80 12 81 13
REMARK SMILES IDX 82 14 83 15 84 16 87 17 85 18 86 19 9 20 10 21 11 22 12 23
REMARK SMILES IDX 13 24 14 25 15 26 76 27 16 28 75 29 17 30 18 31 19 32 69 33
REMARK SMILES IDX 20 34 74 35 68 36 70 37 21 38 73 39 67 40 66 41 22 43 54 44
REMARK SMILES IDX 34 45 53 46 35 47 38 48 52 49 71 50 36 51 37 52 51 54 72 55
REMARK SMILES IDX 39 56 23 57 24 58 32 59 25 60 26 61 30 62 33 63 27 64 28 65
REMARK SMILES IDX 31 66 29 67 55 68 56 69 64 70 57 71 58 72 62 73 65 74 59 75
REMARK SMILES IDX 60 76 63 77 61 78 40 79 41 80 49 81 42 82 43 83 47 84 50 85
REMARK SMILES IDX 44 86 45 87 48 88 46 89
REMARK H PARENT 70 42 38 53
REMARK Flexibility Score: inf
ROOT
ATOM      1  O   UNL A   1      30.911  27.488  26.548  1.00  0.00    -0.461 OA
ENDROOT
BRANCH   1   2
ATOM      2  C   UNL A   1      30.720  26.381  25.784  1.00  0.00     0.325 C 
ATOM      3  O   UNL A   1      29.930  26.308  24.846  1.00  0.00    -0.250 OA
BRANCH   2   4
ATOM      4  C   UNL A   1      31.766  25.301  26.022  1.00  0.00     0.245 C 
BRANCH   4   5
ATOM      5  N   UNL A   1      31.544  23.973  25.467  1.00  0.00    -0.302 N 
BRANCH   5   6
ATOM      6  C   UNL A   1      31.229  22.917  26.424  1.00  0.00     0.211 C 
BRANCH   6   7
ATOM      7  C   UNL A   1      32.538  22.600  27.128  1.00  0.00    -0.085 C 
ATOM      8  C   UNL A   1      33.661  22.327  27.732  1.00  0.00     0.006 C 
ENDBRANCH   6   7
ENDBRANCH   5   6
BRANCH   5   9
ATOM      9  C   UNL A   1      31.658  23.608  24.132  1.00  0.00     0.321 C 
ATOM     10  O   UNL A   1      30.645  23.300  23.500  1.00  0.00    -0.248 OA
BRANCH   9  11
ATOM     11  N   UNL A   1      32.900  23.729  23.513  1.00  0.00    -0.320 N 
ATOM     12  C   UNL A   1      33.132  24.693  22.439  1.00  0.00     0.149 C 
BRANCH  11  13
ATOM     13  C   UNL A   1      33.866  22.601  23.507  1.00  0.00     0.124 C 
ATOM     14  C   UNL A   1      33.201  21.253  23.808  1.00  0.00     0.037 C 
BRANCH  13  15
ATOM     15  C   UNL A   1      35.111  22.809  24.347  1.00  0.00     0.027 A 
ATOM     16  C   UNL A   1      35.586  23.958  24.956  1.00  0.00     0.017 A 
ATOM     17  S   UNL A   1      36.063  21.448  24.814  1.00  0.00    -0.147 S 
ATOM     18  C   UNL A   1      36.775  23.741  25.709  1.00  0.00     0.012 A 
ATOM     19  C   UNL A   1      37.162  22.423  25.686  1.00  0.00     0.065 A 
ENDBRANCH  13  15
ENDBRANCH  11  13
ENDBRANCH   9  11
ENDBRANCH   5   9
ENDBRANCH   4   5
ENDBRANCH   2   4
ENDBRANCH   1   2
BRANCH   1  20
ATOM     20  C   UNL A   1      32.185  28.136  26.370  1.00  0.00     0.274 C 
BRANCH  20  21
ATOM     21  C   UNL A   1      32.026  29.534  25.763  1.00  0.00     0.275 C 
BRANCH  21  22
ATOM     22  O   UNL A   1      33.258  30.286  25.822  1.00  0.00    -0.458 OA
BRANCH  22  23
ATOM     23  C   UNL A   1      33.285  31.206  26.813  1.00  0.00     0.338 C 
ATOM     24  O   UNL A   1      32.496  32.121  26.969  1.00  0.00    -0.246 OA
BRANCH  23  25
ATOM     25  C   UNL A   1      34.396  31.002  27.757  1.00  0.00     0.060 A 
ATOM     26  C   UNL A   1      35.352  31.996  27.963  1.00  0.00     0.016 A 
ATOM     27  C   UNL A   1      34.590  29.722  28.286  1.00  0.00     0.016 A 
ATOM     28  C   UNL A   1      36.546  31.677  28.611  1.00  0.00     0.010 A 
ATOM     29  C   UNL A   1      35.741  29.436  29.025  1.00  0.00     0.010 A 
ATOM     30  C   UNL A   1      36.749  30.401  29.169  1.00  0.00    -0.014 A 
BRANCH  30  31
ATOM     31  C   UNL A   1      37.991  30.100  29.931  1.00  0.00     0.031 A 
ATOM     32  C   UNL A   1      39.095  29.260  29.342  1.00  0.00     0.074 A 
ATOM     33  C   UNL A   1      38.129  30.593  31.177  1.00  0.00     0.049 A 
ATOM     34  N   UNL A   1      40.193  28.826  29.912  1.00  0.00    -0.248 NA
ATOM     35  C   UNL A   1      38.951  28.851  27.937  1.00  0.00     0.031 C 
ATOM     36  C   UNL A   1      37.143  31.422  31.871  1.00  0.00     0.029 A 
ATOM     37  N   UNL A   1      39.160  30.483  32.077  1.00  0.00    -0.354 N 
ATOM     38  C   UNL A   1      40.848  28.063  28.954  1.00  0.00     0.074 A 
ATOM     39  C   UNL A   1      40.030  28.097  27.759  1.00  0.00     0.031 C 
ATOM     40  C   UNL A   1      37.636  31.794  33.059  1.00  0.00     0.029 A 
ATOM     41  C   UNL A   1      38.940  31.169  33.246  1.00  0.00     0.049 A 
ATOM     42  H   UNL A   1      39.977  29.962  31.902  1.00  0.00     0.167 HD
ATOM     43  C   UNL A   1      42.021  27.394  29.063  1.00  0.00     0.037 A 
ATOM     44  C   UNL A   1      39.688  31.266  34.360  1.00  0.00     0.037 A 
ATOM     45  C   UNL A   1      42.860  27.388  30.235  1.00  0.00     0.049 A 
ATOM     46  C   UNL A   1      40.977  30.512  34.456  1.00  0.00     0.074 A 
ATOM     47  C   UNL A   1      44.077  26.751  30.423  1.00  0.00     0.029 A 
ATOM     48  N   UNL A   1      42.577  28.059  31.413  1.00  0.00    -0.354 N 
ATOM     49  N   UNL A   1      41.554  29.752  33.560  1.00  0.00    -0.248 NA
ATOM     50  C   UNL A   1      41.704  30.605  35.730  1.00  0.00     0.031 C 
ATOM     51  C   UNL A   1      44.520  27.023  31.723  1.00  0.00     0.029 A 
ATOM     52  C   UNL A   1      43.590  27.846  32.334  1.00  0.00     0.049 A 
ATOM     53  H   UNL A   1      41.774  28.607  31.572  1.00  0.00     0.167 HD
ATOM     54  C   UNL A   1      42.700  29.260  34.164  1.00  0.00     0.074 A 
ATOM     55  C   UNL A   1      42.754  29.831  35.494  1.00  0.00     0.031 C 
ATOM     56  C   UNL A   1      43.617  28.400  33.661  1.00  0.00     0.037 A 
BRANCH  43  57
ATOM     57  C   UNL A   1      42.478  26.587  27.886  1.00  0.00     0.064 A 
ATOM     58  C   UNL A   1      41.979  25.301  27.642  1.00  0.00     0.173 A 
ATOM     59  C   UNL A   1      43.360  27.144  26.947  1.00  0.00     0.173 A 
ATOM     60  F   UNL A   1      41.141  24.726  28.517  1.00  0.00    -0.203 F 
ATOM     61  C   UNL A   1      42.348  24.598  26.498  1.00  0.00     0.198 A 
ATOM     62  C   UNL A   1      43.716  26.443  25.798  1.00  0.00     0.198 A 
ATOM     63  F   UNL A   1      43.859  28.375  27.135  1.00  0.00    -0.203 F 
ATOM     64  F   UNL A   1      41.870  23.364  26.288  1.00  0.00    -0.200 F 
ATOM     65  C   UNL A   1      43.210  25.172  25.574  1.00  0.00     0.200 A 
ATOM     66  F   UNL A   1      44.542  27.002  24.902  1.00  0.00    -0.200 F 
ATOM     67  F   UNL A   1      43.553  24.498  24.467  1.00  0.00    -0.200 F 
ENDBRANCH  43  57
BRANCH  44  68
ATOM     68  C   UNL A   1      39.200  32.100  35.483  1.00  0.00     0.064 A 
ATOM     69  C   UNL A   1      38.430  31.538  36.509  1.00  0.00     0.173 A 
ATOM     70  C   UNL A   1      39.543  33.456  35.583  1.00  0.00     0.173 A 
ATOM     71  F   UNL A   1      38.065  30.249  36.442  1.00  0.00    -0.203 F 
ATOM     72  C   UNL A   1      38.027  32.302  37.600  1.00  0.00     0.198 A 
ATOM     73  C   UNL A   1      39.155  34.213  36.683  1.00  0.00     0.198 A 
ATOM     74  F   UNL A   1      40.283  34.031  34.623  1.00  0.00    -0.203 F 
ATOM     75  F   UNL A   1      37.281  31.747  38.566  1.00  0.00    -0.200 F 
ATOM     76  C   UNL A   1      38.398  33.636  37.691  1.00  0.00     0.200 A 
ATOM     77  F   UNL A   1      39.527  35.498  36.775  1.00  0.00    -0.200 F 
ATOM     78  F   UNL A   1      38.026  34.366  38.752  1.00  0.00    -0.200 F 
ENDBRANCH  44  68
BRANCH  56  79
ATOM     79  C   UNL A   1      44.743  28.011  34.567  1.00  0.00     0.064 A 
ATOM     80  C   UNL A   1      45.920  28.770  34.620  1.00  0.00     0.173 A 
ATOM     81  C   UNL A   1      44.643  26.883  35.392  1.00  0.00     0.173 A 
ATOM     82  F   UNL A   1      46.063  29.848  33.833  1.00  0.00    -0.203 F 
ATOM     83  C   UNL A   1      46.968  28.403  35.458  1.00  0.00     0.198 A 
ATOM     84  C   UNL A   1      45.687  26.526  36.239  1.00  0.00     0.198 A 
ATOM     85  F   UNL A   1      43.535  26.127  35.370  1.00  0.00    -0.203 F 
ATOM     86  F   UNL A   1      48.098  29.122  35.470  1.00  0.00    -0.200 F 
ATOM     87  C   UNL A   1      46.850  27.283  36.268  1.00  0.00     0.200 A 
ATOM     88  F   UNL A   1      45.574  25.442  37.020  1.00  0.00    -0.200 F 
ATOM     89  F   UNL A   1      47.863  26.926  37.070  1.00  0.00    -0.200 F 
ENDBRANCH  56  79
ENDBRANCH  30  31
ENDBRANCH  23  25
ENDBRANCH  22  23
ENDBRANCH  21  22
ENDBRANCH  20  21
ENDBRANCH   1  20
TORSDOF 18
ENDMDL
