MODEL 1
REMARK VINA RESULT:     -13.9      0.000      0.000
REMARK SMILES O=C(OCCOC(=O)[C@H]1CN(C(=O)C[C@H]2NC(=O)c3ccccc32)C[C@@H]1c1ccc(F)cc1)c1ccc(-c2c3nc(c(-c4c(F)c(F)c(F)c(F)c4F)c4ccc([nH]4)c(-c4c(F)c(F)c(F)c(F)c4F)c4nc(c(-c5c(F)c(F)c(F)c(F)c5F)c5ccc2[nH]5)C=C4)C=C3)cc1
REMARK SMILES IDX 5 1 4 2 3 3 2 4 1 5 34 6 35 7 96 8 36 9 95 10 37 11 38 12
REMARK SMILES IDX 39 13 89 14 40 15 94 16 88 17 90 18 41 19 93 20 87 21 86 22
REMARK SMILES IDX 42 24 74 25 54 26 73 27 55 28 58 29 72 30 91 31 56 32 57 33
REMARK SMILES IDX 71 35 92 36 59 37 43 38 44 39 52 40 45 41 46 42 50 43 53 44
REMARK SMILES IDX 47 45 48 46 51 47 49 48 75 49 76 50 84 51 77 52 78 53 82 54
REMARK SMILES IDX 85 55 79 56 80 57 83 58 81 59 60 60 61 61 69 62 62 63 63 64
REMARK SMILES IDX 67 65 70 66 64 67 65 68 68 69 66 70 6 71 7 72 8 73 9 74
REMARK SMILES IDX 10 75 26 76 11 77 25 78 27 79 28 80 33 81 29 82 32 83 30 84
REMARK SMILES IDX 31 85 12 86 13 87 14 88 15 89 16 90 24 91 17 92 19 94 23 95
REMARK SMILES IDX 18 96 20 97 22 98 21 99
REMARK H PARENT 90 23 58 34 16 93
REMARK Flexibility Score: inf
ROOT
ATOM      1  C   UNL A   1      31.956  30.878  26.340  1.00  0.00     0.274 C 
ENDROOT
BRANCH   1   2
ATOM      2  C   UNL A   1      31.400  32.138  27.008  1.00  0.00     0.275 C 
BRANCH   2   3
ATOM      3  O   UNL A   1      32.312  33.236  27.036  1.00  0.00    -0.458 OA
BRANCH   3   4
ATOM      4  C   UNL A   1      33.177  33.610  27.999  1.00  0.00     0.338 C 
ATOM      5  O   UNL A   1      32.891  34.612  28.657  1.00  0.00    -0.246 OA
BRANCH   4   6
ATOM      6  C   UNL A   1      34.514  32.969  28.268  1.00  0.00     0.060 A 
ATOM      7  C   UNL A   1      35.798  33.524  28.248  1.00  0.00     0.016 A 
ATOM      8  C   UNL A   1      34.435  31.627  28.638  1.00  0.00     0.016 A 
ATOM      9  C   UNL A   1      36.934  32.800  28.693  1.00  0.00     0.010 A 
ATOM     10  C   UNL A   1      35.546  30.949  29.142  1.00  0.00     0.010 A 
ATOM     11  C   UNL A   1      36.816  31.524  29.249  1.00  0.00    -0.014 A 
BRANCH  11  12
ATOM     12  C   UNL A   1      37.906  30.807  30.019  1.00  0.00     0.031 A 
ATOM     13  C   UNL A   1      38.266  31.235  31.441  1.00  0.00     0.074 A 
ATOM     14  C   UNL A   1      38.755  29.941  29.410  1.00  0.00     0.049 A 
ATOM     15  N   UNL A   1      39.319  30.939  32.169  1.00  0.00    -0.248 NA
ATOM     16  C   UNL A   1      37.355  32.182  32.106  1.00  0.00     0.031 C 
ATOM     17  C   UNL A   1      38.704  29.494  28.015  1.00  0.00     0.029 A 
ATOM     18  N   UNL A   1      39.895  29.322  29.890  1.00  0.00    -0.354 N 
ATOM     19  C   UNL A   1      39.232  31.740  33.303  1.00  0.00     0.074 A 
ATOM     20  C   UNL A   1      38.104  32.620  33.106  1.00  0.00     0.031 C 
ATOM     21  C   UNL A   1      39.774  28.732  27.740  1.00  0.00     0.029 A 
ATOM     22  C   UNL A   1      40.586  28.603  28.942  1.00  0.00     0.049 A 
ATOM     23  H   UNL A   1      40.186  29.390  30.827  1.00  0.00     0.167 HD
ATOM     24  C   UNL A   1      39.939  31.685  34.461  1.00  0.00     0.037 A 
ATOM     25  C   UNL A   1      41.730  27.895  29.017  1.00  0.00     0.037 A 
ATOM     26  C   UNL A   1      40.933  30.689  34.748  1.00  0.00     0.049 A 
ATOM     27  C   UNL A   1      42.407  27.704  30.344  1.00  0.00     0.074 A 
ATOM     28  C   UNL A   1      41.508  30.368  35.966  1.00  0.00     0.029 A 
ATOM     29  N   UNL A   1      41.477  29.833  33.807  1.00  0.00    -0.354 N 
ATOM     30  N   UNL A   1      42.170  28.301  31.482  1.00  0.00    -0.248 NA
ATOM     31  C   UNL A   1      43.457  26.675  30.413  1.00  0.00     0.031 C 
ATOM     32  C   UNL A   1      42.393  29.305  35.764  1.00  0.00     0.029 A 
ATOM     33  C   UNL A   1      42.352  28.955  34.425  1.00  0.00     0.049 A 
ATOM     34  H   UNL A   1      41.273  29.846  32.845  1.00  0.00     0.167 HD
ATOM     35  C   UNL A   1      42.982  27.673  32.416  1.00  0.00     0.074 A 
ATOM     36  C   UNL A   1      43.738  26.663  31.709  1.00  0.00     0.031 C 
ATOM     37  C   UNL A   1      43.061  27.906  33.746  1.00  0.00     0.037 A 
BRANCH  24  38
ATOM     38  C   UNL A   1      39.550  32.623  35.573  1.00  0.00     0.064 A 
ATOM     39  C   UNL A   1      40.119  33.901  35.683  1.00  0.00     0.173 A 
ATOM     40  C   UNL A   1      38.655  32.220  36.580  1.00  0.00     0.173 A 
ATOM     41  F   UNL A   1      41.006  34.330  34.773  1.00  0.00    -0.203 F 
ATOM     42  C   UNL A   1      39.791  34.742  36.745  1.00  0.00     0.198 A 
ATOM     43  C   UNL A   1      38.296  33.079  37.612  1.00  0.00     0.198 A 
ATOM     44  F   UNL A   1      38.093  31.002  36.538  1.00  0.00    -0.203 F 
ATOM     45  F   UNL A   1      40.367  35.947  36.848  1.00  0.00    -0.200 F 
ATOM     46  C   UNL A   1      38.870  34.336  37.700  1.00  0.00     0.200 A 
ATOM     47  F   UNL A   1      37.383  32.691  38.513  1.00  0.00    -0.200 F 
ATOM     48  F   UNL A   1      38.532  35.156  38.704  1.00  0.00    -0.200 F 
ENDBRANCH  24  38
BRANCH  25  49
ATOM     49  C   UNL A   1      42.237  27.175  27.821  1.00  0.00     0.064 A 
ATOM     50  C   UNL A   1      43.186  27.744  26.965  1.00  0.00     0.173 A 
ATOM     51  C   UNL A   1      41.777  25.882  27.528  1.00  0.00     0.173 A 
ATOM     52  F   UNL A   1      43.645  28.982  27.196  1.00  0.00    -0.203 F 
ATOM     53  C   UNL A   1      43.669  27.040  25.863  1.00  0.00     0.198 A 
ATOM     54  C   UNL A   1      42.271  25.175  26.436  1.00  0.00     0.198 A 
ATOM     55  F   UNL A   1      40.876  25.296  28.330  1.00  0.00    -0.203 F 
ATOM     56  F   UNL A   1      44.572  27.606  25.050  1.00  0.00    -0.200 F 
ATOM     57  C   UNL A   1      43.216  25.754  25.603  1.00  0.00     0.200 A 
ATOM     58  F   UNL A   1      41.839  23.928  26.198  1.00  0.00    -0.200 F 
ATOM     59  F   UNL A   1      43.692  25.071  24.552  1.00  0.00    -0.200 F 
ENDBRANCH  25  49
BRANCH  37  60
ATOM     60  C   UNL A   1      43.903  26.985  34.574  1.00  0.00     0.064 A 
ATOM     61  C   UNL A   1      45.241  27.319  34.842  1.00  0.00     0.173 A 
ATOM     62  C   UNL A   1      43.425  25.754  35.040  1.00  0.00     0.173 A 
ATOM     63  F   UNL A   1      45.746  28.487  34.417  1.00  0.00    -0.203 F 
ATOM     64  C   UNL A   1      46.073  26.443  35.532  1.00  0.00     0.198 A 
ATOM     65  C   UNL A   1      44.253  24.891  35.752  1.00  0.00     0.198 A 
ATOM     66  F   UNL A   1      42.149  25.401  34.825  1.00  0.00    -0.203 F 
ATOM     67  F   UNL A   1      47.354  26.769  35.750  1.00  0.00    -0.200 F 
ATOM     68  C   UNL A   1      45.578  25.232  35.988  1.00  0.00     0.200 A 
ATOM     69  F   UNL A   1      43.769  23.730  36.215  1.00  0.00    -0.200 F 
ATOM     70  F   UNL A   1      46.377  24.391  36.659  1.00  0.00    -0.200 F 
ENDBRANCH  37  60
ENDBRANCH  11  12
ENDBRANCH   4   6
ENDBRANCH   3   4
ENDBRANCH   2   3
ENDBRANCH   1   2
BRANCH   1  71
ATOM     71  O   UNL A   1      32.044  29.713  27.189  1.00  0.00    -0.462 OA
BRANCH  71  72
ATOM     72  C   UNL A   1      32.167  28.536  26.516  1.00  0.00     0.311 C 
ATOM     73  O   UNL A   1      32.466  27.473  27.050  1.00  0.00    -0.252 OA
BRANCH  72  74
ATOM     74  C   UNL A   1      31.915  28.616  25.023  1.00  0.00     0.128 C 
ATOM     75  C   UNL A   1      33.102  28.051  24.239  1.00  0.00     0.135 C 
ATOM     76  C   UNL A   1      30.658  27.900  24.488  1.00  0.00     0.055 C 
ATOM     77  N   UNL A   1      32.600  26.890  23.527  1.00  0.00    -0.341 N 
ATOM     78  C   UNL A   1      31.224  26.614  23.885  1.00  0.00     0.128 C 
BRANCH  76  79
ATOM     79  C   UNL A   1      29.809  28.626  23.445  1.00  0.00    -0.042 A 
ATOM     80  C   UNL A   1      30.455  29.530  22.572  1.00  0.00     0.007 A 
ATOM     81  C   UNL A   1      28.420  28.480  23.328  1.00  0.00     0.007 A 
ATOM     82  C   UNL A   1      29.736  30.255  21.620  1.00  0.00     0.039 A 
ATOM     83  C   UNL A   1      27.703  29.194  22.363  1.00  0.00     0.039 A 
ATOM     84  C   UNL A   1      28.365  30.077  21.522  1.00  0.00     0.123 A 
ATOM     85  F   UNL A   1      27.668  30.770  20.613  1.00  0.00    -0.207 F 
ENDBRANCH  76  79
BRANCH  77  86
ATOM     86  C   UNL A   1      33.253  26.042  22.659  1.00  0.00     0.225 C 
ATOM     87  O   UNL A   1      33.327  26.314  21.458  1.00  0.00    -0.275 OA
BRANCH  86  88
ATOM     88  C   UNL A   1      33.803  24.707  23.159  1.00  0.00     0.130 C 
BRANCH  88  89
ATOM     89  C   UNL A   1      34.498  24.817  24.519  1.00  0.00     0.123 C 
ATOM     90  N   UNL A   1      33.620  24.671  25.661  1.00  0.00    -0.345 N 
ATOM     91  C   UNL A   1      35.423  23.654  24.675  1.00  0.00    -0.012 A 
ATOM     92  C   UNL A   1      33.802  23.471  26.326  1.00  0.00     0.252 C 
ATOM     93  H   UNL A   1      32.964  25.352  25.934  1.00  0.00     0.164 HD
ATOM     94  C   UNL A   1      34.929  22.798  25.660  1.00  0.00     0.045 A 
ATOM     95  C   UNL A   1      36.503  23.297  23.889  1.00  0.00     0.007 A 
ATOM     96  O   UNL A   1      33.185  23.059  27.279  1.00  0.00    -0.269 OA
ATOM     97  C   UNL A   1      35.423  21.526  25.834  1.00  0.00     0.014 A 
ATOM     98  C   UNL A   1      37.026  22.016  24.055  1.00  0.00     0.000 A 
ATOM     99  C   UNL A   1      36.477  21.131  25.004  1.00  0.00     0.001 A 
ENDBRANCH  88  89
ENDBRANCH  86  88
ENDBRANCH  77  86
ENDBRANCH  72  74
ENDBRANCH  71  72
ENDBRANCH   1  71
TORSDOF 15
ENDMDL
MODEL 2
REMARK VINA RESULT:     -13.8      1.944      4.804
REMARK SMILES O=C(OCCOC(=O)[C@H]1CN(C(=O)C[C@H]2NC(=O)c3ccccc32)C[C@@H]1c1ccc(F)cc1)c1ccc(-c2c3nc(c(-c4c(F)c(F)c(F)c(F)c4F)c4ccc([nH]4)c(-c4c(F)c(F)c(F)c(F)c4F)c4nc(c(-c5c(F)c(F)c(F)c(F)c5F)c5ccc2[nH]5)C=C4)C=C3)cc1
REMARK SMILES IDX 5 1 4 2 3 3 2 4 1 5 34 6 35 7 96 8 36 9 95 10 37 11 38 12
REMARK SMILES IDX 39 13 89 14 40 15 94 16 88 17 90 18 41 19 93 20 87 21 86 22
REMARK SMILES IDX 42 24 74 25 54 26 73 27 55 28 58 29 72 30 91 31 56 32 57 33
REMARK SMILES IDX 71 35 92 36 59 37 43 38 44 39 52 40 45 41 46 42 50 43 53 44
REMARK SMILES IDX 47 45 48 46 51 47 49 48 75 49 76 50 84 51 77 52 78 53 82 54
REMARK SMILES IDX 85 55 79 56 80 57 83 58 81 59 60 60 61 61 69 62 62 63 63 64
REMARK SMILES IDX 67 65 70 66 64 67 65 68 68 69 66 70 6 71 7 72 8 73 9 74
REMARK SMILES IDX 10 75 26 76 11 77 25 78 27 79 28 80 33 81 29 82 32 83 30 84
REMARK SMILES IDX 31 85 12 86 13 87 14 88 15 89 16 90 24 91 17 92 19 94 23 95
REMARK SMILES IDX 18 96 20 97 22 98 21 99
REMARK H PARENT 90 23 58 34 16 93
REMARK Flexibility Score: inf
ROOT
ATOM      1  C   UNL A   1      31.684  27.720  26.369  1.00  0.00     0.274 C 
ENDROOT
BRANCH   1   2
ATOM      2  C   UNL A   1      31.767  28.969  27.251  1.00  0.00     0.275 C 
BRANCH   2   3
ATOM      3  O   UNL A   1      32.434  30.073  26.638  1.00  0.00    -0.458 OA
BRANCH   3   4
ATOM      4  C   UNL A   1      33.236  31.005  27.189  1.00  0.00     0.338 C 
ATOM      5  O   UNL A   1      32.802  32.157  27.251  1.00  0.00    -0.246 OA
BRANCH   4   6
ATOM      6  C   UNL A   1      34.656  30.779  27.638  1.00  0.00     0.060 A 
ATOM      7  C   UNL A   1      35.610  31.692  28.100  1.00  0.00     0.016 A 
ATOM      8  C   UNL A   1      35.048  29.441  27.628  1.00  0.00     0.016 A 
ATOM      9  C   UNL A   1      36.852  31.270  28.638  1.00  0.00     0.010 A 
ATOM     10  C   UNL A   1      36.241  29.032  28.226  1.00  0.00     0.010 A 
ATOM     11  C   UNL A   1      37.154  29.916  28.808  1.00  0.00    -0.014 A 
BRANCH  11  12
ATOM     12  C   UNL A   1      38.301  29.378  29.638  1.00  0.00     0.031 A 
ATOM     13  C   UNL A   1      38.585  29.938  31.030  1.00  0.00     0.074 A 
ATOM     14  C   UNL A   1      39.251  28.572  29.100  1.00  0.00     0.049 A 
ATOM     15  N   UNL A   1      39.649  29.811  31.790  1.00  0.00    -0.248 NA
ATOM     16  C   UNL A   1      37.563  30.821  31.618  1.00  0.00     0.031 C 
ATOM     17  C   UNL A   1      39.276  28.030  27.738  1.00  0.00     0.029 A 
ATOM     18  N   UNL A   1      40.443  28.118  29.634  1.00  0.00    -0.354 N 
ATOM     19  C   UNL A   1      39.454  30.671  32.865  1.00  0.00     0.074 A 
ATOM     20  C   UNL A   1      38.240  31.406  32.594  1.00  0.00     0.031 C 
ATOM     21  C   UNL A   1      40.428  27.375  27.529  1.00  0.00     0.029 A 
ATOM     22  C   UNL A   1      41.227  27.417  28.746  1.00  0.00     0.049 A 
ATOM     23  H   UNL A   1      40.707  28.281  30.568  1.00  0.00     0.167 HD
ATOM     24  C   UNL A   1      40.140  30.773  34.031  1.00  0.00     0.037 A 
ATOM     25  C   UNL A   1      42.441  26.847  28.883  1.00  0.00     0.037 A 
ATOM     26  C   UNL A   1      41.232  29.915  34.398  1.00  0.00     0.049 A 
ATOM     27  C   UNL A   1      43.109  26.822  30.227  1.00  0.00     0.074 A 
ATOM     28  C   UNL A   1      41.816  29.743  35.641  1.00  0.00     0.029 A 
ATOM     29  N   UNL A   1      41.885  29.064  33.525  1.00  0.00    -0.354 N 
ATOM     30  N   UNL A   1      42.786  27.465  31.319  1.00  0.00    -0.248 NA
ATOM     31  C   UNL A   1      44.264  25.924  30.379  1.00  0.00     0.031 C 
ATOM     32  C   UNL A   1      42.816  28.773  35.524  1.00  0.00     0.029 A 
ATOM     33  C   UNL A   1      42.838  28.332  34.211  1.00  0.00     0.049 A 
ATOM     34  H   UNL A   1      41.699  28.990  32.561  1.00  0.00     0.167 HD
ATOM     35  C   UNL A   1      43.644  26.995  32.303  1.00  0.00     0.074 A 
ATOM     36  C   UNL A   1      44.520  26.030  31.676  1.00  0.00     0.031 C 
ATOM     37  C   UNL A   1      43.671  27.324  33.615  1.00  0.00     0.037 A 
BRANCH  24  38
ATOM     38  C   UNL A   1      39.629  31.735  35.071  1.00  0.00     0.064 A 
ATOM     39  C   UNL A   1      38.682  31.341  36.028  1.00  0.00     0.173 A 
ATOM     40  C   UNL A   1      40.034  33.082  35.072  1.00  0.00     0.173 A 
ATOM     41  F   UNL A   1      38.229  30.079  36.057  1.00  0.00    -0.203 F 
ATOM     42  C   UNL A   1      38.177  32.253  36.954  1.00  0.00     0.198 A 
ATOM     43  C   UNL A   1      39.563  33.976  36.026  1.00  0.00     0.198 A 
ATOM     44  F   UNL A   1      40.924  33.521  34.169  1.00  0.00    -0.203 F 
ATOM     45  F   UNL A   1      37.250  31.865  37.841  1.00  0.00    -0.200 F 
ATOM     46  C   UNL A   1      38.628  33.565  36.961  1.00  0.00     0.200 A 
ATOM     47  F   UNL A   1      40.026  35.234  36.045  1.00  0.00    -0.200 F 
ATOM     48  F   UNL A   1      38.165  34.433  37.870  1.00  0.00    -0.200 F 
ENDBRANCH  24  38
BRANCH  25  49
ATOM     49  C   UNL A   1      43.046  26.109  27.746  1.00  0.00     0.064 A 
ATOM     50  C   UNL A   1      42.750  24.763  27.500  1.00  0.00     0.173 A 
ATOM     51  C   UNL A   1      43.929  26.760  26.872  1.00  0.00     0.173 A 
ATOM     52  F   UNL A   1      41.922  24.095  28.315  1.00  0.00    -0.203 F 
ATOM     53  C   UNL A   1      43.308  24.096  26.410  1.00  0.00     0.198 A 
ATOM     54  C   UNL A   1      44.474  26.096  25.776  1.00  0.00     0.198 A 
ATOM     55  F   UNL A   1      44.229  28.052  27.065  1.00  0.00    -0.203 F 
ATOM     56  F   UNL A   1      43.020  22.805  26.197  1.00  0.00    -0.200 F 
ATOM     57  C   UNL A   1      44.164  24.765  25.545  1.00  0.00     0.200 A 
ATOM     58  F   UNL A   1      45.289  26.751  24.937  1.00  0.00    -0.200 F 
ATOM     59  F   UNL A   1      44.687  24.127  24.489  1.00  0.00    -0.200 F 
ENDBRANCH  25  49
BRANCH  37  60
ATOM     60  C   UNL A   1      44.593  26.561  34.514  1.00  0.00     0.064 A 
ATOM     61  C   UNL A   1      44.151  25.370  35.116  1.00  0.00     0.173 A 
ATOM     62  C   UNL A   1      45.872  27.028  34.842  1.00  0.00     0.173 A 
ATOM     63  F   UNL A   1      42.934  24.881  34.834  1.00  0.00    -0.203 F 
ATOM     64  C   UNL A   1      44.951  24.687  36.025  1.00  0.00     0.198 A 
ATOM     65  C   UNL A   1      46.680  26.328  35.734  1.00  0.00     0.198 A 
ATOM     66  F   UNL A   1      46.345  28.149  34.278  1.00  0.00    -0.203 F 
ATOM     67  F   UNL A   1      44.497  23.570  36.609  1.00  0.00    -0.200 F 
ATOM     68  C   UNL A   1      46.215  25.165  36.331  1.00  0.00     0.200 A 
ATOM     69  F   UNL A   1      47.912  26.776  36.011  1.00  0.00    -0.200 F 
ATOM     70  F   UNL A   1      46.990  24.503  37.202  1.00  0.00    -0.200 F 
ENDBRANCH  37  60
ENDBRANCH  11  12
ENDBRANCH   4   6
ENDBRANCH   3   4
ENDBRANCH   2   3
ENDBRANCH   1   2
BRANCH   1  71
ATOM     71  O   UNL A   1      32.368  26.554  26.878  1.00  0.00    -0.462 OA
BRANCH  71  72
ATOM     72  C   UNL A   1      31.808  25.369  26.509  1.00  0.00     0.311 C 
ATOM     73  O   UNL A   1      30.805  24.896  27.033  1.00  0.00    -0.252 OA
BRANCH  72  74
ATOM     74  C   UNL A   1      32.518  24.641  25.385  1.00  0.00     0.128 C 
ATOM     75  C   UNL A   1      31.769  24.818  24.062  1.00  0.00     0.135 C 
ATOM     76  C   UNL A   1      33.984  25.037  25.112  1.00  0.00     0.055 C 
ATOM     77  N   UNL A   1      32.667  25.544  23.183  1.00  0.00    -0.341 N 
ATOM     78  C   UNL A   1      33.875  25.935  23.879  1.00  0.00     0.128 C 
BRANCH  76  79
ATOM     79  C   UNL A   1      34.991  23.918  24.846  1.00  0.00    -0.042 A 
ATOM     80  C   UNL A   1      35.338  23.066  25.917  1.00  0.00     0.007 A 
ATOM     81  C   UNL A   1      35.621  23.711  23.611  1.00  0.00     0.007 A 
ATOM     82  C   UNL A   1      36.278  22.046  25.754  1.00  0.00     0.039 A 
ATOM     83  C   UNL A   1      36.550  22.679  23.445  1.00  0.00     0.039 A 
ATOM     84  C   UNL A   1      36.873  21.860  24.517  1.00  0.00     0.123 A 
ATOM     85  F   UNL A   1      37.777  20.885  24.353  1.00  0.00    -0.207 F 
ENDBRANCH  76  79
BRANCH  77  86
ATOM     86  C   UNL A   1      32.490  25.934  21.873  1.00  0.00     0.225 C 
ATOM     87  O   UNL A   1      33.285  25.572  21.002  1.00  0.00    -0.275 OA
BRANCH  86  88
ATOM     88  C   UNL A   1      31.365  26.900  21.504  1.00  0.00     0.130 C 
BRANCH  88  89
ATOM     89  C   UNL A   1      31.161  28.006  22.543  1.00  0.00     0.123 C 
ATOM     90  N   UNL A   1      31.133  29.348  22.001  1.00  0.00    -0.345 N 
ATOM     91  C   UNL A   1      29.791  27.867  23.123  1.00  0.00    -0.012 A 
ATOM     92  C   UNL A   1      29.867  29.908  22.022  1.00  0.00     0.252 C 
ATOM     93  H   UNL A   1      31.929  29.812  21.654  1.00  0.00     0.164 HD
ATOM     94  C   UNL A   1      28.998  28.933  22.700  1.00  0.00     0.045 A 
ATOM     95  C   UNL A   1      29.250  26.797  23.812  1.00  0.00     0.007 A 
ATOM     96  O   UNL A   1      29.536  30.989  21.598  1.00  0.00    -0.269 OA
ATOM     97  C   UNL A   1      27.631  28.932  22.858  1.00  0.00     0.014 A 
ATOM     98  C   UNL A   1      27.868  26.779  23.992  1.00  0.00     0.000 A 
ATOM     99  C   UNL A   1      27.064  27.827  23.501  1.00  0.00     0.001 A 
ENDBRANCH  88  89
ENDBRANCH  86  88
ENDBRANCH  77  86
ENDBRANCH  72  74
ENDBRANCH  71  72
ENDBRANCH   1  71
TORSDOF 15
ENDMDL
MODEL 3
REMARK VINA RESULT:     -13.8      4.082      9.924
REMARK SMILES O=C(OCCOC(=O)[C@H]1CN(C(=O)C[C@H]2NC(=O)c3ccccc32)C[C@@H]1c1ccc(F)cc1)c1ccc(-c2c3nc(c(-c4c(F)c(F)c(F)c(F)c4F)c4ccc([nH]4)c(-c4c(F)c(F)c(F)c(F)c4F)c4nc(c(-c5c(F)c(F)c(F)c(F)c5F)c5ccc2[nH]5)C=C4)C=C3)cc1
REMARK SMILES IDX 5 1 4 2 3 3 2 4 1 5 34 6 35 7 96 8 36 9 95 10 37 11 38 12
REMARK SMILES IDX 39 13 89 14 40 15 94 16 88 17 90 18 41 19 93 20 87 21 86 22
REMARK SMILES IDX 42 24 74 25 54 26 73 27 55 28 58 29 72 30 91 31 56 32 57 33
REMARK SMILES IDX 71 35 92 36 59 37 43 38 44 39 52 40 45 41 46 42 50 43 53 44
REMARK SMILES IDX 47 45 48 46 51 47 49 48 75 49 76 50 84 51 77 52 78 53 82 54
REMARK SMILES IDX 85 55 79 56 80 57 83 58 81 59 60 60 61 61 69 62 62 63 63 64
REMARK SMILES IDX 67 65 70 66 64 67 65 68 68 69 66 70 6 71 7 72 8 73 9 74
REMARK SMILES IDX 10 75 26 76 11 77 25 78 27 79 28 80 33 81 29 82 32 83 30 84
REMARK SMILES IDX 31 85 12 86 13 87 14 88 15 89 16 90 24 91 17 92 19 94 23 95
REMARK SMILES IDX 18 96 20 97 22 98 21 99
REMARK H PARENT 90 23 58 34 16 93
REMARK Flexibility Score: inf
ROOT
ATOM      1  C   UNL A   1      35.600  21.199  25.422  1.00  0.00     0.274 C 
ENDROOT
BRANCH   1   2
ATOM      2  C   UNL A   1      36.884  20.481  24.999  1.00  0.00     0.275 C 
BRANCH   2   3
ATOM      3  O   UNL A   1      38.045  21.312  25.002  1.00  0.00    -0.458 OA
BRANCH   3   4
ATOM      4  C   UNL A   1      39.084  21.332  25.860  1.00  0.00     0.338 C 
ATOM      5  O   UNL A   1      39.621  20.254  26.121  1.00  0.00    -0.246 OA
BRANCH   4   6
ATOM      6  C   UNL A   1      39.575  22.545  26.607  1.00  0.00     0.060 A 
ATOM      7  C   UNL A   1      40.623  22.673  27.525  1.00  0.00     0.016 A 
ATOM      8  C   UNL A   1      38.898  23.721  26.285  1.00  0.00     0.016 A 
ATOM      9  C   UNL A   1      41.047  23.939  28.005  1.00  0.00     0.010 A 
ATOM     10  C   UNL A   1      39.370  24.965  26.706  1.00  0.00     0.010 A 
ATOM     11  C   UNL A   1      40.493  25.127  27.523  1.00  0.00    -0.014 A 
BRANCH  11  12
ATOM     12  C   UNL A   1      41.075  26.509  27.740  1.00  0.00     0.031 A 
ATOM     13  C   UNL A   1      42.521  26.814  27.356  1.00  0.00     0.074 A 
ATOM     14  C   UNL A   1      40.435  27.440  28.491  1.00  0.00     0.049 A 
ATOM     15  N   UNL A   1      43.286  27.830  27.688  1.00  0.00    -0.248 NA
ATOM     16  C   UNL A   1      43.227  25.804  26.549  1.00  0.00     0.031 C 
ATOM     17  C   UNL A   1      39.105  27.319  29.097  1.00  0.00     0.029 A 
ATOM     18  N   UNL A   1      40.865  28.677  28.936  1.00  0.00    -0.354 N 
ATOM     19  C   UNL A   1      44.558  27.515  27.222  1.00  0.00     0.074 A 
ATOM     20  C   UNL A   1      44.490  26.167  26.704  1.00  0.00     0.031 C 
ATOM     21  C   UNL A   1      38.855  28.391  29.865  1.00  0.00     0.029 A 
ATOM     22  C   UNL A   1      39.989  29.302  29.794  1.00  0.00     0.049 A 
ATOM     23  H   UNL A   1      41.722  29.076  28.663  1.00  0.00     0.167 HD
ATOM     24  C   UNL A   1      45.662  28.297  27.115  1.00  0.00     0.037 A 
ATOM     25  C   UNL A   1      40.061  30.482  30.442  1.00  0.00     0.037 A 
ATOM     26  C   UNL A   1      45.690  29.695  27.445  1.00  0.00     0.049 A 
ATOM     27  C   UNL A   1      41.211  31.411  30.179  1.00  0.00     0.074 A 
ATOM     28  C   UNL A   1      46.651  30.639  27.126  1.00  0.00     0.029 A 
ATOM     29  N   UNL A   1      44.695  30.354  28.145  1.00  0.00    -0.354 N 
ATOM     30  N   UNL A   1      42.325  31.180  29.534  1.00  0.00    -0.248 NA
ATOM     31  C   UNL A   1      41.074  32.793  30.664  1.00  0.00     0.031 C 
ATOM     32  C   UNL A   1      46.230  31.876  27.621  1.00  0.00     0.029 A 
ATOM     33  C   UNL A   1      44.999  31.701  28.232  1.00  0.00     0.049 A 
ATOM     34  H   UNL A   1      43.893  29.928  28.524  1.00  0.00     0.167 HD
ATOM     35  C   UNL A   1      42.984  32.399  29.469  1.00  0.00     0.074 A 
ATOM     36  C   UNL A   1      42.159  33.365  30.160  1.00  0.00     0.031 C 
ATOM     37  C   UNL A   1      44.158  32.683  28.859  1.00  0.00     0.037 A 
BRANCH  24  38
ATOM     38  C   UNL A   1      46.886  27.710  26.465  1.00  0.00     0.064 A 
ATOM     39  C   UNL A   1      47.021  27.663  25.069  1.00  0.00     0.173 A 
ATOM     40  C   UNL A   1      47.905  27.123  27.237  1.00  0.00     0.173 A 
ATOM     41  F   UNL A   1      46.067  28.174  24.277  1.00  0.00    -0.203 F 
ATOM     42  C   UNL A   1      48.135  27.070  24.476  1.00  0.00     0.198 A 
ATOM     43  C   UNL A   1      49.035  26.574  26.643  1.00  0.00     0.198 A 
ATOM     44  F   UNL A   1      47.822  27.121  28.576  1.00  0.00    -0.203 F 
ATOM     45  F   UNL A   1      48.231  27.009  23.141  1.00  0.00    -0.200 F 
ATOM     46  C   UNL A   1      49.146  26.539  25.263  1.00  0.00     0.200 A 
ATOM     47  F   UNL A   1      50.022  26.090  27.411  1.00  0.00    -0.200 F 
ATOM     48  F   UNL A   1      50.231  25.996  24.694  1.00  0.00    -0.200 F 
ENDBRANCH  24  38
BRANCH  25  49
ATOM     49  C   UNL A   1      38.931  30.931  31.293  1.00  0.00     0.064 A 
ATOM     50  C   UNL A   1      38.907  30.695  32.673  1.00  0.00     0.173 A 
ATOM     51  C   UNL A   1      37.853  31.626  30.726  1.00  0.00     0.173 A 
ATOM     52  F   UNL A   1      39.908  30.023  33.259  1.00  0.00    -0.203 F 
ATOM     53  C   UNL A   1      37.849  31.149  33.458  1.00  0.00     0.198 A 
ATOM     54  C   UNL A   1      36.804  32.092  31.514  1.00  0.00     0.198 A 
ATOM     55  F   UNL A   1      37.842  31.883  29.410  1.00  0.00    -0.203 F 
ATOM     56  F   UNL A   1      37.841  30.905  34.776  1.00  0.00    -0.200 F 
ATOM     57  C   UNL A   1      36.802  31.854  32.879  1.00  0.00     0.200 A 
ATOM     58  F   UNL A   1      35.802  32.782  30.951  1.00  0.00    -0.200 F 
ATOM     59  F   UNL A   1      35.793  32.304  33.637  1.00  0.00    -0.200 F 
ENDBRANCH  25  49
BRANCH  37  60
ATOM     60  C   UNL A   1      44.589  34.115  28.791  1.00  0.00     0.064 A 
ATOM     61  C   UNL A   1      45.406  34.644  29.805  1.00  0.00     0.173 A 
ATOM     62  C   UNL A   1      44.147  34.980  27.783  1.00  0.00     0.173 A 
ATOM     63  F   UNL A   1      45.856  33.856  30.793  1.00  0.00    -0.203 F 
ATOM     64  C   UNL A   1      45.750  35.992  29.817  1.00  0.00     0.198 A 
ATOM     65  C   UNL A   1      44.513  36.323  27.785  1.00  0.00     0.198 A 
ATOM     66  F   UNL A   1      43.381  34.516  26.784  1.00  0.00    -0.203 F 
ATOM     67  F   UNL A   1      46.505  36.482  30.809  1.00  0.00    -0.200 F 
ATOM     68  C   UNL A   1      45.305  36.830  28.806  1.00  0.00     0.200 A 
ATOM     69  F   UNL A   1      44.105  37.128  26.794  1.00  0.00    -0.200 F 
ATOM     70  F   UNL A   1      45.641  38.127  28.814  1.00  0.00    -0.200 F 
ENDBRANCH  37  60
ENDBRANCH  11  12
ENDBRANCH   4   6
ENDBRANCH   3   4
ENDBRANCH   2   3
ENDBRANCH   1   2
BRANCH   1  71
ATOM     71  O   UNL A   1      35.533  22.602  25.085  1.00  0.00    -0.462 OA
BRANCH  71  72
ATOM     72  C   UNL A   1      34.813  23.355  25.961  1.00  0.00     0.311 C 
ATOM     73  O   UNL A   1      34.479  22.971  27.077  1.00  0.00    -0.252 OA
BRANCH  72  74
ATOM     74  C   UNL A   1      34.429  24.735  25.463  1.00  0.00     0.128 C 
ATOM     75  C   UNL A   1      34.486  24.798  23.935  1.00  0.00     0.135 C 
ATOM     76  C   UNL A   1      33.037  25.261  25.870  1.00  0.00     0.055 C 
ATOM     77  N   UNL A   1      33.129  25.055  23.490  1.00  0.00    -0.341 N 
ATOM     78  C   UNL A   1      32.205  25.048  24.605  1.00  0.00     0.128 C 
BRANCH  76  79
ATOM     79  C   UNL A   1      32.925  26.718  26.319  1.00  0.00    -0.042 A 
ATOM     80  C   UNL A   1      31.689  27.163  26.837  1.00  0.00     0.007 A 
ATOM     81  C   UNL A   1      33.966  27.651  26.211  1.00  0.00     0.007 A 
ATOM     82  C   UNL A   1      31.506  28.490  27.232  1.00  0.00     0.039 A 
ATOM     83  C   UNL A   1      33.786  28.976  26.621  1.00  0.00     0.039 A 
ATOM     84  C   UNL A   1      32.559  29.384  27.123  1.00  0.00     0.123 A 
ATOM     85  F   UNL A   1      32.390  30.658  27.498  1.00  0.00    -0.207 F 
ENDBRANCH  76  79
BRANCH  77  86
ATOM     86  C   UNL A   1      32.641  25.229  22.213  1.00  0.00     0.225 C 
ATOM     87  O   UNL A   1      33.265  24.793  21.242  1.00  0.00    -0.275 OA
BRANCH  86  88
ATOM     88  C   UNL A   1      31.374  26.051  21.980  1.00  0.00     0.130 C 
BRANCH  88  89
ATOM     89  C   UNL A   1      31.274  27.271  22.900  1.00  0.00     0.123 C 
ATOM     90  N   UNL A   1      31.494  28.543  22.246  1.00  0.00    -0.345 N 
ATOM     91  C   UNL A   1      29.863  27.394  23.374  1.00  0.00    -0.012 A 
ATOM     92  C   UNL A   1      30.333  29.285  22.114  1.00  0.00     0.252 C 
ATOM     93  H   UNL A   1      32.375  28.847  21.928  1.00  0.00     0.164 HD
ATOM     94  C   UNL A   1      29.277  28.521  22.797  1.00  0.00     0.045 A 
ATOM     95  C   UNL A   1      29.114  26.490  24.104  1.00  0.00     0.007 A 
ATOM     96  O   UNL A   1      30.205  30.357  21.573  1.00  0.00    -0.269 OA
ATOM     97  C   UNL A   1      27.919  28.739  22.840  1.00  0.00     0.014 A 
ATOM     98  C   UNL A   1      27.738  26.696  24.169  1.00  0.00     0.000 A 
ATOM     99  C   UNL A   1      27.143  27.799  23.525  1.00  0.00     0.001 A 
ENDBRANCH  88  89
ENDBRANCH  86  88
ENDBRANCH  77  86
ENDBRANCH  72  74
ENDBRANCH  71  72
ENDBRANCH   1  71
TORSDOF 15
ENDMDL
