MODEL 1
REMARK VINA RESULT:     -11.0      0.000      0.000
REMARK SMILES CCCC[C@@H](C(=O)OCCOC(=O)c1ccc(-c2c3nc(c(-c4c(F)c(F)c(F)c(F)c4F)c4ccc([nH]4)c(-c4c(F)c(F)c(F)c(F)c4F)c4nc(c(-c5c(F)c(F)c(F)c(F)c5F)c5ccc2[nH]5)C=C4)C=C3)cc1)[C@@]1(O)CCC[C@H](CC)C1
REMARK SMILES IDX 9 1 8 2 6 3 7 4 5 5 4 6 3 7 2 8 1 9 77 10 79 11 85 12 80 13
REMARK SMILES IDX 82 14 81 15 78 16 83 18 84 19 10 20 11 21 12 22 13 23 14 24
REMARK SMILES IDX 15 25 76 26 16 27 75 28 17 29 18 30 19 31 69 32 20 33 74 34
REMARK SMILES IDX 68 35 70 36 21 37 73 38 67 39 66 40 22 42 54 43 34 44 53 45
REMARK SMILES IDX 35 46 38 47 52 48 71 49 36 50 37 51 51 53 72 54 39 55 23 56
REMARK SMILES IDX 24 57 32 58 25 59 26 60 30 61 33 62 27 63 28 64 31 65 29 66
REMARK SMILES IDX 55 67 56 68 64 69 57 70 58 71 62 72 65 73 59 74 60 75 63 76
REMARK SMILES IDX 61 77 40 78 41 79 49 80 42 81 43 82 47 83 50 84 44 85 45 86
REMARK SMILES IDX 48 87 46 88
REMARK H PARENT 78 17 70 41 38 52
REMARK Flexibility Score: inf
ROOT
ATOM      1  C   UNL A   1      31.400  28.652  24.706  1.00  0.00     0.274 C 
ENDROOT
BRANCH   1   2
ATOM      2  O   UNL A   1      32.242  27.719  25.417  1.00  0.00    -0.462 OA
BRANCH   2   3
ATOM      3  C   UNL A   1      31.679  26.534  25.771  1.00  0.00     0.311 C 
ATOM      4  O   UNL A   1      30.739  26.443  26.555  1.00  0.00    -0.252 OA
BRANCH   3   5
ATOM      5  C   UNL A   1      32.412  25.309  25.186  1.00  0.00     0.131 C 
BRANCH   5   6
ATOM      6  C   UNL A   1      33.931  25.488  24.986  1.00  0.00     0.018 C 
BRANCH   6   7
ATOM      7  C   UNL A   1      34.830  24.433  25.678  1.00  0.00     0.001 C 
BRANCH   7   8
ATOM      8  C   UNL A   1      35.851  23.706  24.792  1.00  0.00    -0.003 C 
ATOM      9  C   UNL A   1      37.229  23.576  25.422  1.00  0.00     0.004 C 
ENDBRANCH   7   8
ENDBRANCH   6   7
ENDBRANCH   5   6
BRANCH   5  10
ATOM     10  C   UNL A   1      31.610  24.725  23.956  1.00  0.00     0.078 C 
ATOM     11  C   UNL A   1      32.276  24.700  22.552  1.00  0.00     0.036 C 
ATOM     12  C   UNL A   1      31.139  23.298  24.327  1.00  0.00     0.039 C 
ATOM     13  C   UNL A   1      33.174  23.505  22.213  1.00  0.00     0.003 C 
ATOM     14  C   UNL A   1      32.311  22.315  24.218  1.00  0.00    -0.009 C 
ATOM     15  C   UNL A   1      32.645  22.165  22.737  1.00  0.00     0.004 C 
BRANCH  10  16
ATOM     16  O   UNL A   1      30.454  25.541  23.757  1.00  0.00    -0.389 OA
ATOM     17  H   UNL A   1      29.789  25.042  23.259  1.00  0.00     0.211 HD
ENDBRANCH  10  16
BRANCH  14  18
ATOM     18  C   UNL A   1      32.094  21.017  24.996  1.00  0.00     0.000 C 
ATOM     19  C   UNL A   1      32.847  19.804  24.492  1.00  0.00     0.004 C 
ENDBRANCH  14  18
ENDBRANCH   5  10
ENDBRANCH   3   5
ENDBRANCH   2   3
ENDBRANCH   1   2
BRANCH   1  20
ATOM     20  C   UNL A   1      31.523  30.031  25.343  1.00  0.00     0.275 C 
BRANCH  20  21
ATOM     21  O   UNL A   1      32.369  29.921  26.501  1.00  0.00    -0.458 OA
BRANCH  21  22
ATOM     22  C   UNL A   1      32.873  31.078  26.989  1.00  0.00     0.338 C 
ATOM     23  O   UNL A   1      32.313  32.160  27.031  1.00  0.00    -0.246 OA
BRANCH  22  24
ATOM     24  C   UNL A   1      34.240  30.851  27.517  1.00  0.00     0.060 A 
ATOM     25  C   UNL A   1      34.705  29.563  27.762  1.00  0.00     0.016 A 
ATOM     26  C   UNL A   1      35.035  31.938  27.884  1.00  0.00     0.016 A 
ATOM     27  C   UNL A   1      35.893  29.363  28.471  1.00  0.00     0.010 A 
ATOM     28  C   UNL A   1      36.283  31.727  28.490  1.00  0.00     0.010 A 
ATOM     29  C   UNL A   1      36.718  30.434  28.838  1.00  0.00    -0.014 A 
BRANCH  29  30
ATOM     30  C   UNL A   1      37.972  30.225  29.639  1.00  0.00     0.031 A 
ATOM     31  C   UNL A   1      39.122  29.438  29.051  1.00  0.00     0.074 A 
ATOM     32  C   UNL A   1      38.140  30.741  30.877  1.00  0.00     0.049 A 
ATOM     33  N   UNL A   1      40.135  28.865  29.655  1.00  0.00    -0.248 NA
ATOM     34  C   UNL A   1      39.120  29.256  27.592  1.00  0.00     0.031 C 
ATOM     35  C   UNL A   1      37.191  31.596  31.588  1.00  0.00     0.029 A 
ATOM     36  N   UNL A   1      39.194  30.625  31.759  1.00  0.00    -0.354 N 
ATOM     37  C   UNL A   1      40.820  28.165  28.669  1.00  0.00     0.074 A 
ATOM     38  C   UNL A   1      40.132  28.415  27.421  1.00  0.00     0.031 C 
ATOM     39  C   UNL A   1      37.730  31.986  32.753  1.00  0.00     0.029 A 
ATOM     40  C   UNL A   1      39.003  31.300  32.941  1.00  0.00     0.049 A 
ATOM     41  H   UNL A   1      40.008  30.108  31.559  1.00  0.00     0.167 HD
ATOM     42  C   UNL A   1      41.915  27.376  28.798  1.00  0.00     0.037 A 
ATOM     43  C   UNL A   1      39.724  31.319  34.080  1.00  0.00     0.037 A 
ATOM     44  C   UNL A   1      42.674  27.222  30.013  1.00  0.00     0.049 A 
ATOM     45  C   UNL A   1      40.937  30.439  34.210  1.00  0.00     0.074 A 
ATOM     46  C   UNL A   1      43.799  26.445  30.238  1.00  0.00     0.029 A 
ATOM     47  N   UNL A   1      42.412  27.892  31.197  1.00  0.00    -0.354 N 
ATOM     48  N   UNL A   1      41.482  29.646  33.321  1.00  0.00    -0.248 NA
ATOM     49  C   UNL A   1      41.604  30.419  35.520  1.00  0.00     0.031 C 
ATOM     50  C   UNL A   1      44.208  26.634  31.562  1.00  0.00     0.029 A 
ATOM     51  C   UNL A   1      43.357  27.553  32.152  1.00  0.00     0.049 A 
ATOM     52  H   UNL A   1      41.664  28.517  31.338  1.00  0.00     0.167 HD
ATOM     53  C   UNL A   1      42.545  29.027  33.964  1.00  0.00     0.074 A 
ATOM     54  C   UNL A   1      42.592  29.561  35.309  1.00  0.00     0.031 C 
ATOM     55  C   UNL A   1      43.395  28.087  33.487  1.00  0.00     0.037 A 
BRANCH  42  56
ATOM     56  C   UNL A   1      42.342  26.570  27.605  1.00  0.00     0.064 A 
ATOM     57  C   UNL A   1      43.338  27.005  26.723  1.00  0.00     0.173 A 
ATOM     58  C   UNL A   1      41.772  25.306  27.381  1.00  0.00     0.173 A 
ATOM     59  F   UNL A   1      43.905  28.210  26.886  1.00  0.00    -0.203 F 
ATOM     60  C   UNL A   1      43.738  26.211  25.649  1.00  0.00     0.198 A 
ATOM     61  C   UNL A   1      42.192  24.504  26.324  1.00  0.00     0.198 A 
ATOM     62  F   UNL A   1      40.819  24.838  28.203  1.00  0.00    -0.203 F 
ATOM     63  F   UNL A   1      44.668  26.663  24.796  1.00  0.00    -0.200 F 
ATOM     64  C   UNL A   1      43.171  24.960  25.455  1.00  0.00     0.200 A 
ATOM     65  F   UNL A   1      41.654  23.290  26.150  1.00  0.00    -0.200 F 
ATOM     66  F   UNL A   1      43.567  24.194  24.429  1.00  0.00    -0.200 F 
ENDBRANCH  42  56
BRANCH  43  67
ATOM     67  C   UNL A   1      39.269  32.143  35.232  1.00  0.00     0.064 A 
ATOM     68  C   UNL A   1      38.457  31.596  36.234  1.00  0.00     0.173 A 
ATOM     69  C   UNL A   1      39.639  33.492  35.355  1.00  0.00     0.173 A 
ATOM     70  F   UNL A   1      38.046  30.323  36.142  1.00  0.00    -0.203 F 
ATOM     71  C   UNL A   1      38.035  32.366  37.317  1.00  0.00     0.198 A 
ATOM     72  C   UNL A   1      39.245  34.249  36.454  1.00  0.00     0.198 A 
ATOM     73  F   UNL A   1      40.405  34.067  34.416  1.00  0.00    -0.203 F 
ATOM     74  F   UNL A   1      37.228  31.830  38.243  1.00  0.00    -0.200 F 
ATOM     75  C   UNL A   1      38.439  33.688  37.432  1.00  0.00     0.200 A 
ATOM     76  F   UNL A   1      39.651  35.521  36.568  1.00  0.00    -0.200 F 
ATOM     77  F   UNL A   1      38.047  34.422  38.482  1.00  0.00    -0.200 F 
ENDBRANCH  43  67
BRANCH  55  78
ATOM     78  C   UNL A   1      44.456  27.586  34.420  1.00  0.00     0.064 A 
ATOM     79  C   UNL A   1      44.251  26.449  35.215  1.00  0.00     0.173 A 
ATOM     80  C   UNL A   1      45.696  28.236  34.505  1.00  0.00     0.173 A 
ATOM     81  F   UNL A   1      43.075  25.805  35.181  1.00  0.00    -0.203 F 
ATOM     82  C   UNL A   1      45.242  25.993  36.079  1.00  0.00     0.198 A 
ATOM     83  C   UNL A   1      46.693  27.765  35.355  1.00  0.00     0.198 A 
ATOM     84  F   UNL A   1      45.940  29.326  33.762  1.00  0.00    -0.203 F 
ATOM     85  F   UNL A   1      45.011  24.930  36.862  1.00  0.00    -0.200 F 
ATOM     86  C   UNL A   1      46.464  26.649  36.145  1.00  0.00     0.200 A 
ATOM     87  F   UNL A   1      47.874  28.396  35.414  1.00  0.00    -0.200 F 
ATOM     88  F   UNL A   1      47.417  26.211  36.980  1.00  0.00    -0.200 F 
ENDBRANCH  55  78
ENDBRANCH  29  30
ENDBRANCH  22  24
ENDBRANCH  21  22
ENDBRANCH  20  21
ENDBRANCH   1  20
TORSDOF 17
ENDMDL
MODEL 2
REMARK VINA RESULT:     -11.0      0.720      1.524
REMARK SMILES CCCC[C@@H](C(=O)OCCOC(=O)c1ccc(-c2c3nc(c(-c4c(F)c(F)c(F)c(F)c4F)c4ccc([nH]4)c(-c4c(F)c(F)c(F)c(F)c4F)c4nc(c(-c5c(F)c(F)c(F)c(F)c5F)c5ccc2[nH]5)C=C4)C=C3)cc1)[C@@]1(O)CCC[C@H](CC)C1
REMARK SMILES IDX 9 1 8 2 6 3 7 4 5 5 4 6 3 7 2 8 1 9 77 10 79 11 85 12 80 13
REMARK SMILES IDX 82 14 81 15 78 16 83 18 84 19 10 20 11 21 12 22 13 23 14 24
REMARK SMILES IDX 15 25 76 26 16 27 75 28 17 29 18 30 19 31 69 32 20 33 74 34
REMARK SMILES IDX 68 35 70 36 21 37 73 38 67 39 66 40 22 42 54 43 34 44 53 45
REMARK SMILES IDX 35 46 38 47 52 48 71 49 36 50 37 51 51 53 72 54 39 55 23 56
REMARK SMILES IDX 24 57 32 58 25 59 26 60 30 61 33 62 27 63 28 64 31 65 29 66
REMARK SMILES IDX 55 67 56 68 64 69 57 70 58 71 62 72 65 73 59 74 60 75 63 76
REMARK SMILES IDX 61 77 40 78 41 79 49 80 42 81 43 82 47 83 50 84 44 85 45 86
REMARK SMILES IDX 48 87 46 88
REMARK H PARENT 78 17 70 41 38 52
REMARK Flexibility Score: inf
ROOT
ATOM      1  C   UNL A   1      31.030  29.128  24.396  1.00  0.00     0.274 C 
ENDROOT
BRANCH   1   2
ATOM      2  O   UNL A   1      31.060  27.771  23.906  1.00  0.00    -0.462 OA
BRANCH   2   3
ATOM      3  C   UNL A   1      32.251  27.317  23.435  1.00  0.00     0.311 C 
ATOM      4  O   UNL A   1      32.950  27.952  22.650  1.00  0.00    -0.252 OA
BRANCH   3   5
ATOM      5  C   UNL A   1      32.580  25.879  23.885  1.00  0.00     0.131 C 
BRANCH   5   6
ATOM      6  C   UNL A   1      34.048  25.640  24.295  1.00  0.00     0.018 C 
BRANCH   6   7
ATOM      7  C   UNL A   1      34.266  25.101  25.731  1.00  0.00     0.001 C 
BRANCH   7   8
ATOM      8  C   UNL A   1      35.321  23.999  25.903  1.00  0.00    -0.003 C 
ATOM      9  C   UNL A   1      36.115  23.706  24.640  1.00  0.00     0.004 C 
ENDBRANCH   7   8
ENDBRANCH   6   7
ENDBRANCH   5   6
BRANCH   5  10
ATOM     10  C   UNL A   1      31.958  24.833  22.877  1.00  0.00     0.078 C 
ATOM     11  C   UNL A   1      32.895  23.860  22.108  1.00  0.00     0.036 C 
ATOM     12  C   UNL A   1      30.883  24.018  23.637  1.00  0.00     0.039 C 
ATOM     13  C   UNL A   1      33.302  22.561  22.813  1.00  0.00     0.003 C 
ATOM     14  C   UNL A   1      31.556  22.974  24.535  1.00  0.00    -0.009 C 
ATOM     15  C   UNL A   1      32.172  21.916  23.623  1.00  0.00     0.004 C 
BRANCH  10  16
ATOM     16  O   UNL A   1      31.311  25.561  21.831  1.00  0.00    -0.389 OA
ATOM     17  H   UNL A   1      30.392  25.262  21.749  1.00  0.00     0.211 HD
ENDBRANCH  10  16
BRANCH  14  18
ATOM     18  C   UNL A   1      30.653  22.457  25.654  1.00  0.00     0.000 C 
ATOM     19  C   UNL A   1      30.495  23.365  26.856  1.00  0.00     0.004 C 
ENDBRANCH  14  18
ENDBRANCH   5  10
ENDBRANCH   3   5
ENDBRANCH   2   3
ENDBRANCH   1   2
BRANCH   1  20
ATOM     20  C   UNL A   1      31.697  29.187  25.765  1.00  0.00     0.275 C 
BRANCH  20  21
ATOM     21  O   UNL A   1      32.826  30.073  25.680  1.00  0.00    -0.458 OA
BRANCH  21  22
ATOM     22  C   UNL A   1      33.028  30.894  26.738  1.00  0.00     0.338 C 
ATOM     23  O   UNL A   1      32.234  31.692  27.205  1.00  0.00    -0.246 OA
BRANCH  22  24
ATOM     24  C   UNL A   1      34.381  30.672  27.301  1.00  0.00     0.060 A 
ATOM     25  C   UNL A   1      34.841  29.385  27.564  1.00  0.00     0.016 A 
ATOM     26  C   UNL A   1      35.165  31.761  27.681  1.00  0.00     0.016 A 
ATOM     27  C   UNL A   1      36.012  29.191  28.304  1.00  0.00     0.010 A 
ATOM     28  C   UNL A   1      36.398  31.555  28.319  1.00  0.00     0.010 A 
ATOM     29  C   UNL A   1      36.826  30.265  28.685  1.00  0.00    -0.014 A 
BRANCH  29  30
ATOM     30  C   UNL A   1      38.061  30.062  29.518  1.00  0.00     0.031 A 
ATOM     31  C   UNL A   1      39.232  29.287  28.956  1.00  0.00     0.074 A 
ATOM     32  C   UNL A   1      38.192  30.572  30.762  1.00  0.00     0.049 A 
ATOM     33  N   UNL A   1      40.233  28.719  29.584  1.00  0.00    -0.248 NA
ATOM     34  C   UNL A   1      39.270  29.113  27.497  1.00  0.00     0.031 C 
ATOM     35  C   UNL A   1      37.217  31.416  31.452  1.00  0.00     0.029 A 
ATOM     36  N   UNL A   1      39.223  30.461  31.671  1.00  0.00    -0.354 N 
ATOM     37  C   UNL A   1      40.950  28.030  28.613  1.00  0.00     0.074 A 
ATOM     38  C   UNL A   1      40.293  28.281  27.348  1.00  0.00     0.031 C 
ATOM     39  C   UNL A   1      37.722  31.804  32.633  1.00  0.00     0.029 A 
ATOM     40  C   UNL A   1      38.995  31.128  32.851  1.00  0.00     0.049 A 
ATOM     41  H   UNL A   1      40.046  29.951  31.490  1.00  0.00     0.167 HD
ATOM     42  C   UNL A   1      42.047  27.249  28.767  1.00  0.00     0.037 A 
ATOM     43  C   UNL A   1      39.686  31.147  34.009  1.00  0.00     0.037 A 
ATOM     44  C   UNL A   1      42.775  27.095  30.000  1.00  0.00     0.049 A 
ATOM     45  C   UNL A   1      40.902  30.276  34.166  1.00  0.00     0.074 A 
ATOM     46  C   UNL A   1      43.901  26.327  30.251  1.00  0.00     0.029 A 
ATOM     47  N   UNL A   1      42.477  27.757  31.180  1.00  0.00    -0.354 N 
ATOM     48  N   UNL A   1      41.476  29.492  33.288  1.00  0.00    -0.248 NA
ATOM     49  C   UNL A   1      41.534  30.255  35.494  1.00  0.00     0.031 C 
ATOM     50  C   UNL A   1      44.273  26.512  31.587  1.00  0.00     0.029 A 
ATOM     51  C   UNL A   1      43.399  27.421  32.159  1.00  0.00     0.049 A 
ATOM     52  H   UNL A   1      41.721  28.376  31.305  1.00  0.00     0.167 HD
ATOM     53  C   UNL A   1      42.528  28.879  33.956  1.00  0.00     0.074 A 
ATOM     54  C   UNL A   1      42.535  29.406  35.304  1.00  0.00     0.031 C 
ATOM     55  C   UNL A   1      43.397  27.948  33.497  1.00  0.00     0.037 A 
BRANCH  42  56
ATOM     56  C   UNL A   1      42.512  26.453  27.582  1.00  0.00     0.064 A 
ATOM     57  C   UNL A   1      43.525  26.903  26.726  1.00  0.00     0.173 A 
ATOM     58  C   UNL A   1      41.962  25.183  27.339  1.00  0.00     0.173 A 
ATOM     59  F   UNL A   1      44.074  28.113  26.907  1.00  0.00    -0.203 F 
ATOM     60  C   UNL A   1      43.960  26.119  25.659  1.00  0.00     0.198 A 
ATOM     61  C   UNL A   1      42.417  24.391  26.289  1.00  0.00     0.198 A 
ATOM     62  F   UNL A   1      40.995  24.702  28.136  1.00  0.00    -0.203 F 
ATOM     63  F   UNL A   1      44.905  26.584  24.830  1.00  0.00    -0.200 F 
ATOM     64  C   UNL A   1      43.412  24.862  25.446  1.00  0.00     0.200 A 
ATOM     65  F   UNL A   1      41.897  23.171  26.097  1.00  0.00    -0.200 F 
ATOM     66  F   UNL A   1      43.842  24.105  24.427  1.00  0.00    -0.200 F 
ENDBRANCH  42  56
BRANCH  43  67
ATOM     67  C   UNL A   1      39.194  31.962  35.152  1.00  0.00     0.064 A 
ATOM     68  C   UNL A   1      39.466  33.334  35.229  1.00  0.00     0.173 A 
ATOM     69  C   UNL A   1      38.440  31.387  36.187  1.00  0.00     0.173 A 
ATOM     70  F   UNL A   1      40.214  33.923  34.284  1.00  0.00    -0.203 F 
ATOM     71  C   UNL A   1      39.000  34.101  36.296  1.00  0.00     0.198 A 
ATOM     72  C   UNL A   1      37.947  32.160  37.234  1.00  0.00     0.198 A 
ATOM     73  F   UNL A   1      38.162  30.075  36.167  1.00  0.00    -0.203 F 
ATOM     74  F   UNL A   1      39.306  35.403  36.366  1.00  0.00    -0.200 F 
ATOM     75  C   UNL A   1      38.231  33.516  37.291  1.00  0.00     0.200 A 
ATOM     76  F   UNL A   1      37.191  31.592  38.184  1.00  0.00    -0.200 F 
ATOM     77  F   UNL A   1      37.770  34.256  38.308  1.00  0.00    -0.200 F 
ENDBRANCH  43  67
BRANCH  55  78
ATOM     78  C   UNL A   1      44.438  27.451  34.455  1.00  0.00     0.064 A 
ATOM     79  C   UNL A   1      44.219  26.312  35.243  1.00  0.00     0.173 A 
ATOM     80  C   UNL A   1      45.672  28.107  34.571  1.00  0.00     0.173 A 
ATOM     81  F   UNL A   1      43.048  25.662  35.179  1.00  0.00    -0.203 F 
ATOM     82  C   UNL A   1      45.191  25.860  36.131  1.00  0.00     0.198 A 
ATOM     83  C   UNL A   1      46.650  27.640  35.445  1.00  0.00     0.198 A 
ATOM     84  F   UNL A   1      45.929  29.199  33.836  1.00  0.00    -0.203 F 
ATOM     85  F   UNL A   1      44.946  24.794  36.906  1.00  0.00    -0.200 F 
ATOM     86  C   UNL A   1      46.408  26.522  36.228  1.00  0.00     0.200 A 
ATOM     87  F   UNL A   1      47.826  28.276  35.534  1.00  0.00    -0.200 F 
ATOM     88  F   UNL A   1      47.341  26.086  37.085  1.00  0.00    -0.200 F 
ENDBRANCH  55  78
ENDBRANCH  29  30
ENDBRANCH  22  24
ENDBRANCH  21  22
ENDBRANCH  20  21
ENDBRANCH   1  20
TORSDOF 17
ENDMDL
MODEL 3
REMARK VINA RESULT:     -10.9      0.713      2.264
REMARK SMILES CCCC[C@@H](C(=O)OCCOC(=O)c1ccc(-c2c3nc(c(-c4c(F)c(F)c(F)c(F)c4F)c4ccc([nH]4)c(-c4c(F)c(F)c(F)c(F)c4F)c4nc(c(-c5c(F)c(F)c(F)c(F)c5F)c5ccc2[nH]5)C=C4)C=C3)cc1)[C@@]1(O)CCC[C@H](CC)C1
REMARK SMILES IDX 9 1 8 2 6 3 7 4 5 5 4 6 3 7 2 8 1 9 77 10 79 11 85 12 80 13
REMARK SMILES IDX 82 14 81 15 78 16 83 18 84 19 10 20 11 21 12 22 13 23 14 24
REMARK SMILES IDX 15 25 76 26 16 27 75 28 17 29 18 30 19 31 69 32 20 33 74 34
REMARK SMILES IDX 68 35 70 36 21 37 73 38 67 39 66 40 22 42 54 43 34 44 53 45
REMARK SMILES IDX 35 46 38 47 52 48 71 49 36 50 37 51 51 53 72 54 39 55 23 56
REMARK SMILES IDX 24 57 32 58 25 59 26 60 30 61 33 62 27 63 28 64 31 65 29 66
REMARK SMILES IDX 55 67 56 68 64 69 57 70 58 71 62 72 65 73 59 74 60 75 63 76
REMARK SMILES IDX 61 77 40 78 41 79 49 80 42 81 43 82 47 83 50 84 44 85 45 86
REMARK SMILES IDX 48 87 46 88
REMARK H PARENT 78 17 70 41 38 52
REMARK Flexibility Score: inf
ROOT
ATOM      1  C   UNL A   1      32.119  27.983  25.246  1.00  0.00     0.274 C 
ENDROOT
BRANCH   1   2
ATOM      2  O   UNL A   1      31.996  26.884  26.172  1.00  0.00    -0.462 OA
BRANCH   2   3
ATOM      3  C   UNL A   1      31.103  25.911  25.852  1.00  0.00     0.311 C 
ATOM      4  O   UNL A   1      29.933  25.924  26.224  1.00  0.00    -0.252 OA
BRANCH   3   5
ATOM      5  C   UNL A   1      31.731  24.732  25.081  1.00  0.00     0.131 C 
BRANCH   5   6
ATOM      6  C   UNL A   1      31.011  24.347  23.773  1.00  0.00     0.018 C 
BRANCH   6   7
ATOM      7  C   UNL A   1      31.849  24.482  22.477  1.00  0.00     0.001 C 
BRANCH   7   8
ATOM      8  C   UNL A   1      32.187  25.908  22.018  1.00  0.00    -0.003 C 
ATOM      9  C   UNL A   1      33.624  26.318  22.295  1.00  0.00     0.004 C 
ENDBRANCH   7   8
ENDBRANCH   6   7
ENDBRANCH   5   6
BRANCH   5  10
ATOM     10  C   UNL A   1      32.065  23.546  26.069  1.00  0.00     0.078 C 
ATOM     11  C   UNL A   1      31.463  22.138  25.806  1.00  0.00     0.036 C 
ATOM     12  C   UNL A   1      33.606  23.434  26.177  1.00  0.00     0.039 C 
ATOM     13  C   UNL A   1      32.214  21.213  24.841  1.00  0.00     0.003 C 
ATOM     14  C   UNL A   1      34.169  22.747  24.927  1.00  0.00    -0.009 C 
ATOM     15  C   UNL A   1      33.739  21.283  24.977  1.00  0.00     0.004 C 
BRANCH  10  16
ATOM     16  O   UNL A   1      31.551  23.888  27.358  1.00  0.00    -0.389 OA
ATOM     17  H   UNL A   1      31.074  23.128  27.727  1.00  0.00     0.211 HD
ENDBRANCH  10  16
BRANCH  14  18
ATOM     18  C   UNL A   1      35.660  23.005  24.707  1.00  0.00     0.000 C 
ATOM     19  C   UNL A   1      36.121  23.061  23.266  1.00  0.00     0.004 C 
ENDBRANCH  14  18
ENDBRANCH   5  10
ENDBRANCH   3   5
ENDBRANCH   2   3
ENDBRANCH   1   2
BRANCH   1  20
ATOM     20  C   UNL A   1      31.767  29.285  25.956  1.00  0.00     0.275 C 
BRANCH  20  21
ATOM     21  O   UNL A   1      32.866  30.199  25.796  1.00  0.00    -0.458 OA
BRANCH  21  22
ATOM     22  C   UNL A   1      33.099  31.045  26.827  1.00  0.00     0.338 C 
ATOM     23  O   UNL A   1      32.333  31.882  27.273  1.00  0.00    -0.246 OA
BRANCH  22  24
ATOM     24  C   UNL A   1      34.447  30.797  27.390  1.00  0.00     0.060 A 
ATOM     25  C   UNL A   1      34.861  29.507  27.706  1.00  0.00     0.016 A 
ATOM     26  C   UNL A   1      35.274  31.872  27.718  1.00  0.00     0.016 A 
ATOM     27  C   UNL A   1      36.030  29.301  28.446  1.00  0.00     0.010 A 
ATOM     28  C   UNL A   1      36.504  31.648  28.356  1.00  0.00     0.010 A 
ATOM     29  C   UNL A   1      36.886  30.360  28.776  1.00  0.00    -0.014 A 
BRANCH  29  30
ATOM     30  C   UNL A   1      38.119  30.147  29.609  1.00  0.00     0.031 A 
ATOM     31  C   UNL A   1      39.273  29.339  29.058  1.00  0.00     0.074 A 
ATOM     32  C   UNL A   1      38.264  30.676  30.843  1.00  0.00     0.049 A 
ATOM     33  N   UNL A   1      40.265  28.763  29.693  1.00  0.00    -0.248 NA
ATOM     34  C   UNL A   1      39.304  29.139  27.601  1.00  0.00     0.031 C 
ATOM     35  C   UNL A   1      37.308  31.550  31.521  1.00  0.00     0.029 A 
ATOM     36  N   UNL A   1      39.295  30.560  31.751  1.00  0.00    -0.354 N 
ATOM     37  C   UNL A   1      40.965  28.043  28.732  1.00  0.00     0.074 A 
ATOM     38  C   UNL A   1      40.309  28.285  27.465  1.00  0.00     0.031 C 
ATOM     39  C   UNL A   1      37.823  31.949  32.694  1.00  0.00     0.029 A 
ATOM     40  C   UNL A   1      39.084  31.251  32.921  1.00  0.00     0.049 A 
ATOM     41  H   UNL A   1      40.107  30.031  31.578  1.00  0.00     0.167 HD
ATOM     42  C   UNL A   1      42.047  27.243  28.897  1.00  0.00     0.037 A 
ATOM     43  C   UNL A   1      39.778  31.277  34.076  1.00  0.00     0.037 A 
ATOM     44  C   UNL A   1      42.775  27.096  30.131  1.00  0.00     0.049 A 
ATOM     45  C   UNL A   1      40.977  30.385  34.245  1.00  0.00     0.074 A 
ATOM     46  C   UNL A   1      43.886  26.310  30.393  1.00  0.00     0.029 A 
ATOM     47  N   UNL A   1      42.493  27.784  31.300  1.00  0.00    -0.354 N 
ATOM     48  N   UNL A   1      41.533  29.575  33.380  1.00  0.00    -0.248 NA
ATOM     49  C   UNL A   1      41.612  30.375  35.572  1.00  0.00     0.031 C 
ATOM     50  C   UNL A   1      44.266  26.511  31.724  1.00  0.00     0.029 A 
ATOM     51  C   UNL A   1      43.411  27.446  32.282  1.00  0.00     0.049 A 
ATOM     52  H   UNL A   1      41.750  28.419  31.416  1.00  0.00     0.167 HD
ATOM     53  C   UNL A   1      42.574  28.953  34.056  1.00  0.00     0.074 A 
ATOM     54  C   UNL A   1      42.595  29.503  35.395  1.00  0.00     0.031 C 
ATOM     55  C   UNL A   1      43.424  27.997  33.611  1.00  0.00     0.037 A 
BRANCH  42  56
ATOM     56  C   UNL A   1      42.493  26.417  27.725  1.00  0.00     0.064 A 
ATOM     57  C   UNL A   1      41.934  25.168  27.430  1.00  0.00     0.173 A 
ATOM     58  C   UNL A   1      43.466  26.926  26.847  1.00  0.00     0.173 A 
ATOM     59  F   UNL A   1      41.011  24.633  28.243  1.00  0.00    -0.203 F 
ATOM     60  C   UNL A   1      42.345  24.448  26.310  1.00  0.00     0.198 A 
ATOM     61  C   UNL A   1      43.853  26.216  25.715  1.00  0.00     0.198 A 
ATOM     62  F   UNL A   1      44.025  28.123  27.080  1.00  0.00    -0.203 F 
ATOM     63  F   UNL A   1      41.823  23.237  26.067  1.00  0.00    -0.200 F 
ATOM     64  C   UNL A   1      43.296  24.975  25.450  1.00  0.00     0.200 A 
ATOM     65  F   UNL A   1      44.761  26.737  24.878  1.00  0.00    -0.200 F 
ATOM     66  F   UNL A   1      43.679  24.286  24.366  1.00  0.00    -0.200 F 
ENDBRANCH  42  56
BRANCH  43  67
ATOM     67  C   UNL A   1      39.305  32.121  35.206  1.00  0.00     0.064 A 
ATOM     68  C   UNL A   1      38.533  31.575  36.240  1.00  0.00     0.173 A 
ATOM     69  C   UNL A   1      39.619  33.487  35.277  1.00  0.00     0.173 A 
ATOM     70  F   UNL A   1      38.174  30.284  36.198  1.00  0.00    -0.203 F 
ATOM     71  C   UNL A   1      38.094  32.363  37.303  1.00  0.00     0.198 A 
ATOM     72  C   UNL A   1      39.209  34.265  36.356  1.00  0.00     0.198 A 
ATOM     73  F   UNL A   1      40.345  34.061  34.307  1.00  0.00    -0.203 F 
ATOM     74  F   UNL A   1      37.325  31.826  38.259  1.00  0.00    -0.200 F 
ATOM     75  C   UNL A   1      38.442  33.704  37.366  1.00  0.00     0.200 A 
ATOM     76  F   UNL A   1      39.562  35.556  36.420  1.00  0.00    -0.200 F 
ATOM     77  F   UNL A   1      38.035  34.458  38.396  1.00  0.00    -0.200 F 
ENDBRANCH  43  67
BRANCH  55  78
ATOM     78  C   UNL A   1      44.457  27.496  34.575  1.00  0.00     0.064 A 
ATOM     79  C   UNL A   1      45.696  28.138  34.715  1.00  0.00     0.173 A 
ATOM     80  C   UNL A   1      44.200  26.377  35.379  1.00  0.00     0.173 A 
ATOM     81  F   UNL A   1      45.994  29.202  33.954  1.00  0.00    -0.203 F 
ATOM     82  C   UNL A   1      46.650  27.663  35.611  1.00  0.00     0.198 A 
ATOM     83  C   UNL A   1      45.147  25.917  36.290  1.00  0.00     0.198 A 
ATOM     84  F   UNL A   1      43.028  25.731  35.283  1.00  0.00    -0.203 F 
ATOM     85  F   UNL A   1      47.844  28.266  35.699  1.00  0.00    -0.200 F 
ATOM     86  C   UNL A   1      46.373  26.556  36.401  1.00  0.00     0.200 A 
ATOM     87  F   UNL A   1      44.877  24.851  37.055  1.00  0.00    -0.200 F 
ATOM     88  F   UNL A   1      47.293  26.099  37.261  1.00  0.00    -0.200 F 
ENDBRANCH  55  78
ENDBRANCH  29  30
ENDBRANCH  22  24
ENDBRANCH  21  22
ENDBRANCH  20  21
ENDBRANCH   1  20
TORSDOF 17
ENDMDL
