MODEL 1
REMARK VINA RESULT:     -11.9      0.000      0.000
REMARK SMILES CCC[NH2+][C@@]1(C(=O)OCCOC(=O)c2ccc(-c3c4nc(c(-c5c(F)c(F)c(F)c(F)c5F)c5ccc([nH]5)c(-c5c(F)c(F)c(F)c(F)c5F)c5nc(c(-c6c(F)c(F)c(F)c(F)c6F)c6ccc3[nH]6)C=C5)C=C4)cc2)CCC[C@H](n2nc(C)c(C)c2C)C1
REMARK SMILES IDX 9 1 8 2 6 3 7 4 5 5 77 6 89 7 78 8 80 9 79 10 4 11 3 14 2 15
REMARK SMILES IDX 1 16 81 17 82 18 87 19 83 20 85 21 88 22 84 23 86 24 10 25
REMARK SMILES IDX 11 26 12 27 13 28 14 29 15 30 76 31 16 32 75 33 17 34 18 35
REMARK SMILES IDX 19 36 69 37 20 38 74 39 68 40 70 41 21 42 73 43 67 44 66 45
REMARK SMILES IDX 22 47 54 48 34 49 53 50 35 51 38 52 52 53 71 54 36 55 37 56
REMARK SMILES IDX 51 58 72 59 39 60 23 61 24 62 32 63 25 64 26 65 30 66 33 67
REMARK SMILES IDX 27 68 28 69 31 70 29 71 55 72 56 73 64 74 57 75 58 76 62 77
REMARK SMILES IDX 65 78 59 79 60 80 63 81 61 82 40 83 41 84 49 85 42 86 43 87
REMARK SMILES IDX 47 88 50 89 44 90 45 91 48 92 46 93
REMARK H PARENT 4 12 4 13 70 46 38 57
REMARK Flexibility Score: inf
ROOT
ATOM      1  C   UNL A   1      35.814  20.777  25.037  1.00  0.00     0.274 C 
ENDROOT
BRANCH   1   2
ATOM      2  O   UNL A   1      35.393  22.129  24.770  1.00  0.00    -0.457 OA
BRANCH   2   3
ATOM      3  C   UNL A   1      34.844  22.829  25.787  1.00  0.00     0.368 C 
ATOM      4  O   UNL A   1      35.083  22.632  26.976  1.00  0.00    -0.245 OA
BRANCH   3   5
ATOM      5  C   UNL A   1      33.756  23.841  25.304  1.00  0.00     0.196 C 
ATOM      6  C   UNL A   1      32.864  24.128  26.527  1.00  0.00     0.081 C 
ATOM      7  C   UNL A   1      32.914  23.403  24.085  1.00  0.00     0.108 C 
ATOM      8  C   UNL A   1      31.857  23.013  26.795  1.00  0.00     0.009 C 
ATOM      9  C   UNL A   1      31.754  22.407  24.303  1.00  0.00     0.114 C 
ATOM     10  C   UNL A   1      30.966  22.779  25.579  1.00  0.00     0.028 C 
BRANCH   5  11
ATOM     11  N   UNL A   1      34.450  25.150  25.002  1.00  0.00    -0.332 N 
ATOM     12  H   UNL A   1      34.581  25.651  25.881  1.00  0.00     0.347 HD
ATOM     13  H   UNL A   1      35.328  24.911  24.542  1.00  0.00     0.347 HD
BRANCH  11  14
ATOM     14  C   UNL A   1      33.729  26.030  24.079  1.00  0.00     0.261 C 
BRANCH  14  15
ATOM     15  C   UNL A   1      33.599  27.478  24.568  1.00  0.00     0.058 C 
ATOM     16  C   UNL A   1      33.797  27.676  26.063  1.00  0.00     0.010 C 
ENDBRANCH  14  15
ENDBRANCH  11  14
ENDBRANCH   5  11
BRANCH   9  17
ATOM     17  N   UNL A   1      32.108  20.990  24.172  1.00  0.00    -0.266 N 
ATOM     18  N   UNL A   1      32.246  20.241  25.288  1.00  0.00    -0.178 NA
ATOM     19  C   UNL A   1      32.174  20.223  23.024  1.00  0.00     0.039 A 
ATOM     20  C   UNL A   1      32.493  19.007  24.846  1.00  0.00     0.063 A 
ATOM     21  C   UNL A   1      32.554  18.955  23.434  1.00  0.00    -0.007 A 
ATOM     22  C   UNL A   1      31.880  20.708  21.648  1.00  0.00     0.066 C 
ATOM     23  C   UNL A   1      32.636  17.885  25.805  1.00  0.00     0.069 C 
ATOM     24  C   UNL A   1      32.893  17.781  22.591  1.00  0.00     0.048 C 
ENDBRANCH   9  17
ENDBRANCH   3   5
ENDBRANCH   2   3
ENDBRANCH   1   2
BRANCH   1  25
ATOM     25  C   UNL A   1      37.327  20.640  24.928  1.00  0.00     0.275 C 
BRANCH  25  26
ATOM     26  O   UNL A   1      37.946  21.644  25.744  1.00  0.00    -0.458 OA
BRANCH  26  27
ATOM     27  C   UNL A   1      39.202  21.385  26.163  1.00  0.00     0.338 C 
ATOM     28  O   UNL A   1      39.781  20.308  26.193  1.00  0.00    -0.246 OA
BRANCH  27  29
ATOM     29  C   UNL A   1      39.817  22.635  26.630  1.00  0.00     0.060 A 
ATOM     30  C   UNL A   1      40.856  22.600  27.558  1.00  0.00     0.016 A 
ATOM     31  C   UNL A   1      39.321  23.856  26.171  1.00  0.00     0.016 A 
ATOM     32  C   UNL A   1      41.368  23.786  28.061  1.00  0.00     0.010 A 
ATOM     33  C   UNL A   1      39.915  25.044  26.596  1.00  0.00     0.010 A 
ATOM     34  C   UNL A   1      40.952  25.016  27.540  1.00  0.00    -0.014 A 
BRANCH  34  35
ATOM     35  C   UNL A   1      41.682  26.248  27.919  1.00  0.00     0.031 A 
ATOM     36  C   UNL A   1      41.031  27.293  28.768  1.00  0.00     0.074 A 
ATOM     37  C   UNL A   1      42.943  26.411  27.474  1.00  0.00     0.049 A 
ATOM     38  N   UNL A   1      41.422  28.516  29.014  1.00  0.00    -0.248 NA
ATOM     39  C   UNL A   1      39.767  26.922  29.421  1.00  0.00     0.031 C 
ATOM     40  C   UNL A   1      43.687  25.426  26.681  1.00  0.00     0.029 A 
ATOM     41  N   UNL A   1      43.827  27.447  27.623  1.00  0.00    -0.354 N 
ATOM     42  C   UNL A   1      40.423  29.083  29.793  1.00  0.00     0.074 A 
ATOM     43  C   UNL A   1      39.422  28.060  30.007  1.00  0.00     0.031 C 
ATOM     44  C   UNL A   1      44.926  25.881  26.460  1.00  0.00     0.029 A 
ATOM     45  C   UNL A   1      45.021  27.239  26.977  1.00  0.00     0.049 A 
ATOM     46  H   UNL A   1      43.627  28.259  28.143  1.00  0.00     0.167 HD
ATOM     47  C   UNL A   1      40.353  30.355  30.254  1.00  0.00     0.037 A 
ATOM     48  C   UNL A   1      46.053  28.072  26.755  1.00  0.00     0.037 A 
ATOM     49  C   UNL A   1      41.385  31.338  30.040  1.00  0.00     0.049 A 
ATOM     50  C   UNL A   1      45.945  29.478  27.258  1.00  0.00     0.074 A 
ATOM     51  C   UNL A   1      41.422  32.661  30.444  1.00  0.00     0.029 A 
ATOM     52  N   UNL A   1      42.574  31.096  29.362  1.00  0.00    -0.354 N 
ATOM     53  N   UNL A   1      44.962  30.038  27.920  1.00  0.00    -0.248 NA
ATOM     54  C   UNL A   1      47.064  30.377  26.957  1.00  0.00     0.031 C 
ATOM     55  C   UNL A   1      42.613  33.228  29.975  1.00  0.00     0.029 A 
ATOM     56  C   UNL A   1      43.343  32.247  29.320  1.00  0.00     0.049 A 
ATOM     57  H   UNL A   1      42.833  30.231  28.969  1.00  0.00     0.167 HD
ATOM     58  C   UNL A   1      45.332  31.358  28.108  1.00  0.00     0.074 A 
ATOM     59  C   UNL A   1      46.647  31.507  27.512  1.00  0.00     0.031 C 
ATOM     60  C   UNL A   1      44.643  32.361  28.707  1.00  0.00     0.037 A 
BRANCH  47  61
ATOM     61  C   UNL A   1      39.092  30.771  30.955  1.00  0.00     0.064 A 
ATOM     62  C   UNL A   1      38.944  30.690  32.346  1.00  0.00     0.173 A 
ATOM     63  C   UNL A   1      38.009  31.267  30.210  1.00  0.00     0.173 A 
ATOM     64  F   UNL A   1      39.939  30.207  33.106  1.00  0.00    -0.203 F 
ATOM     65  C   UNL A   1      37.750  31.065  32.964  1.00  0.00     0.198 A 
ATOM     66  C   UNL A   1      36.829  31.664  30.831  1.00  0.00     0.198 A 
ATOM     67  F   UNL A   1      38.097  31.364  28.875  1.00  0.00    -0.203 F 
ATOM     68  F   UNL A   1      37.612  30.934  34.290  1.00  0.00    -0.200 F 
ATOM     69  C   UNL A   1      36.696  31.555  32.206  1.00  0.00     0.200 A 
ATOM     70  F   UNL A   1      35.815  32.143  30.096  1.00  0.00    -0.200 F 
ATOM     71  F   UNL A   1      35.549  31.912  32.800  1.00  0.00    -0.200 F 
ENDBRANCH  47  61
BRANCH  48  72
ATOM     72  C   UNL A   1      47.212  27.593  25.957  1.00  0.00     0.064 A 
ATOM     73  C   UNL A   1      47.221  27.690  24.561  1.00  0.00     0.173 A 
ATOM     74  C   UNL A   1      48.376  27.122  26.586  1.00  0.00     0.173 A 
ATOM     75  F   UNL A   1      46.127  28.113  23.911  1.00  0.00    -0.203 F 
ATOM     76  C   UNL A   1      48.357  27.352  23.826  1.00  0.00     0.198 A 
ATOM     77  C   UNL A   1      49.520  26.817  25.854  1.00  0.00     0.198 A 
ATOM     78  F   UNL A   1      48.421  27.015  27.923  1.00  0.00    -0.203 F 
ATOM     79  F   UNL A   1      48.339  27.443  22.489  1.00  0.00    -0.200 F 
ATOM     80  C   UNL A   1      49.510  26.933  24.473  1.00  0.00     0.200 A 
ATOM     81  F   UNL A   1      50.639  26.440  26.489  1.00  0.00    -0.200 F 
ATOM     82  F   UNL A   1      50.612  26.646  23.769  1.00  0.00    -0.200 F 
ENDBRANCH  48  72
BRANCH  60  83
ATOM     83  C   UNL A   1      45.313  33.699  28.747  1.00  0.00     0.064 A 
ATOM     84  C   UNL A   1      45.099  34.652  27.741  1.00  0.00     0.173 A 
ATOM     85  C   UNL A   1      46.152  34.039  29.817  1.00  0.00     0.173 A 
ATOM     86  F   UNL A   1      44.319  34.361  26.690  1.00  0.00    -0.203 F 
ATOM     87  C   UNL A   1      45.720  35.896  27.797  1.00  0.00     0.198 A 
ATOM     88  C   UNL A   1      46.753  35.292  29.881  1.00  0.00     0.198 A 
ATOM     89  F   UNL A   1      46.384  33.157  30.801  1.00  0.00    -0.203 F 
ATOM     90  F   UNL A   1      45.536  36.779  26.807  1.00  0.00    -0.200 F 
ATOM     91  C   UNL A   1      46.540  36.216  28.869  1.00  0.00     0.200 A 
ATOM     92  F   UNL A   1      47.540  35.603  30.919  1.00  0.00    -0.200 F 
ATOM     93  F   UNL A   1      47.135  37.416  28.922  1.00  0.00    -0.200 F 
ENDBRANCH  60  83
ENDBRANCH  34  35
ENDBRANCH  27  29
ENDBRANCH  26  27
ENDBRANCH  25  26
ENDBRANCH   1  25
TORSDOF 15
ENDMDL
MODEL 2
REMARK VINA RESULT:     -11.9      4.735      9.982
REMARK SMILES CCC[NH2+][C@@]1(C(=O)OCCOC(=O)c2ccc(-c3c4nc(c(-c5c(F)c(F)c(F)c(F)c5F)c5ccc([nH]5)c(-c5c(F)c(F)c(F)c(F)c5F)c5nc(c(-c6c(F)c(F)c(F)c(F)c6F)c6ccc3[nH]6)C=C5)C=C4)cc2)CCC[C@H](n2nc(C)c(C)c2C)C1
REMARK SMILES IDX 9 1 8 2 6 3 7 4 5 5 77 6 89 7 78 8 80 9 79 10 4 11 3 14 2 15
REMARK SMILES IDX 1 16 81 17 82 18 87 19 83 20 85 21 88 22 84 23 86 24 10 25
REMARK SMILES IDX 11 26 12 27 13 28 14 29 15 30 76 31 16 32 75 33 17 34 18 35
REMARK SMILES IDX 19 36 69 37 20 38 74 39 68 40 70 41 21 42 73 43 67 44 66 45
REMARK SMILES IDX 22 47 54 48 34 49 53 50 35 51 38 52 52 53 71 54 36 55 37 56
REMARK SMILES IDX 51 58 72 59 39 60 23 61 24 62 32 63 25 64 26 65 30 66 33 67
REMARK SMILES IDX 27 68 28 69 31 70 29 71 55 72 56 73 64 74 57 75 58 76 62 77
REMARK SMILES IDX 65 78 59 79 60 80 63 81 61 82 40 83 41 84 49 85 42 86 43 87
REMARK SMILES IDX 47 88 50 89 44 90 45 91 48 92 46 93
REMARK H PARENT 4 12 4 13 70 46 38 57
REMARK Flexibility Score: inf
ROOT
ATOM      1  C   UNL A   1      31.598  29.674  25.385  1.00  0.00     0.274 C 
ENDROOT
BRANCH   1   2
ATOM      2  O   UNL A   1      32.001  28.319  25.667  1.00  0.00    -0.457 OA
BRANCH   2   3
ATOM      3  C   UNL A   1      33.074  27.832  25.004  1.00  0.00     0.368 C 
ATOM      4  O   UNL A   1      33.991  28.521  24.563  1.00  0.00    -0.245 OA
BRANCH   3   5
ATOM      5  C   UNL A   1      32.967  26.298  24.729  1.00  0.00     0.196 C 
ATOM      6  C   UNL A   1      33.868  26.015  23.512  1.00  0.00     0.081 C 
ATOM      7  C   UNL A   1      31.541  25.743  24.514  1.00  0.00     0.108 C 
ATOM      8  C   UNL A   1      33.209  26.403  22.191  1.00  0.00     0.009 C 
ATOM      9  C   UNL A   1      30.868  25.939  23.138  1.00  0.00     0.114 C 
ATOM     10  C   UNL A   1      31.885  25.668  22.006  1.00  0.00     0.028 C 
BRANCH   5  11
ATOM     11  N   UNL A   1      33.625  25.579  25.886  1.00  0.00    -0.332 N 
ATOM     12  H   UNL A   1      34.634  25.710  25.809  1.00  0.00     0.347 HD
ATOM     13  H   UNL A   1      33.232  25.982  26.737  1.00  0.00     0.347 HD
BRANCH  11  14
ATOM     14  C   UNL A   1      33.356  24.141  25.949  1.00  0.00     0.261 C 
BRANCH  14  15
ATOM     15  C   UNL A   1      34.575  23.292  26.336  1.00  0.00     0.058 C 
ATOM     16  C   UNL A   1      35.896  23.748  25.736  1.00  0.00     0.010 C 
ENDBRANCH  14  15
ENDBRANCH  11  14
ENDBRANCH   5  11
BRANCH   9  17
ATOM     17  N   UNL A   1      30.076  27.165  22.993  1.00  0.00    -0.266 N 
ATOM     18  N   UNL A   1      30.557  28.172  22.233  1.00  0.00    -0.178 NA
ATOM     19  C   UNL A   1      28.778  27.402  23.405  1.00  0.00     0.039 A 
ATOM     20  C   UNL A   1      29.596  29.097  22.239  1.00  0.00     0.063 A 
ATOM     21  C   UNL A   1      28.494  28.708  23.037  1.00  0.00    -0.007 A 
ATOM     22  C   UNL A   1      27.902  26.418  24.097  1.00  0.00     0.066 C 
ATOM     23  C   UNL A   1      29.747  30.337  21.440  1.00  0.00     0.069 C 
ATOM     24  C   UNL A   1      27.284  29.508  23.352  1.00  0.00     0.048 C 
ENDBRANCH   9  17
ENDBRANCH   3   5
ENDBRANCH   2   3
ENDBRANCH   1   2
BRANCH   1  25
ATOM     25  C   UNL A   1      31.895  30.592  26.563  1.00  0.00     0.275 C 
BRANCH  25  26
ATOM     26  O   UNL A   1      33.283  30.951  26.536  1.00  0.00    -0.458 OA
BRANCH  26  27
ATOM     27  C   UNL A   1      33.682  31.873  27.436  1.00  0.00     0.338 C 
ATOM     28  O   UNL A   1      33.130  32.924  27.736  1.00  0.00    -0.246 OA
BRANCH  27  29
ATOM     29  C   UNL A   1      34.954  31.443  28.030  1.00  0.00     0.060 A 
ATOM     30  C   UNL A   1      35.996  32.354  28.193  1.00  0.00     0.016 A 
ATOM     31  C   UNL A   1      35.126  30.104  28.387  1.00  0.00     0.016 A 
ATOM     32  C   UNL A   1      37.223  31.919  28.670  1.00  0.00     0.010 A 
ATOM     33  C   UNL A   1      36.325  29.695  28.971  1.00  0.00     0.010 A 
ATOM     34  C   UNL A   1      37.381  30.605  29.124  1.00  0.00    -0.014 A 
BRANCH  34  35
ATOM     35  C   UNL A   1      38.619  30.233  29.847  1.00  0.00     0.031 A 
ATOM     36  C   UNL A   1      39.616  29.304  29.231  1.00  0.00     0.074 A 
ATOM     37  C   UNL A   1      38.822  30.742  31.078  1.00  0.00     0.049 A 
ATOM     38  N   UNL A   1      40.631  28.697  29.788  1.00  0.00    -0.248 NA
ATOM     39  C   UNL A   1      39.448  29.009  27.800  1.00  0.00     0.031 C 
ATOM     40  C   UNL A   1      37.934  31.698  31.749  1.00  0.00     0.029 A 
ATOM     41  N   UNL A   1      39.832  30.543  31.982  1.00  0.00    -0.354 N 
ATOM     42  C   UNL A   1      41.183  27.897  28.798  1.00  0.00     0.074 A 
ATOM     43  C   UNL A   1      40.410  28.120  27.594  1.00  0.00     0.031 C 
ATOM     44  C   UNL A   1      38.462  32.040  32.929  1.00  0.00     0.029 A 
ATOM     45  C   UNL A   1      39.651  31.232  33.157  1.00  0.00     0.049 A 
ATOM     46  H   UNL A   1      40.610  29.966  31.807  1.00  0.00     0.167 HD
ATOM     47  C   UNL A   1      42.224  27.037  28.911  1.00  0.00     0.037 A 
ATOM     48  C   UNL A   1      40.321  31.166  34.322  1.00  0.00     0.037 A 
ATOM     49  C   UNL A   1      42.985  26.863  30.123  1.00  0.00     0.049 A 
ATOM     50  C   UNL A   1      41.456  30.196  34.429  1.00  0.00     0.074 A 
ATOM     51  C   UNL A   1      44.050  26.013  30.364  1.00  0.00     0.029 A 
ATOM     52  N   UNL A   1      42.759  27.565  31.301  1.00  0.00    -0.354 N 
ATOM     53  N   UNL A   1      41.923  29.376  33.518  1.00  0.00    -0.248 NA
ATOM     54  C   UNL A   1      42.135  30.111  35.726  1.00  0.00     0.031 C 
ATOM     55  C   UNL A   1      44.441  26.172  31.700  1.00  0.00     0.029 A 
ATOM     56  C   UNL A   1      43.651  27.155  32.279  1.00  0.00     0.049 A 
ATOM     57  H   UNL A   1      42.066  28.253  31.424  1.00  0.00     0.167 HD
ATOM     58  C   UNL A   1      42.942  28.668  34.130  1.00  0.00     0.074 A 
ATOM     59  C   UNL A   1      43.044  29.177  35.485  1.00  0.00     0.031 C 
ATOM     60  C   UNL A   1      43.715  27.677  33.622  1.00  0.00     0.037 A 
BRANCH  47  61
ATOM     61  C   UNL A   1      42.540  26.169  27.727  1.00  0.00     0.064 A 
ATOM     62  C   UNL A   1      41.887  24.952  27.492  1.00  0.00     0.173 A 
ATOM     63  C   UNL A   1      43.519  26.575  26.806  1.00  0.00     0.173 A 
ATOM     64  F   UNL A   1      40.956  24.507  28.349  1.00  0.00    -0.203 F 
ATOM     65  C   UNL A   1      42.220  24.160  26.393  1.00  0.00     0.198 A 
ATOM     66  C   UNL A   1      43.832  25.795  25.696  1.00  0.00     0.198 A 
ATOM     67  F   UNL A   1      44.176  27.731  26.983  1.00  0.00    -0.203 F 
ATOM     68  F   UNL A   1      41.618  22.976  26.213  1.00  0.00    -0.200 F 
ATOM     69  C   UNL A   1      43.189  24.583  25.494  1.00  0.00     0.200 A 
ATOM     70  F   UNL A   1      44.764  26.211  24.828  1.00  0.00    -0.200 F 
ATOM     71  F   UNL A   1      43.511  23.820  24.441  1.00  0.00    -0.200 F 
ENDBRANCH  47  61
BRANCH  48  72
ATOM     72  C   UNL A   1      39.861  31.992  35.468  1.00  0.00     0.064 A 
ATOM     73  C   UNL A   1      40.346  33.291  35.667  1.00  0.00     0.173 A 
ATOM     74  C   UNL A   1      38.850  31.535  36.329  1.00  0.00     0.173 A 
ATOM     75  F   UNL A   1      41.326  33.767  34.885  1.00  0.00    -0.203 F 
ATOM     76  C   UNL A   1      39.824  34.106  36.670  1.00  0.00     0.198 A 
ATOM     77  C   UNL A   1      38.306  32.362  37.309  1.00  0.00     0.198 A 
ATOM     78  F   UNL A   1      38.347  30.301  36.178  1.00  0.00    -0.203 F 
ATOM     79  F   UNL A   1      40.312  35.341  36.848  1.00  0.00    -0.200 F 
ATOM     80  C   UNL A   1      38.794  33.648  37.479  1.00  0.00     0.200 A 
ATOM     81  F   UNL A   1      37.293  31.921  38.067  1.00  0.00    -0.200 F 
ATOM     82  F   UNL A   1      38.267  34.446  38.417  1.00  0.00    -0.200 F 
ENDBRANCH  48  72
BRANCH  60  83
ATOM     83  C   UNL A   1      44.740  27.092  34.543  1.00  0.00     0.064 A 
ATOM     84  C   UNL A   1      44.460  25.960  35.322  1.00  0.00     0.173 A 
ATOM     85  C   UNL A   1      46.022  27.654  34.624  1.00  0.00     0.173 A 
ATOM     86  F   UNL A   1      43.241  25.404  35.289  1.00  0.00    -0.203 F 
ATOM     87  C   UNL A   1      45.426  25.421  36.166  1.00  0.00     0.198 A 
ATOM     88  C   UNL A   1      46.992  27.098  35.451  1.00  0.00     0.198 A 
ATOM     89  F   UNL A   1      46.333  28.737  33.895  1.00  0.00    -0.203 F 
ATOM     90  F   UNL A   1      45.128  24.364  36.932  1.00  0.00    -0.200 F 
ATOM     91  C   UNL A   1      46.692  25.987  36.225  1.00  0.00     0.200 A 
ATOM     92  F   UNL A   1      48.216  27.641  35.504  1.00  0.00    -0.200 F 
ATOM     93  F   UNL A   1      47.621  25.464  37.036  1.00  0.00    -0.200 F 
ENDBRANCH  60  83
ENDBRANCH  34  35
ENDBRANCH  27  29
ENDBRANCH  26  27
ENDBRANCH  25  26
ENDBRANCH   1  25
TORSDOF 15
ENDMDL
MODEL 3
REMARK VINA RESULT:     -11.9      0.525      1.243
REMARK SMILES CCC[NH2+][C@@]1(C(=O)OCCOC(=O)c2ccc(-c3c4nc(c(-c5c(F)c(F)c(F)c(F)c5F)c5ccc([nH]5)c(-c5c(F)c(F)c(F)c(F)c5F)c5nc(c(-c6c(F)c(F)c(F)c(F)c6F)c6ccc3[nH]6)C=C5)C=C4)cc2)CCC[C@H](n2nc(C)c(C)c2C)C1
REMARK SMILES IDX 9 1 8 2 6 3 7 4 5 5 77 6 89 7 78 8 80 9 79 10 4 11 3 14 2 15
REMARK SMILES IDX 1 16 81 17 82 18 87 19 83 20 85 21 88 22 84 23 86 24 10 25
REMARK SMILES IDX 11 26 12 27 13 28 14 29 15 30 76 31 16 32 75 33 17 34 18 35
REMARK SMILES IDX 19 36 69 37 20 38 74 39 68 40 70 41 21 42 73 43 67 44 66 45
REMARK SMILES IDX 22 47 54 48 34 49 53 50 35 51 38 52 52 53 71 54 36 55 37 56
REMARK SMILES IDX 51 58 72 59 39 60 23 61 24 62 32 63 25 64 26 65 30 66 33 67
REMARK SMILES IDX 27 68 28 69 31 70 29 71 55 72 56 73 64 74 57 75 58 76 62 77
REMARK SMILES IDX 65 78 59 79 60 80 63 81 61 82 40 83 41 84 49 85 42 86 43 87
REMARK SMILES IDX 47 88 50 89 44 90 45 91 48 92 46 93
REMARK H PARENT 4 12 4 13 70 46 38 57
REMARK Flexibility Score: inf
ROOT
ATOM      1  C   UNL A   1      35.814  20.787  25.054  1.00  0.00     0.274 C 
ENDROOT
BRANCH   1   2
ATOM      2  O   UNL A   1      35.375  22.127  24.752  1.00  0.00    -0.457 OA
BRANCH   2   3
ATOM      3  C   UNL A   1      34.849  22.857  25.760  1.00  0.00     0.368 C 
ATOM      4  O   UNL A   1      35.105  22.687  26.950  1.00  0.00    -0.245 OA
BRANCH   3   5
ATOM      5  C   UNL A   1      33.764  23.868  25.268  1.00  0.00     0.196 C 
ATOM      6  C   UNL A   1      32.873  24.169  26.489  1.00  0.00     0.081 C 
ATOM      7  C   UNL A   1      32.920  23.423  24.054  1.00  0.00     0.108 C 
ATOM      8  C   UNL A   1      31.863  23.060  26.768  1.00  0.00     0.009 C 
ATOM      9  C   UNL A   1      31.757  22.431  24.281  1.00  0.00     0.114 C 
ATOM     10  C   UNL A   1      30.971  22.818  25.554  1.00  0.00     0.028 C 
BRANCH   5  11
ATOM     11  N   UNL A   1      34.462  25.172  24.954  1.00  0.00    -0.332 N 
ATOM     12  H   UNL A   1      34.658  25.648  25.835  1.00  0.00     0.347 HD
ATOM     13  H   UNL A   1      35.304  24.930  24.432  1.00  0.00     0.347 HD
BRANCH  11  14
ATOM     14  C   UNL A   1      33.700  26.088  24.102  1.00  0.00     0.261 C 
BRANCH  14  15
ATOM     15  C   UNL A   1      33.759  27.554  24.549  1.00  0.00     0.058 C 
ATOM     16  C   UNL A   1      33.742  27.773  26.054  1.00  0.00     0.010 C 
ENDBRANCH  14  15
ENDBRANCH  11  14
ENDBRANCH   5  11
BRANCH   9  17
ATOM     17  N   UNL A   1      32.107  21.012  24.163  1.00  0.00    -0.266 N 
ATOM     18  N   UNL A   1      32.237  20.272  25.285  1.00  0.00    -0.178 NA
ATOM     19  C   UNL A   1      32.174  20.236  23.021  1.00  0.00     0.039 A 
ATOM     20  C   UNL A   1      32.482  19.034  24.854  1.00  0.00     0.063 A 
ATOM     21  C   UNL A   1      32.548  18.970  23.442  1.00  0.00    -0.007 A 
ATOM     22  C   UNL A   1      31.887  20.711  21.640  1.00  0.00     0.066 C 
ATOM     23  C   UNL A   1      32.618  17.918  25.822  1.00  0.00     0.069 C 
ATOM     24  C   UNL A   1      32.886  17.788  22.610  1.00  0.00     0.048 C 
ENDBRANCH   9  17
ENDBRANCH   3   5
ENDBRANCH   2   3
ENDBRANCH   1   2
BRANCH   1  25
ATOM     25  C   UNL A   1      37.328  20.666  24.938  1.00  0.00     0.275 C 
BRANCH  25  26
ATOM     26  O   UNL A   1      37.939  21.732  25.677  1.00  0.00    -0.458 OA
BRANCH  26  27
ATOM     27  C   UNL A   1      39.180  21.498  26.152  1.00  0.00     0.338 C 
ATOM     28  O   UNL A   1      39.782  20.434  26.198  1.00  0.00    -0.246 OA
BRANCH  27  29
ATOM     29  C   UNL A   1      39.742  22.756  26.661  1.00  0.00     0.060 A 
ATOM     30  C   UNL A   1      40.731  22.735  27.642  1.00  0.00     0.016 A 
ATOM     31  C   UNL A   1      39.244  23.971  26.186  1.00  0.00     0.016 A 
ATOM     32  C   UNL A   1      41.191  23.927  28.181  1.00  0.00     0.010 A 
ATOM     33  C   UNL A   1      39.789  25.167  26.652  1.00  0.00     0.010 A 
ATOM     34  C   UNL A   1      40.775  25.153  27.649  1.00  0.00    -0.014 A 
BRANCH  34  35
ATOM     35  C   UNL A   1      41.457  26.396  28.076  1.00  0.00     0.031 A 
ATOM     36  C   UNL A   1      40.719  27.451  28.838  1.00  0.00     0.074 A 
ATOM     37  C   UNL A   1      42.755  26.561  27.755  1.00  0.00     0.049 A 
ATOM     38  N   UNL A   1      41.078  28.681  29.099  1.00  0.00    -0.248 NA
ATOM     39  C   UNL A   1      39.399  27.081  29.370  1.00  0.00     0.031 C 
ATOM     40  C   UNL A   1      43.580  25.568  27.057  1.00  0.00     0.029 A 
ATOM     41  N   UNL A   1      43.614  27.605  27.972  1.00  0.00    -0.354 N 
ATOM     42  C   UNL A   1      40.004  29.254  29.766  1.00  0.00     0.074 A 
ATOM     43  C   UNL A   1      38.992  28.227  29.898  1.00  0.00     0.031 C 
ATOM     44  C   UNL A   1      44.831  26.028  26.952  1.00  0.00     0.029 A 
ATOM     45  C   UNL A   1      44.867  27.395  27.451  1.00  0.00     0.049 A 
ATOM     46  H   UNL A   1      43.359  28.425  28.455  1.00  0.00     0.167 HD
ATOM     47  C   UNL A   1      39.881  30.533  30.195  1.00  0.00     0.037 A 
ATOM     48  C   UNL A   1      45.911  28.232  27.317  1.00  0.00     0.037 A 
ATOM     49  C   UNL A   1      40.923  31.520  30.067  1.00  0.00     0.049 A 
ATOM     50  C   UNL A   1      45.746  29.646  27.781  1.00  0.00     0.074 A 
ATOM     51  C   UNL A   1      40.912  32.849  30.449  1.00  0.00     0.029 A 
ATOM     52  N   UNL A   1      42.175  31.274  29.513  1.00  0.00    -0.354 N 
ATOM     53  N   UNL A   1      44.699  30.210  28.334  1.00  0.00    -0.248 NA
ATOM     54  C   UNL A   1      46.884  30.548  27.576  1.00  0.00     0.031 C 
ATOM     55  C   UNL A   1      42.141  33.418  30.090  1.00  0.00     0.029 A 
ATOM     56  C   UNL A   1      42.937  32.431  29.527  1.00  0.00     0.049 A 
ATOM     57  H   UNL A   1      42.476  30.405  29.164  1.00  0.00     0.167 HD
ATOM     58  C   UNL A   1      45.042  31.536  28.533  1.00  0.00     0.074 A 
ATOM     59  C   UNL A   1      46.408  31.684  28.067  1.00  0.00     0.031 C 
ATOM     60  C   UNL A   1      44.291  32.543  29.043  1.00  0.00     0.037 A 
BRANCH  47  61
ATOM     61  C   UNL A   1      38.554  30.951  30.761  1.00  0.00     0.064 A 
ATOM     62  C   UNL A   1      38.298  30.973  32.138  1.00  0.00     0.173 A 
ATOM     63  C   UNL A   1      37.519  31.344  29.897  1.00  0.00     0.173 A 
ATOM     64  F   UNL A   1      39.245  30.590  33.009  1.00  0.00    -0.203 F 
ATOM     65  C   UNL A   1      37.047  31.346  32.629  1.00  0.00     0.198 A 
ATOM     66  C   UNL A   1      36.280  31.741  30.390  1.00  0.00     0.198 A 
ATOM     67  F   UNL A   1      37.710  31.342  28.569  1.00  0.00    -0.203 F 
ATOM     68  F   UNL A   1      36.807  31.313  33.948  1.00  0.00    -0.200 F 
ATOM     69  C   UNL A   1      36.040  31.734  31.756  1.00  0.00     0.200 A 
ATOM     70  F   UNL A   1      35.313  32.121  29.544  1.00  0.00    -0.200 F 
ATOM     71  F   UNL A   1      34.838  32.090  32.229  1.00  0.00    -0.200 F 
ENDBRANCH  47  61
BRANCH  48  72
ATOM     72  C   UNL A   1      47.146  27.748  26.646  1.00  0.00     0.064 A 
ATOM     73  C   UNL A   1      48.191  27.172  27.379  1.00  0.00     0.173 A 
ATOM     74  C   UNL A   1      47.260  27.758  25.246  1.00  0.00     0.173 A 
ATOM     75  F   UNL A   1      48.140  27.156  28.719  1.00  0.00    -0.203 F 
ATOM     76  C   UNL A   1      49.293  26.610  26.737  1.00  0.00     0.198 A 
ATOM     77  C   UNL A   1      48.344  27.166  24.605  1.00  0.00     0.198 A 
ATOM     78  F   UNL A   1      46.283  28.293  24.497  1.00  0.00    -0.203 F 
ATOM     79  F   UNL A   1      50.285  26.074  27.460  1.00  0.00    -0.200 F 
ATOM     80  C   UNL A   1      49.361  26.591  25.351  1.00  0.00     0.200 A 
ATOM     81  F   UNL A   1      48.388  27.127  23.266  1.00  0.00    -0.200 F 
ATOM     82  F   UNL A   1      50.402  26.016  24.735  1.00  0.00    -0.200 F 
ENDBRANCH  48  72
BRANCH  60  83
ATOM     83  C   UNL A   1      44.946  33.887  29.125  1.00  0.00     0.064 A 
ATOM     84  C   UNL A   1      44.829  34.821  28.086  1.00  0.00     0.173 A 
ATOM     85  C   UNL A   1      45.673  34.252  30.267  1.00  0.00     0.173 A 
ATOM     86  F   UNL A   1      44.160  34.505  26.968  1.00  0.00    -0.203 F 
ATOM     87  C   UNL A   1      45.434  36.070  28.180  1.00  0.00     0.198 A 
ATOM     88  C   UNL A   1      46.257  35.510  30.368  1.00  0.00     0.198 A 
ATOM     89  F   UNL A   1      45.809  33.389  31.286  1.00  0.00    -0.203 F 
ATOM     90  F   UNL A   1      45.345  36.934  27.161  1.00  0.00    -0.200 F 
ATOM     91  C   UNL A   1      46.141  36.415  29.323  1.00  0.00     0.200 A 
ATOM     92  F   UNL A   1      46.934  35.846  31.474  1.00  0.00    -0.200 F 
ATOM     93  F   UNL A   1      46.721  37.620  29.413  1.00  0.00    -0.200 F 
ENDBRANCH  60  83
ENDBRANCH  34  35
ENDBRANCH  27  29
ENDBRANCH  26  27
ENDBRANCH  25  26
ENDBRANCH   1  25
TORSDOF 15
ENDMDL
