MODEL 1
REMARK VINA RESULT:     -12.9      0.000      0.000
REMARK SMILES CS(=O)(=O)c1ccc(/C=C(/C(=O)OCCOC(=O)c2ccc(-c3c4nc(c(-c5c(F)c(F)c(F)c(F)c5F)c5ccc([nH]5)c(-c5c(F)c(F)c(F)c(F)c5F)c5nc(c(-c6c(F)c(F)c(F)c(F)c6F)c6ccc3[nH]6)C=C5)C=C4)cc2)c2ccc(O)cc2)cc1
REMARK SMILES IDX 14 1 13 2 11 3 12 4 10 5 9 6 8 7 5 8 6 9 90 10 7 11 89 12
REMARK SMILES IDX 2 13 1 14 3 15 4 16 82 17 83 18 88 19 84 20 87 21 85 22
REMARK SMILES IDX 86 23 15 25 16 26 17 27 18 28 19 29 20 30 81 31 21 32 80 33
REMARK SMILES IDX 22 34 23 35 24 36 74 37 25 38 79 39 73 40 75 41 26 42 78 43
REMARK SMILES IDX 72 44 71 45 27 47 59 48 39 49 58 50 40 51 43 52 57 53 76 54
REMARK SMILES IDX 41 55 42 56 56 58 77 59 44 60 28 61 29 62 37 63 30 64 31 65
REMARK SMILES IDX 35 66 38 67 32 68 33 69 36 70 34 71 60 72 61 73 69 74 62 75
REMARK SMILES IDX 63 76 67 77 70 78 64 79 65 80 68 81 66 82 45 83 46 84 54 85
REMARK SMILES IDX 47 86 48 87 52 88 55 89 49 90 50 91 53 92 51 93
REMARK H PARENT 86 24 75 46 43 57
REMARK Flexibility Score: inf
ROOT
ATOM      1  C   UNL A   1      32.760  28.637  24.436  1.00  0.00     0.275 C 
ENDROOT
BRANCH   1   2
ATOM      2  O   UNL A   1      32.820  27.208  24.643  1.00  0.00    -0.458 OA
BRANCH   2   3
ATOM      3  C   UNL A   1      33.283  26.473  23.596  1.00  0.00     0.338 C 
ATOM      4  O   UNL A   1      33.677  26.932  22.533  1.00  0.00    -0.246 OA
BRANCH   3   5
ATOM      5  C   UNL A   1      33.290  25.004  23.893  1.00  0.00     0.067 C 
ATOM      6  C   UNL A   1      32.141  24.289  23.864  1.00  0.00     0.024 C 
BRANCH   6   7
ATOM      7  C   UNL A   1      32.062  22.816  23.932  1.00  0.00    -0.025 A 
ATOM      8  C   UNL A   1      32.345  20.036  23.925  1.00  0.00     0.067 A 
ATOM      9  C   UNL A   1      32.320  20.722  25.138  1.00  0.00     0.021 A 
ATOM     10  C   UNL A   1      32.153  20.714  22.719  1.00  0.00     0.021 A 
ATOM     11  C   UNL A   1      32.144  22.106  25.137  1.00  0.00     0.009 A 
ATOM     12  C   UNL A   1      32.006  22.103  22.727  1.00  0.00     0.009 A 
BRANCH   8  13
ATOM     13  S   UNL A   1      32.734  18.304  23.897  1.00  0.00     0.175 S 
ATOM     14  C   UNL A   1      34.468  18.240  24.251  1.00  0.00     0.163 C 
ATOM     15  O   UNL A   1      32.548  17.829  22.539  1.00  0.00    -0.224 OA
ATOM     16  O   UNL A   1      32.019  17.697  25.004  1.00  0.00    -0.224 OA
ENDBRANCH   8  13
ENDBRANCH   6   7
BRANCH   5  17
ATOM     17  C   UNL A   1      34.601  24.355  24.132  1.00  0.00    -0.011 A 
ATOM     18  C   UNL A   1      35.169  24.403  25.415  1.00  0.00     0.013 A 
ATOM     19  C   UNL A   1      35.253  23.629  23.127  1.00  0.00     0.013 A 
ATOM     20  C   UNL A   1      36.362  23.735  25.690  1.00  0.00     0.047 A 
ATOM     21  C   UNL A   1      36.448  22.957  23.404  1.00  0.00     0.047 A 
ATOM     22  C   UNL A   1      36.990  23.016  24.684  1.00  0.00     0.115 A 
BRANCH  22  23
ATOM     23  O   UNL A   1      38.145  22.366  25.002  1.00  0.00    -0.508 OA
ATOM     24  H   UNL A   1      38.651  22.645  25.740  1.00  0.00     0.293 HD
ENDBRANCH  22  23
ENDBRANCH   5  17
ENDBRANCH   3   5
ENDBRANCH   2   3
ENDBRANCH   1   2
BRANCH   1  25
ATOM     25  C   UNL A   1      31.730  29.265  25.372  1.00  0.00     0.275 C 
BRANCH  25  26
ATOM     26  O   UNL A   1      32.322  29.422  26.672  1.00  0.00    -0.458 OA
BRANCH  26  27
ATOM     27  C   UNL A   1      32.842  30.640  26.945  1.00  0.00     0.338 C 
ATOM     28  O   UNL A   1      32.278  31.717  26.879  1.00  0.00    -0.246 OA
BRANCH  27  29
ATOM     29  C   UNL A   1      34.237  30.489  27.410  1.00  0.00     0.060 A 
ATOM     30  C   UNL A   1      34.850  29.241  27.361  1.00  0.00     0.016 A 
ATOM     31  C   UNL A   1      34.887  31.553  28.037  1.00  0.00     0.016 A 
ATOM     32  C   UNL A   1      36.044  29.025  28.046  1.00  0.00     0.010 A 
ATOM     33  C   UNL A   1      36.136  31.351  28.645  1.00  0.00     0.010 A 
ATOM     34  C   UNL A   1      36.698  30.065  28.720  1.00  0.00    -0.014 A 
BRANCH  34  35
ATOM     35  C   UNL A   1      37.882  29.763  29.585  1.00  0.00     0.031 A 
ATOM     36  C   UNL A   1      39.043  28.966  29.034  1.00  0.00     0.074 A 
ATOM     37  C   UNL A   1      37.994  30.283  30.826  1.00  0.00     0.049 A 
ATOM     38  N   UNL A   1      40.104  28.503  29.650  1.00  0.00    -0.248 NA
ATOM     39  C   UNL A   1      39.008  28.645  27.598  1.00  0.00     0.031 C 
ATOM     40  C   UNL A   1      37.012  31.148  31.478  1.00  0.00     0.029 A 
ATOM     41  N   UNL A   1      39.014  30.195  31.745  1.00  0.00    -0.354 N 
ATOM     42  C   UNL A   1      40.821  27.789  28.698  1.00  0.00     0.074 A 
ATOM     43  C   UNL A   1      40.080  27.879  27.459  1.00  0.00     0.031 C 
ATOM     44  C   UNL A   1      37.509  31.580  32.646  1.00  0.00     0.029 A 
ATOM     45  C   UNL A   1      38.797  30.936  32.882  1.00  0.00     0.049 A 
ATOM     46  H   UNL A   1      39.823  29.653  31.602  1.00  0.00     0.167 HD
ATOM     47  C   UNL A   1      41.991  27.118  28.838  1.00  0.00     0.037 A 
ATOM     48  C   UNL A   1      39.528  31.061  34.006  1.00  0.00     0.037 A 
ATOM     49  C   UNL A   1      42.775  27.078  30.045  1.00  0.00     0.049 A 
ATOM     50  C   UNL A   1      40.799  30.272  34.156  1.00  0.00     0.074 A 
ATOM     51  C   UNL A   1      43.953  26.392  30.290  1.00  0.00     0.029 A 
ATOM     52  N   UNL A   1      42.476  27.779  31.202  1.00  0.00    -0.354 N 
ATOM     53  N   UNL A   1      41.404  29.499  33.287  1.00  0.00    -0.248 NA
ATOM     54  C   UNL A   1      41.472  30.348  35.461  1.00  0.00     0.031 C 
ATOM     55  C   UNL A   1      44.352  26.656  31.605  1.00  0.00     0.029 A 
ATOM     56  C   UNL A   1      43.444  27.538  32.166  1.00  0.00     0.049 A 
ATOM     57  H   UNL A   1      41.693  28.364  31.323  1.00  0.00     0.167 HD
ATOM     58  C   UNL A   1      42.524  29.000  33.937  1.00  0.00     0.074 A 
ATOM     59  C   UNL A   1      42.537  29.583  35.262  1.00  0.00     0.031 C 
ATOM     60  C   UNL A   1      43.450  28.122  33.481  1.00  0.00     0.037 A 
BRANCH  47  61
ATOM     61  C   UNL A   1      42.475  26.324  27.661  1.00  0.00     0.064 A 
ATOM     62  C   UNL A   1      43.426  26.828  26.762  1.00  0.00     0.173 A 
ATOM     63  C   UNL A   1      41.997  25.022  27.450  1.00  0.00     0.173 A 
ATOM     64  F   UNL A   1      43.901  28.073  26.910  1.00  0.00    -0.203 F 
ATOM     65  C   UNL A   1      43.862  26.065  25.681  1.00  0.00     0.198 A 
ATOM     66  C   UNL A   1      42.454  24.253  26.384  1.00  0.00     0.198 A 
ATOM     67  F   UNL A   1      41.090  24.492  28.285  1.00  0.00    -0.203 F 
ATOM     68  F   UNL A   1      44.739  26.581  24.809  1.00  0.00    -0.200 F 
ATOM     69  C   UNL A   1      43.380  24.777  25.498  1.00  0.00     0.200 A 
ATOM     70  F   UNL A   1      41.994  23.005  26.214  1.00  0.00    -0.200 F 
ATOM     71  F   UNL A   1      43.805  24.043  24.459  1.00  0.00    -0.200 F 
ENDBRANCH  47  61
BRANCH  48  72
ATOM     72  C   UNL A   1      39.048  31.927  35.117  1.00  0.00     0.064 A 
ATOM     73  C   UNL A   1      39.314  33.303  35.129  1.00  0.00     0.173 A 
ATOM     74  C   UNL A   1      38.337  31.391  36.202  1.00  0.00     0.173 A 
ATOM     75  F   UNL A   1      40.021  33.859  34.134  1.00  0.00    -0.203 F 
ATOM     76  C   UNL A   1      38.897  34.107  36.189  1.00  0.00     0.198 A 
ATOM     77  C   UNL A   1      37.892  32.201  37.243  1.00  0.00     0.198 A 
ATOM     78  F   UNL A   1      38.067  30.078  36.246  1.00  0.00    -0.203 F 
ATOM     79  F   UNL A   1      39.209  35.411  36.202  1.00  0.00    -0.200 F 
ATOM     80  C   UNL A   1      38.179  33.556  37.240  1.00  0.00     0.200 A 
ATOM     81  F   UNL A   1      37.189  31.667  38.250  1.00  0.00    -0.200 F 
ATOM     82  F   UNL A   1      37.776  34.331  38.257  1.00  0.00    -0.200 F 
ENDBRANCH  48  72
BRANCH  60  83
ATOM     83  C   UNL A   1      44.561  27.753  34.418  1.00  0.00     0.064 A 
ATOM     84  C   UNL A   1      45.755  28.489  34.465  1.00  0.00     0.173 A 
ATOM     85  C   UNL A   1      44.430  26.657  35.285  1.00  0.00     0.173 A 
ATOM     86  F   UNL A   1      45.934  29.535  33.644  1.00  0.00    -0.203 F 
ATOM     87  C   UNL A   1      46.788  28.123  35.323  1.00  0.00     0.198 A 
ATOM     88  C   UNL A   1      45.456  26.309  36.160  1.00  0.00     0.198 A 
ATOM     89  F   UNL A   1      43.307  25.924  35.282  1.00  0.00    -0.203 F 
ATOM     90  F   UNL A   1      47.939  28.809  35.314  1.00  0.00    -0.200 F 
ATOM     91  C   UNL A   1      46.636  27.037  36.172  1.00  0.00     0.200 A 
ATOM     92  F   UNL A   1      45.304  25.265  36.986  1.00  0.00    -0.200 F 
ATOM     93  F   UNL A   1      47.633  26.684  36.995  1.00  0.00    -0.200 F 
ENDBRANCH  60  83
ENDBRANCH  34  35
ENDBRANCH  27  29
ENDBRANCH  26  27
ENDBRANCH  25  26
ENDBRANCH   1  25
TORSDOF 15
ENDMDL
MODEL 2
REMARK VINA RESULT:     -12.9      0.279      1.608
REMARK SMILES CS(=O)(=O)c1ccc(/C=C(/C(=O)OCCOC(=O)c2ccc(-c3c4nc(c(-c5c(F)c(F)c(F)c(F)c5F)c5ccc([nH]5)c(-c5c(F)c(F)c(F)c(F)c5F)c5nc(c(-c6c(F)c(F)c(F)c(F)c6F)c6ccc3[nH]6)C=C5)C=C4)cc2)c2ccc(O)cc2)cc1
REMARK SMILES IDX 14 1 13 2 11 3 12 4 10 5 9 6 8 7 5 8 6 9 90 10 7 11 89 12
REMARK SMILES IDX 2 13 1 14 3 15 4 16 82 17 83 18 88 19 84 20 87 21 85 22
REMARK SMILES IDX 86 23 15 25 16 26 17 27 18 28 19 29 20 30 81 31 21 32 80 33
REMARK SMILES IDX 22 34 23 35 24 36 74 37 25 38 79 39 73 40 75 41 26 42 78 43
REMARK SMILES IDX 72 44 71 45 27 47 59 48 39 49 58 50 40 51 43 52 57 53 76 54
REMARK SMILES IDX 41 55 42 56 56 58 77 59 44 60 28 61 29 62 37 63 30 64 31 65
REMARK SMILES IDX 35 66 38 67 32 68 33 69 36 70 34 71 60 72 61 73 69 74 62 75
REMARK SMILES IDX 63 76 67 77 70 78 64 79 65 80 68 81 66 82 45 83 46 84 54 85
REMARK SMILES IDX 47 86 48 87 52 88 55 89 49 90 50 91 53 92 51 93
REMARK H PARENT 86 24 75 46 43 57
REMARK Flexibility Score: inf
ROOT
ATOM      1  C   UNL A   1      31.821  28.148  25.017  1.00  0.00     0.275 C 
ENDROOT
BRANCH   1   2
ATOM      2  O   UNL A   1      32.795  27.094  25.181  1.00  0.00    -0.458 OA
BRANCH   2   3
ATOM      3  C   UNL A   1      33.149  26.428  24.049  1.00  0.00     0.338 C 
ATOM      4  O   UNL A   1      33.422  26.953  22.979  1.00  0.00    -0.246 OA
BRANCH   3   5
ATOM      5  C   UNL A   1      33.203  24.944  24.257  1.00  0.00     0.067 C 
ATOM      6  C   UNL A   1      32.070  24.204  24.234  1.00  0.00     0.024 C 
BRANCH   6   7
ATOM      7  C   UNL A   1      32.027  22.728  24.217  1.00  0.00    -0.025 A 
ATOM      8  C   UNL A   1      32.379  19.961  24.051  1.00  0.00     0.067 A 
ATOM      9  C   UNL A   1      32.333  20.575  25.301  1.00  0.00     0.021 A 
ATOM     10  C   UNL A   1      32.174  20.703  22.885  1.00  0.00     0.021 A 
ATOM     11  C   UNL A   1      32.123  21.952  25.379  1.00  0.00     0.009 A 
ATOM     12  C   UNL A   1      31.993  22.085  22.972  1.00  0.00     0.009 A 
BRANCH   8  13
ATOM     13  S   UNL A   1      32.811  18.243  23.924  1.00  0.00     0.175 S 
ATOM     14  C   UNL A   1      34.547  18.204  24.268  1.00  0.00     0.163 C 
ATOM     15  O   UNL A   1      32.629  17.840  22.543  1.00  0.00    -0.224 OA
ATOM     16  O   UNL A   1      32.117  17.558  24.999  1.00  0.00    -0.224 OA
ENDBRANCH   8  13
ENDBRANCH   6   7
BRANCH   5  17
ATOM     17  C   UNL A   1      34.537  24.316  24.400  1.00  0.00    -0.011 A 
ATOM     18  C   UNL A   1      35.160  24.302  25.657  1.00  0.00     0.013 A 
ATOM     19  C   UNL A   1      35.160  23.667  23.326  1.00  0.00     0.013 A 
ATOM     20  C   UNL A   1      36.380  23.649  25.840  1.00  0.00     0.047 A 
ATOM     21  C   UNL A   1      36.381  23.010  23.510  1.00  0.00     0.047 A 
ATOM     22  C   UNL A   1      36.978  23.007  24.767  1.00  0.00     0.115 A 
BRANCH  22  23
ATOM     23  O   UNL A   1      38.160  22.369  24.995  1.00  0.00    -0.508 OA
ATOM     24  H   UNL A   1      38.290  21.896  25.793  1.00  0.00     0.293 HD
ENDBRANCH  22  23
ENDBRANCH   5  17
ENDBRANCH   3   5
ENDBRANCH   2   3
ENDBRANCH   1   2
BRANCH   1  25
ATOM     25  C   UNL A   1      32.466  29.509  25.272  1.00  0.00     0.275 C 
BRANCH  25  26
ATOM     26  O   UNL A   1      32.381  29.804  26.676  1.00  0.00    -0.458 OA
BRANCH  26  27
ATOM     27  C   UNL A   1      32.951  30.964  27.075  1.00  0.00     0.338 C 
ATOM     28  O   UNL A   1      32.434  32.066  27.115  1.00  0.00    -0.246 OA
BRANCH  27  29
ATOM     29  C   UNL A   1      34.332  30.705  27.533  1.00  0.00     0.060 A 
ATOM     30  C   UNL A   1      34.789  29.396  27.645  1.00  0.00     0.016 A 
ATOM     31  C   UNL A   1      35.126  31.755  27.997  1.00  0.00     0.016 A 
ATOM     32  C   UNL A   1      35.970  29.129  28.333  1.00  0.00     0.010 A 
ATOM     33  C   UNL A   1      36.361  31.485  28.605  1.00  0.00     0.010 A 
ATOM     34  C   UNL A   1      36.767  30.160  28.847  1.00  0.00    -0.014 A 
BRANCH  34  35
ATOM     35  C   UNL A   1      37.935  29.834  29.725  1.00  0.00     0.031 A 
ATOM     36  C   UNL A   1      39.092  29.025  29.182  1.00  0.00     0.074 A 
ATOM     37  C   UNL A   1      38.038  30.340  30.972  1.00  0.00     0.049 A 
ATOM     38  N   UNL A   1      40.138  28.541  29.807  1.00  0.00    -0.248 NA
ATOM     39  C   UNL A   1      39.071  28.719  27.742  1.00  0.00     0.031 C 
ATOM     40  C   UNL A   1      37.058  31.212  31.619  1.00  0.00     0.029 A 
ATOM     41  N   UNL A   1      39.044  30.229  31.904  1.00  0.00    -0.354 N 
ATOM     42  C   UNL A   1      40.857  27.826  28.858  1.00  0.00     0.074 A 
ATOM     43  C   UNL A   1      40.134  27.939  27.610  1.00  0.00     0.031 C 
ATOM     44  C   UNL A   1      37.546  31.626  32.797  1.00  0.00     0.029 A 
ATOM     45  C   UNL A   1      38.821  30.962  33.045  1.00  0.00     0.049 A 
ATOM     46  H   UNL A   1      39.846  29.676  31.767  1.00  0.00     0.167 HD
ATOM     47  C   UNL A   1      42.015  27.137  29.008  1.00  0.00     0.037 A 
ATOM     48  C   UNL A   1      39.539  31.066  34.180  1.00  0.00     0.037 A 
ATOM     49  C   UNL A   1      42.782  27.074  30.225  1.00  0.00     0.049 A 
ATOM     50  C   UNL A   1      40.797  30.257  34.339  1.00  0.00     0.074 A 
ATOM     51  C   UNL A   1      43.947  26.369  30.478  1.00  0.00     0.029 A 
ATOM     52  N   UNL A   1      42.477  27.769  31.384  1.00  0.00    -0.354 N 
ATOM     53  N   UNL A   1      41.402  29.484  33.471  1.00  0.00    -0.248 NA
ATOM     54  C   UNL A   1      41.453  30.310  35.654  1.00  0.00     0.031 C 
ATOM     55  C   UNL A   1      44.332  26.615  31.801  1.00  0.00     0.029 A 
ATOM     56  C   UNL A   1      43.429  27.504  32.358  1.00  0.00     0.049 A 
ATOM     57  H   UNL A   1      41.701  28.364  31.500  1.00  0.00     0.167 HD
ATOM     58  C   UNL A   1      42.506  28.962  34.131  1.00  0.00     0.074 A 
ATOM     59  C   UNL A   1      42.509  29.532  35.461  1.00  0.00     0.031 C 
ATOM     60  C   UNL A   1      43.425  28.076  33.679  1.00  0.00     0.037 A 
BRANCH  47  61
ATOM     61  C   UNL A   1      42.504  26.348  27.829  1.00  0.00     0.064 A 
ATOM     62  C   UNL A   1      42.036  25.056  27.551  1.00  0.00     0.173 A 
ATOM     63  C   UNL A   1      43.439  26.912  26.948  1.00  0.00     0.173 A 
ATOM     64  F   UNL A   1      41.156  24.465  28.373  1.00  0.00    -0.203 F 
ATOM     65  C   UNL A   1      42.504  24.349  26.445  1.00  0.00     0.198 A 
ATOM     66  C   UNL A   1      43.885  26.213  25.829  1.00  0.00     0.198 A 
ATOM     67  F   UNL A   1      43.914  28.147  27.167  1.00  0.00    -0.203 F 
ATOM     68  F   UNL A   1      42.075  23.099  26.221  1.00  0.00    -0.200 F 
ATOM     69  C   UNL A   1      43.422  24.931  25.583  1.00  0.00     0.200 A 
ATOM     70  F   UNL A   1      44.764  26.781  24.992  1.00  0.00    -0.200 F 
ATOM     71  F   UNL A   1      43.867  24.251  24.517  1.00  0.00    -0.200 F 
ENDBRANCH  47  61
BRANCH  48  72
ATOM     72  C   UNL A   1      39.056  31.927  35.292  1.00  0.00     0.064 A 
ATOM     73  C   UNL A   1      39.355  33.296  35.330  1.00  0.00     0.173 A 
ATOM     74  C   UNL A   1      38.309  31.394  36.354  1.00  0.00     0.173 A 
ATOM     75  F   UNL A   1      40.098  33.848  34.358  1.00  0.00    -0.203 F 
ATOM     76  C   UNL A   1      38.935  34.095  36.392  1.00  0.00     0.198 A 
ATOM     77  C   UNL A   1      37.861  32.201  37.397  1.00  0.00     0.198 A 
ATOM     78  F   UNL A   1      38.006  30.088  36.373  1.00  0.00    -0.203 F 
ATOM     79  F   UNL A   1      39.279  35.391  36.431  1.00  0.00    -0.200 F 
ATOM     80  C   UNL A   1      38.182  33.548  37.420  1.00  0.00     0.200 A 
ATOM     81  F   UNL A   1      37.123  31.670  38.381  1.00  0.00    -0.200 F 
ATOM     82  F   UNL A   1      37.776  34.318  38.439  1.00  0.00    -0.200 F 
ENDBRANCH  48  72
BRANCH  60  83
ATOM     83  C   UNL A   1      44.519  27.681  34.627  1.00  0.00     0.064 A 
ATOM     84  C   UNL A   1      44.387  26.571  35.474  1.00  0.00     0.173 A 
ATOM     85  C   UNL A   1      45.713  28.415  34.685  1.00  0.00     0.173 A 
ATOM     86  F   UNL A   1      43.258  25.847  35.468  1.00  0.00    -0.203 F 
ATOM     87  C   UNL A   1      45.400  26.228  36.367  1.00  0.00     0.198 A 
ATOM     88  C   UNL A   1      46.734  28.054  35.561  1.00  0.00     0.198 A 
ATOM     89  F   UNL A   1      45.890  29.483  33.893  1.00  0.00    -0.203 F 
ATOM     90  F   UNL A   1      45.232  25.195  37.203  1.00  0.00    -0.200 F 
ATOM     91  C   UNL A   1      46.573  26.967  36.406  1.00  0.00     0.200 A 
ATOM     92  F   UNL A   1      47.870  28.764  35.591  1.00  0.00    -0.200 F 
ATOM     93  F   UNL A   1      47.545  26.637  37.267  1.00  0.00    -0.200 F 
ENDBRANCH  60  83
ENDBRANCH  34  35
ENDBRANCH  27  29
ENDBRANCH  26  27
ENDBRANCH  25  26
ENDBRANCH   1  25
TORSDOF 15
ENDMDL
MODEL 3
REMARK VINA RESULT:     -12.8      4.289      9.706
REMARK SMILES CS(=O)(=O)c1ccc(/C=C(/C(=O)OCCOC(=O)c2ccc(-c3c4nc(c(-c5c(F)c(F)c(F)c(F)c5F)c5ccc([nH]5)c(-c5c(F)c(F)c(F)c(F)c5F)c5nc(c(-c6c(F)c(F)c(F)c(F)c6F)c6ccc3[nH]6)C=C5)C=C4)cc2)c2ccc(O)cc2)cc1
REMARK SMILES IDX 14 1 13 2 11 3 12 4 10 5 9 6 8 7 5 8 6 9 90 10 7 11 89 12
REMARK SMILES IDX 2 13 1 14 3 15 4 16 82 17 83 18 88 19 84 20 87 21 85 22
REMARK SMILES IDX 86 23 15 25 16 26 17 27 18 28 19 29 20 30 81 31 21 32 80 33
REMARK SMILES IDX 22 34 23 35 24 36 74 37 25 38 79 39 73 40 75 41 26 42 78 43
REMARK SMILES IDX 72 44 71 45 27 47 59 48 39 49 58 50 40 51 43 52 57 53 76 54
REMARK SMILES IDX 41 55 42 56 56 58 77 59 44 60 28 61 29 62 37 63 30 64 31 65
REMARK SMILES IDX 35 66 38 67 32 68 33 69 36 70 34 71 60 72 61 73 69 74 62 75
REMARK SMILES IDX 63 76 67 77 70 78 64 79 65 80 68 81 66 82 45 83 46 84 54 85
REMARK SMILES IDX 47 86 48 87 52 88 55 89 49 90 50 91 53 92 51 93
REMARK H PARENT 86 24 75 46 43 57
REMARK Flexibility Score: inf
ROOT
ATOM      1  C   UNL A   1      35.391  21.250  24.857  1.00  0.00     0.275 C 
ENDROOT
BRANCH   1   2
ATOM      2  O   UNL A   1      35.573  22.684  24.878  1.00  0.00    -0.458 OA
BRANCH   2   3
ATOM      3  C   UNL A   1      35.201  23.348  23.751  1.00  0.00     0.338 C 
ATOM      4  O   UNL A   1      35.707  23.202  22.648  1.00  0.00    -0.246 OA
BRANCH   3   5
ATOM      5  C   UNL A   1      34.055  24.283  23.996  1.00  0.00     0.067 C 
ATOM      6  C   UNL A   1      33.952  25.443  23.305  1.00  0.00     0.024 C 
BRANCH   6   7
ATOM      7  C   UNL A   1      32.770  26.327  23.313  1.00  0.00    -0.025 A 
ATOM      8  C   UNL A   1      30.779  28.271  23.055  1.00  0.00     0.067 A 
ATOM      9  C   UNL A   1      30.655  27.064  22.371  1.00  0.00     0.021 A 
ATOM     10  C   UNL A   1      31.848  28.488  23.928  1.00  0.00     0.021 A 
ATOM     11  C   UNL A   1      31.634  26.083  22.529  1.00  0.00     0.009 A 
ATOM     12  C   UNL A   1      32.839  27.512  24.058  1.00  0.00     0.009 A 
BRANCH   8  13
ATOM     13  S   UNL A   1      29.634  29.591  22.737  1.00  0.00     0.175 S 
ATOM     14  C   UNL A   1      28.048  28.806  22.755  1.00  0.00     0.163 C 
ATOM     15  O   UNL A   1      29.871  30.068  21.388  1.00  0.00    -0.224 OA
ATOM     16  O   UNL A   1      29.711  30.493  23.871  1.00  0.00    -0.224 OA
ENDBRANCH   8  13
ENDBRANCH   6   7
BRANCH   5  17
ATOM     17  C   UNL A   1      33.005  23.853  24.949  1.00  0.00    -0.011 A 
ATOM     18  C   UNL A   1      32.928  24.464  26.210  1.00  0.00     0.013 A 
ATOM     19  C   UNL A   1      32.039  22.903  24.595  1.00  0.00     0.013 A 
ATOM     20  C   UNL A   1      31.904  24.137  27.099  1.00  0.00     0.047 A 
ATOM     21  C   UNL A   1      31.010  22.578  25.485  1.00  0.00     0.047 A 
ATOM     22  C   UNL A   1      30.952  23.199  26.728  1.00  0.00     0.115 A 
BRANCH  22  23
ATOM     23  O   UNL A   1      29.961  22.923  27.621  1.00  0.00    -0.508 OA
ATOM     24  H   UNL A   1      29.333  23.582  27.843  1.00  0.00     0.293 HD
ENDBRANCH  22  23
ENDBRANCH   5  17
ENDBRANCH   3   5
ENDBRANCH   2   3
ENDBRANCH   1   2
BRANCH   1  25
ATOM     25  C   UNL A   1      36.737  20.544  25.003  1.00  0.00     0.275 C 
BRANCH  25  26
ATOM     26  O   UNL A   1      37.777  21.535  25.044  1.00  0.00    -0.458 OA
BRANCH  26  27
ATOM     27  C   UNL A   1      38.849  21.241  25.814  1.00  0.00     0.338 C 
ATOM     28  O   UNL A   1      39.394  20.159  25.940  1.00  0.00    -0.246 OA
BRANCH  27  29
ATOM     29  C   UNL A   1      39.336  22.470  26.475  1.00  0.00     0.060 A 
ATOM     30  C   UNL A   1      38.719  23.688  26.208  1.00  0.00     0.016 A 
ATOM     31  C   UNL A   1      40.501  22.439  27.242  1.00  0.00     0.016 A 
ATOM     32  C   UNL A   1      39.333  24.877  26.595  1.00  0.00     0.010 A 
ATOM     33  C   UNL A   1      41.064  23.637  27.709  1.00  0.00     0.010 A 
ATOM     34  C   UNL A   1      40.526  24.879  27.330  1.00  0.00    -0.014 A 
BRANCH  34  35
ATOM     35  C   UNL A   1      41.246  26.168  27.580  1.00  0.00     0.031 A 
ATOM     36  C   UNL A   1      40.618  27.233  28.451  1.00  0.00     0.074 A 
ATOM     37  C   UNL A   1      42.504  26.366  27.134  1.00  0.00     0.049 A 
ATOM     38  N   UNL A   1      41.023  28.456  28.696  1.00  0.00    -0.248 NA
ATOM     39  C   UNL A   1      39.366  26.877  29.139  1.00  0.00     0.031 C 
ATOM     40  C   UNL A   1      43.292  25.408  26.359  1.00  0.00     0.029 A 
ATOM     41  N   UNL A   1      43.361  27.428  27.311  1.00  0.00    -0.354 N 
ATOM     42  C   UNL A   1      40.051  29.028  29.507  1.00  0.00     0.074 A 
ATOM     43  C   UNL A   1      39.034  28.021  29.718  1.00  0.00     0.031 C 
ATOM     44  C   UNL A   1      44.536  25.883  26.202  1.00  0.00     0.029 A 
ATOM     45  C   UNL A   1      44.607  27.227  26.766  1.00  0.00     0.049 A 
ATOM     46  H   UNL A   1      43.106  28.253  27.783  1.00  0.00     0.167 HD
ATOM     47  C   UNL A   1      40.005  30.278  30.030  1.00  0.00     0.037 A 
ATOM     48  C   UNL A   1      45.678  28.040  26.693  1.00  0.00     0.037 A 
ATOM     49  C   UNL A   1      41.042  31.267  29.886  1.00  0.00     0.049 A 
ATOM     50  C   UNL A   1      45.588  29.438  27.242  1.00  0.00     0.074 A 
ATOM     51  C   UNL A   1      41.064  32.572  30.350  1.00  0.00     0.029 A 
ATOM     52  N   UNL A   1      42.257  31.048  29.256  1.00  0.00    -0.354 N 
ATOM     53  N   UNL A   1      44.610  30.009  27.900  1.00  0.00    -0.248 NA
ATOM     54  C   UNL A   1      46.743  30.316  27.003  1.00  0.00     0.031 C 
ATOM     55  C   UNL A   1      42.281  33.152  29.976  1.00  0.00     0.029 A 
ATOM     56  C   UNL A   1      43.033  32.197  29.313  1.00  0.00     0.049 A 
ATOM     57  H   UNL A   1      42.530  30.203  28.832  1.00  0.00     0.167 HD
ATOM     58  C   UNL A   1      45.030  31.307  28.156  1.00  0.00     0.074 A 
ATOM     59  C   UNL A   1      46.366  31.432  27.612  1.00  0.00     0.031 C 
ATOM     60  C   UNL A   1      44.361  32.312  28.771  1.00  0.00     0.037 A 
BRANCH  47  61
ATOM     61  C   UNL A   1      38.762  30.669  30.772  1.00  0.00     0.064 A 
ATOM     62  C   UNL A   1      38.670  30.585  32.169  1.00  0.00     0.173 A 
ATOM     63  C   UNL A   1      37.654  31.166  30.069  1.00  0.00     0.173 A 
ATOM     64  F   UNL A   1      39.695  30.100  32.885  1.00  0.00    -0.203 F 
ATOM     65  C   UNL A   1      37.503  30.961  32.832  1.00  0.00     0.198 A 
ATOM     66  C   UNL A   1      36.499  31.565  30.737  1.00  0.00     0.198 A 
ATOM     67  F   UNL A   1      37.693  31.271  28.733  1.00  0.00    -0.203 F 
ATOM     68  F   UNL A   1      37.420  30.832  34.164  1.00  0.00    -0.200 F 
ATOM     69  C   UNL A   1      36.423  31.457  32.116  1.00  0.00     0.200 A 
ATOM     70  F   UNL A   1      35.461  32.053  30.045  1.00  0.00    -0.200 F 
ATOM     71  F   UNL A   1      35.304  31.823  32.757  1.00  0.00    -0.200 F 
ENDBRANCH  47  61
BRANCH  48  72
ATOM     72  C   UNL A   1      46.921  27.579  26.019  1.00  0.00     0.064 A 
ATOM     73  C   UNL A   1      47.065  27.666  24.627  1.00  0.00     0.173 A 
ATOM     74  C   UNL A   1      47.980  27.018  26.750  1.00  0.00     0.173 A 
ATOM     75  F   UNL A   1      46.068  28.161  23.879  1.00  0.00    -0.203 F 
ATOM     76  C   UNL A   1      48.215  27.198  23.993  1.00  0.00     0.198 A 
ATOM     77  C   UNL A   1      49.142  26.582  26.118  1.00  0.00     0.198 A 
ATOM     78  F   UNL A   1      47.888  26.900  28.083  1.00  0.00    -0.203 F 
ATOM     79  F   UNL A   1      48.307  27.244  22.656  1.00  0.00    -0.200 F 
ATOM     80  C   UNL A   1      49.255  26.665  24.740  1.00  0.00     0.200 A 
ATOM     81  F   UNL A   1      50.148  26.079  26.845  1.00  0.00    -0.200 F 
ATOM     82  F   UNL A   1      50.361  26.218  24.129  1.00  0.00    -0.200 F 
ENDBRANCH  48  72
BRANCH  60  83
ATOM     83  C   UNL A   1      45.071  33.627  28.901  1.00  0.00     0.064 A 
ATOM     84  C   UNL A   1      45.889  33.911  30.004  1.00  0.00     0.173 A 
ATOM     85  C   UNL A   1      44.938  34.610  27.909  1.00  0.00     0.173 A 
ATOM     86  F   UNL A   1      46.034  33.009  30.987  1.00  0.00    -0.203 F 
ATOM     87  C   UNL A   1      46.525  35.144  30.125  1.00  0.00     0.198 A 
ATOM     88  C   UNL A   1      45.596  35.833  28.021  1.00  0.00     0.198 A 
ATOM     89  F   UNL A   1      44.171  34.386  26.833  1.00  0.00    -0.203 F 
ATOM     90  F   UNL A   1      47.260  35.413  31.212  1.00  0.00    -0.200 F 
ATOM     91  C   UNL A   1      46.382  36.101  29.132  1.00  0.00     0.200 A 
ATOM     92  F   UNL A   1      45.464  36.754  27.056  1.00  0.00    -0.200 F 
ATOM     93  F   UNL A   1      46.991  37.288  29.251  1.00  0.00    -0.200 F 
ENDBRANCH  60  83
ENDBRANCH  34  35
ENDBRANCH  27  29
ENDBRANCH  26  27
ENDBRANCH  25  26
ENDBRANCH   1  25
TORSDOF 15
ENDMDL
