MODEL 1
REMARK VINA RESULT:     -12.3      0.000      0.000
REMARK SMILES COc1c(C)cccc1C(=O)NC(=S)Nc1ccc(C(=O)OCCOC(=O)c2ccc(-c3c4nc(c(-c5c(F)c(F)c(F)c(F)c5F)c5ccc([nH]5)c(-c5c(F)c(F)c(F)c(F)c5F)c5nc(c(-c6c(F)c(F)c(F)c(F)c6F)c6ccc3[nH]6)C=C5)C=C4)cc2)cc1C
REMARK SMILES IDX 22 1 20 2 21 3 19 4 16 5 17 6 92 7 18 8 91 9 93 10 15 11
REMARK SMILES IDX 13 13 14 14 12 15 10 16 11 17 9 19 3 20 4 21 5 22 6 23 8 24
REMARK SMILES IDX 7 25 2 26 1 27 23 28 24 29 25 30 26 31 27 32 28 33 29 34
REMARK SMILES IDX 90 35 30 36 89 37 31 38 32 39 33 40 83 41 34 42 88 43 82 44
REMARK SMILES IDX 84 45 35 46 87 47 81 48 80 49 36 51 68 52 48 53 67 54 49 55
REMARK SMILES IDX 52 56 66 57 85 58 50 59 51 60 65 62 86 63 53 64 37 65 38 66
REMARK SMILES IDX 46 67 39 68 40 69 44 70 47 71 41 72 42 73 45 74 43 75 69 76
REMARK SMILES IDX 70 77 78 78 71 79 72 80 76 81 79 82 73 83 74 84 77 85 75 86
REMARK SMILES IDX 54 87 55 88 63 89 56 90 57 91 61 92 64 93 58 94 59 95 62 96
REMARK SMILES IDX 60 97
REMARK H PARENT 15 12 12 18 84 50 52 61
REMARK Flexibility Score: inf
ROOT
ATOM      1  O   UNL A   1      33.963  33.576  30.039  1.00  0.00    -0.458 OA
ENDROOT
BRANCH   1   2
ATOM      2  C   UNL A   1      34.145  33.846  28.707  1.00  0.00     0.338 C 
ATOM      3  O   UNL A   1      34.426  34.995  28.368  1.00  0.00    -0.246 OA
BRANCH   2   4
ATOM      4  C   UNL A   1      33.829  32.614  27.480  1.00  0.00     0.060 A 
ATOM      5  C   UNL A   1      31.409  30.236  26.500  1.00  0.00     0.043 A 
ATOM      6  C   UNL A   1      31.046  31.929  26.859  1.00  0.00     0.027 A 
ATOM      7  C   UNL A   1      33.060  29.475  26.929  1.00  0.00    -0.027 A 
ATOM      8  C   UNL A   1      32.184  33.071  27.226  1.00  0.00     0.018 A 
ATOM      9  C   UNL A   1      34.416  30.674  27.250  1.00  0.00     0.021 A 
ATOM     10  C   UNL A   1      33.582  28.090  27.242  1.00  0.00     0.046 C 
BRANCH   5  11
ATOM     11  N   UNL A   1      31.029  30.649  24.931  1.00  0.00    -0.332 N 
ATOM     12  H   UNL A   1      31.484  31.488  24.691  1.00  0.00     0.169 HD
BRANCH  11  13
ATOM     13  C   UNL A   1      30.267  30.190  23.828  1.00  0.00     0.177 C 
ATOM     14  S   UNL A   1      28.881  31.100  23.489  1.00  0.00    -0.040 S 
BRANCH  13  15
ATOM     15  N   UNL A   1      30.410  29.050  22.973  1.00  0.00    -0.299 N 
ATOM     16  C   UNL A   1      30.714  27.621  22.800  1.00  0.00     0.261 C 
ATOM     17  O   UNL A   1      30.653  27.063  21.709  1.00  0.00    -0.269 OA
ATOM     18  H   UNL A   1      30.209  29.380  22.068  1.00  0.00     0.172 HD
BRANCH  16  19
ATOM     19  C   UNL A   1      31.138  26.873  23.971  1.00  0.00     0.082 A 
ATOM     20  C   UNL A   1      32.724  26.365  23.646  1.00  0.00     0.134 A 
ATOM     21  C   UNL A   1      33.686  24.954  24.768  1.00  0.00    -0.008 A 
ATOM     22  C   UNL A   1      35.146  24.463  25.030  1.00  0.00     0.048 C 
ATOM     23  C   UNL A   1      32.812  24.434  26.277  1.00  0.00     0.007 A 
ATOM     24  C   UNL A   1      30.396  26.322  25.389  1.00  0.00     0.018 A 
ATOM     25  C   UNL A   1      31.189  25.173  26.500  1.00  0.00     0.001 A 
BRANCH  20  26
ATOM     26  O   UNL A   1      33.076  28.137  23.723  1.00  0.00    -0.496 OA
ATOM     27  C   UNL A   1      34.285  28.977  23.260  1.00  0.00     0.278 C 
ENDBRANCH  20  26
ENDBRANCH  16  19
ENDBRANCH  13  15
ENDBRANCH  11  13
ENDBRANCH   5  11
ENDBRANCH   2   4
ENDBRANCH   1   2
BRANCH   1  28
ATOM     28  C   UNL A   1      34.778  32.554  30.686  1.00  0.00     0.275 C 
BRANCH  28  29
ATOM     29  C   UNL A   1      36.233  32.177  30.210  1.00  0.00     0.275 C 
BRANCH  29  30
ATOM     30  O   UNL A   1      36.770  30.946  29.599  1.00  0.00    -0.458 OA
BRANCH  30  31
ATOM     31  C   UNL A   1      36.986  29.697  30.076  1.00  0.00     0.338 C 
ATOM     32  O   UNL A   1      36.279  29.161  30.913  1.00  0.00    -0.246 OA
BRANCH  31  33
ATOM     33  C   UNL A   1      38.220  29.072  29.578  1.00  0.00     0.060 A 
ATOM     34  C   UNL A   1      39.002  29.661  28.547  1.00  0.00     0.016 A 
ATOM     35  C   UNL A   1      38.757  28.147  30.446  1.00  0.00     0.016 A 
ATOM     36  C   UNL A   1      40.374  29.388  28.488  1.00  0.00     0.010 A 
ATOM     37  C   UNL A   1      40.098  28.189  30.620  1.00  0.00     0.010 A 
ATOM     38  C   UNL A   1      40.892  28.678  29.576  1.00  0.00    -0.014 A 
BRANCH  38  39
ATOM     39  C   UNL A   1      42.104  27.887  29.603  1.00  0.00     0.031 A 
ATOM     40  C   UNL A   1      41.970  26.536  28.979  1.00  0.00     0.074 A 
ATOM     41  C   UNL A   1      43.086  28.792  29.909  1.00  0.00     0.049 A 
ATOM     42  N   UNL A   1      42.242  25.387  29.512  1.00  0.00    -0.248 NA
ATOM     43  C   UNL A   1      41.254  26.340  27.686  1.00  0.00     0.031 C 
ATOM     44  C   UNL A   1      44.528  28.888  29.840  1.00  0.00     0.029 A 
ATOM     45  N   UNL A   1      42.790  30.053  30.518  1.00  0.00    -0.354 N 
ATOM     46  C   UNL A   1      42.345  24.529  28.416  1.00  0.00     0.074 A 
ATOM     47  C   UNL A   1      41.366  25.019  27.489  1.00  0.00     0.031 C 
ATOM     48  C   UNL A   1      44.937  29.760  30.798  1.00  0.00     0.029 A 
ATOM     49  C   UNL A   1      43.762  30.323  31.468  1.00  0.00     0.049 A 
ATOM     50  H   UNL A   1      42.023  30.631  30.299  1.00  0.00     0.167 HD
ATOM     51  C   UNL A   1      43.588  24.039  28.081  1.00  0.00     0.037 A 
ATOM     52  C   UNL A   1      43.314  30.162  32.749  1.00  0.00     0.037 A 
ATOM     53  C   UNL A   1      44.587  24.693  28.934  1.00  0.00     0.049 A 
ATOM     54  C   UNL A   1      43.656  28.745  33.182  1.00  0.00     0.074 A 
ATOM     55  C   UNL A   1      45.518  25.695  28.739  1.00  0.00     0.029 A 
ATOM     56  N   UNL A   1      44.428  24.594  30.299  1.00  0.00    -0.354 N 
ATOM     57  N   UNL A   1      43.940  27.773  32.353  1.00  0.00    -0.248 NA
ATOM     58  C   UNL A   1      43.707  28.319  34.570  1.00  0.00     0.031 C 
ATOM     59  C   UNL A   1      45.897  26.184  30.036  1.00  0.00     0.029 A 
ATOM     60  C   UNL A   1      45.130  25.547  30.998  1.00  0.00     0.049 A 
ATOM     61  H   UNL A   1      43.868  23.909  30.730  1.00  0.00     0.167 HD
ATOM     62  C   UNL A   1      44.341  26.671  33.037  1.00  0.00     0.074 A 
ATOM     63  C   UNL A   1      44.043  27.025  34.423  1.00  0.00     0.031 C 
ATOM     64  C   UNL A   1      44.940  25.586  32.445  1.00  0.00     0.037 A 
BRANCH  51  65
ATOM     65  C   UNL A   1      44.002  23.212  26.868  1.00  0.00     0.064 A 
ATOM     66  C   UNL A   1      43.459  21.912  26.715  1.00  0.00     0.173 A 
ATOM     67  C   UNL A   1      44.844  23.614  25.810  1.00  0.00     0.173 A 
ATOM     68  F   UNL A   1      42.581  21.419  27.600  1.00  0.00    -0.203 F 
ATOM     69  C   UNL A   1      43.767  21.076  25.638  1.00  0.00     0.198 A 
ATOM     70  C   UNL A   1      45.151  22.773  24.726  1.00  0.00     0.198 A 
ATOM     71  F   UNL A   1      45.390  24.833  25.762  1.00  0.00    -0.203 F 
ATOM     72  F   UNL A   1      43.225  19.851  25.572  1.00  0.00    -0.200 F 
ATOM     73  C   UNL A   1      44.616  21.504  24.642  1.00  0.00     0.200 A 
ATOM     74  F   UNL A   1      45.968  23.207  23.753  1.00  0.00    -0.200 F 
ATOM     75  F   UNL A   1      44.903  20.706  23.604  1.00  0.00    -0.200 F 
ENDBRANCH  51  65
BRANCH  52  76
ATOM     76  C   UNL A   1      41.991  30.877  33.014  1.00  0.00     0.064 A 
ATOM     77  C   UNL A   1      41.907  32.279  32.778  1.00  0.00     0.173 A 
ATOM     78  C   UNL A   1      40.766  30.230  33.234  1.00  0.00     0.173 A 
ATOM     79  F   UNL A   1      43.025  32.998  32.584  1.00  0.00    -0.203 F 
ATOM     80  C   UNL A   1      40.688  32.945  32.607  1.00  0.00     0.198 A 
ATOM     81  C   UNL A   1      39.541  30.918  33.136  1.00  0.00     0.198 A 
ATOM     82  F   UNL A   1      40.718  28.902  33.405  1.00  0.00    -0.203 F 
ATOM     83  F   UNL A   1      40.674  34.204  32.145  1.00  0.00    -0.200 F 
ATOM     84  C   UNL A   1      39.503  32.263  32.789  1.00  0.00     0.200 A 
ATOM     85  F   UNL A   1      38.389  30.229  33.185  1.00  0.00    -0.200 F 
ATOM     86  F   UNL A   1      38.335  32.847  32.478  1.00  0.00    -0.200 F 
ENDBRANCH  52  76
BRANCH  64  87
ATOM     87  C   UNL A   1      45.395  24.402  33.252  1.00  0.00     0.064 A 
ATOM     88  C   UNL A   1      46.705  24.309  33.730  1.00  0.00     0.173 A 
ATOM     89  C   UNL A   1      44.562  23.294  33.538  1.00  0.00     0.173 A 
ATOM     90  F   UNL A   1      47.649  25.178  33.338  1.00  0.00    -0.203 F 
ATOM     91  C   UNL A   1      47.089  23.303  34.609  1.00  0.00     0.198 A 
ATOM     92  C   UNL A   1      44.982  22.235  34.326  1.00  0.00     0.198 A 
ATOM     93  F   UNL A   1      43.304  23.185  33.096  1.00  0.00    -0.203 F 
ATOM     94  F   UNL A   1      48.304  23.350  35.168  1.00  0.00    -0.200 F 
ATOM     95  C   UNL A   1      46.226  22.267  34.910  1.00  0.00     0.200 A 
ATOM     96  F   UNL A   1      44.156  21.199  34.531  1.00  0.00    -0.200 F 
ATOM     97  F   UNL A   1      46.598  21.293  35.747  1.00  0.00    -0.200 F 
ENDBRANCH  64  87
ENDBRANCH  38  39
ENDBRANCH  31  33
ENDBRANCH  30  31
ENDBRANCH  29  30
ENDBRANCH  28  29
ENDBRANCH   1  28
TORSDOF 16
ENDMDL
MODEL 2
REMARK VINA RESULT:     -12.3      1.895      2.655
REMARK SMILES COc1c(C)cccc1C(=O)NC(=S)Nc1ccc(C(=O)OCCOC(=O)c2ccc(-c3c4nc(c(-c5c(F)c(F)c(F)c(F)c5F)c5ccc([nH]5)c(-c5c(F)c(F)c(F)c(F)c5F)c5nc(c(-c6c(F)c(F)c(F)c(F)c6F)c6ccc3[nH]6)C=C5)C=C4)cc2)cc1C
REMARK SMILES IDX 22 1 20 2 21 3 19 4 16 5 17 6 92 7 18 8 91 9 93 10 15 11
REMARK SMILES IDX 13 13 14 14 12 15 10 16 11 17 9 19 3 20 4 21 5 22 6 23 8 24
REMARK SMILES IDX 7 25 2 26 1 27 23 28 24 29 25 30 26 31 27 32 28 33 29 34
REMARK SMILES IDX 90 35 30 36 89 37 31 38 32 39 33 40 83 41 34 42 88 43 82 44
REMARK SMILES IDX 84 45 35 46 87 47 81 48 80 49 36 51 68 52 48 53 67 54 49 55
REMARK SMILES IDX 52 56 66 57 85 58 50 59 51 60 65 62 86 63 53 64 37 65 38 66
REMARK SMILES IDX 46 67 39 68 40 69 44 70 47 71 41 72 42 73 45 74 43 75 69 76
REMARK SMILES IDX 70 77 78 78 71 79 72 80 76 81 79 82 73 83 74 84 77 85 75 86
REMARK SMILES IDX 54 87 55 88 63 89 56 90 57 91 61 92 64 93 58 94 59 95 62 96
REMARK SMILES IDX 60 97
REMARK H PARENT 15 12 12 18 84 50 52 61
REMARK Flexibility Score: inf
ROOT
ATOM      1  O   UNL A   1      32.932  31.391  27.834  1.00  0.00    -0.458 OA
ENDROOT
BRANCH   1   2
ATOM      2  C   UNL A   1      32.102  31.727  26.796  1.00  0.00     0.338 C 
ATOM      3  O   UNL A   1      31.781  32.906  26.651  1.00  0.00    -0.246 OA
BRANCH   2   4
ATOM      4  C   UNL A   1      31.375  30.480  25.776  1.00  0.00     0.060 A 
ATOM      5  C   UNL A   1      31.970  28.605  22.843  1.00  0.00     0.043 A 
ATOM      6  C   UNL A   1      33.138  28.784  24.158  1.00  0.00     0.027 A 
ATOM      7  C   UNL A   1      30.438  29.670  22.741  1.00  0.00    -0.027 A 
ATOM      8  C   UNL A   1      32.833  29.579  25.576  1.00  0.00     0.018 A 
ATOM      9  C   UNL A   1      29.963  30.512  24.304  1.00  0.00     0.021 A 
ATOM     10  C   UNL A   1      29.520  30.171  21.647  1.00  0.00     0.046 C 
BRANCH   5  11
ATOM     11  N   UNL A   1      31.887  27.017  23.337  1.00  0.00    -0.332 N 
ATOM     12  H   UNL A   1      32.088  26.960  24.299  1.00  0.00     0.169 HD
BRANCH  11  13
ATOM     13  C   UNL A   1      31.624  25.720  22.830  1.00  0.00     0.177 C 
ATOM     14  S   UNL A   1      30.244  24.973  23.464  1.00  0.00    -0.040 S 
BRANCH  13  15
ATOM     15  N   UNL A   1      32.348  24.881  21.923  1.00  0.00    -0.299 N 
ATOM     16  C   UNL A   1      33.100  23.644  21.662  1.00  0.00     0.261 C 
ATOM     17  O   UNL A   1      33.537  23.363  20.550  1.00  0.00    -0.269 OA
ATOM     18  H   UNL A   1      32.338  25.361  21.065  1.00  0.00     0.172 HD
BRANCH  16  19
ATOM     19  C   UNL A   1      33.358  22.758  22.783  1.00  0.00     0.082 A 
ATOM     20  C   UNL A   1      35.007  22.931  23.141  1.00  0.00     0.134 A 
ATOM     21  C   UNL A   1      36.014  21.646  24.370  1.00  0.00    -0.008 A 
ATOM     22  C   UNL A   1      37.343  21.612  25.191  1.00  0.00     0.048 C 
ATOM     23  C   UNL A   1      34.976  20.430  25.238  1.00  0.00     0.007 A 
ATOM     24  C   UNL A   1      32.475  21.585  23.627  1.00  0.00     0.018 A 
ATOM     25  C   UNL A   1      33.232  20.482  24.807  1.00  0.00     0.001 A 
BRANCH  20  26
ATOM     26  O   UNL A   1      34.508  24.604  23.609  1.00  0.00    -0.496 OA
ATOM     27  C   UNL A   1      34.525  25.354  24.958  1.00  0.00     0.278 C 
ENDBRANCH  20  26
ENDBRANCH  16  19
ENDBRANCH  13  15
ENDBRANCH  11  13
ENDBRANCH   5  11
ENDBRANCH   2   4
ENDBRANCH   1   2
BRANCH   1  28
ATOM     28  C   UNL A   1      34.248  32.012  27.937  1.00  0.00     0.275 C 
BRANCH  28  29
ATOM     29  C   UNL A   1      35.593  31.240  27.655  1.00  0.00     0.275 C 
BRANCH  29  30
ATOM     30  O   UNL A   1      36.050  29.897  28.063  1.00  0.00    -0.458 OA
BRANCH  30  31
ATOM     31  C   UNL A   1      36.826  29.456  29.082  1.00  0.00     0.338 C 
ATOM     32  O   UNL A   1      36.610  29.708  30.255  1.00  0.00    -0.246 OA
BRANCH  31  33
ATOM     33  C   UNL A   1      38.028  28.729  28.646  1.00  0.00     0.060 A 
ATOM     34  C   UNL A   1      38.808  29.155  27.535  1.00  0.00     0.016 A 
ATOM     35  C   UNL A   1      38.552  27.903  29.615  1.00  0.00     0.016 A 
ATOM     36  C   UNL A   1      40.168  28.828  27.489  1.00  0.00     0.010 A 
ATOM     37  C   UNL A   1      39.897  27.919  29.760  1.00  0.00     0.010 A 
ATOM     38  C   UNL A   1      40.685  28.244  28.649  1.00  0.00    -0.014 A 
BRANCH  38  39
ATOM     39  C   UNL A   1      41.870  27.420  28.756  1.00  0.00     0.031 A 
ATOM     40  C   UNL A   1      41.646  25.976  28.443  1.00  0.00     0.074 A 
ATOM     41  C   UNL A   1      42.901  28.322  28.793  1.00  0.00     0.049 A 
ATOM     42  N   UNL A   1      41.924  24.952  29.185  1.00  0.00    -0.248 NA
ATOM     43  C   UNL A   1      40.823  25.550  27.275  1.00  0.00     0.031 C 
ATOM     44  C   UNL A   1      44.335  28.333  28.602  1.00  0.00     0.029 A 
ATOM     45  N   UNL A   1      42.693  29.694  29.142  1.00  0.00    -0.354 N 
ATOM     46  C   UNL A   1      41.912  23.881  28.290  1.00  0.00     0.074 A 
ATOM     47  C   UNL A   1      40.879  24.212  27.353  1.00  0.00     0.031 C 
ATOM     48  C   UNL A   1      44.846  29.366  29.323  1.00  0.00     0.029 A 
ATOM     49  C   UNL A   1      43.746  30.110  29.941  1.00  0.00     0.049 A 
ATOM     50  H   UNL A   1      41.929  30.250  28.861  1.00  0.00     0.167 HD
ATOM     51  C   UNL A   1      43.109  23.274  27.978  1.00  0.00     0.037 A 
ATOM     52  C   UNL A   1      43.397  30.240  31.256  1.00  0.00     0.037 A 
ATOM     53  C   UNL A   1      44.193  24.044  28.601  1.00  0.00     0.049 A 
ATOM     54  C   UNL A   1      43.728  28.930  31.953  1.00  0.00     0.074 A 
ATOM     55  C   UNL A   1      45.135  24.938  28.133  1.00  0.00     0.029 A 
ATOM     56  N   UNL A   1      44.140  24.238  29.963  1.00  0.00    -0.354 N 
ATOM     57  N   UNL A   1      43.915  27.795  31.329  1.00  0.00    -0.248 NA
ATOM     58  C   UNL A   1      43.876  28.801  33.393  1.00  0.00     0.031 C 
ATOM     59  C   UNL A   1      45.632  25.669  29.267  1.00  0.00     0.029 A 
ATOM     60  C   UNL A   1      44.925  25.282  30.393  1.00  0.00     0.049 A 
ATOM     61  H   UNL A   1      43.595  23.685  30.568  1.00  0.00     0.167 HD
ATOM     62  C   UNL A   1      44.336  26.842  32.200  1.00  0.00     0.074 A 
ATOM     63  C   UNL A   1      44.159  27.490  33.498  1.00  0.00     0.031 C 
ATOM     64  C   UNL A   1      44.851  25.630  31.810  1.00  0.00     0.037 A 
BRANCH  51  65
ATOM     65  C   UNL A   1      43.400  22.195  26.941  1.00  0.00     0.064 A 
ATOM     66  C   UNL A   1      42.698  20.966  27.025  1.00  0.00     0.173 A 
ATOM     67  C   UNL A   1      44.269  22.289  25.834  1.00  0.00     0.173 A 
ATOM     68  F   UNL A   1      41.780  20.755  27.978  1.00  0.00    -0.203 F 
ATOM     69  C   UNL A   1      42.885  19.915  26.122  1.00  0.00     0.198 A 
ATOM     70  C   UNL A   1      44.453  21.232  24.925  1.00  0.00     0.198 A 
ATOM     71  F   UNL A   1      44.960  23.401  25.567  1.00  0.00    -0.203 F 
ATOM     72  F   UNL A   1      42.195  18.776  26.278  1.00  0.00    -0.200 F 
ATOM     73  C   UNL A   1      43.765  20.045  25.071  1.00  0.00     0.200 A 
ATOM     74  F   UNL A   1      45.303  21.376  23.896  1.00  0.00    -0.200 F 
ATOM     75  F   UNL A   1      43.936  19.042  24.199  1.00  0.00    -0.200 F 
ENDBRANCH  51  65
BRANCH  52  76
ATOM     76  C   UNL A   1      42.121  31.056  31.458  1.00  0.00     0.064 A 
ATOM     77  C   UNL A   1      42.043  32.362  30.895  1.00  0.00     0.173 A 
ATOM     78  C   UNL A   1      40.911  30.536  31.939  1.00  0.00     0.173 A 
ATOM     79  F   UNL A   1      43.152  32.964  30.431  1.00  0.00    -0.203 F 
ATOM     80  C   UNL A   1      40.828  33.021  30.679  1.00  0.00     0.198 A 
ATOM     81  C   UNL A   1      39.697  31.234  31.789  1.00  0.00     0.198 A 
ATOM     82  F   UNL A   1      40.852  29.292  32.433  1.00  0.00    -0.203 F 
ATOM     83  F   UNL A   1      40.795  34.131  29.927  1.00  0.00    -0.200 F 
ATOM     84  C   UNL A   1      39.653  32.456  31.129  1.00  0.00     0.200 A 
ATOM     85  F   UNL A   1      38.541  30.629  32.108  1.00  0.00    -0.200 F 
ATOM     86  F   UNL A   1      38.472  32.999  30.792  1.00  0.00    -0.200 F 
ENDBRANCH  52  76
BRANCH  64  87
ATOM     87  C   UNL A   1      45.332  24.621  32.814  1.00  0.00     0.064 A 
ATOM     88  C   UNL A   1      46.603  24.716  33.388  1.00  0.00     0.173 A 
ATOM     89  C   UNL A   1      44.570  23.494  33.205  1.00  0.00     0.173 A 
ATOM     90  F   UNL A   1      47.503  25.601  32.936  1.00  0.00    -0.203 F 
ATOM     91  C   UNL A   1      46.994  23.885  34.432  1.00  0.00     0.198 A 
ATOM     92  C   UNL A   1      45.008  22.601  34.170  1.00  0.00     0.198 A 
ATOM     93  F   UNL A   1      43.365  23.210  32.700  1.00  0.00    -0.203 F 
ATOM     94  F   UNL A   1      48.152  24.121  35.059  1.00  0.00    -0.200 F 
ATOM     95  C   UNL A   1      46.194  22.830  34.825  1.00  0.00     0.200 A 
ATOM     96  F   UNL A   1      44.254  21.535  34.470  1.00  0.00    -0.200 F 
ATOM     97  F   UNL A   1      46.574  22.023  35.822  1.00  0.00    -0.200 F 
ENDBRANCH  64  87
ENDBRANCH  38  39
ENDBRANCH  31  33
ENDBRANCH  30  31
ENDBRANCH  29  30
ENDBRANCH  28  29
ENDBRANCH   1  28
TORSDOF 16
ENDMDL
MODEL 3
REMARK VINA RESULT:     -12.1      1.858      2.862
REMARK SMILES COc1c(C)cccc1C(=O)NC(=S)Nc1ccc(C(=O)OCCOC(=O)c2ccc(-c3c4nc(c(-c5c(F)c(F)c(F)c(F)c5F)c5ccc([nH]5)c(-c5c(F)c(F)c(F)c(F)c5F)c5nc(c(-c6c(F)c(F)c(F)c(F)c6F)c6ccc3[nH]6)C=C5)C=C4)cc2)cc1C
REMARK SMILES IDX 22 1 20 2 21 3 19 4 16 5 17 6 92 7 18 8 91 9 93 10 15 11
REMARK SMILES IDX 13 13 14 14 12 15 10 16 11 17 9 19 3 20 4 21 5 22 6 23 8 24
REMARK SMILES IDX 7 25 2 26 1 27 23 28 24 29 25 30 26 31 27 32 28 33 29 34
REMARK SMILES IDX 90 35 30 36 89 37 31 38 32 39 33 40 83 41 34 42 88 43 82 44
REMARK SMILES IDX 84 45 35 46 87 47 81 48 80 49 36 51 68 52 48 53 67 54 49 55
REMARK SMILES IDX 52 56 66 57 85 58 50 59 51 60 65 62 86 63 53 64 37 65 38 66
REMARK SMILES IDX 46 67 39 68 40 69 44 70 47 71 41 72 42 73 45 74 43 75 69 76
REMARK SMILES IDX 70 77 78 78 71 79 72 80 76 81 79 82 73 83 74 84 77 85 75 86
REMARK SMILES IDX 54 87 55 88 63 89 56 90 57 91 61 92 64 93 58 94 59 95 62 96
REMARK SMILES IDX 60 97
REMARK H PARENT 15 12 12 18 84 50 52 61
REMARK Flexibility Score: inf
ROOT
ATOM      1  O   UNL A   1      33.729  32.283  29.284  1.00  0.00    -0.458 OA
ENDROOT
BRANCH   1   2
ATOM      2  C   UNL A   1      33.880  31.914  27.973  1.00  0.00     0.338 C 
ATOM      3  O   UNL A   1      34.620  32.579  27.250  1.00  0.00    -0.246 OA
BRANCH   2   4
ATOM      4  C   UNL A   1      32.912  30.604  27.284  1.00  0.00     0.060 A 
ATOM      5  C   UNL A   1      33.013  28.099  24.796  1.00  0.00     0.043 A 
ATOM      6  C   UNL A   1      34.297  28.370  25.982  1.00  0.00     0.027 A 
ATOM      7  C   UNL A   1      31.634  29.334  24.546  1.00  0.00    -0.027 A 
ATOM      8  C   UNL A   1      34.217  29.476  27.209  1.00  0.00     0.018 A 
ATOM      9  C   UNL A   1      31.403  30.540  25.913  1.00  0.00     0.021 A 
ATOM     10  C   UNL A   1      30.705  29.729  23.417  1.00  0.00     0.046 C 
BRANCH   5  11
ATOM     11  N   UNL A   1      32.760  26.677  25.624  1.00  0.00    -0.332 N 
ATOM     12  H   UNL A   1      33.478  26.547  26.285  1.00  0.00     0.169 HD
BRANCH  11  13
ATOM     13  C   UNL A   1      31.852  25.591  25.692  1.00  0.00     0.177 C 
ATOM     14  S   UNL A   1      30.582  25.651  24.574  1.00  0.00    -0.040 S 
BRANCH  13  15
ATOM     15  N   UNL A   1      31.762  24.471  26.581  1.00  0.00    -0.299 N 
ATOM     16  C   UNL A   1      32.303  23.198  27.080  1.00  0.00     0.261 C 
ATOM     17  O   UNL A   1      31.781  22.578  28.001  1.00  0.00    -0.269 OA
ATOM     18  H   UNL A   1      30.948  24.629  27.112  1.00  0.00     0.172 HD
BRANCH  16  19
ATOM     19  C   UNL A   1      33.475  22.655  26.417  1.00  0.00     0.082 A 
ATOM     20  C   UNL A   1      33.008  21.137  25.820  1.00  0.00     0.134 A 
ATOM     21  C   UNL A   1      34.350  19.756  25.136  1.00  0.00    -0.008 A 
ATOM     22  C   UNL A   1      34.355  18.469  24.250  1.00  0.00     0.048 C 
ATOM     23  C   UNL A   1      36.067  20.342  25.001  1.00  0.00     0.007 A 
ATOM     24  C   UNL A   1      35.099  23.109  26.266  1.00  0.00     0.018 A 
ATOM     25  C   UNL A   1      36.338  22.021  25.581  1.00  0.00     0.001 A 
BRANCH  20  26
ATOM     26  O   UNL A   1      31.938  22.128  24.753  1.00  0.00    -0.496 OA
ATOM     27  C   UNL A   1      31.880  22.312  23.221  1.00  0.00     0.278 C 
ENDBRANCH  20  26
ENDBRANCH  16  19
ENDBRANCH  13  15
ENDBRANCH  11  13
ENDBRANCH   5  11
ENDBRANCH   2   4
ENDBRANCH   1   2
BRANCH   1  28
ATOM     28  C   UNL A   1      34.882  32.770  30.035  1.00  0.00     0.275 C 
BRANCH  28  29
ATOM     29  C   UNL A   1      36.308  32.103  29.957  1.00  0.00     0.275 C 
BRANCH  29  30
ATOM     30  O   UNL A   1      36.761  30.838  29.346  1.00  0.00    -0.458 OA
BRANCH  30  31
ATOM     31  C   UNL A   1      36.988  29.601  29.848  1.00  0.00     0.338 C 
ATOM     32  O   UNL A   1      36.279  29.070  30.686  1.00  0.00    -0.246 OA
BRANCH  31  33
ATOM     33  C   UNL A   1      38.236  28.983  29.375  1.00  0.00     0.060 A 
ATOM     34  C   UNL A   1      39.042  29.584  28.369  1.00  0.00     0.016 A 
ATOM     35  C   UNL A   1      38.754  28.053  30.247  1.00  0.00     0.016 A 
ATOM     36  C   UNL A   1      40.416  29.316  28.341  1.00  0.00     0.010 A 
ATOM     37  C   UNL A   1      40.090  28.097  30.455  1.00  0.00     0.010 A 
ATOM     38  C   UNL A   1      40.909  28.598  29.435  1.00  0.00    -0.014 A 
BRANCH  38  39
ATOM     39  C   UNL A   1      42.122  27.810  29.485  1.00  0.00     0.031 A 
ATOM     40  C   UNL A   1      41.990  26.440  28.906  1.00  0.00     0.074 A 
ATOM     41  C   UNL A   1      43.104  28.727  29.759  1.00  0.00     0.049 A 
ATOM     42  N   UNL A   1      42.265  25.309  29.475  1.00  0.00    -0.248 NA
ATOM     43  C   UNL A   1      41.271  26.201  27.622  1.00  0.00     0.031 C 
ATOM     44  C   UNL A   1      44.545  28.822  29.684  1.00  0.00     0.029 A 
ATOM     45  N   UNL A   1      42.806  30.006  30.328  1.00  0.00    -0.354 N 
ATOM     46  C   UNL A   1      42.367  24.416  28.407  1.00  0.00     0.074 A 
ATOM     47  C   UNL A   1      41.385  24.874  27.467  1.00  0.00     0.031 C 
ATOM     48  C   UNL A   1      44.955  29.727  30.612  1.00  0.00     0.029 A 
ATOM     49  C   UNL A   1      43.780  30.309  31.266  1.00  0.00     0.049 A 
ATOM     50  H   UNL A   1      42.038  30.576  30.092  1.00  0.00     0.167 HD
ATOM     51  C   UNL A   1      43.610  23.918  28.085  1.00  0.00     0.037 A 
ATOM     52  C   UNL A   1      43.336  30.188  32.552  1.00  0.00     0.037 A 
ATOM     53  C   UNL A   1      44.609  24.601  28.914  1.00  0.00     0.049 A 
ATOM     54  C   UNL A   1      43.681  28.787  33.031  1.00  0.00     0.074 A 
ATOM     55  C   UNL A   1      45.538  25.597  28.685  1.00  0.00     0.029 A 
ATOM     56  N   UNL A   1      44.454  24.546  30.282  1.00  0.00    -0.354 N 
ATOM     57  N   UNL A   1      43.965  27.789  32.233  1.00  0.00    -0.248 NA
ATOM     58  C   UNL A   1      43.736  28.406  34.432  1.00  0.00     0.031 C 
ATOM     59  C   UNL A   1      45.919  26.129  29.965  1.00  0.00     0.029 A 
ATOM     60  C   UNL A   1      45.156  25.522  30.948  1.00  0.00     0.049 A 
ATOM     61  H   UNL A   1      43.896  23.874  30.736  1.00  0.00     0.167 HD
ATOM     62  C   UNL A   1      44.370  26.711  32.951  1.00  0.00     0.074 A 
ATOM     63  C   UNL A   1      44.074  27.109  34.326  1.00  0.00     0.031 C 
ATOM     64  C   UNL A   1      44.969  25.608  32.394  1.00  0.00     0.037 A 
BRANCH  51  65
ATOM     65  C   UNL A   1      44.022  23.053  26.899  1.00  0.00     0.064 A 
ATOM     66  C   UNL A   1      43.405  21.788  26.734  1.00  0.00     0.173 A 
ATOM     67  C   UNL A   1      44.933  23.389  25.876  1.00  0.00     0.173 A 
ATOM     68  F   UNL A   1      42.460  21.361  27.582  1.00  0.00    -0.203 F 
ATOM     69  C   UNL A   1      43.705  20.921  25.677  1.00  0.00     0.198 A 
ATOM     70  C   UNL A   1      45.233  22.517  24.813  1.00  0.00     0.198 A 
ATOM     71  F   UNL A   1      45.558  24.570  25.841  1.00  0.00    -0.203 F 
ATOM     72  F   UNL A   1      43.090  19.733  25.599  1.00  0.00    -0.200 F 
ATOM     73  C   UNL A   1      44.622  21.284  24.716  1.00  0.00     0.200 A 
ATOM     74  F   UNL A   1      46.118  22.887  23.874  1.00  0.00    -0.200 F 
ATOM     75  F   UNL A   1      44.903  20.458  23.700  1.00  0.00    -0.200 F 
ENDBRANCH  51  65
BRANCH  52  76
ATOM     76  C   UNL A   1      42.011  30.909  32.798  1.00  0.00     0.064 A 
ATOM     77  C   UNL A   1      41.938  32.312  32.560  1.00  0.00     0.173 A 
ATOM     78  C   UNL A   1      40.781  30.268  32.998  1.00  0.00     0.173 A 
ATOM     79  F   UNL A   1      43.062  33.026  32.384  1.00  0.00    -0.203 F 
ATOM     80  C   UNL A   1      40.725  32.983  32.372  1.00  0.00     0.198 A 
ATOM     81  C   UNL A   1      39.561  30.962  32.882  1.00  0.00     0.198 A 
ATOM     82  F   UNL A   1      40.724  28.940  33.168  1.00  0.00    -0.203 F 
ATOM     83  F   UNL A   1      40.724  34.243  31.909  1.00  0.00    -0.200 F 
ATOM     84  C   UNL A   1      39.534  32.307  32.534  1.00  0.00     0.200 A 
ATOM     85  F   UNL A   1      38.405  30.278  32.912  1.00  0.00    -0.200 F 
ATOM     86  F   UNL A   1      38.374  32.896  32.206  1.00  0.00    -0.200 F 
ENDBRANCH  52  76
BRANCH  64  87
ATOM     87  C   UNL A   1      45.428  24.452  33.238  1.00  0.00     0.064 A 
ATOM     88  C   UNL A   1      44.550  23.431  33.612  1.00  0.00     0.173 A 
ATOM     89  C   UNL A   1      46.744  24.341  33.748  1.00  0.00     0.173 A 
ATOM     90  F   UNL A   1      43.231  23.534  33.386  1.00  0.00    -0.203 F 
ATOM     91  C   UNL A   1      44.999  22.282  34.252  1.00  0.00     0.198 A 
ATOM     92  C   UNL A   1      47.164  23.243  34.482  1.00  0.00     0.198 A 
ATOM     93  F   UNL A   1      47.691  25.263  33.549  1.00  0.00    -0.203 F 
ATOM     94  F   UNL A   1      44.153  21.263  34.440  1.00  0.00    -0.200 F 
ATOM     95  C   UNL A   1      46.308  22.187  34.684  1.00  0.00     0.200 A 
ATOM     96  F   UNL A   1      48.413  23.214  34.965  1.00  0.00    -0.200 F 
ATOM     97  F   UNL A   1      46.740  21.086  35.309  1.00  0.00    -0.200 F 
ENDBRANCH  64  87
ENDBRANCH  38  39
ENDBRANCH  31  33
ENDBRANCH  30  31
ENDBRANCH  29  30
ENDBRANCH  28  29
ENDBRANCH   1  28
TORSDOF 16
ENDMDL
