MODEL 1
REMARK VINA RESULT:      -9.9      0.000      0.000
REMARK SMILES CCC[C@@H](C[NH2+]C(C)C)C(=O)OCCOC(=O)c1ccc(-c2c3nc(c(-c4c(F)c(F)c(F)c(F)c4F)c4ccc([nH]4)c(-c4c(F)c(F)c(F)c(F)c4F)c4nc(c(-c5c(F)c(F)c(F)c(F)c5F)c5ccc2[nH]5)C=C4)C=C3)cc1
REMARK SMILES IDX 13 1 12 2 10 3 11 4 4 5 3 6 2 7 1 8 5 9 6 10 7 13 8 14 9 15
REMARK SMILES IDX 14 16 15 17 16 18 17 19 18 20 19 21 80 22 20 23 79 24 21 25
REMARK SMILES IDX 22 26 23 27 73 28 24 29 78 30 72 31 74 32 25 33 77 34 71 35
REMARK SMILES IDX 70 36 26 38 58 39 38 40 57 41 39 42 42 43 56 44 75 45 40 46
REMARK SMILES IDX 41 47 55 49 76 50 43 51 27 52 28 53 36 54 29 55 30 56 34 57
REMARK SMILES IDX 37 58 31 59 32 60 35 61 33 62 59 63 60 64 68 65 61 66 62 67
REMARK SMILES IDX 66 68 69 69 63 70 64 71 67 72 65 73 44 74 45 75 53 76 46 77
REMARK SMILES IDX 47 78 51 79 54 80 48 81 49 82 52 83 50 84
REMARK H PARENT 6 11 6 12 74 37 42 48
REMARK Flexibility Score: inf
ROOT
ATOM      1  C   UNL A   1      36.432  21.497  24.575  1.00  0.00     0.274 C 
ENDROOT
BRANCH   1   2
ATOM      2  O   UNL A   1      35.325  20.576  24.561  1.00  0.00    -0.462 OA
BRANCH   2   3
ATOM      3  C   UNL A   1      34.353  20.794  25.484  1.00  0.00     0.314 C 
ATOM      4  O   UNL A   1      34.538  21.281  26.595  1.00  0.00    -0.252 OA
BRANCH   3   5
ATOM      5  C   UNL A   1      32.970  20.380  25.007  1.00  0.00     0.154 C 
BRANCH   5   6
ATOM      6  C   UNL A   1      32.571  20.969  23.640  1.00  0.00     0.021 C 
BRANCH   6   7
ATOM      7  C   UNL A   1      32.501  22.501  23.593  1.00  0.00    -0.002 C 
ATOM      8  C   UNL A   1      33.504  23.133  22.638  1.00  0.00     0.004 C 
ENDBRANCH   6   7
ENDBRANCH   5   6
BRANCH   5   9
ATOM      9  C   UNL A   1      32.813  18.858  25.138  1.00  0.00     0.276 C 
BRANCH   9  10
ATOM     10  N   UNL A   1      34.089  18.153  25.265  1.00  0.00    -0.344 N 
ATOM     11  H   UNL A   1      34.414  18.242  26.228  1.00  0.00     0.346 HD
ATOM     12  H   UNL A   1      34.737  18.578  24.602  1.00  0.00     0.346 HD
BRANCH  10  13
ATOM     13  C   UNL A   1      33.995  16.727  24.934  1.00  0.00     0.176 C 
ATOM     14  C   UNL A   1      32.682  16.104  25.410  1.00  0.00     0.075 C 
ATOM     15  C   UNL A   1      34.114  16.597  23.415  1.00  0.00     0.075 C 
ENDBRANCH  10  13
ENDBRANCH   9  10
ENDBRANCH   5   9
ENDBRANCH   3   5
ENDBRANCH   2   3
ENDBRANCH   1   2
BRANCH   1  16
ATOM     16  C   UNL A   1      37.742  20.791  24.934  1.00  0.00     0.275 C 
BRANCH  16  17
ATOM     17  O   UNL A   1      38.220  21.202  26.228  1.00  0.00    -0.458 OA
BRANCH  17  18
ATOM     18  C   UNL A   1      39.560  21.118  26.394  1.00  0.00     0.338 C 
ATOM     19  O   UNL A   1      40.298  20.209  26.057  1.00  0.00    -0.246 OA
BRANCH  18  20
ATOM     20  C   UNL A   1      40.072  22.389  26.928  1.00  0.00     0.060 A 
ATOM     21  C   UNL A   1      39.577  23.567  26.364  1.00  0.00     0.016 A 
ATOM     22  C   UNL A   1      41.081  22.434  27.891  1.00  0.00     0.016 A 
ATOM     23  C   UNL A   1      40.087  24.799  26.753  1.00  0.00     0.010 A 
ATOM     24  C   UNL A   1      41.602  23.677  28.279  1.00  0.00     0.010 A 
ATOM     25  C   UNL A   1      41.116  24.862  27.700  1.00  0.00    -0.014 A 
BRANCH  25  26
ATOM     26  C   UNL A   1      41.710  26.182  28.011  1.00  0.00     0.031 A 
ATOM     27  C   UNL A   1      43.075  26.529  27.493  1.00  0.00     0.074 A 
ATOM     28  C   UNL A   1      40.990  27.096  28.687  1.00  0.00     0.049 A 
ATOM     29  N   UNL A   1      43.749  27.644  27.615  1.00  0.00    -0.248 NA
ATOM     30  C   UNL A   1      43.774  25.482  26.733  1.00  0.00     0.031 C 
ATOM     31  C   UNL A   1      39.640  26.885  29.208  1.00  0.00     0.029 A 
ATOM     32  N   UNL A   1      41.289  28.389  29.034  1.00  0.00    -0.354 N 
ATOM     33  C   UNL A   1      44.953  27.431  26.960  1.00  0.00     0.074 A 
ATOM     34  C   UNL A   1      44.926  26.075  26.453  1.00  0.00     0.031 C 
ATOM     35  C   UNL A   1      39.220  28.016  29.799  1.00  0.00     0.029 A 
ATOM     36  C   UNL A   1      40.279  29.020  29.717  1.00  0.00     0.049 A 
ATOM     37  H   UNL A   1      42.145  28.822  28.814  1.00  0.00     0.167 HD
ATOM     38  C   UNL A   1      45.987  28.291  26.795  1.00  0.00     0.037 A 
ATOM     39  C   UNL A   1      40.219  30.267  30.220  1.00  0.00     0.037 A 
ATOM     40  C   UNL A   1      46.009  29.644  27.285  1.00  0.00     0.049 A 
ATOM     41  C   UNL A   1      41.383  31.198  30.029  1.00  0.00     0.074 A 
ATOM     42  C   UNL A   1      47.012  30.592  27.166  1.00  0.00     0.029 A 
ATOM     43  N   UNL A   1      44.975  30.243  27.990  1.00  0.00    -0.354 N 
ATOM     44  N   UNL A   1      42.518  30.987  29.406  1.00  0.00    -0.248 NA
ATOM     45  C   UNL A   1      41.256  32.544  30.605  1.00  0.00     0.031 C 
ATOM     46  C   UNL A   1      46.596  31.756  27.823  1.00  0.00     0.029 A 
ATOM     47  C   UNL A   1      45.320  31.544  28.320  1.00  0.00     0.049 A 
ATOM     48  H   UNL A   1      44.123  29.809  28.221  1.00  0.00     0.167 HD
ATOM     49  C   UNL A   1      43.233  32.173  29.504  1.00  0.00     0.074 A 
ATOM     50  C   UNL A   1      42.396  33.107  30.227  1.00  0.00     0.031 C 
ATOM     51  C   UNL A   1      44.474  32.460  29.041  1.00  0.00     0.037 A 
BRANCH  38  52
ATOM     52  C   UNL A   1      47.195  27.780  26.071  1.00  0.00     0.064 A 
ATOM     53  C   UNL A   1      47.276  27.795  24.672  1.00  0.00     0.173 A 
ATOM     54  C   UNL A   1      48.296  27.290  26.790  1.00  0.00     0.173 A 
ATOM     55  F   UNL A   1      46.242  28.238  23.940  1.00  0.00    -0.203 F 
ATOM     56  C   UNL A   1      48.410  27.320  24.016  1.00  0.00     0.198 A 
ATOM     57  C   UNL A   1      49.435  26.835  26.132  1.00  0.00     0.198 A 
ATOM     58  F   UNL A   1      48.267  27.256  28.131  1.00  0.00    -0.203 F 
ATOM     59  F   UNL A   1      48.451  27.308  22.677  1.00  0.00    -0.200 F 
ATOM     60  C   UNL A   1      49.490  26.845  24.747  1.00  0.00     0.200 A 
ATOM     61  F   UNL A   1      50.480  26.385  26.839  1.00  0.00    -0.200 F 
ATOM     62  F   UNL A   1      50.580  26.391  24.115  1.00  0.00    -0.200 F 
ENDBRANCH  38  52
BRANCH  39  63
ATOM     63  C   UNL A   1      39.004  30.706  30.950  1.00  0.00     0.064 A 
ATOM     64  C   UNL A   1      38.912  30.580  32.342  1.00  0.00     0.173 A 
ATOM     65  C   UNL A   1      37.913  31.263  30.268  1.00  0.00     0.173 A 
ATOM     66  F   UNL A   1      39.921  30.029  33.033  1.00  0.00    -0.203 F 
ATOM     67  C   UNL A   1      37.767  30.984  33.024  1.00  0.00     0.198 A 
ATOM     68  C   UNL A   1      36.778  31.688  30.954  1.00  0.00     0.198 A 
ATOM     69  F   UNL A   1      37.955  31.402  28.935  1.00  0.00    -0.203 F 
ATOM     70  F   UNL A   1      37.687  30.818  34.352  1.00  0.00    -0.200 F 
ATOM     71  C   UNL A   1      36.703  31.544  32.331  1.00  0.00     0.200 A 
ATOM     72  F   UNL A   1      35.756  32.235  30.281  1.00  0.00    -0.200 F 
ATOM     73  F   UNL A   1      35.603  31.936  32.988  1.00  0.00    -0.200 F 
ENDBRANCH  39  63
BRANCH  51  74
ATOM     74  C   UNL A   1      44.990  33.845  29.291  1.00  0.00     0.064 A 
ATOM     75  C   UNL A   1      44.743  34.891  28.391  1.00  0.00     0.173 A 
ATOM     76  C   UNL A   1      45.721  34.133  30.453  1.00  0.00     0.173 A 
ATOM     77  F   UNL A   1      44.062  34.660  27.258  1.00  0.00    -0.203 F 
ATOM     78  C   UNL A   1      45.234  36.172  28.632  1.00  0.00     0.198 A 
ATOM     79  C   UNL A   1      46.191  35.420  30.701  1.00  0.00     0.198 A 
ATOM     80  F   UNL A   1      45.979  33.167  31.347  1.00  0.00    -0.203 F 
ATOM     81  F   UNL A   1      45.026  37.146  27.735  1.00  0.00    -0.200 F 
ATOM     82  C   UNL A   1      45.953  36.436  29.787  1.00  0.00     0.200 A 
ATOM     83  F   UNL A   1      46.880  35.676  31.823  1.00  0.00    -0.200 F 
ATOM     84  F   UNL A   1      46.426  37.669  30.016  1.00  0.00    -0.200 F 
ENDBRANCH  51  74
ENDBRANCH  25  26
ENDBRANCH  18  20
ENDBRANCH  17  18
ENDBRANCH  16  17
ENDBRANCH   1  16
TORSDOF 16
ENDMDL
MODEL 2
REMARK VINA RESULT:      -9.8      5.308     10.673
REMARK SMILES CCC[C@@H](C[NH2+]C(C)C)C(=O)OCCOC(=O)c1ccc(-c2c3nc(c(-c4c(F)c(F)c(F)c(F)c4F)c4ccc([nH]4)c(-c4c(F)c(F)c(F)c(F)c4F)c4nc(c(-c5c(F)c(F)c(F)c(F)c5F)c5ccc2[nH]5)C=C4)C=C3)cc1
REMARK SMILES IDX 13 1 12 2 10 3 11 4 4 5 3 6 2 7 1 8 5 9 6 10 7 13 8 14 9 15
REMARK SMILES IDX 14 16 15 17 16 18 17 19 18 20 19 21 80 22 20 23 79 24 21 25
REMARK SMILES IDX 22 26 23 27 73 28 24 29 78 30 72 31 74 32 25 33 77 34 71 35
REMARK SMILES IDX 70 36 26 38 58 39 38 40 57 41 39 42 42 43 56 44 75 45 40 46
REMARK SMILES IDX 41 47 55 49 76 50 43 51 27 52 28 53 36 54 29 55 30 56 34 57
REMARK SMILES IDX 37 58 31 59 32 60 35 61 33 62 59 63 60 64 68 65 61 66 62 67
REMARK SMILES IDX 66 68 69 69 63 70 64 71 67 72 65 73 44 74 45 75 53 76 46 77
REMARK SMILES IDX 47 78 51 79 54 80 48 81 49 82 52 83 50 84
REMARK H PARENT 6 11 6 12 74 37 42 48
REMARK Flexibility Score: inf
ROOT
ATOM      1  C   UNL A   1      34.132  33.313  29.150  1.00  0.00     0.274 C 
ENDROOT
BRANCH   1   2
ATOM      2  O   UNL A   1      34.440  32.725  30.428  1.00  0.00    -0.462 OA
BRANCH   2   3
ATOM      3  C   UNL A   1      34.500  33.580  31.482  1.00  0.00     0.314 C 
ATOM      4  O   UNL A   1      33.759  34.543  31.646  1.00  0.00    -0.252 OA
BRANCH   3   5
ATOM      5  C   UNL A   1      35.591  33.225  32.480  1.00  0.00     0.154 C 
BRANCH   5   6
ATOM      6  C   UNL A   1      35.959  31.729  32.508  1.00  0.00     0.021 C 
BRANCH   6   7
ATOM      7  C   UNL A   1      37.391  31.425  32.969  1.00  0.00    -0.002 C 
ATOM      8  C   UNL A   1      37.683  29.939  33.125  1.00  0.00     0.004 C 
ENDBRANCH   6   7
ENDBRANCH   5   6
BRANCH   5   9
ATOM      9  C   UNL A   1      36.774  34.191  32.314  1.00  0.00     0.276 C 
BRANCH   9  10
ATOM     10  N   UNL A   1      37.001  34.596  30.926  1.00  0.00    -0.344 N 
ATOM     11  H   UNL A   1      37.196  35.598  30.909  1.00  0.00     0.346 HD
ATOM     12  H   UNL A   1      36.159  34.362  30.401  1.00  0.00     0.346 HD
BRANCH  10  13
ATOM     13  C   UNL A   1      38.123  33.891  30.296  1.00  0.00     0.176 C 
ATOM     14  C   UNL A   1      37.703  33.145  29.028  1.00  0.00     0.075 C 
ATOM     15  C   UNL A   1      39.191  34.933  29.958  1.00  0.00     0.075 C 
ENDBRANCH  10  13
ENDBRANCH   9  10
ENDBRANCH   5   9
ENDBRANCH   3   5
ENDBRANCH   2   3
ENDBRANCH   1   2
BRANCH   1  16
ATOM     16  C   UNL A   1      34.380  32.327  28.006  1.00  0.00     0.275 C 
BRANCH  16  17
ATOM     17  O   UNL A   1      34.049  30.981  28.394  1.00  0.00    -0.458 OA
BRANCH  17  18
ATOM     18  C   UNL A   1      34.650  30.012  27.666  1.00  0.00     0.338 C 
ATOM     19  O   UNL A   1      34.214  29.439  26.683  1.00  0.00    -0.246 OA
BRANCH  18  20
ATOM     20  C   UNL A   1      36.031  29.826  28.138  1.00  0.00     0.060 A 
ATOM     21  C   UNL A   1      37.056  30.020  27.211  1.00  0.00     0.016 A 
ATOM     22  C   UNL A   1      36.317  29.377  29.428  1.00  0.00     0.016 A 
ATOM     23  C   UNL A   1      38.376  29.766  27.562  1.00  0.00     0.010 A 
ATOM     24  C   UNL A   1      37.648  29.114  29.781  1.00  0.00     0.010 A 
ATOM     25  C   UNL A   1      38.680  29.294  28.844  1.00  0.00    -0.014 A 
BRANCH  25  26
ATOM     26  C   UNL A   1      40.083  28.931  29.150  1.00  0.00     0.031 A 
ATOM     27  C   UNL A   1      40.905  29.812  30.044  1.00  0.00     0.074 A 
ATOM     28  C   UNL A   1      40.587  27.771  28.692  1.00  0.00     0.049 A 
ATOM     29  N   UNL A   1      42.132  29.647  30.468  1.00  0.00    -0.248 NA
ATOM     30  C   UNL A   1      40.259  31.041  30.528  1.00  0.00     0.031 C 
ATOM     31  C   UNL A   1      39.871  26.818  27.846  1.00  0.00     0.029 A 
ATOM     32  N   UNL A   1      41.815  27.192  28.890  1.00  0.00    -0.354 N 
ATOM     33  C   UNL A   1      42.411  30.753  31.257  1.00  0.00     0.074 A 
ATOM     34  C   UNL A   1      41.230  31.592  31.243  1.00  0.00     0.031 C 
ATOM     35  C   UNL A   1      40.668  25.763  27.606  1.00  0.00     0.029 A 
ATOM     36  C   UNL A   1      41.955  25.979  28.263  1.00  0.00     0.049 A 
ATOM     37  H   UNL A   1      42.526  27.606  29.430  1.00  0.00     0.167 HD
ATOM     38  C   UNL A   1      43.548  31.042  31.935  1.00  0.00     0.037 A 
ATOM     39  C   UNL A   1      43.007  25.139  28.223  1.00  0.00     0.037 A 
ATOM     40  C   UNL A   1      44.716  30.202  31.962  1.00  0.00     0.049 A 
ATOM     41  C   UNL A   1      44.259  25.487  28.978  1.00  0.00     0.074 A 
ATOM     42  C   UNL A   1      45.917  30.409  32.620  1.00  0.00     0.029 A 
ATOM     43  N   UNL A   1      44.830  28.988  31.299  1.00  0.00    -0.354 N 
ATOM     44  N   UNL A   1      44.512  26.536  29.723  1.00  0.00    -0.248 NA
ATOM     45  C   UNL A   1      45.372  24.530  28.891  1.00  0.00     0.031 C 
ATOM     46  C   UNL A   1      46.767  29.335  32.333  1.00  0.00     0.029 A 
ATOM     47  C   UNL A   1      46.082  28.441  31.525  1.00  0.00     0.049 A 
ATOM     48  H   UNL A   1      44.124  28.577  30.749  1.00  0.00     0.167 HD
ATOM     49  C   UNL A   1      45.803  26.361  30.202  1.00  0.00     0.074 A 
ATOM     50  C   UNL A   1      46.274  25.094  29.683  1.00  0.00     0.031 C 
ATOM     51  C   UNL A   1      46.534  27.179  30.999  1.00  0.00     0.037 A 
BRANCH  38  52
ATOM     52  C   UNL A   1      43.590  32.338  32.684  1.00  0.00     0.064 A 
ATOM     53  C   UNL A   1      43.212  32.422  34.031  1.00  0.00     0.173 A 
ATOM     54  C   UNL A   1      44.037  33.507  32.050  1.00  0.00     0.173 A 
ATOM     55  F   UNL A   1      42.762  31.335  34.676  1.00  0.00    -0.203 F 
ATOM     56  C   UNL A   1      43.262  33.636  34.713  1.00  0.00     0.198 A 
ATOM     57  C   UNL A   1      44.105  34.714  32.740  1.00  0.00     0.198 A 
ATOM     58  F   UNL A   1      44.410  33.477  30.762  1.00  0.00    -0.203 F 
ATOM     59  F   UNL A   1      42.861  33.703  35.990  1.00  0.00    -0.200 F 
ATOM     60  C   UNL A   1      43.713  34.779  34.068  1.00  0.00     0.200 A 
ATOM     61  F   UNL A   1      44.548  35.816  32.119  1.00  0.00    -0.200 F 
ATOM     62  F   UNL A   1      43.763  35.946  34.727  1.00  0.00    -0.200 F 
ENDBRANCH  38  52
BRANCH  39  63
ATOM     63  C   UNL A   1      42.913  23.881  27.442  1.00  0.00     0.064 A 
ATOM     64  C   UNL A   1      42.465  22.694  28.036  1.00  0.00     0.173 A 
ATOM     65  C   UNL A   1      43.268  23.844  26.087  1.00  0.00     0.173 A 
ATOM     66  F   UNL A   1      42.138  22.677  29.337  1.00  0.00    -0.203 F 
ATOM     67  C   UNL A   1      42.386  21.512  27.304  1.00  0.00     0.198 A 
ATOM     68  C   UNL A   1      43.167  22.666  25.350  1.00  0.00     0.198 A 
ATOM     69  F   UNL A   1      43.705  24.955  25.476  1.00  0.00    -0.203 F 
ATOM     70  F   UNL A   1      41.990  20.380  27.903  1.00  0.00    -0.200 F 
ATOM     71  C   UNL A   1      42.731  21.499  25.960  1.00  0.00     0.200 A 
ATOM     72  F   UNL A   1      43.494  22.661  24.050  1.00  0.00    -0.200 F 
ATOM     73  F   UNL A   1      42.652  20.362  25.255  1.00  0.00    -0.200 F 
ENDBRANCH  39  63
BRANCH  51  74
ATOM     74  C   UNL A   1      47.913  26.717  31.365  1.00  0.00     0.064 A 
ATOM     75  C   UNL A   1      49.034  27.097  30.614  1.00  0.00     0.173 A 
ATOM     76  C   UNL A   1      48.115  25.903  32.490  1.00  0.00     0.173 A 
ATOM     77  F   UNL A   1      48.888  27.861  29.521  1.00  0.00    -0.203 F 
ATOM     78  C   UNL A   1      50.309  26.656  30.961  1.00  0.00     0.198 A 
ATOM     79  C   UNL A   1      49.394  25.484  32.846  1.00  0.00     0.198 A 
ATOM     80  F   UNL A   1      47.074  25.518  33.242  1.00  0.00    -0.203 F 
ATOM     81  F   UNL A   1      51.361  26.993  30.203  1.00  0.00    -0.200 F 
ATOM     82  C   UNL A   1      50.488  25.854  32.078  1.00  0.00     0.200 A 
ATOM     83  F   UNL A   1      49.567  24.714  33.930  1.00  0.00    -0.200 F 
ATOM     84  F   UNL A   1      51.715  25.429  32.409  1.00  0.00    -0.200 F 
ENDBRANCH  51  74
ENDBRANCH  25  26
ENDBRANCH  18  20
ENDBRANCH  17  18
ENDBRANCH  16  17
ENDBRANCH   1  16
TORSDOF 16
ENDMDL
MODEL 3
REMARK VINA RESULT:      -9.7      4.891      7.277
REMARK SMILES CCC[C@@H](C[NH2+]C(C)C)C(=O)OCCOC(=O)c1ccc(-c2c3nc(c(-c4c(F)c(F)c(F)c(F)c4F)c4ccc([nH]4)c(-c4c(F)c(F)c(F)c(F)c4F)c4nc(c(-c5c(F)c(F)c(F)c(F)c5F)c5ccc2[nH]5)C=C4)C=C3)cc1
REMARK SMILES IDX 13 1 12 2 10 3 11 4 4 5 3 6 2 7 1 8 5 9 6 10 7 13 8 14 9 15
REMARK SMILES IDX 14 16 15 17 16 18 17 19 18 20 19 21 80 22 20 23 79 24 21 25
REMARK SMILES IDX 22 26 23 27 73 28 24 29 78 30 72 31 74 32 25 33 77 34 71 35
REMARK SMILES IDX 70 36 26 38 58 39 38 40 57 41 39 42 42 43 56 44 75 45 40 46
REMARK SMILES IDX 41 47 55 49 76 50 43 51 27 52 28 53 36 54 29 55 30 56 34 57
REMARK SMILES IDX 37 58 31 59 32 60 35 61 33 62 59 63 60 64 68 65 61 66 62 67
REMARK SMILES IDX 66 68 69 69 63 70 64 71 67 72 65 73 44 74 45 75 53 76 46 77
REMARK SMILES IDX 47 78 51 79 54 80 48 81 49 82 52 83 50 84
REMARK H PARENT 6 11 6 12 74 37 42 48
REMARK Flexibility Score: inf
ROOT
ATOM      1  C   UNL A   1      31.532  29.103  24.610  1.00  0.00     0.274 C 
ENDROOT
BRANCH   1   2
ATOM      2  O   UNL A   1      30.846  27.904  25.019  1.00  0.00    -0.462 OA
BRANCH   2   3
ATOM      3  C   UNL A   1      31.583  26.999  25.713  1.00  0.00     0.314 C 
ATOM      4  O   UNL A   1      31.382  26.678  26.880  1.00  0.00    -0.252 OA
BRANCH   3   5
ATOM      5  C   UNL A   1      32.709  26.388  24.893  1.00  0.00     0.154 C 
BRANCH   5   6
ATOM      6  C   UNL A   1      33.856  25.801  25.737  1.00  0.00     0.021 C 
BRANCH   6   7
ATOM      7  C   UNL A   1      34.745  24.788  25.003  1.00  0.00    -0.002 C 
ATOM      8  C   UNL A   1      35.241  23.652  25.887  1.00  0.00     0.004 C 
ENDBRANCH   6   7
ENDBRANCH   5   6
BRANCH   5   9
ATOM      9  C   UNL A   1      32.121  25.443  23.834  1.00  0.00     0.276 C 
BRANCH   9  10
ATOM     10  N   UNL A   1      30.867  24.814  24.252  1.00  0.00    -0.344 N 
ATOM     11  H   UNL A   1      30.152  25.023  23.555  1.00  0.00     0.346 HD
ATOM     12  H   UNL A   1      30.629  25.191  25.169  1.00  0.00     0.346 HD
BRANCH  10  13
ATOM     13  C   UNL A   1      30.972  23.356  24.391  1.00  0.00     0.176 C 
ATOM     14  C   UNL A   1      32.061  22.763  23.495  1.00  0.00     0.075 C 
ATOM     15  C   UNL A   1      31.282  23.054  25.858  1.00  0.00     0.075 C 
ENDBRANCH  10  13
ENDBRANCH   9  10
ENDBRANCH   5   9
ENDBRANCH   3   5
ENDBRANCH   2   3
ENDBRANCH   1   2
BRANCH   1  16
ATOM     16  C   UNL A   1      31.724  30.065  25.785  1.00  0.00     0.275 C 
BRANCH  16  17
ATOM     17  O   UNL A   1      33.108  30.430  25.940  1.00  0.00    -0.458 OA
BRANCH  17  18
ATOM     18  C   UNL A   1      33.354  31.332  26.918  1.00  0.00     0.338 C 
ATOM     19  O   UNL A   1      32.614  32.211  27.325  1.00  0.00    -0.246 OA
BRANCH  18  20
ATOM     20  C   UNL A   1      34.634  31.018  27.569  1.00  0.00     0.060 A 
ATOM     21  C   UNL A   1      34.839  29.699  27.976  1.00  0.00     0.016 A 
ATOM     22  C   UNL A   1      35.576  32.005  27.864  1.00  0.00     0.016 A 
ATOM     23  C   UNL A   1      35.984  29.353  28.684  1.00  0.00     0.010 A 
ATOM     24  C   UNL A   1      36.728  31.659  28.584  1.00  0.00     0.010 A 
ATOM     25  C   UNL A   1      36.928  30.334  29.009  1.00  0.00    -0.014 A 
BRANCH  25  26
ATOM     26  C   UNL A   1      38.081  29.953  29.856  1.00  0.00     0.031 A 
ATOM     27  C   UNL A   1      39.146  29.049  29.307  1.00  0.00     0.074 A 
ATOM     28  C   UNL A   1      38.212  30.484  31.084  1.00  0.00     0.049 A 
ATOM     29  N   UNL A   1      40.253  28.635  29.869  1.00  0.00    -0.248 NA
ATOM     30  C   UNL A   1      38.938  28.545  27.940  1.00  0.00     0.031 C 
ATOM     31  C   UNL A   1      37.261  31.402  31.710  1.00  0.00     0.029 A 
ATOM     32  N   UNL A   1      39.207  30.340  32.018  1.00  0.00    -0.354 N 
ATOM     33  C   UNL A   1      40.868  27.815  28.934  1.00  0.00     0.074 A 
ATOM     34  C   UNL A   1      40.005  27.776  27.771  1.00  0.00     0.031 C 
ATOM     35  C   UNL A   1      37.725  31.751  32.922  1.00  0.00     0.029 A 
ATOM     36  C   UNL A   1      38.991  31.064  33.164  1.00  0.00     0.049 A 
ATOM     37  H   UNL A   1      39.999  29.773  31.879  1.00  0.00     0.167 HD
ATOM     38  C   UNL A   1      42.047  27.157  29.035  1.00  0.00     0.037 A 
ATOM     39  C   UNL A   1      39.734  31.159  34.283  1.00  0.00     0.037 A 
ATOM     40  C   UNL A   1      42.913  27.207  30.184  1.00  0.00     0.049 A 
ATOM     41  C   UNL A   1      41.035  30.412  34.372  1.00  0.00     0.074 A 
ATOM     42  C   UNL A   1      44.129  26.574  30.380  1.00  0.00     0.029 A 
ATOM     43  N   UNL A   1      42.653  27.936  31.335  1.00  0.00    -0.354 N 
ATOM     44  N   UNL A   1      41.608  29.640  33.482  1.00  0.00    -0.248 NA
ATOM     45  C   UNL A   1      41.796  30.554  35.622  1.00  0.00     0.031 C 
ATOM     46  C   UNL A   1      44.591  26.898  31.661  1.00  0.00     0.029 A 
ATOM     47  C   UNL A   1      43.680  27.761  32.248  1.00  0.00     0.049 A 
ATOM     48  H   UNL A   1      41.856  28.496  31.482  1.00  0.00     0.167 HD
ATOM     49  C   UNL A   1      42.799  29.215  34.055  1.00  0.00     0.074 A 
ATOM     50  C   UNL A   1      42.878  29.833  35.362  1.00  0.00     0.031 C 
ATOM     51  C   UNL A   1      43.741  28.384  33.545  1.00  0.00     0.037 A 
BRANCH  38  52
ATOM     52  C   UNL A   1      42.457  26.302  27.876  1.00  0.00     0.064 A 
ATOM     53  C   UNL A   1      41.976  24.994  27.719  1.00  0.00     0.173 A 
ATOM     54  C   UNL A   1      43.324  26.807  26.896  1.00  0.00     0.173 A 
ATOM     55  F   UNL A   1      41.158  24.461  28.639  1.00  0.00    -0.203 F 
ATOM     56  C   UNL A   1      42.365  24.215  26.631  1.00  0.00     0.198 A 
ATOM     57  C   UNL A   1      43.694  26.034  25.799  1.00  0.00     0.198 A 
ATOM     58  F   UNL A   1      43.810  28.054  27.000  1.00  0.00    -0.203 F 
ATOM     59  F   UNL A   1      41.924  22.955  26.520  1.00  0.00    -0.200 F 
ATOM     60  C   UNL A   1      43.219  24.738  25.670  1.00  0.00     0.200 A 
ATOM     61  F   UNL A   1      44.513  26.541  24.868  1.00  0.00    -0.200 F 
ATOM     62  F   UNL A   1      43.590  23.987  24.623  1.00  0.00    -0.200 F 
ENDBRANCH  38  52
BRANCH  39  63
ATOM     63  C   UNL A   1      39.261  32.003  35.408  1.00  0.00     0.064 A 
ATOM     64  C   UNL A   1      39.599  33.360  35.485  1.00  0.00     0.173 A 
ATOM     65  C   UNL A   1      38.461  31.467  36.427  1.00  0.00     0.173 A 
ATOM     66  F   UNL A   1      40.384  33.909  34.545  1.00  0.00    -0.203 F 
ATOM     67  C   UNL A   1      39.163  34.149  36.547  1.00  0.00     0.198 A 
ATOM     68  C   UNL A   1      38.007  32.263  37.476  1.00  0.00     0.198 A 
ATOM     69  F   UNL A   1      38.114  30.172  36.399  1.00  0.00    -0.203 F 
ATOM     70  F   UNL A   1      39.531  35.436  36.618  1.00  0.00    -0.200 F 
ATOM     71  C   UNL A   1      38.362  33.602  37.539  1.00  0.00     0.200 A 
ATOM     72  F   UNL A   1      37.227  31.731  38.428  1.00  0.00    -0.200 F 
ATOM     73  F   UNL A   1      37.940  34.362  38.558  1.00  0.00    -0.200 F 
ENDBRANCH  39  63
BRANCH  51  74
ATOM     74  C   UNL A   1      44.942  28.110  34.401  1.00  0.00     0.064 A 
ATOM     75  C   UNL A   1      46.074  28.935  34.357  1.00  0.00     0.173 A 
ATOM     76  C   UNL A   1      44.950  27.023  35.288  1.00  0.00     0.173 A 
ATOM     77  F   UNL A   1      46.118  29.977  33.513  1.00  0.00    -0.203 F 
ATOM     78  C   UNL A   1      47.185  28.666  35.152  1.00  0.00     0.198 A 
ATOM     79  C   UNL A   1      46.054  26.771  36.097  1.00  0.00     0.198 A 
ATOM     80  F   UNL A   1      43.888  26.208  35.369  1.00  0.00    -0.203 F 
ATOM     81  F   UNL A   1      48.275  29.441  35.061  1.00  0.00    -0.200 F 
ATOM     82  C   UNL A   1      47.173  27.588  36.023  1.00  0.00     0.200 A 
ATOM     83  F   UNL A   1      46.039  25.732  36.945  1.00  0.00    -0.200 F 
ATOM     84  F   UNL A   1      48.244  27.329  36.786  1.00  0.00    -0.200 F 
ENDBRANCH  51  74
ENDBRANCH  25  26
ENDBRANCH  18  20
ENDBRANCH  17  18
ENDBRANCH  16  17
ENDBRANCH   1  16
TORSDOF 16
ENDMDL
