MODEL 1
REMARK VINA RESULT:     -11.4      0.000      0.000
REMARK SMILES COc1cnc(F)c(C(=O)OCCOC(=O)c2ccc(-c3c4nc(c(-c5c(F)c(F)c(F)c(F)c5F)c5ccc([nH]5)c(-c5c(F)c(F)c(F)c(F)c5F)c5nc(c(-c6c(F)c(F)c(F)c(F)c6F)c6ccc3[nH]6)C=C5)C=C4)cc2)c1
REMARK SMILES IDX 13 1 12 2 11 3 9 4 10 5 8 6 3 7 4 8 80 9 5 10 6 11 7 12 2 13
REMARK SMILES IDX 1 14 14 15 15 16 16 17 17 18 18 19 79 20 19 21 78 22 20 23
REMARK SMILES IDX 21 24 22 25 72 26 23 27 77 28 71 29 73 30 24 31 76 32 70 33
REMARK SMILES IDX 69 34 25 36 57 37 37 38 56 39 38 40 41 41 55 42 74 43 39 44
REMARK SMILES IDX 40 45 54 47 75 48 42 49 26 50 27 51 35 52 28 53 29 54 33 55
REMARK SMILES IDX 36 56 30 57 31 58 34 59 32 60 58 61 59 62 67 63 60 64 61 65
REMARK SMILES IDX 65 66 68 67 62 68 63 69 66 70 64 71 43 72 44 73 52 74 45 75
REMARK SMILES IDX 46 76 50 77 53 78 47 79 48 80 51 81 49 82
REMARK H PARENT 73 35 41 46
REMARK Flexibility Score: inf
ROOT
ATOM      1  C   UNL A   1      31.738  30.270  25.625  1.00  0.00     0.275 C 
ENDROOT
BRANCH   1   2
ATOM      2  C   UNL A   1      32.451  29.325  24.660  1.00  0.00     0.275 C 
BRANCH   2   3
ATOM      3  O   UNL A   1      31.668  28.133  24.439  1.00  0.00    -0.458 OA
BRANCH   3   4
ATOM      4  C   UNL A   1      31.280  27.885  23.168  1.00  0.00     0.343 C 
ATOM      5  O   UNL A   1      31.825  27.135  22.372  1.00  0.00    -0.246 OA
BRANCH   4   6
ATOM      6  C   UNL A   1      29.993  28.529  22.874  1.00  0.00     0.118 A 
ATOM      7  C   UNL A   1      28.753  30.341  21.881  1.00  0.00     0.138 A 
ATOM      8  C   UNL A   1      27.600  29.738  22.363  1.00  0.00     0.160 A 
ATOM      9  C   UNL A   1      29.973  29.749  22.185  1.00  0.00     0.068 A 
ATOM     10  N   UNL A   1      27.588  28.577  23.061  1.00  0.00    -0.224 NA
ATOM     11  C   UNL A   1      28.789  27.992  23.294  1.00  0.00     0.227 A 
ATOM     12  F   UNL A   1      28.771  26.865  24.023  1.00  0.00    -0.184 F 
BRANCH   7  13
ATOM     13  O   UNL A   1      28.641  31.520  21.204  1.00  0.00    -0.495 OA
ATOM     14  C   UNL A   1      28.552  32.650  22.074  1.00  0.00     0.278 C 
ENDBRANCH   7  13
ENDBRANCH   4   6
ENDBRANCH   3   4
ENDBRANCH   2   3
ENDBRANCH   1   2
BRANCH   1  15
ATOM     15  O   UNL A   1      32.422  30.280  26.892  1.00  0.00    -0.458 OA
BRANCH  15  16
ATOM     16  C   UNL A   1      33.056  31.431  27.206  1.00  0.00     0.338 C 
ATOM     17  O   UNL A   1      32.621  32.567  27.161  1.00  0.00    -0.246 OA
BRANCH  16  18
ATOM     18  C   UNL A   1      34.397  31.121  27.719  1.00  0.00     0.060 A 
ATOM     19  C   UNL A   1      34.706  29.792  27.998  1.00  0.00     0.016 A 
ATOM     20  C   UNL A   1      35.283  32.137  28.070  1.00  0.00     0.016 A 
ATOM     21  C   UNL A   1      35.855  29.478  28.715  1.00  0.00     0.010 A 
ATOM     22  C   UNL A   1      36.485  31.809  28.711  1.00  0.00     0.010 A 
ATOM     23  C   UNL A   1      36.766  30.480  29.082  1.00  0.00    -0.014 A 
BRANCH  23  24
ATOM     24  C   UNL A   1      37.969  30.138  29.897  1.00  0.00     0.031 A 
ATOM     25  C   UNL A   1      39.067  29.287  29.310  1.00  0.00     0.074 A 
ATOM     26  C   UNL A   1      38.108  30.617  31.149  1.00  0.00     0.049 A 
ATOM     27  N   UNL A   1      40.111  28.757  29.898  1.00  0.00    -0.248 NA
ATOM     28  C   UNL A   1      38.975  28.983  27.874  1.00  0.00     0.031 C 
ATOM     29  C   UNL A   1      37.155  31.491  31.833  1.00  0.00     0.029 A 
ATOM     30  N   UNL A   1      39.117  30.447  32.068  1.00  0.00    -0.354 N 
ATOM     31  C   UNL A   1      40.758  28.007  28.924  1.00  0.00     0.074 A 
ATOM     32  C   UNL A   1      39.995  28.153  27.704  1.00  0.00     0.031 C 
ATOM     33  C   UNL A   1      37.645  31.821  33.038  1.00  0.00     0.029 A 
ATOM     34  C   UNL A   1      38.899  31.110  33.252  1.00  0.00     0.049 A 
ATOM     35  H   UNL A   1      39.918  29.904  31.893  1.00  0.00     0.167 HD
ATOM     36  C   UNL A   1      41.883  27.261  29.039  1.00  0.00     0.037 A 
ATOM     37  C   UNL A   1      39.605  31.113  34.399  1.00  0.00     0.037 A 
ATOM     38  C   UNL A   1      42.682  27.169  30.234  1.00  0.00     0.049 A 
ATOM     39  C   UNL A   1      40.844  30.270  34.505  1.00  0.00     0.074 A 
ATOM     40  C   UNL A   1      43.850  26.453  30.440  1.00  0.00     0.029 A 
ATOM     41  N   UNL A   1      42.407  27.832  31.420  1.00  0.00    -0.354 N 
ATOM     42  N   UNL A   1      41.408  29.512  33.598  1.00  0.00    -0.248 NA
ATOM     43  C   UNL A   1      41.533  30.265  35.804  1.00  0.00     0.031 C 
ATOM     44  C   UNL A   1      44.264  26.657  31.761  1.00  0.00     0.029 A 
ATOM     45  C   UNL A   1      43.378  27.534  32.364  1.00  0.00     0.049 A 
ATOM     46  H   UNL A   1      41.637  28.426  31.570  1.00  0.00     0.167 HD
ATOM     47  C   UNL A   1      42.517  28.945  34.211  1.00  0.00     0.074 A 
ATOM     48  C   UNL A   1      42.562  29.467  35.561  1.00  0.00     0.031 C 
ATOM     49  C   UNL A   1      43.411  28.063  33.703  1.00  0.00     0.037 A 
BRANCH  36  50
ATOM     50  C   UNL A   1      42.308  26.449  27.849  1.00  0.00     0.064 A 
ATOM     51  C   UNL A   1      43.289  26.898  26.952  1.00  0.00     0.173 A 
ATOM     52  C   UNL A   1      41.750  25.180  27.630  1.00  0.00     0.173 A 
ATOM     53  F   UNL A   1      43.842  28.109  27.108  1.00  0.00    -0.203 F 
ATOM     54  C   UNL A   1      43.679  26.114  25.869  1.00  0.00     0.198 A 
ATOM     55  C   UNL A   1      42.162  24.387  26.562  1.00  0.00     0.198 A 
ATOM     56  F   UNL A   1      40.812  24.701  28.462  1.00  0.00    -0.203 F 
ATOM     57  F   UNL A   1      44.588  26.579  25.001  1.00  0.00    -0.200 F 
ATOM     58  C   UNL A   1      43.122  24.857  25.679  1.00  0.00     0.200 A 
ATOM     59  F   UNL A   1      41.631  23.169  26.388  1.00  0.00    -0.200 F 
ATOM     60  F   UNL A   1      43.505  24.102  24.641  1.00  0.00    -0.200 F 
ENDBRANCH  36  50
BRANCH  37  61
ATOM     61  C   UNL A   1      39.129  31.916  35.557  1.00  0.00     0.064 A 
ATOM     62  C   UNL A   1      38.298  31.352  36.535  1.00  0.00     0.173 A 
ATOM     63  C   UNL A   1      39.501  33.259  35.712  1.00  0.00     0.173 A 
ATOM     64  F   UNL A   1      37.892  30.079  36.414  1.00  0.00    -0.203 F 
ATOM     65  C   UNL A   1      37.854  32.104  37.620  1.00  0.00     0.198 A 
ATOM     66  C   UNL A   1      39.082  34.000  36.815  1.00  0.00     0.198 A 
ATOM     67  F   UNL A   1      40.292  33.847  34.803  1.00  0.00    -0.203 F 
ATOM     68  F   UNL A   1      37.028  31.552  38.521  1.00  0.00    -0.200 F 
ATOM     69  C   UNL A   1      38.253  33.423  37.765  1.00  0.00     0.200 A 
ATOM     70  F   UNL A   1      39.483  35.271  36.957  1.00  0.00    -0.200 F 
ATOM     71  F   UNL A   1      37.835  34.142  38.816  1.00  0.00    -0.200 F 
ENDBRANCH  37  61
BRANCH  49  72
ATOM     72  C   UNL A   1      44.528  27.626  34.603  1.00  0.00     0.064 A 
ATOM     73  C   UNL A   1      45.729  28.347  34.684  1.00  0.00     0.173 A 
ATOM     74  C   UNL A   1      44.386  26.489  35.413  1.00  0.00     0.173 A 
ATOM     75  F   UNL A   1      45.917  29.431  33.916  1.00  0.00    -0.203 F 
ATOM     76  C   UNL A   1      46.756  27.933  35.527  1.00  0.00     0.198 A 
ATOM     77  C   UNL A   1      45.406  26.092  36.272  1.00  0.00     0.198 A 
ATOM     78  F   UNL A   1      43.256  25.769  35.374  1.00  0.00    -0.203 F 
ATOM     79  F   UNL A   1      47.911  28.612  35.556  1.00  0.00    -0.200 F 
ATOM     80  C   UNL A   1      46.592  26.810  36.324  1.00  0.00     0.200 A 
ATOM     81  F   UNL A   1      45.243  25.012  37.049  1.00  0.00    -0.200 F 
ATOM     82  F   UNL A   1      47.581  26.413  37.137  1.00  0.00    -0.200 F 
ENDBRANCH  49  72
ENDBRANCH  23  24
ENDBRANCH  16  18
ENDBRANCH  15  16
ENDBRANCH   1  15
TORSDOF 12
ENDMDL
MODEL 2
REMARK VINA RESULT:     -11.3      4.987     10.455
REMARK SMILES COc1cnc(F)c(C(=O)OCCOC(=O)c2ccc(-c3c4nc(c(-c5c(F)c(F)c(F)c(F)c5F)c5ccc([nH]5)c(-c5c(F)c(F)c(F)c(F)c5F)c5nc(c(-c6c(F)c(F)c(F)c(F)c6F)c6ccc3[nH]6)C=C5)C=C4)cc2)c1
REMARK SMILES IDX 13 1 12 2 11 3 9 4 10 5 8 6 3 7 4 8 80 9 5 10 6 11 7 12 2 13
REMARK SMILES IDX 1 14 14 15 15 16 16 17 17 18 18 19 79 20 19 21 78 22 20 23
REMARK SMILES IDX 21 24 22 25 72 26 23 27 77 28 71 29 73 30 24 31 76 32 70 33
REMARK SMILES IDX 69 34 25 36 57 37 37 38 56 39 38 40 41 41 55 42 74 43 39 44
REMARK SMILES IDX 40 45 54 47 75 48 42 49 26 50 27 51 35 52 28 53 29 54 33 55
REMARK SMILES IDX 36 56 30 57 31 58 34 59 32 60 58 61 59 62 67 63 60 64 61 65
REMARK SMILES IDX 65 66 68 67 62 68 63 69 66 70 64 71 43 72 44 73 52 74 45 75
REMARK SMILES IDX 46 76 50 77 53 78 47 79 48 80 51 81 49 82
REMARK H PARENT 73 35 41 46
REMARK Flexibility Score: inf
ROOT
ATOM      1  C   UNL A   1      45.657  23.470  25.819  1.00  0.00     0.275 C 
ENDROOT
BRANCH   1   2
ATOM      2  C   UNL A   1      46.408  22.523  24.886  1.00  0.00     0.275 C 
BRANCH   2   3
ATOM      3  O   UNL A   1      46.038  21.152  25.141  1.00  0.00    -0.458 OA
BRANCH   3   4
ATOM      4  C   UNL A   1      44.960  20.678  24.476  1.00  0.00     0.343 C 
ATOM      5  O   UNL A   1      44.730  20.797  23.282  1.00  0.00    -0.246 OA
BRANCH   4   6
ATOM      6  C   UNL A   1      44.128  19.841  25.349  1.00  0.00     0.118 A 
ATOM      7  C   UNL A   1      42.150  19.568  26.698  1.00  0.00     0.138 A 
ATOM      8  C   UNL A   1      42.603  18.291  26.999  1.00  0.00     0.160 A 
ATOM      9  C   UNL A   1      42.952  20.371  25.897  1.00  0.00     0.068 A 
ATOM     10  N   UNL A   1      43.750  17.761  26.512  1.00  0.00    -0.224 NA
ATOM     11  C   UNL A   1      44.485  18.547  25.688  1.00  0.00     0.227 A 
ATOM     12  F   UNL A   1      45.641  18.030  25.245  1.00  0.00    -0.184 F 
BRANCH   7  13
ATOM     13  O   UNL A   1      40.985  19.999  27.263  1.00  0.00    -0.495 OA
ATOM     14  C   UNL A   1      40.273  20.914  26.427  1.00  0.00     0.278 C 
ENDBRANCH   7  13
ENDBRANCH   4   6
ENDBRANCH   3   4
ENDBRANCH   2   3
ENDBRANCH   1   2
BRANCH   1  15
ATOM     15  O   UNL A   1      44.893  24.414  25.044  1.00  0.00    -0.458 OA
BRANCH  15  16
ATOM     16  C   UNL A   1      43.563  24.188  24.990  1.00  0.00     0.338 C 
ATOM     17  O   UNL A   1      42.966  23.365  24.321  1.00  0.00    -0.246 OA
BRANCH  16  18
ATOM     18  C   UNL A   1      42.884  25.057  25.960  1.00  0.00     0.060 A 
ATOM     19  C   UNL A   1      43.156  26.421  25.927  1.00  0.00     0.016 A 
ATOM     20  C   UNL A   1      42.112  24.518  26.987  1.00  0.00     0.016 A 
ATOM     21  C   UNL A   1      42.742  27.241  26.971  1.00  0.00     0.010 A 
ATOM     22  C   UNL A   1      41.617  25.363  27.990  1.00  0.00     0.010 A 
ATOM     23  C   UNL A   1      41.963  26.728  28.019  1.00  0.00    -0.014 A 
BRANCH  23  24
ATOM     24  C   UNL A   1      41.570  27.606  29.160  1.00  0.00     0.031 A 
ATOM     25  C   UNL A   1      42.393  27.623  30.424  1.00  0.00     0.074 A 
ATOM     26  C   UNL A   1      40.501  28.422  29.062  1.00  0.00     0.049 A 
ATOM     27  N   UNL A   1      42.136  28.196  31.574  1.00  0.00    -0.248 NA
ATOM     28  C   UNL A   1      43.668  26.892  30.394  1.00  0.00     0.031 C 
ATOM     29  C   UNL A   1      39.639  28.552  27.887  1.00  0.00     0.029 A 
ATOM     30  N   UNL A   1      39.965  29.311  29.963  1.00  0.00    -0.354 N 
ATOM     31  C   UNL A   1      43.179  27.839  32.420  1.00  0.00     0.074 A 
ATOM     32  C   UNL A   1      44.078  27.005  31.650  1.00  0.00     0.031 C 
ATOM     33  C   UNL A   1      38.718  29.499  28.118  1.00  0.00     0.029 A 
ATOM     34  C   UNL A   1      38.861  29.977  29.488  1.00  0.00     0.049 A 
ATOM     35  H   UNL A   1      40.338  29.457  30.862  1.00  0.00     0.167 HD
ATOM     36  C   UNL A   1      43.367  28.172  33.719  1.00  0.00     0.037 A 
ATOM     37  C   UNL A   1      38.028  30.843  30.097  1.00  0.00     0.037 A 
ATOM     38  C   UNL A   1      42.511  29.057  34.466  1.00  0.00     0.049 A 
ATOM     39  C   UNL A   1      38.252  31.190  31.542  1.00  0.00     0.074 A 
ATOM     40  C   UNL A   1      42.632  29.469  35.783  1.00  0.00     0.029 A 
ATOM     41  N   UNL A   1      41.386  29.684  33.954  1.00  0.00    -0.354 N 
ATOM     42  N   UNL A   1      39.204  30.793  32.349  1.00  0.00    -0.248 NA
ATOM     43  C   UNL A   1      37.271  32.089  32.167  1.00  0.00     0.031 C 
ATOM     44  C   UNL A   1      41.561  30.321  36.077  1.00  0.00     0.029 A 
ATOM     45  C   UNL A   1      40.798  30.472  34.932  1.00  0.00     0.049 A 
ATOM     46  H   UNL A   1      41.052  29.584  33.034  1.00  0.00     0.167 HD
ATOM     47  C   UNL A   1      38.942  31.394  33.572  1.00  0.00     0.074 A 
ATOM     48  C   UNL A   1      37.756  32.205  33.395  1.00  0.00     0.031 C 
ATOM     49  C   UNL A   1      39.618  31.276  34.739  1.00  0.00     0.037 A 
BRANCH  36  50
ATOM     50  C   UNL A   1      44.531  27.551  34.438  1.00  0.00     0.064 A 
ATOM     51  C   UNL A   1      45.769  28.200  34.551  1.00  0.00     0.173 A 
ATOM     52  C   UNL A   1      44.384  26.302  35.061  1.00  0.00     0.173 A 
ATOM     53  F   UNL A   1      45.965  29.388  33.961  1.00  0.00    -0.203 F 
ATOM     54  C   UNL A   1      46.824  27.610  35.243  1.00  0.00     0.198 A 
ATOM     55  C   UNL A   1      45.432  25.728  35.776  1.00  0.00     0.198 A 
ATOM     56  F   UNL A   1      43.218  25.642  34.988  1.00  0.00    -0.203 F 
ATOM     57  F   UNL A   1      48.012  28.227  35.304  1.00  0.00    -0.200 F 
ATOM     58  C   UNL A   1      46.653  26.379  35.861  1.00  0.00     0.200 A 
ATOM     59  F   UNL A   1      45.260  24.545  36.382  1.00  0.00    -0.200 F 
ATOM     60  F   UNL A   1      47.667  25.817  36.533  1.00  0.00    -0.200 F 
ENDBRANCH  36  50
BRANCH  37  61
ATOM     61  C   UNL A   1      36.877  31.412  29.347  1.00  0.00     0.064 A 
ATOM     62  C   UNL A   1      35.769  30.621  29.014  1.00  0.00     0.173 A 
ATOM     63  C   UNL A   1      36.858  32.759  28.955  1.00  0.00     0.173 A 
ATOM     64  F   UNL A   1      35.754  29.321  29.342  1.00  0.00    -0.203 F 
ATOM     65  C   UNL A   1      34.690  31.154  28.313  1.00  0.00     0.198 A 
ATOM     66  C   UNL A   1      35.765  33.299  28.282  1.00  0.00     0.198 A 
ATOM     67  F   UNL A   1      37.895  33.558  29.247  1.00  0.00    -0.203 F 
ATOM     68  F   UNL A   1      33.660  30.367  27.973  1.00  0.00    -0.200 F 
ATOM     69  C   UNL A   1      34.684  32.494  27.956  1.00  0.00     0.200 A 
ATOM     70  F   UNL A   1      35.758  34.598  27.953  1.00  0.00    -0.200 F 
ATOM     71  F   UNL A   1      33.639  33.009  27.292  1.00  0.00    -0.200 F 
ENDBRANCH  37  61
BRANCH  49  72
ATOM     72  C   UNL A   1      39.106  32.061  35.910  1.00  0.00     0.064 A 
ATOM     73  C   UNL A   1      38.229  31.493  36.846  1.00  0.00     0.173 A 
ATOM     74  C   UNL A   1      39.518  33.387  36.113  1.00  0.00     0.173 A 
ATOM     75  F   UNL A   1      37.793  30.235  36.684  1.00  0.00    -0.203 F 
ATOM     76  C   UNL A   1      37.764  32.232  37.930  1.00  0.00     0.198 A 
ATOM     77  C   UNL A   1      39.071  34.114  37.211  1.00  0.00     0.198 A 
ATOM     78  F   UNL A   1      40.359  33.973  35.248  1.00  0.00    -0.203 F 
ATOM     79  F   UNL A   1      36.893  31.684  38.788  1.00  0.00    -0.200 F 
ATOM     80  C   UNL A   1      38.190  33.539  38.115  1.00  0.00     0.200 A 
ATOM     81  F   UNL A   1      39.489  35.374  37.395  1.00  0.00    -0.200 F 
ATOM     82  F   UNL A   1      37.743  34.249  39.162  1.00  0.00    -0.200 F 
ENDBRANCH  49  72
ENDBRANCH  23  24
ENDBRANCH  16  18
ENDBRANCH  15  16
ENDBRANCH   1  15
TORSDOF 12
ENDMDL
MODEL 3
REMARK VINA RESULT:     -11.1      5.816     10.669
REMARK SMILES COc1cnc(F)c(C(=O)OCCOC(=O)c2ccc(-c3c4nc(c(-c5c(F)c(F)c(F)c(F)c5F)c5ccc([nH]5)c(-c5c(F)c(F)c(F)c(F)c5F)c5nc(c(-c6c(F)c(F)c(F)c(F)c6F)c6ccc3[nH]6)C=C5)C=C4)cc2)c1
REMARK SMILES IDX 13 1 12 2 11 3 9 4 10 5 8 6 3 7 4 8 80 9 5 10 6 11 7 12 2 13
REMARK SMILES IDX 1 14 14 15 15 16 16 17 17 18 18 19 79 20 19 21 78 22 20 23
REMARK SMILES IDX 21 24 22 25 72 26 23 27 77 28 71 29 73 30 24 31 76 32 70 33
REMARK SMILES IDX 69 34 25 36 57 37 37 38 56 39 38 40 41 41 55 42 74 43 39 44
REMARK SMILES IDX 40 45 54 47 75 48 42 49 26 50 27 51 35 52 28 53 29 54 33 55
REMARK SMILES IDX 36 56 30 57 31 58 34 59 32 60 58 61 59 62 67 63 60 64 61 65
REMARK SMILES IDX 65 66 68 67 62 68 63 69 66 70 64 71 43 72 44 73 52 74 45 75
REMARK SMILES IDX 46 76 50 77 53 78 47 79 48 80 51 81 49 82
REMARK H PARENT 73 35 41 46
REMARK Flexibility Score: inf
ROOT
ATOM      1  C   UNL A   1      36.209  20.895  25.212  1.00  0.00     0.275 C 
ENDROOT
BRANCH   1   2
ATOM      2  C   UNL A   1      35.037  21.772  25.648  1.00  0.00     0.275 C 
BRANCH   2   3
ATOM      3  O   UNL A   1      33.970  21.720  24.678  1.00  0.00    -0.458 OA
BRANCH   3   4
ATOM      4  C   UNL A   1      32.805  21.165  25.083  1.00  0.00     0.343 C 
ATOM      5  O   UNL A   1      31.879  21.736  25.638  1.00  0.00    -0.246 OA
BRANCH   4   6
ATOM      6  C   UNL A   1      32.702  19.770  24.635  1.00  0.00     0.118 A 
ATOM      7  C   UNL A   1      32.789  17.414  25.134  1.00  0.00     0.138 A 
ATOM      8  C   UNL A   1      32.543  17.180  23.788  1.00  0.00     0.160 A 
ATOM      9  C   UNL A   1      32.917  18.733  25.552  1.00  0.00     0.068 A 
ATOM     10  N   UNL A   1      32.363  18.160  22.870  1.00  0.00    -0.224 NA
ATOM     11  C   UNL A   1      32.438  19.438  23.318  1.00  0.00     0.227 A 
ATOM     12  F   UNL A   1      32.301  20.401  22.394  1.00  0.00    -0.184 F 
BRANCH   7  13
ATOM     13  O   UNL A   1      32.970  16.345  25.962  1.00  0.00    -0.495 OA
ATOM     14  C   UNL A   1      32.528  15.116  25.382  1.00  0.00     0.278 C 
ENDBRANCH   7  13
ENDBRANCH   4   6
ENDBRANCH   3   4
ENDBRANCH   2   3
ENDBRANCH   1   2
BRANCH   1  15
ATOM     15  O   UNL A   1      37.388  21.704  25.043  1.00  0.00    -0.458 OA
BRANCH  15  16
ATOM     16  C   UNL A   1      38.476  21.306  25.736  1.00  0.00     0.338 C 
ATOM     17  O   UNL A   1      38.960  20.190  25.802  1.00  0.00    -0.246 OA
BRANCH  16  18
ATOM     18  C   UNL A   1      39.095  22.472  26.380  1.00  0.00     0.060 A 
ATOM     19  C   UNL A   1      38.564  23.731  26.114  1.00  0.00     0.016 A 
ATOM     20  C   UNL A   1      40.276  22.346  27.108  1.00  0.00     0.016 A 
ATOM     21  C   UNL A   1      39.259  24.875  26.489  1.00  0.00     0.010 A 
ATOM     22  C   UNL A   1      40.927  23.499  27.565  1.00  0.00     0.010 A 
ATOM     23  C   UNL A   1      40.451  24.780  27.224  1.00  0.00    -0.014 A 
BRANCH  23  24
ATOM     24  C   UNL A   1      41.215  26.013  27.575  1.00  0.00     0.031 A 
ATOM     25  C   UNL A   1      40.585  27.079  28.436  1.00  0.00     0.074 A 
ATOM     26  C   UNL A   1      42.489  26.171  27.163  1.00  0.00     0.049 A 
ATOM     27  N   UNL A   1      41.022  28.279  28.725  1.00  0.00    -0.248 NA
ATOM     28  C   UNL A   1      39.286  26.756  29.045  1.00  0.00     0.031 C 
ATOM     29  C   UNL A   1      43.249  25.206  26.368  1.00  0.00     0.029 A 
ATOM     30  N   UNL A   1      43.378  27.199  27.371  1.00  0.00    -0.354 N 
ATOM     31  C   UNL A   1      40.026  28.875  29.488  1.00  0.00     0.074 A 
ATOM     32  C   UNL A   1      38.962  27.903  29.625  1.00  0.00     0.031 C 
ATOM     33  C   UNL A   1      44.499  25.662  26.198  1.00  0.00     0.029 A 
ATOM     34  C   UNL A   1      44.606  26.991  26.788  1.00  0.00     0.049 A 
ATOM     35  H   UNL A   1      43.157  28.007  27.887  1.00  0.00     0.167 HD
ATOM     36  C   UNL A   1      40.000  30.120  30.023  1.00  0.00     0.037 A 
ATOM     37  C   UNL A   1      45.684  27.793  26.700  1.00  0.00     0.037 A 
ATOM     38  C   UNL A   1      41.085  31.063  29.946  1.00  0.00     0.049 A 
ATOM     39  C   UNL A   1      45.626  29.173  27.292  1.00  0.00     0.074 A 
ATOM     40  C   UNL A   1      41.158  32.342  30.473  1.00  0.00     0.029 A 
ATOM     41  N   UNL A   1      42.298  30.822  29.319  1.00  0.00    -0.354 N 
ATOM     42  N   UNL A   1      44.653  29.749  27.953  1.00  0.00    -0.248 NA
ATOM     43  C   UNL A   1      46.811  30.024  27.104  1.00  0.00     0.031 C 
ATOM     44  C   UNL A   1      42.403  32.886  30.138  1.00  0.00     0.029 A 
ATOM     45  C   UNL A   1      43.121  31.931  29.438  1.00  0.00     0.049 A 
ATOM     46  H   UNL A   1      42.539  29.987  28.857  1.00  0.00     0.167 HD
ATOM     47  C   UNL A   1      45.107  31.023  28.265  1.00  0.00     0.074 A 
ATOM     48  C   UNL A   1      46.453  31.129  27.743  1.00  0.00     0.031 C 
ATOM     49  C   UNL A   1      44.460  32.020  28.916  1.00  0.00     0.037 A 
BRANCH  36  50
ATOM     50  C   UNL A   1      38.740  30.557  30.714  1.00  0.00     0.064 A 
ATOM     51  C   UNL A   1      38.603  30.518  32.109  1.00  0.00     0.173 A 
ATOM     52  C   UNL A   1      37.668  31.064  29.963  1.00  0.00     0.173 A 
ATOM     53  F   UNL A   1      39.593  30.029  32.871  1.00  0.00    -0.203 F 
ATOM     54  C   UNL A   1      37.432  30.951  32.725  1.00  0.00     0.198 A 
ATOM     55  C   UNL A   1      36.508  31.521  30.583  1.00  0.00     0.198 A 
ATOM     56  F   UNL A   1      37.749  31.128  28.625  1.00  0.00    -0.203 F 
ATOM     57  F   UNL A   1      37.306  30.866  34.056  1.00  0.00    -0.200 F 
ATOM     58  C   UNL A   1      36.388  31.459  31.964  1.00  0.00     0.200 A 
ATOM     59  F   UNL A   1      35.507  32.023  29.847  1.00  0.00    -0.200 F 
ATOM     60  F   UNL A   1      35.265  31.881  32.559  1.00  0.00    -0.200 F 
ENDBRANCH  36  50
BRANCH  37  61
ATOM     61  C   UNL A   1      46.898  27.322  25.984  1.00  0.00     0.064 A 
ATOM     62  C   UNL A   1      47.901  26.608  26.655  1.00  0.00     0.173 A 
ATOM     63  C   UNL A   1      47.078  27.568  24.615  1.00  0.00     0.173 A 
ATOM     64  F   UNL A   1      47.788  26.373  27.970  1.00  0.00    -0.203 F 
ATOM     65  C   UNL A   1      49.038  26.164  25.983  1.00  0.00     0.198 A 
ATOM     66  C   UNL A   1      48.200  27.096  23.938  1.00  0.00     0.198 A 
ATOM     67  F   UNL A   1      46.149  28.248  23.927  1.00  0.00    -0.203 F 
ATOM     68  F   UNL A   1      50.001  25.517  26.656  1.00  0.00    -0.200 F 
ATOM     69  C   UNL A   1      49.183  26.399  24.625  1.00  0.00     0.200 A 
ATOM     70  F   UNL A   1      48.327  27.313  22.622  1.00  0.00    -0.200 F 
ATOM     71  F   UNL A   1      50.272  25.961  23.977  1.00  0.00    -0.200 F 
ENDBRANCH  37  61
BRANCH  49  72
ATOM     72  C   UNL A   1      45.211  33.302  29.123  1.00  0.00     0.064 A 
ATOM     73  C   UNL A   1      46.030  33.498  30.244  1.00  0.00     0.173 A 
ATOM     74  C   UNL A   1      45.130  34.334  28.176  1.00  0.00     0.173 A 
ATOM     75  F   UNL A   1      46.125  32.547  31.185  1.00  0.00    -0.203 F 
ATOM     76  C   UNL A   1      46.725  34.692  30.421  1.00  0.00     0.198 A 
ATOM     77  C   UNL A   1      45.844  35.516  28.344  1.00  0.00     0.198 A 
ATOM     78  F   UNL A   1      44.362  34.192  27.085  1.00  0.00    -0.203 F 
ATOM     79  F   UNL A   1      47.467  34.876  31.521  1.00  0.00    -0.200 F 
ATOM     80  C   UNL A   1      46.636  35.697  29.469  1.00  0.00     0.200 A 
ATOM     81  F   UNL A   1      45.766  36.483  27.419  1.00  0.00    -0.200 F 
ATOM     82  F   UNL A   1      47.307  36.845  29.640  1.00  0.00    -0.200 F 
ENDBRANCH  49  72
ENDBRANCH  23  24
ENDBRANCH  16  18
ENDBRANCH  15  16
ENDBRANCH   1  15
TORSDOF 12
ENDMDL
