MODEL 1
REMARK VINA RESULT:     -13.1      0.000      0.000
REMARK SMILES C/C(=N\Nc1ccccc1C(=O)OCCOC(=O)c1ccc(-c2c3nc(c(-c4c(F)c(F)c(F)c(F)c4F)c4ccc([nH]4)c(-c4c(F)c(F)c(F)c(F)c4F)c4nc(c(-c5c(F)c(F)c(F)c(F)c5F)c5ccc2[nH]5)C=C4)C=C3)cc1)c1ccc(S(C)(=O)=O)cc1
REMARK SMILES IDX 14 1 13 2 11 3 12 4 10 5 5 6 6 7 7 8 9 9 8 10 4 11 3 13 1 14
REMARK SMILES IDX 2 15 82 16 83 17 91 18 84 19 90 20 85 21 86 22 87 23 88 24
REMARK SMILES IDX 89 25 15 26 16 27 17 28 18 29 19 30 20 31 81 32 21 33 80 34
REMARK SMILES IDX 22 35 23 36 24 37 74 38 25 39 79 40 73 41 75 42 26 43 78 44
REMARK SMILES IDX 72 45 71 46 27 48 59 49 39 50 58 51 40 52 43 53 57 54 76 55
REMARK SMILES IDX 41 56 42 57 56 59 77 60 44 61 28 62 29 63 37 64 30 65 31 66
REMARK SMILES IDX 35 67 38 68 32 69 33 70 36 71 34 72 60 73 61 74 69 75 62 76
REMARK SMILES IDX 63 77 67 78 70 79 64 80 65 81 68 82 66 83 45 84 46 85 54 86
REMARK SMILES IDX 47 87 48 88 52 89 55 90 49 91 50 92 53 93 51 94
REMARK H PARENT 4 12 75 47 43 58
REMARK Flexibility Score: inf
ROOT
ATOM      1  C   UNL A   1      33.128  29.199  24.852  1.00  0.00     0.275 C 
ENDROOT
BRANCH   1   2
ATOM      2  O   UNL A   1      32.888  29.315  23.435  1.00  0.00    -0.458 OA
BRANCH   2   3
ATOM      3  C   UNL A   1      32.697  28.139  22.792  1.00  0.00     0.340 C 
ATOM      4  O   UNL A   1      33.497  27.572  22.061  1.00  0.00    -0.246 OA
BRANCH   3   5
ATOM      5  C   UNL A   1      31.372  27.557  23.079  1.00  0.00     0.085 A 
ATOM      6  C   UNL A   1      31.228  26.312  23.707  1.00  0.00     0.071 A 
ATOM      7  C   UNL A   1      29.923  25.901  24.056  1.00  0.00     0.028 A 
ATOM      8  C   UNL A   1      28.810  26.719  23.852  1.00  0.00     0.002 A 
ATOM      9  C   UNL A   1      30.241  28.362  22.847  1.00  0.00     0.018 A 
ATOM     10  C   UNL A   1      28.970  27.957  23.251  1.00  0.00     0.001 A 
BRANCH   6  11
ATOM     11  N   UNL A   1      32.277  25.505  24.204  1.00  0.00    -0.277 N 
ATOM     12  H   UNL A   1      32.981  25.953  24.726  1.00  0.00     0.190 HD
BRANCH  11  13
ATOM     13  N   UNL A   1      32.394  24.175  24.021  1.00  0.00    -0.180 NA
ATOM     14  C   UNL A   1      34.598  24.155  25.234  1.00  0.00     0.069 C 
ATOM     15  C   UNL A   1      33.425  23.528  24.496  1.00  0.00     0.065 C 
BRANCH  15  16
ATOM     16  C   UNL A   1      33.447  22.032  24.329  1.00  0.00    -0.002 A 
ATOM     17  C   UNL A   1      32.435  21.409  23.580  1.00  0.00     0.011 A 
ATOM     18  C   UNL A   1      34.427  21.240  24.944  1.00  0.00     0.011 A 
ATOM     19  C   UNL A   1      32.384  20.018  23.471  1.00  0.00     0.021 A 
ATOM     20  C   UNL A   1      34.369  19.848  24.855  1.00  0.00     0.021 A 
ATOM     21  C   UNL A   1      33.336  19.245  24.137  1.00  0.00     0.067 A 
BRANCH  21  22
ATOM     22  S   UNL A   1      33.199  17.475  24.107  1.00  0.00     0.175 S 
ATOM     23  C   UNL A   1      34.807  16.917  24.611  1.00  0.00     0.163 C 
ATOM     24  O   UNL A   1      32.239  17.107  25.128  1.00  0.00    -0.224 OA
ATOM     25  O   UNL A   1      33.017  17.074  22.723  1.00  0.00    -0.224 OA
ENDBRANCH  21  22
ENDBRANCH  15  16
ENDBRANCH  11  13
ENDBRANCH   6  11
ENDBRANCH   3   5
ENDBRANCH   2   3
ENDBRANCH   1   2
BRANCH   1  26
ATOM     26  C   UNL A   1      32.195  30.079  25.679  1.00  0.00     0.275 C 
BRANCH  26  27
ATOM     27  O   UNL A   1      32.661  30.192  27.034  1.00  0.00    -0.458 OA
BRANCH  27  28
ATOM     28  C   UNL A   1      33.309  31.345  27.296  1.00  0.00     0.338 C 
ATOM     29  O   UNL A   1      32.854  32.477  27.314  1.00  0.00    -0.246 OA
BRANCH  28  30
ATOM     30  C   UNL A   1      34.708  31.079  27.634  1.00  0.00     0.060 A 
ATOM     31  C   UNL A   1      35.088  29.768  27.899  1.00  0.00     0.016 A 
ATOM     32  C   UNL A   1      35.561  32.135  27.937  1.00  0.00     0.016 A 
ATOM     33  C   UNL A   1      36.241  29.509  28.621  1.00  0.00     0.010 A 
ATOM     34  C   UNL A   1      36.791  31.862  28.537  1.00  0.00     0.010 A 
ATOM     35  C   UNL A   1      37.117  30.552  28.936  1.00  0.00    -0.014 A 
BRANCH  35  36
ATOM     36  C   UNL A   1      38.345  30.285  29.724  1.00  0.00     0.031 A 
ATOM     37  C   UNL A   1      39.422  29.412  29.145  1.00  0.00     0.074 A 
ATOM     38  C   UNL A   1      38.490  30.824  30.950  1.00  0.00     0.049 A 
ATOM     39  N   UNL A   1      40.439  28.843  29.738  1.00  0.00    -0.248 NA
ATOM     40  C   UNL A   1      39.331  29.121  27.704  1.00  0.00     0.031 C 
ATOM     41  C   UNL A   1      37.551  31.749  31.590  1.00  0.00     0.029 A 
ATOM     42  N   UNL A   1      39.482  30.664  31.885  1.00  0.00    -0.354 N 
ATOM     43  C   UNL A   1      41.065  28.076  28.764  1.00  0.00     0.074 A 
ATOM     44  C   UNL A   1      40.315  28.249  27.540  1.00  0.00     0.031 C 
ATOM     45  C   UNL A   1      38.020  32.091  32.797  1.00  0.00     0.029 A 
ATOM     46  C   UNL A   1      39.229  31.324  33.062  1.00  0.00     0.049 A 
ATOM     47  H   UNL A   1      40.293  30.131  31.726  1.00  0.00     0.167 HD
ATOM     48  C   UNL A   1      42.163  27.295  28.894  1.00  0.00     0.037 A 
ATOM     49  C   UNL A   1      39.861  31.265  34.248  1.00  0.00     0.037 A 
ATOM     50  C   UNL A   1      42.918  27.178  30.115  1.00  0.00     0.049 A 
ATOM     51  C   UNL A   1      41.042  30.347  34.382  1.00  0.00     0.074 A 
ATOM     52  C   UNL A   1      44.053  26.428  30.364  1.00  0.00     0.029 A 
ATOM     53  N   UNL A   1      42.615  27.849  31.294  1.00  0.00    -0.354 N 
ATOM     54  N   UNL A   1      41.597  29.574  33.480  1.00  0.00    -0.248 NA
ATOM     55  C   UNL A   1      41.674  30.279  35.705  1.00  0.00     0.031 C 
ATOM     56  C   UNL A   1      44.407  26.606  31.706  1.00  0.00     0.029 A 
ATOM     57  C   UNL A   1      43.530  27.515  32.278  1.00  0.00     0.049 A 
ATOM     58  H   UNL A   1      41.859  28.469  31.413  1.00  0.00     0.167 HD
ATOM     59  C   UNL A   1      42.656  28.945  34.116  1.00  0.00     0.074 A 
ATOM     60  C   UNL A   1      42.676  29.443  35.477  1.00  0.00     0.031 C 
ATOM     61  C   UNL A   1      43.532  28.036  33.622  1.00  0.00     0.037 A 
BRANCH  48  62
ATOM     62  C   UNL A   1      42.585  26.473  27.708  1.00  0.00     0.064 A 
ATOM     63  C   UNL A   1      43.577  26.902  26.814  1.00  0.00     0.173 A 
ATOM     64  C   UNL A   1      41.998  25.219  27.476  1.00  0.00     0.173 A 
ATOM     65  F   UNL A   1      44.162  28.098  26.977  1.00  0.00    -0.203 F 
ATOM     66  C   UNL A   1      43.944  26.121  25.720  1.00  0.00     0.198 A 
ATOM     67  C   UNL A   1      42.390  24.426  26.400  1.00  0.00     0.198 A 
ATOM     68  F   UNL A   1      41.046  24.754  28.300  1.00  0.00    -0.203 F 
ATOM     69  F   UNL A   1      44.857  26.576  24.850  1.00  0.00    -0.200 F 
ATOM     70  C   UNL A   1      43.356  24.882  25.518  1.00  0.00     0.200 A 
ATOM     71  F   UNL A   1      41.830  23.222  26.218  1.00  0.00    -0.200 F 
ATOM     72  F   UNL A   1      43.716  24.129  24.469  1.00  0.00    -0.200 F 
ENDBRANCH  48  62
BRANCH  49  73
ATOM     73  C   UNL A   1      39.353  32.054  35.401  1.00  0.00     0.064 A 
ATOM     74  C   UNL A   1      38.507  31.472  36.354  1.00  0.00     0.173 A 
ATOM     75  C   UNL A   1      39.712  33.399  35.584  1.00  0.00     0.173 A 
ATOM     76  F   UNL A   1      38.118  30.196  36.214  1.00  0.00    -0.203 F 
ATOM     77  C   UNL A   1      38.028  32.208  37.436  1.00  0.00     0.198 A 
ATOM     78  C   UNL A   1      39.262  34.123  36.685  1.00  0.00     0.198 A 
ATOM     79  F   UNL A   1      40.523  34.005  34.703  1.00  0.00    -0.203 F 
ATOM     80  F   UNL A   1      37.183  31.640  38.307  1.00  0.00    -0.200 F 
ATOM     81  C   UNL A   1      38.412  33.530  37.605  1.00  0.00     0.200 A 
ATOM     82  F   UNL A   1      39.653  35.393  36.855  1.00  0.00    -0.200 F 
ATOM     83  F   UNL A   1      37.959  34.233  38.652  1.00  0.00    -0.200 F 
ENDBRANCH  49  73
BRANCH  61  84
ATOM     84  C   UNL A   1      44.613  27.564  34.549  1.00  0.00     0.064 A 
ATOM     85  C   UNL A   1      44.463  26.411  35.333  1.00  0.00     0.173 A 
ATOM     86  C   UNL A   1      45.826  28.263  34.631  1.00  0.00     0.173 A 
ATOM     87  F   UNL A   1      43.313  25.719  35.304  1.00  0.00    -0.203 F 
ATOM     88  C   UNL A   1      45.478  25.993  36.188  1.00  0.00     0.198 A 
ATOM     89  C   UNL A   1      46.852  27.823  35.460  1.00  0.00     0.198 A 
ATOM     90  F   UNL A   1      46.020  29.369  33.895  1.00  0.00    -0.203 F 
ATOM     91  F   UNL A   1      45.293  24.921  36.971  1.00  0.00    -0.200 F 
ATOM     92  C   UNL A   1      46.674  26.694  36.244  1.00  0.00     0.200 A 
ATOM     93  F   UNL A   1      48.012  28.493  35.502  1.00  0.00    -0.200 F 
ATOM     94  F   UNL A   1      47.653  26.285  37.063  1.00  0.00    -0.200 F 
ENDBRANCH  61  84
ENDBRANCH  35  36
ENDBRANCH  28  30
ENDBRANCH  27  28
ENDBRANCH  26  27
ENDBRANCH   1  26
TORSDOF 15
ENDMDL
MODEL 2
REMARK VINA RESULT:     -13.0      0.996      1.974
REMARK SMILES C/C(=N\Nc1ccccc1C(=O)OCCOC(=O)c1ccc(-c2c3nc(c(-c4c(F)c(F)c(F)c(F)c4F)c4ccc([nH]4)c(-c4c(F)c(F)c(F)c(F)c4F)c4nc(c(-c5c(F)c(F)c(F)c(F)c5F)c5ccc2[nH]5)C=C4)C=C3)cc1)c1ccc(S(C)(=O)=O)cc1
REMARK SMILES IDX 14 1 13 2 11 3 12 4 10 5 5 6 6 7 7 8 9 9 8 10 4 11 3 13 1 14
REMARK SMILES IDX 2 15 82 16 83 17 91 18 84 19 90 20 85 21 86 22 87 23 88 24
REMARK SMILES IDX 89 25 15 26 16 27 17 28 18 29 19 30 20 31 81 32 21 33 80 34
REMARK SMILES IDX 22 35 23 36 24 37 74 38 25 39 79 40 73 41 75 42 26 43 78 44
REMARK SMILES IDX 72 45 71 46 27 48 59 49 39 50 58 51 40 52 43 53 57 54 76 55
REMARK SMILES IDX 41 56 42 57 56 59 77 60 44 61 28 62 29 63 37 64 30 65 31 66
REMARK SMILES IDX 35 67 38 68 32 69 33 70 36 71 34 72 60 73 61 74 69 75 62 76
REMARK SMILES IDX 63 77 67 78 70 79 64 80 65 81 68 82 66 83 45 84 46 85 54 86
REMARK SMILES IDX 47 87 48 88 52 89 55 90 49 91 50 92 53 93 51 94
REMARK H PARENT 4 12 75 47 43 58
REMARK Flexibility Score: inf
ROOT
ATOM      1  C   UNL A   1      31.830  28.444  27.212  1.00  0.00     0.275 C 
ENDROOT
BRANCH   1   2
ATOM      2  O   UNL A   1      31.652  27.593  26.062  1.00  0.00    -0.458 OA
BRANCH   2   3
ATOM      3  C   UNL A   1      32.793  27.057  25.567  1.00  0.00     0.340 C 
ATOM      4  O   UNL A   1      33.834  26.871  26.181  1.00  0.00    -0.246 OA
BRANCH   3   5
ATOM      5  C   UNL A   1      32.659  26.679  24.147  1.00  0.00     0.085 A 
ATOM      6  C   UNL A   1      33.424  25.652  23.578  1.00  0.00     0.071 A 
ATOM      7  C   UNL A   1      33.131  25.277  22.248  1.00  0.00     0.028 A 
ATOM      8  C   UNL A   1      32.078  25.850  21.532  1.00  0.00     0.002 A 
ATOM      9  C   UNL A   1      31.620  27.275  23.407  1.00  0.00     0.018 A 
ATOM     10  C   UNL A   1      31.315  26.849  22.116  1.00  0.00     0.001 A 
BRANCH   6  11
ATOM     11  N   UNL A   1      34.335  24.816  24.263  1.00  0.00    -0.277 N 
ATOM     12  H   UNL A   1      34.962  25.247  24.886  1.00  0.00     0.190 HD
BRANCH  11  13
ATOM     13  N   UNL A   1      34.416  23.476  24.132  1.00  0.00    -0.180 NA
ATOM     14  C   UNL A   1      32.781  23.149  26.016  1.00  0.00     0.069 C 
ATOM     15  C   UNL A   1      33.705  22.692  24.899  1.00  0.00     0.065 C 
BRANCH  15  16
ATOM     16  C   UNL A   1      33.781  21.211  24.641  1.00  0.00    -0.002 A 
ATOM     17  C   UNL A   1      32.657  20.544  24.127  1.00  0.00     0.011 A 
ATOM     18  C   UNL A   1      34.932  20.470  24.949  1.00  0.00     0.011 A 
ATOM     19  C   UNL A   1      32.669  19.158  23.951  1.00  0.00     0.021 A 
ATOM     20  C   UNL A   1      34.943  19.083  24.794  1.00  0.00     0.021 A 
ATOM     21  C   UNL A   1      33.805  18.434  24.317  1.00  0.00     0.067 A 
BRANCH  21  22
ATOM     22  S   UNL A   1      33.778  16.661  24.215  1.00  0.00     0.175 S 
ATOM     23  C   UNL A   1      35.194  16.161  25.162  1.00  0.00     0.163 C 
ATOM     24  O   UNL A   1      32.582  16.216  24.898  1.00  0.00    -0.224 OA
ATOM     25  O   UNL A   1      34.035  16.298  22.833  1.00  0.00    -0.224 OA
ENDBRANCH  21  22
ENDBRANCH  15  16
ENDBRANCH  11  13
ENDBRANCH   6  11
ENDBRANCH   3   5
ENDBRANCH   2   3
ENDBRANCH   1   2
BRANCH   1  26
ATOM     26  C   UNL A   1      31.791  29.927  26.857  1.00  0.00     0.275 C 
BRANCH  26  27
ATOM     27  O   UNL A   1      33.093  30.398  26.471  1.00  0.00    -0.458 OA
BRANCH  27  28
ATOM     28  C   UNL A   1      33.583  31.370  27.267  1.00  0.00     0.338 C 
ATOM     29  O   UNL A   1      33.000  32.346  27.709  1.00  0.00    -0.246 OA
BRANCH  28  30
ATOM     30  C   UNL A   1      34.977  31.090  27.616  1.00  0.00     0.060 A 
ATOM     31  C   UNL A   1      35.348  29.770  27.851  1.00  0.00     0.016 A 
ATOM     32  C   UNL A   1      35.829  32.134  27.959  1.00  0.00     0.016 A 
ATOM     33  C   UNL A   1      36.491  29.488  28.581  1.00  0.00     0.010 A 
ATOM     34  C   UNL A   1      37.050  31.840  28.568  1.00  0.00     0.010 A 
ATOM     35  C   UNL A   1      37.366  30.519  28.936  1.00  0.00    -0.014 A 
BRANCH  35  36
ATOM     36  C   UNL A   1      38.582  30.225  29.733  1.00  0.00     0.031 A 
ATOM     37  C   UNL A   1      39.646  29.332  29.160  1.00  0.00     0.074 A 
ATOM     38  C   UNL A   1      38.729  30.760  30.961  1.00  0.00     0.049 A 
ATOM     39  N   UNL A   1      40.646  28.742  29.761  1.00  0.00    -0.248 NA
ATOM     40  C   UNL A   1      39.560  29.045  27.718  1.00  0.00     0.031 C 
ATOM     41  C   UNL A   1      37.804  31.703  31.595  1.00  0.00     0.029 A 
ATOM     42  N   UNL A   1      39.710  30.579  31.903  1.00  0.00    -0.354 N 
ATOM     43  C   UNL A   1      41.264  27.964  28.790  1.00  0.00     0.074 A 
ATOM     44  C   UNL A   1      40.527  28.153  27.561  1.00  0.00     0.031 C 
ATOM     45  C   UNL A   1      38.270  32.035  32.806  1.00  0.00     0.029 A 
ATOM     46  C   UNL A   1      39.462  31.243  33.079  1.00  0.00     0.049 A 
ATOM     47  H   UNL A   1      40.512  30.029  31.750  1.00  0.00     0.167 HD
ATOM     48  C   UNL A   1      42.345  27.160  28.927  1.00  0.00     0.037 A 
ATOM     49  C   UNL A   1      40.084  31.169  34.269  1.00  0.00     0.037 A 
ATOM     50  C   UNL A   1      43.088  27.027  30.154  1.00  0.00     0.049 A 
ATOM     51  C   UNL A   1      41.245  30.228  34.411  1.00  0.00     0.074 A 
ATOM     52  C   UNL A   1      44.206  26.253  30.411  1.00  0.00     0.029 A 
ATOM     53  N   UNL A   1      42.790  27.702  31.332  1.00  0.00    -0.354 N 
ATOM     54  N   UNL A   1      41.790  29.445  33.512  1.00  0.00    -0.248 NA
ATOM     55  C   UNL A   1      41.865  30.145  35.739  1.00  0.00     0.031 C 
ATOM     56  C   UNL A   1      44.554  26.422  31.755  1.00  0.00     0.029 A 
ATOM     57  C   UNL A   1      43.691  27.348  32.322  1.00  0.00     0.049 A 
ATOM     58  H   UNL A   1      42.046  28.336  31.446  1.00  0.00     0.167 HD
ATOM     59  C   UNL A   1      42.831  28.793  34.156  1.00  0.00     0.074 A 
ATOM     60  C   UNL A   1      42.851  29.289  35.517  1.00  0.00     0.031 C 
ATOM     61  C   UNL A   1      43.692  27.867  33.667  1.00  0.00     0.037 A 
BRANCH  48  62
ATOM     62  C   UNL A   1      42.760  26.332  27.743  1.00  0.00     0.064 A 
ATOM     63  C   UNL A   1      42.203  25.071  27.478  1.00  0.00     0.173 A 
ATOM     64  C   UNL A   1      43.718  26.823  26.843  1.00  0.00     0.173 A 
ATOM     65  F   UNL A   1      41.294  24.546  28.312  1.00  0.00    -0.203 F 
ATOM     66  C   UNL A   1      42.611  24.324  26.375  1.00  0.00     0.198 A 
ATOM     67  C   UNL A   1      44.100  26.088  25.723  1.00  0.00     0.198 A 
ATOM     68  F   UNL A   1      44.283  28.024  27.042  1.00  0.00    -0.203 F 
ATOM     69  F   UNL A   1      42.103  23.101  26.172  1.00  0.00    -0.200 F 
ATOM     70  C   UNL A   1      43.553  24.835  25.495  1.00  0.00     0.200 A 
ATOM     71  F   UNL A   1      44.999  26.592  24.866  1.00  0.00    -0.200 F 
ATOM     72  F   UNL A   1      43.939  24.118  24.430  1.00  0.00    -0.200 F 
ENDBRANCH  48  62
BRANCH  49  73
ATOM     73  C   UNL A   1      39.583  31.967  35.420  1.00  0.00     0.064 A 
ATOM     74  C   UNL A   1      38.614  31.447  36.288  1.00  0.00     0.173 A 
ATOM     75  C   UNL A   1      40.071  33.256  35.685  1.00  0.00     0.173 A 
ATOM     76  F   UNL A   1      38.101  30.228  36.067  1.00  0.00    -0.203 F 
ATOM     77  C   UNL A   1      38.141  32.192  37.367  1.00  0.00     0.198 A 
ATOM     78  C   UNL A   1      39.624  33.985  36.784  1.00  0.00     0.198 A 
ATOM     79  F   UNL A   1      41.002  33.801  34.888  1.00  0.00    -0.203 F 
ATOM     80  F   UNL A   1      37.181  31.689  38.155  1.00  0.00    -0.200 F 
ATOM     81  C   UNL A   1      38.652  33.456  37.619  1.00  0.00     0.200 A 
ATOM     82  F   UNL A   1      40.136  35.198  37.036  1.00  0.00    -0.200 F 
ATOM     83  F   UNL A   1      38.204  34.166  38.663  1.00  0.00    -0.200 F 
ENDBRANCH  49  73
BRANCH  61  84
ATOM     84  C   UNL A   1      44.757  27.372  34.601  1.00  0.00     0.064 A 
ATOM     85  C   UNL A   1      45.983  28.038  34.744  1.00  0.00     0.173 A 
ATOM     86  C   UNL A   1      44.533  26.229  35.383  1.00  0.00     0.173 A 
ATOM     87  F   UNL A   1      46.252  29.125  34.003  1.00  0.00    -0.203 F 
ATOM     88  C   UNL A   1      46.957  27.560  35.615  1.00  0.00     0.198 A 
ATOM     89  C   UNL A   1      45.495  25.774  36.278  1.00  0.00     0.198 A 
ATOM     90  F   UNL A   1      43.373  25.561  35.287  1.00  0.00    -0.203 F 
ATOM     91  F   UNL A   1      48.143  28.178  35.694  1.00  0.00    -0.200 F 
ATOM     92  C   UNL A   1      46.709  26.434  36.386  1.00  0.00     0.200 A 
ATOM     93  F   UNL A   1      45.248  24.695  37.033  1.00  0.00    -0.200 F 
ATOM     94  F   UNL A   1      47.647  25.980  37.229  1.00  0.00    -0.200 F 
ENDBRANCH  61  84
ENDBRANCH  35  36
ENDBRANCH  28  30
ENDBRANCH  27  28
ENDBRANCH  26  27
ENDBRANCH   1  26
TORSDOF 15
ENDMDL
MODEL 3
REMARK VINA RESULT:     -13.0      4.480     10.112
REMARK SMILES C/C(=N\Nc1ccccc1C(=O)OCCOC(=O)c1ccc(-c2c3nc(c(-c4c(F)c(F)c(F)c(F)c4F)c4ccc([nH]4)c(-c4c(F)c(F)c(F)c(F)c4F)c4nc(c(-c5c(F)c(F)c(F)c(F)c5F)c5ccc2[nH]5)C=C4)C=C3)cc1)c1ccc(S(C)(=O)=O)cc1
REMARK SMILES IDX 14 1 13 2 11 3 12 4 10 5 5 6 6 7 7 8 9 9 8 10 4 11 3 13 1 14
REMARK SMILES IDX 2 15 82 16 83 17 91 18 84 19 90 20 85 21 86 22 87 23 88 24
REMARK SMILES IDX 89 25 15 26 16 27 17 28 18 29 19 30 20 31 81 32 21 33 80 34
REMARK SMILES IDX 22 35 23 36 24 37 74 38 25 39 79 40 73 41 75 42 26 43 78 44
REMARK SMILES IDX 72 45 71 46 27 48 59 49 39 50 58 51 40 52 43 53 57 54 76 55
REMARK SMILES IDX 41 56 42 57 56 59 77 60 44 61 28 62 29 63 37 64 30 65 31 66
REMARK SMILES IDX 35 67 38 68 32 69 33 70 36 71 34 72 60 73 61 74 69 75 62 76
REMARK SMILES IDX 63 77 67 78 70 79 64 80 65 81 68 82 66 83 45 84 46 85 54 86
REMARK SMILES IDX 47 87 48 88 52 89 55 90 49 91 50 92 53 93 51 94
REMARK H PARENT 4 12 75 47 43 58
REMARK Flexibility Score: inf
ROOT
ATOM      1  C   UNL A   1      35.640  21.994  26.026  1.00  0.00     0.275 C 
ENDROOT
BRANCH   1   2
ATOM      2  O   UNL A   1      34.587  21.277  26.701  1.00  0.00    -0.458 OA
BRANCH   2   3
ATOM      3  C   UNL A   1      33.338  21.750  26.471  1.00  0.00     0.340 C 
ATOM      4  O   UNL A   1      32.675  22.448  27.225  1.00  0.00    -0.246 OA
BRANCH   3   5
ATOM      5  C   UNL A   1      32.824  21.343  25.149  1.00  0.00     0.085 A 
ATOM      6  C   UNL A   1      32.598  22.270  24.123  1.00  0.00     0.071 A 
ATOM      7  C   UNL A   1      32.230  21.768  22.856  1.00  0.00     0.028 A 
ATOM      8  C   UNL A   1      32.154  20.398  22.595  1.00  0.00     0.002 A 
ATOM      9  C   UNL A   1      32.714  19.964  24.888  1.00  0.00     0.018 A 
ATOM     10  C   UNL A   1      32.404  19.492  23.614  1.00  0.00     0.001 A 
BRANCH   6  11
ATOM     11  N   UNL A   1      32.888  23.653  24.173  1.00  0.00    -0.277 N 
ATOM     12  H   UNL A   1      33.805  23.912  24.415  1.00  0.00     0.190 HD
BRANCH  11  13
ATOM     13  N   UNL A   1      32.011  24.644  23.916  1.00  0.00    -0.180 NA
ATOM     14  C   UNL A   1      33.015  26.063  25.735  1.00  0.00     0.069 C 
ATOM     15  C   UNL A   1      32.057  25.761  24.593  1.00  0.00     0.065 C 
BRANCH  15  16
ATOM     16  C   UNL A   1      31.104  26.856  24.196  1.00  0.00    -0.002 A 
ATOM     17  C   UNL A   1      29.758  26.539  23.946  1.00  0.00     0.011 A 
ATOM     18  C   UNL A   1      31.537  28.178  24.020  1.00  0.00     0.011 A 
ATOM     19  C   UNL A   1      28.867  27.518  23.501  1.00  0.00     0.021 A 
ATOM     20  C   UNL A   1      30.656  29.156  23.556  1.00  0.00     0.021 A 
ATOM     21  C   UNL A   1      29.332  28.815  23.279  1.00  0.00     0.067 A 
BRANCH  21  22
ATOM     22  S   UNL A   1      28.234  30.029  22.591  1.00  0.00     0.175 S 
ATOM     23  C   UNL A   1      28.777  31.553  23.321  1.00  0.00     0.163 C 
ATOM     24  O   UNL A   1      28.495  30.078  21.167  1.00  0.00    -0.224 OA
ATOM     25  O   UNL A   1      26.903  29.756  23.103  1.00  0.00    -0.224 OA
ENDBRANCH  21  22
ENDBRANCH  15  16
ENDBRANCH  11  13
ENDBRANCH   6  11
ENDBRANCH   3   5
ENDBRANCH   2   3
ENDBRANCH   1   2
BRANCH   1  26
ATOM     26  C   UNL A   1      36.686  21.064  25.417  1.00  0.00     0.275 C 
BRANCH  26  27
ATOM     27  O   UNL A   1      37.865  21.793  25.040  1.00  0.00    -0.458 OA
BRANCH  27  28
ATOM     28  C   UNL A   1      38.957  21.488  25.770  1.00  0.00     0.338 C 
ATOM     29  O   UNL A   1      39.561  20.430  25.813  1.00  0.00    -0.246 OA
BRANCH  28  30
ATOM     30  C   UNL A   1      39.410  22.658  26.524  1.00  0.00     0.060 A 
ATOM     31  C   UNL A   1      38.943  23.912  26.145  1.00  0.00     0.016 A 
ATOM     32  C   UNL A   1      40.472  22.541  27.414  1.00  0.00     0.016 A 
ATOM     33  C   UNL A   1      39.636  25.053  26.512  1.00  0.00     0.010 A 
ATOM     34  C   UNL A   1      41.082  23.699  27.898  1.00  0.00     0.010 A 
ATOM     35  C   UNL A   1      40.706  24.963  27.407  1.00  0.00    -0.014 A 
BRANCH  35  36
ATOM     36  C   UNL A   1      41.464  26.180  27.790  1.00  0.00     0.031 A 
ATOM     37  C   UNL A   1      40.789  27.247  28.605  1.00  0.00     0.074 A 
ATOM     38  C   UNL A   1      42.749  26.322  27.411  1.00  0.00     0.049 A 
ATOM     39  N   UNL A   1      41.162  28.480  28.831  1.00  0.00    -0.248 NA
ATOM     40  C   UNL A   1      39.508  26.885  29.235  1.00  0.00     0.031 C 
ATOM     41  C   UNL A   1      43.537  25.323  26.686  1.00  0.00     0.029 A 
ATOM     42  N   UNL A   1      43.618  27.370  27.575  1.00  0.00    -0.354 N 
ATOM     43  C   UNL A   1      40.134  29.057  29.566  1.00  0.00     0.074 A 
ATOM     44  C   UNL A   1      39.120  28.043  29.748  1.00  0.00     0.031 C 
ATOM     45  C   UNL A   1      44.775  25.794  26.487  1.00  0.00     0.029 A 
ATOM     46  C   UNL A   1      44.833  27.167  26.969  1.00  0.00     0.049 A 
ATOM     47  H   UNL A   1      43.393  28.186  28.079  1.00  0.00     0.167 HD
ATOM     48  C   UNL A   1      40.053  30.326  30.034  1.00  0.00     0.037 A 
ATOM     49  C   UNL A   1      45.855  28.016  26.760  1.00  0.00     0.037 A 
ATOM     50  C   UNL A   1      41.100  31.302  29.876  1.00  0.00     0.049 A 
ATOM     51  C   UNL A   1      45.717  29.432  27.238  1.00  0.00     0.074 A 
ATOM     52  C   UNL A   1      41.137  32.612  30.317  1.00  0.00     0.029 A 
ATOM     53  N   UNL A   1      42.309  31.061  29.235  1.00  0.00    -0.354 N 
ATOM     54  N   UNL A   1      44.721  29.997  27.877  1.00  0.00    -0.248 NA
ATOM     55  C   UNL A   1      46.837  30.336  26.950  1.00  0.00     0.031 C 
ATOM     56  C   UNL A   1      42.346  33.179  29.900  1.00  0.00     0.029 A 
ATOM     57  C   UNL A   1      43.091  32.205  29.252  1.00  0.00     0.049 A 
ATOM     58  H   UNL A   1      42.572  30.205  28.826  1.00  0.00     0.167 HD
ATOM     59  C   UNL A   1      45.100  31.314  28.089  1.00  0.00     0.074 A 
ATOM     60  C   UNL A   1      46.428  31.457  27.526  1.00  0.00     0.031 C 
ATOM     61  C   UNL A   1      44.414  32.315  28.692  1.00  0.00     0.037 A 
BRANCH  48  62
ATOM     62  C   UNL A   1      38.779  30.743  30.714  1.00  0.00     0.064 A 
ATOM     63  C   UNL A   1      37.657  31.186  29.998  1.00  0.00     0.173 A 
ATOM     64  C   UNL A   1      38.674  30.673  32.113  1.00  0.00     0.173 A 
ATOM     65  F   UNL A   1      37.705  31.286  28.662  1.00  0.00    -0.203 F 
ATOM     66  C   UNL A   1      36.491  31.571  30.658  1.00  0.00     0.198 A 
ATOM     67  C   UNL A   1      37.496  31.028  32.766  1.00  0.00     0.198 A 
ATOM     68  F   UNL A   1      39.713  30.253  32.850  1.00  0.00    -0.203 F 
ATOM     69  F   UNL A   1      35.451  32.041  29.955  1.00  0.00    -0.200 F 
ATOM     70  C   UNL A   1      36.409  31.485  32.039  1.00  0.00     0.200 A 
ATOM     71  F   UNL A   1      37.415  30.928  34.101  1.00  0.00    -0.200 F 
ATOM     72  F   UNL A   1      35.284  31.849  32.670  1.00  0.00    -0.200 F 
ENDBRANCH  48  62
BRANCH  49  73
ATOM     73  C   UNL A   1      47.062  27.558  26.022  1.00  0.00     0.064 A 
ATOM     74  C   UNL A   1      47.141  27.677  24.628  1.00  0.00     0.173 A 
ATOM     75  C   UNL A   1      48.166  27.007  26.692  1.00  0.00     0.173 A 
ATOM     76  F   UNL A   1      46.105  28.177  23.939  1.00  0.00    -0.203 F 
ATOM     77  C   UNL A   1      48.270  27.247  23.932  1.00  0.00     0.198 A 
ATOM     78  C   UNL A   1      49.307  26.612  25.999  1.00  0.00     0.198 A 
ATOM     79  F   UNL A   1      48.146  26.874  28.027  1.00  0.00    -0.203 F 
ATOM     80  F   UNL A   1      48.300  27.330  22.595  1.00  0.00    -0.200 F 
ATOM     81  C   UNL A   1      49.355  26.724  24.619  1.00  0.00     0.200 A 
ATOM     82  F   UNL A   1      50.362  26.127  26.669  1.00  0.00    -0.200 F 
ATOM     83  F   UNL A   1      50.444  26.322  23.949  1.00  0.00    -0.200 F 
ENDBRANCH  49  73
BRANCH  61  84
ATOM     84  C   UNL A   1      45.113  33.636  28.815  1.00  0.00     0.064 A 
ATOM     85  C   UNL A   1      44.970  34.641  27.847  1.00  0.00     0.173 A 
ATOM     86  C   UNL A   1      45.915  33.908  29.933  1.00  0.00     0.173 A 
ATOM     87  F   UNL A   1      44.229  34.421  26.749  1.00  0.00    -0.203 F 
ATOM     88  C   UNL A   1      45.630  35.859  27.980  1.00  0.00     0.198 A 
ATOM     89  C   UNL A   1      46.545  35.139  30.081  1.00  0.00     0.198 A 
ATOM     90  F   UNL A   1      46.078  32.981  30.890  1.00  0.00    -0.203 F 
ATOM     91  F   UNL A   1      45.526  36.784  27.016  1.00  0.00    -0.200 F 
ATOM     92  C   UNL A   1      46.409  36.110  29.100  1.00  0.00     0.200 A 
ATOM     93  F   UNL A   1      47.285  35.385  31.170  1.00  0.00    -0.200 F 
ATOM     94  F   UNL A   1      47.038  37.286  29.229  1.00  0.00    -0.200 F 
ENDBRANCH  61  84
ENDBRANCH  35  36
ENDBRANCH  28  30
ENDBRANCH  27  28
ENDBRANCH  26  27
ENDBRANCH   1  26
TORSDOF 15
ENDMDL
