MODEL 1
REMARK VINA RESULT:     -13.6      0.000      0.000
REMARK SMILES Cc1ccc(C(=O)OCCOC(=O)c2ccc(-c3c4nc(c(-c5c(F)c(F)c(F)c(F)c5F)c5ccc([nH]5)c(-c5c(F)c(F)c(F)c(F)c5F)c5nc(c(-c6c(F)c(F)c(F)c(F)c6F)c6ccc3[nH]6)C=C5)C=C4)cc2)cc1S(=O)(=O)C[C@@H]1C[C@H]2CC[C@@H]1C2
REMARK SMILES IDX 9 1 8 2 6 3 7 4 5 5 1 6 2 7 3 8 78 9 4 10 77 11 79 12 80 13
REMARK SMILES IDX 81 14 82 15 83 16 84 17 88 18 85 19 87 20 89 21 86 22 10 23
REMARK SMILES IDX 11 24 12 25 13 26 14 27 15 28 76 29 16 30 75 31 17 32 18 33
REMARK SMILES IDX 19 34 69 35 20 36 74 37 68 38 70 39 21 40 73 41 67 42 66 43
REMARK SMILES IDX 22 45 54 46 34 47 53 48 35 49 38 50 52 51 71 52 36 53 37 54
REMARK SMILES IDX 51 56 72 57 39 58 23 59 24 60 32 61 25 62 26 63 30 64 33 65
REMARK SMILES IDX 27 66 28 67 31 68 29 69 55 70 56 71 64 72 57 73 58 74 62 75
REMARK SMILES IDX 65 76 59 77 60 78 63 79 61 80 40 81 41 82 49 83 42 84 43 85
REMARK SMILES IDX 47 86 50 87 44 88 45 89 48 90 46 91
REMARK H PARENT 70 44 38 55
REMARK Flexibility Score: inf
ROOT
ATOM      1  C   UNL A   1      37.582  21.831  24.930  1.00  0.00     0.275 C 
ENDROOT
BRANCH   1   2
ATOM      2  O   UNL A   1      36.418  22.663  24.937  1.00  0.00    -0.458 OA
BRANCH   2   3
ATOM      3  C   UNL A   1      35.988  22.989  23.686  1.00  0.00     0.338 C 
ATOM      4  O   UNL A   1      36.684  23.034  22.683  1.00  0.00    -0.246 OA
BRANCH   3   5
ATOM      5  C   UNL A   1      34.555  23.358  23.683  1.00  0.00     0.061 A 
ATOM      6  C   UNL A   1      30.519  24.726  24.196  1.00  0.00     0.046 C 
ATOM      7  C   UNL A   1      31.895  24.298  23.802  1.00  0.00    -0.032 A 
ATOM      8  C   UNL A   1      32.267  23.052  24.355  1.00  0.00     0.005 A 
ATOM      9  C   UNL A   1      32.852  25.015  23.067  1.00  0.00     0.071 A 
ATOM     10  C   UNL A   1      33.587  22.617  24.348  1.00  0.00     0.016 A 
ATOM     11  C   UNL A   1      34.174  24.515  23.001  1.00  0.00     0.036 A 
BRANCH   9  12
ATOM     12  S   UNL A   1      32.702  26.633  22.315  1.00  0.00     0.178 S 
ATOM     13  O   UNL A   1      33.769  26.669  21.329  1.00  0.00    -0.224 OA
ATOM     14  O   UNL A   1      31.318  26.724  21.872  1.00  0.00    -0.224 OA
BRANCH  12  15
ATOM     15  C   UNL A   1      32.950  28.021  23.383  1.00  0.00     0.146 C 
BRANCH  15  16
ATOM     16  C   UNL A   1      32.193  27.978  24.709  1.00  0.00     0.008 C 
ATOM     17  C   UNL A   1      32.008  29.384  25.345  1.00  0.00     0.008 C 
ATOM     18  C   UNL A   1      32.956  27.243  25.839  1.00  0.00    -0.007 C 
ATOM     19  C   UNL A   1      32.505  29.192  26.789  1.00  0.00    -0.011 C 
ATOM     20  C   UNL A   1      31.935  26.852  26.915  1.00  0.00     0.004 C 
ATOM     21  C   UNL A   1      33.745  28.343  26.545  1.00  0.00     0.007 C 
ATOM     22  C   UNL A   1      31.578  28.210  27.533  1.00  0.00     0.004 C 
ENDBRANCH  15  16
ENDBRANCH  12  15
ENDBRANCH   9  12
ENDBRANCH   3   5
ENDBRANCH   2   3
ENDBRANCH   1   2
BRANCH   1  23
ATOM     23  C   UNL A   1      38.566  22.138  26.073  1.00  0.00     0.275 C 
BRANCH  23  24
ATOM     24  O   UNL A   1      38.974  23.493  26.431  1.00  0.00    -0.458 OA
BRANCH  24  25
ATOM     25  C   UNL A   1      39.969  23.820  27.280  1.00  0.00     0.338 C 
ATOM     26  O   UNL A   1      40.745  23.004  27.766  1.00  0.00    -0.246 OA
BRANCH  25  27
ATOM     27  C   UNL A   1      40.007  25.235  27.668  1.00  0.00     0.060 A 
ATOM     28  C   UNL A   1      40.320  26.205  26.698  1.00  0.00     0.016 A 
ATOM     29  C   UNL A   1      39.591  25.588  28.948  1.00  0.00     0.016 A 
ATOM     30  C   UNL A   1      40.112  27.543  26.972  1.00  0.00     0.010 A 
ATOM     31  C   UNL A   1      39.235  26.886  29.173  1.00  0.00     0.010 A 
ATOM     32  C   UNL A   1      39.580  27.855  28.216  1.00  0.00    -0.014 A 
BRANCH  32  33
ATOM     33  C   UNL A   1      39.770  29.149  28.830  1.00  0.00     0.031 A 
ATOM     34  C   UNL A   1      38.713  30.159  28.756  1.00  0.00     0.074 A 
ATOM     35  C   UNL A   1      40.841  29.066  29.657  1.00  0.00     0.049 A 
ATOM     36  N   UNL A   1      38.885  31.406  29.005  1.00  0.00    -0.248 NA
ATOM     37  C   UNL A   1      37.347  29.862  28.318  1.00  0.00     0.031 C 
ATOM     38  C   UNL A   1      41.222  29.782  30.854  1.00  0.00     0.029 A 
ATOM     39  N   UNL A   1      41.922  28.175  29.455  1.00  0.00    -0.354 N 
ATOM     40  C   UNL A   1      37.623  31.932  29.221  1.00  0.00     0.074 A 
ATOM     41  C   UNL A   1      36.723  31.019  28.569  1.00  0.00     0.031 C 
ATOM     42  C   UNL A   1      42.540  29.574  31.072  1.00  0.00     0.029 A 
ATOM     43  C   UNL A   1      43.059  28.824  29.930  1.00  0.00     0.049 A 
ATOM     44  H   UNL A   1      41.879  27.275  29.057  1.00  0.00     0.167 HD
ATOM     45  C   UNL A   1      37.496  32.912  30.166  1.00  0.00     0.037 A 
ATOM     46  C   UNL A   1      43.931  29.294  28.988  1.00  0.00     0.037 A 
ATOM     47  C   UNL A   1      38.822  33.201  30.721  1.00  0.00     0.049 A 
ATOM     48  C   UNL A   1      43.883  30.801  28.983  1.00  0.00     0.074 A 
ATOM     49  C   UNL A   1      39.447  32.737  31.868  1.00  0.00     0.029 A 
ATOM     50  N   UNL A   1      39.827  33.682  29.889  1.00  0.00    -0.354 N 
ATOM     51  N   UNL A   1      42.797  31.506  29.167  1.00  0.00    -0.248 NA
ATOM     52  C   UNL A   1      45.090  31.611  28.905  1.00  0.00     0.031 C 
ATOM     53  C   UNL A   1      40.847  32.877  31.687  1.00  0.00     0.029 A 
ATOM     54  C   UNL A   1      41.072  33.394  30.422  1.00  0.00     0.049 A 
ATOM     55  H   UNL A   1      39.676  34.160  29.042  1.00  0.00     0.167 HD
ATOM     56  C   UNL A   1      43.152  32.815  29.352  1.00  0.00     0.074 A 
ATOM     57  C   UNL A   1      44.591  32.835  29.138  1.00  0.00     0.031 C 
ATOM     58  C   UNL A   1      42.283  33.798  29.732  1.00  0.00     0.037 A 
BRANCH  45  59
ATOM     59  C   UNL A   1      36.212  33.328  30.864  1.00  0.00     0.064 A 
ATOM     60  C   UNL A   1      35.299  34.193  30.212  1.00  0.00     0.173 A 
ATOM     61  C   UNL A   1      35.823  32.950  32.163  1.00  0.00     0.173 A 
ATOM     62  F   UNL A   1      35.470  34.565  28.938  1.00  0.00    -0.203 F 
ATOM     63  C   UNL A   1      34.160  34.709  30.836  1.00  0.00     0.198 A 
ATOM     64  C   UNL A   1      34.689  33.482  32.797  1.00  0.00     0.198 A 
ATOM     65  F   UNL A   1      36.489  32.015  32.850  1.00  0.00    -0.203 F 
ATOM     66  F   UNL A   1      33.354  35.542  30.162  1.00  0.00    -0.200 F 
ATOM     67  C   UNL A   1      33.864  34.370  32.137  1.00  0.00     0.200 A 
ATOM     68  F   UNL A   1      34.397  33.117  34.054  1.00  0.00    -0.200 F 
ATOM     69  F   UNL A   1      32.778  34.872  32.741  1.00  0.00    -0.200 F 
ENDBRANCH  45  59
BRANCH  46  70
ATOM     70  C   UNL A   1      44.051  28.411  27.775  1.00  0.00     0.064 A 
ATOM     71  C   UNL A   1      44.651  27.136  27.925  1.00  0.00     0.173 A 
ATOM     72  C   UNL A   1      43.365  28.640  26.576  1.00  0.00     0.173 A 
ATOM     73  F   UNL A   1      45.328  26.842  29.047  1.00  0.00    -0.203 F 
ATOM     74  C   UNL A   1      44.483  26.120  26.981  1.00  0.00     0.198 A 
ATOM     75  C   UNL A   1      43.215  27.624  25.620  1.00  0.00     0.198 A 
ATOM     76  F   UNL A   1      42.764  29.815  26.348  1.00  0.00    -0.203 F 
ATOM     77  F   UNL A   1      44.973  24.895  27.221  1.00  0.00    -0.200 F 
ATOM     78  C   UNL A   1      43.753  26.361  25.834  1.00  0.00     0.200 A 
ATOM     79  F   UNL A   1      42.475  27.839  24.522  1.00  0.00    -0.200 F 
ATOM     80  F   UNL A   1      43.518  25.370  24.961  1.00  0.00    -0.200 F 
ENDBRANCH  46  70
BRANCH  58  81
ATOM     81  C   UNL A   1      42.550  35.271  29.594  1.00  0.00     0.064 A 
ATOM     82  C   UNL A   1      43.419  35.970  30.446  1.00  0.00     0.173 A 
ATOM     83  C   UNL A   1      42.082  35.989  28.467  1.00  0.00     0.173 A 
ATOM     84  F   UNL A   1      44.036  35.362  31.468  1.00  0.00    -0.203 F 
ATOM     85  C   UNL A   1      43.728  37.312  30.234  1.00  0.00     0.198 A 
ATOM     86  C   UNL A   1      42.460  37.301  28.214  1.00  0.00     0.198 A 
ATOM     87  F   UNL A   1      41.272  35.430  27.554  1.00  0.00    -0.203 F 
ATOM     88  F   UNL A   1      44.511  37.953  31.112  1.00  0.00    -0.200 F 
ATOM     89  C   UNL A   1      43.264  37.971  29.112  1.00  0.00     0.200 A 
ATOM     90  F   UNL A   1      42.060  37.904  27.086  1.00  0.00    -0.200 F 
ATOM     91  F   UNL A   1      43.609  39.245  28.886  1.00  0.00    -0.200 F 
ENDBRANCH  58  81
ENDBRANCH  32  33
ENDBRANCH  25  27
ENDBRANCH  24  25
ENDBRANCH  23  24
ENDBRANCH   1  23
TORSDOF 14
ENDMDL
MODEL 2
REMARK VINA RESULT:     -13.5      3.814      9.877
REMARK SMILES Cc1ccc(C(=O)OCCOC(=O)c2ccc(-c3c4nc(c(-c5c(F)c(F)c(F)c(F)c5F)c5ccc([nH]5)c(-c5c(F)c(F)c(F)c(F)c5F)c5nc(c(-c6c(F)c(F)c(F)c(F)c6F)c6ccc3[nH]6)C=C5)C=C4)cc2)cc1S(=O)(=O)C[C@@H]1C[C@H]2CC[C@@H]1C2
REMARK SMILES IDX 9 1 8 2 6 3 7 4 5 5 1 6 2 7 3 8 78 9 4 10 77 11 79 12 80 13
REMARK SMILES IDX 81 14 82 15 83 16 84 17 88 18 85 19 87 20 89 21 86 22 10 23
REMARK SMILES IDX 11 24 12 25 13 26 14 27 15 28 76 29 16 30 75 31 17 32 18 33
REMARK SMILES IDX 19 34 69 35 20 36 74 37 68 38 70 39 21 40 73 41 67 42 66 43
REMARK SMILES IDX 22 45 54 46 34 47 53 48 35 49 38 50 52 51 71 52 36 53 37 54
REMARK SMILES IDX 51 56 72 57 39 58 23 59 24 60 32 61 25 62 26 63 30 64 33 65
REMARK SMILES IDX 27 66 28 67 31 68 29 69 55 70 56 71 64 72 57 73 58 74 62 75
REMARK SMILES IDX 65 76 59 77 60 78 63 79 61 80 40 81 41 82 49 83 42 84 43 85
REMARK SMILES IDX 47 86 50 87 44 88 45 89 48 90 46 91
REMARK H PARENT 70 44 38 55
REMARK Flexibility Score: inf
ROOT
ATOM      1  C   UNL A   1      32.410  30.089  27.112  1.00  0.00     0.275 C 
ENDROOT
BRANCH   1   2
ATOM      2  O   UNL A   1      32.138  28.969  26.264  1.00  0.00    -0.458 OA
BRANCH   2   3
ATOM      3  C   UNL A   1      31.482  27.962  26.905  1.00  0.00     0.338 C 
ATOM      4  O   UNL A   1      31.243  27.914  28.101  1.00  0.00    -0.246 OA
BRANCH   3   5
ATOM      5  C   UNL A   1      31.134  26.863  25.975  1.00  0.00     0.061 A 
ATOM      6  C   UNL A   1      30.714  23.696  23.109  1.00  0.00     0.046 C 
ATOM      7  C   UNL A   1      30.729  24.675  24.238  1.00  0.00    -0.032 A 
ATOM      8  C   UNL A   1      30.502  26.005  23.820  1.00  0.00     0.005 A 
ATOM      9  C   UNL A   1      31.038  24.442  25.586  1.00  0.00     0.071 A 
ATOM     10  C   UNL A   1      30.759  27.085  24.657  1.00  0.00     0.016 A 
ATOM     11  C   UNL A   1      31.215  25.551  26.446  1.00  0.00     0.036 A 
BRANCH   9  12
ATOM     12  S   UNL A   1      31.442  22.893  26.390  1.00  0.00     0.178 S 
ATOM     13  O   UNL A   1      31.843  23.280  27.732  1.00  0.00    -0.224 OA
ATOM     14  O   UNL A   1      30.268  22.051  26.212  1.00  0.00    -0.224 OA
BRANCH  12  15
ATOM     15  C   UNL A   1      32.790  21.979  25.701  1.00  0.00     0.146 C 
BRANCH  15  16
ATOM     16  C   UNL A   1      34.034  22.795  25.355  1.00  0.00     0.008 C 
ATOM     17  C   UNL A   1      34.453  22.657  23.864  1.00  0.00     0.008 C 
ATOM     18  C   UNL A   1      35.319  22.306  26.068  1.00  0.00    -0.007 C 
ATOM     19  C   UNL A   1      35.949  22.306  23.945  1.00  0.00    -0.011 C 
ATOM     20  C   UNL A   1      36.339  23.451  26.031  1.00  0.00     0.004 C 
ATOM     21  C   UNL A   1      35.938  21.307  25.093  1.00  0.00     0.007 C 
ATOM     22  C   UNL A   1      36.731  23.489  24.548  1.00  0.00     0.004 C 
ENDBRANCH  15  16
ENDBRANCH  12  15
ENDBRANCH   9  12
ENDBRANCH   3   5
ENDBRANCH   2   3
ENDBRANCH   1   2
BRANCH   1  23
ATOM     23  C   UNL A   1      33.849  30.622  26.988  1.00  0.00     0.275 C 
BRANCH  23  24
ATOM     24  O   UNL A   1      34.956  30.127  27.799  1.00  0.00    -0.458 OA
BRANCH  24  25
ATOM     25  C   UNL A   1      36.083  30.804  28.097  1.00  0.00     0.338 C 
ATOM     26  O   UNL A   1      36.181  32.025  28.027  1.00  0.00    -0.246 OA
BRANCH  25  27
ATOM     27  C   UNL A   1      37.239  29.962  28.424  1.00  0.00     0.060 A 
ATOM     28  C   UNL A   1      37.227  29.212  29.614  1.00  0.00     0.016 A 
ATOM     29  C   UNL A   1      38.250  29.817  27.480  1.00  0.00     0.016 A 
ATOM     30  C   UNL A   1      38.175  28.227  29.817  1.00  0.00     0.010 A 
ATOM     31  C   UNL A   1      39.091  28.749  27.595  1.00  0.00     0.010 A 
ATOM     32  C   UNL A   1      39.098  28.025  28.799  1.00  0.00    -0.014 A 
BRANCH  32  33
ATOM     33  C   UNL A   1      40.393  27.433  29.045  1.00  0.00     0.031 A 
ATOM     34  C   UNL A   1      40.655  26.050  28.645  1.00  0.00     0.074 A 
ATOM     35  C   UNL A   1      41.258  28.431  29.350  1.00  0.00     0.049 A 
ATOM     36  N   UNL A   1      41.645  25.349  29.066  1.00  0.00    -0.248 NA
ATOM     37  C   UNL A   1      39.767  25.285  27.767  1.00  0.00     0.031 C 
ATOM     38  C   UNL A   1      42.690  28.576  29.208  1.00  0.00     0.029 A 
ATOM     39  N   UNL A   1      40.869  29.645  29.965  1.00  0.00    -0.354 N 
ATOM     40  C   UNL A   1      41.771  24.292  28.182  1.00  0.00     0.074 A 
ATOM     41  C   UNL A   1      40.480  24.172  27.559  1.00  0.00     0.031 C 
ATOM     42  C   UNL A   1      43.094  29.594  30.000  1.00  0.00     0.029 A 
ATOM     43  C   UNL A   1      41.934  30.035  30.773  1.00  0.00     0.049 A 
ATOM     44  H   UNL A   1      40.015  30.121  29.844  1.00  0.00     0.167 HD
ATOM     45  C   UNL A   1      43.034  23.853  27.894  1.00  0.00     0.037 A 
ATOM     46  C   UNL A   1      41.764  29.886  32.121  1.00  0.00     0.037 A 
ATOM     47  C   UNL A   1      43.993  24.641  28.673  1.00  0.00     0.049 A 
ATOM     48  C   UNL A   1      42.661  28.777  32.611  1.00  0.00     0.074 A 
ATOM     49  C   UNL A   1      44.739  25.758  28.332  1.00  0.00     0.029 A 
ATOM     50  N   UNL A   1      43.948  24.604  30.062  1.00  0.00    -0.354 N 
ATOM     51  N   UNL A   1      42.921  27.687  31.939  1.00  0.00    -0.248 NA
ATOM     52  C   UNL A   1      43.432  28.896  33.840  1.00  0.00     0.031 C 
ATOM     53  C   UNL A   1      45.082  26.434  29.531  1.00  0.00     0.029 A 
ATOM     54  C   UNL A   1      44.517  25.748  30.593  1.00  0.00     0.049 A 
ATOM     55  H   UNL A   1      43.564  23.869  30.593  1.00  0.00     0.167 HD
ATOM     56  C   UNL A   1      43.953  27.030  32.554  1.00  0.00     0.074 A 
ATOM     57  C   UNL A   1      44.208  27.804  33.759  1.00  0.00     0.031 C 
ATOM     58  C   UNL A   1      44.588  25.941  32.030  1.00  0.00     0.037 A 
BRANCH  45  59
ATOM     59  C   UNL A   1      43.446  23.033  26.682  1.00  0.00     0.064 A 
ATOM     60  C   UNL A   1      43.198  21.639  26.652  1.00  0.00     0.173 A 
ATOM     61  C   UNL A   1      44.104  23.528  25.540  1.00  0.00     0.173 A 
ATOM     62  F   UNL A   1      42.494  21.029  27.613  1.00  0.00    -0.203 F 
ATOM     63  C   UNL A   1      43.653  20.806  25.626  1.00  0.00     0.198 A 
ATOM     64  C   UNL A   1      44.578  22.690  24.519  1.00  0.00     0.198 A 
ATOM     65  F   UNL A   1      44.269  24.840  25.339  1.00  0.00    -0.203 F 
ATOM     66  F   UNL A   1      43.400  19.491  25.678  1.00  0.00    -0.200 F 
ATOM     67  C   UNL A   1      44.362  21.327  24.568  1.00  0.00     0.200 A 
ATOM     68  F   UNL A   1      45.239  23.217  23.478  1.00  0.00    -0.200 F 
ATOM     69  F   UNL A   1      44.808  20.529  23.589  1.00  0.00    -0.200 F 
ENDBRANCH  45  59
BRANCH  46  70
ATOM     70  C   UNL A   1      40.359  30.157  32.590  1.00  0.00     0.064 A 
ATOM     71  C   UNL A   1      39.857  31.478  32.491  1.00  0.00     0.173 A 
ATOM     72  C   UNL A   1      39.420  29.151  32.852  1.00  0.00     0.173 A 
ATOM     73  F   UNL A   1      40.696  32.497  32.242  1.00  0.00    -0.203 F 
ATOM     74  C   UNL A   1      38.490  31.760  32.545  1.00  0.00     0.198 A 
ATOM     75  C   UNL A   1      38.049  29.440  32.927  1.00  0.00     0.198 A 
ATOM     76  F   UNL A   1      39.803  27.872  32.959  1.00  0.00    -0.203 F 
ATOM     77  F   UNL A   1      38.055  33.010  32.332  1.00  0.00    -0.200 F 
ATOM     78  C   UNL A   1      37.585  30.736  32.750  1.00  0.00     0.200 A 
ATOM     79  F   UNL A   1      37.162  28.446  33.087  1.00  0.00    -0.200 F 
ATOM     80  F   UNL A   1      36.267  30.985  32.724  1.00  0.00    -0.200 F 
ENDBRANCH  46  70
BRANCH  58  81
ATOM     81  C   UNL A   1      45.454  24.998  32.820  1.00  0.00     0.064 A 
ATOM     82  C   UNL A   1      46.771  25.306  33.192  1.00  0.00     0.173 A 
ATOM     83  C   UNL A   1      44.909  23.825  33.394  1.00  0.00     0.173 A 
ATOM     84  F   UNL A   1      47.351  26.457  32.825  1.00  0.00    -0.203 F 
ATOM     85  C   UNL A   1      47.517  24.460  34.010  1.00  0.00     0.198 A 
ATOM     86  C   UNL A   1      45.629  23.028  34.276  1.00  0.00     0.198 A 
ATOM     87  F   UNL A   1      43.649  23.432  33.149  1.00  0.00    -0.203 F 
ATOM     88  F   UNL A   1      48.792  24.766  34.284  1.00  0.00    -0.200 F 
ATOM     89  C   UNL A   1      46.942  23.333  34.564  1.00  0.00     0.200 A 
ATOM     90  F   UNL A   1      45.035  21.979  34.861  1.00  0.00    -0.200 F 
ATOM     91  F   UNL A   1      47.647  22.553  35.393  1.00  0.00    -0.200 F 
ENDBRANCH  58  81
ENDBRANCH  32  33
ENDBRANCH  25  27
ENDBRANCH  24  25
ENDBRANCH  23  24
ENDBRANCH   1  23
TORSDOF 14
ENDMDL
MODEL 3
REMARK VINA RESULT:     -13.1      1.250      1.571
REMARK SMILES Cc1ccc(C(=O)OCCOC(=O)c2ccc(-c3c4nc(c(-c5c(F)c(F)c(F)c(F)c5F)c5ccc([nH]5)c(-c5c(F)c(F)c(F)c(F)c5F)c5nc(c(-c6c(F)c(F)c(F)c(F)c6F)c6ccc3[nH]6)C=C5)C=C4)cc2)cc1S(=O)(=O)C[C@@H]1C[C@H]2CC[C@@H]1C2
REMARK SMILES IDX 9 1 8 2 6 3 7 4 5 5 1 6 2 7 3 8 78 9 4 10 77 11 79 12 80 13
REMARK SMILES IDX 81 14 82 15 83 16 84 17 88 18 85 19 87 20 89 21 86 22 10 23
REMARK SMILES IDX 11 24 12 25 13 26 14 27 15 28 76 29 16 30 75 31 17 32 18 33
REMARK SMILES IDX 19 34 69 35 20 36 74 37 68 38 70 39 21 40 73 41 67 42 66 43
REMARK SMILES IDX 22 45 54 46 34 47 53 48 35 49 38 50 52 51 71 52 36 53 37 54
REMARK SMILES IDX 51 56 72 57 39 58 23 59 24 60 32 61 25 62 26 63 30 64 33 65
REMARK SMILES IDX 27 66 28 67 31 68 29 69 55 70 56 71 64 72 57 73 58 74 62 75
REMARK SMILES IDX 65 76 59 77 60 78 63 79 61 80 40 81 41 82 49 83 42 84 43 85
REMARK SMILES IDX 47 86 50 87 44 88 45 89 48 90 46 91
REMARK H PARENT 70 44 38 55
REMARK Flexibility Score: inf
ROOT
ATOM      1  C   UNL A   1      37.276  21.199  25.471  1.00  0.00     0.275 C 
ENDROOT
BRANCH   1   2
ATOM      2  O   UNL A   1      36.001  21.676  25.911  1.00  0.00    -0.458 OA
BRANCH   2   3
ATOM      3  C   UNL A   1      34.981  21.308  25.087  1.00  0.00     0.338 C 
ATOM      4  O   UNL A   1      34.704  20.164  24.762  1.00  0.00    -0.246 OA
BRANCH   3   5
ATOM      5  C   UNL A   1      34.259  22.487  24.557  1.00  0.00     0.061 A 
ATOM      6  C   UNL A   1      31.767  25.503  22.793  1.00  0.00     0.046 C 
ATOM      7  C   UNL A   1      32.650  24.591  23.581  1.00  0.00    -0.032 A 
ATOM      8  C   UNL A   1      33.715  24.059  22.821  1.00  0.00     0.005 A 
ATOM      9  C   UNL A   1      32.481  24.143  24.900  1.00  0.00     0.071 A 
ATOM     10  C   UNL A   1      34.469  22.983  23.277  1.00  0.00     0.016 A 
ATOM     11  C   UNL A   1      33.313  23.103  25.377  1.00  0.00     0.036 A 
BRANCH   9  12
ATOM     12  S   UNL A   1      31.197  24.575  26.072  1.00  0.00     0.178 S 
ATOM     13  O   UNL A   1      30.003  23.936  25.546  1.00  0.00    -0.224 OA
ATOM     14  O   UNL A   1      31.712  24.166  27.372  1.00  0.00    -0.224 OA
BRANCH  12  15
ATOM     15  C   UNL A   1      30.825  26.297  26.230  1.00  0.00     0.146 C 
BRANCH  15  16
ATOM     16  C   UNL A   1      31.989  27.187  26.661  1.00  0.00     0.008 C 
ATOM     17  C   UNL A   1      31.564  28.292  27.669  1.00  0.00     0.008 C 
ATOM     18  C   UNL A   1      32.575  28.047  25.513  1.00  0.00    -0.007 C 
ATOM     19  C   UNL A   1      32.137  29.580  27.051  1.00  0.00    -0.011 C 
ATOM     20  C   UNL A   1      33.979  28.496  25.935  1.00  0.00     0.004 C 
ATOM     21  C   UNL A   1      31.796  29.359  25.584  1.00  0.00     0.007 C 
ATOM     22  C   UNL A   1      33.677  29.514  27.042  1.00  0.00     0.004 C 
ENDBRANCH  15  16
ENDBRANCH  12  15
ENDBRANCH   9  12
ENDBRANCH   3   5
ENDBRANCH   2   3
ENDBRANCH   1   2
BRANCH   1  23
ATOM     23  C   UNL A   1      38.362  22.289  25.429  1.00  0.00     0.275 C 
BRANCH  23  24
ATOM     24  O   UNL A   1      38.562  23.258  26.502  1.00  0.00    -0.458 OA
BRANCH  24  25
ATOM     25  C   UNL A   1      39.743  23.579  27.067  1.00  0.00     0.338 C 
ATOM     26  O   UNL A   1      40.639  22.768  27.278  1.00  0.00    -0.246 OA
BRANCH  25  27
ATOM     27  C   UNL A   1      39.854  24.973  27.511  1.00  0.00     0.060 A 
ATOM     28  C   UNL A   1      40.331  25.944  26.611  1.00  0.00     0.016 A 
ATOM     29  C   UNL A   1      39.348  25.320  28.759  1.00  0.00     0.016 A 
ATOM     30  C   UNL A   1      40.204  27.286  26.915  1.00  0.00     0.010 A 
ATOM     31  C   UNL A   1      39.075  26.635  29.001  1.00  0.00     0.010 A 
ATOM     32  C   UNL A   1      39.583  27.601  28.117  1.00  0.00    -0.014 A 
BRANCH  32  33
ATOM     33  C   UNL A   1      39.816  28.856  28.794  1.00  0.00     0.031 A 
ATOM     34  C   UNL A   1      38.816  29.923  28.724  1.00  0.00     0.074 A 
ATOM     35  C   UNL A   1      40.846  28.681  29.656  1.00  0.00     0.049 A 
ATOM     36  N   UNL A   1      39.042  31.148  29.035  1.00  0.00    -0.248 NA
ATOM     37  C   UNL A   1      37.456  29.719  28.222  1.00  0.00     0.031 C 
ATOM     38  C   UNL A   1      41.214  29.325  30.898  1.00  0.00     0.029 A 
ATOM     39  N   UNL A   1      41.886  27.743  29.456  1.00  0.00    -0.354 N 
ATOM     40  C   UNL A   1      37.801  31.731  29.225  1.00  0.00     0.074 A 
ATOM     41  C   UNL A   1      36.882  30.896  28.500  1.00  0.00     0.031 C 
ATOM     42  C   UNL A   1      42.510  29.038  31.156  1.00  0.00     0.029 A 
ATOM     43  C   UNL A   1      43.035  28.309  30.003  1.00  0.00     0.049 A 
ATOM     44  H   UNL A   1      41.813  26.864  29.018  1.00  0.00     0.167 HD
ATOM     45  C   UNL A   1      37.688  32.676  30.207  1.00  0.00     0.037 A 
ATOM     46  C   UNL A   1      43.968  28.772  29.117  1.00  0.00     0.037 A 
ATOM     47  C   UNL A   1      39.003  32.870  30.825  1.00  0.00     0.049 A 
ATOM     48  C   UNL A   1      43.999  30.278  29.177  1.00  0.00     0.074 A 
ATOM     49  C   UNL A   1      39.556  32.325  31.973  1.00  0.00     0.029 A 
ATOM     50  N   UNL A   1      40.065  33.331  30.054  1.00  0.00    -0.354 N 
ATOM     51  N   UNL A   1      42.944  31.031  29.350  1.00  0.00    -0.248 NA
ATOM     52  C   UNL A   1      45.249  31.024  29.181  1.00  0.00     0.031 C 
ATOM     53  C   UNL A   1      40.967  32.398  31.852  1.00  0.00     0.029 A 
ATOM     54  C   UNL A   1      41.270  32.955  30.621  1.00  0.00     0.049 A 
ATOM     55  H   UNL A   1      39.973  33.851  29.224  1.00  0.00     0.167 HD
ATOM     56  C   UNL A   1      43.359  32.311  29.607  1.00  0.00     0.074 A 
ATOM     57  C   UNL A   1      44.804  32.262  29.449  1.00  0.00     0.031 C 
ATOM     58  C   UNL A   1      42.527  33.322  29.996  1.00  0.00     0.037 A 
BRANCH  45  59
ATOM     59  C   UNL A   1      36.400  33.130  30.874  1.00  0.00     0.064 A 
ATOM     60  C   UNL A   1      35.521  34.008  30.193  1.00  0.00     0.173 A 
ATOM     61  C   UNL A   1      35.975  32.777  32.169  1.00  0.00     0.173 A 
ATOM     62  F   UNL A   1      35.727  34.360  28.918  1.00  0.00    -0.203 F 
ATOM     63  C   UNL A   1      34.382  34.558  30.787  1.00  0.00     0.198 A 
ATOM     64  C   UNL A   1      34.842  33.344  32.773  1.00  0.00     0.198 A 
ATOM     65  F   UNL A   1      36.604  31.836  32.881  1.00  0.00    -0.203 F 
ATOM     66  F   UNL A   1      33.610  35.401  30.087  1.00  0.00    -0.200 F 
ATOM     67  C   UNL A   1      34.051  34.242  32.086  1.00  0.00     0.200 A 
ATOM     68  F   UNL A   1      34.515  33.001  34.028  1.00  0.00    -0.200 F 
ATOM     69  F   UNL A   1      32.965  34.776  32.661  1.00  0.00    -0.200 F 
ENDBRANCH  45  59
BRANCH  46  70
ATOM     70  C   UNL A   1      44.091  27.935  27.871  1.00  0.00     0.064 A 
ATOM     71  C   UNL A   1      44.542  26.597  27.998  1.00  0.00     0.173 A 
ATOM     72  C   UNL A   1      43.529  28.289  26.639  1.00  0.00     0.173 A 
ATOM     73  F   UNL A   1      45.095  26.183  29.150  1.00  0.00    -0.203 F 
ATOM     74  C   UNL A   1      44.344  25.649  26.993  1.00  0.00     0.198 A 
ATOM     75  C   UNL A   1      43.351  27.339  25.622  1.00  0.00     0.198 A 
ATOM     76  F   UNL A   1      43.073  29.532  26.429  1.00  0.00    -0.203 F 
ATOM     77  F   UNL A   1      44.684  24.369  27.203  1.00  0.00    -0.200 F 
ATOM     78  C   UNL A   1      43.736  26.018  25.808  1.00  0.00     0.200 A 
ATOM     79  F   UNL A   1      42.726  27.681  24.486  1.00  0.00    -0.200 F 
ATOM     80  F   UNL A   1      43.469  25.097  24.870  1.00  0.00    -0.200 F 
ENDBRANCH  46  70
BRANCH  58  81
ATOM     81  C   UNL A   1      42.876  34.783  29.933  1.00  0.00     0.064 A 
ATOM     82  C   UNL A   1      43.367  35.496  31.038  1.00  0.00     0.173 A 
ATOM     83  C   UNL A   1      42.906  35.467  28.694  1.00  0.00     0.173 A 
ATOM     84  F   UNL A   1      43.518  34.915  32.235  1.00  0.00    -0.203 F 
ATOM     85  C   UNL A   1      43.780  36.822  30.927  1.00  0.00     0.198 A 
ATOM     86  C   UNL A   1      43.396  36.761  28.574  1.00  0.00     0.198 A 
ATOM     87  F   UNL A   1      42.497  34.890  27.554  1.00  0.00    -0.203 F 
ATOM     88  F   UNL A   1      44.180  37.480  32.024  1.00  0.00    -0.200 F 
ATOM     89  C   UNL A   1      43.809  37.448  29.695  1.00  0.00     0.200 A 
ATOM     90  F   UNL A   1      43.487  37.329  27.363  1.00  0.00    -0.200 F 
ATOM     91  F   UNL A   1      44.258  38.705  29.588  1.00  0.00    -0.200 F 
ENDBRANCH  58  81
ENDBRANCH  32  33
ENDBRANCH  25  27
ENDBRANCH  24  25
ENDBRANCH  23  24
ENDBRANCH   1  23
TORSDOF 14
ENDMDL
