MODEL 1
REMARK VINA RESULT:     -10.7      0.000      0.000
REMARK SMILES CC(C)N1C[C@@H](C(=O)N[C@@H](C)CC(=O)OCCOC(=O)c2ccc(-c3c4nc(c(-c5c(F)c(F)c(F)c(F)c5F)c5ccc([nH]5)c(-c5c(F)c(F)c(F)c(F)c5F)c5nc(c(-c6c(F)c(F)c(F)c(F)c6F)c6ccc3[nH]6)C=C5)C=C4)cc2)CC1=O
REMARK SMILES IDX 16 1 15 2 13 3 14 4 12 5 10 6 11 7 9 8 7 9 8 10 6 12 4 13
REMARK SMILES IDX 5 14 85 15 84 16 86 17 2 18 1 19 3 20 17 21 18 22 19 23
REMARK SMILES IDX 20 24 21 25 22 26 83 27 23 28 82 29 24 30 25 31 26 32 76 33
REMARK SMILES IDX 27 34 81 35 75 36 77 37 28 38 80 39 74 40 73 41 29 43 61 44
REMARK SMILES IDX 41 45 60 46 42 47 45 48 59 49 78 50 43 51 44 52 58 54 79 55
REMARK SMILES IDX 46 56 30 57 31 58 39 59 32 60 33 61 37 62 40 63 34 64 35 65
REMARK SMILES IDX 38 66 36 67 62 68 63 69 71 70 64 71 65 72 69 73 72 74 66 75
REMARK SMILES IDX 67 76 70 77 68 78 47 79 48 80 56 81 49 82 50 83 54 84 57 85
REMARK SMILES IDX 51 86 52 87 55 88 53 89
REMARK H PARENT 9 11 77 42 45 53
REMARK Flexibility Score: inf
ROOT
ATOM      1  C   UNL A   1      41.768  19.478  26.414  1.00  0.00     0.274 C 
ENDROOT
BRANCH   1   2
ATOM      2  O   UNL A   1      41.998  20.727  27.100  1.00  0.00    -0.462 OA
BRANCH   2   3
ATOM      3  C   UNL A   1      41.558  21.843  26.465  1.00  0.00     0.307 C 
ATOM      4  O   UNL A   1      41.976  22.239  25.381  1.00  0.00    -0.252 OA
BRANCH   3   5
ATOM      5  C   UNL A   1      40.555  22.630  27.270  1.00  0.00     0.147 C 
BRANCH   5   6
ATOM      6  C   UNL A   1      39.340  23.235  26.537  1.00  0.00     0.090 C 
ATOM      7  C   UNL A   1      38.796  24.353  27.443  1.00  0.00     0.031 C 
BRANCH   6   8
ATOM      8  N   UNL A   1      38.296  22.233  26.313  1.00  0.00    -0.353 N 
ATOM      9  C   UNL A   1      37.096  22.236  25.684  1.00  0.00     0.225 C 
ATOM     10  O   UNL A   1      36.490  21.156  25.700  1.00  0.00    -0.275 OA
ATOM     11  H   UNL A   1      38.515  21.359  26.711  1.00  0.00     0.163 HD
BRANCH   9  12
ATOM     12  C   UNL A   1      36.466  23.404  24.943  1.00  0.00     0.107 C 
ATOM     13  N   UNL A   1      34.504  24.663  24.675  1.00  0.00    -0.339 N 
ATOM     14  C   UNL A   1      35.347  24.089  25.705  1.00  0.00     0.133 C 
ATOM     15  C   UNL A   1      34.786  24.145  23.421  1.00  0.00     0.223 C 
ATOM     16  C   UNL A   1      35.920  23.167  23.545  1.00  0.00     0.115 C 
ATOM     17  O   UNL A   1      34.187  24.388  22.383  1.00  0.00    -0.275 OA
BRANCH  13  18
ATOM     18  C   UNL A   1      33.348  25.531  24.910  1.00  0.00     0.078 C 
ATOM     19  C   UNL A   1      32.549  25.083  26.135  1.00  0.00     0.031 C 
ATOM     20  C   UNL A   1      33.703  27.011  25.030  1.00  0.00     0.031 C 
ENDBRANCH  13  18
ENDBRANCH   9  12
ENDBRANCH   6   8
ENDBRANCH   5   6
ENDBRANCH   3   5
ENDBRANCH   2   3
ENDBRANCH   1   2
BRANCH   1  21
ATOM     21  C   UNL A   1      43.041  18.885  25.790  1.00  0.00     0.275 C 
BRANCH  21  22
ATOM     22  O   UNL A   1      43.398  19.474  24.521  1.00  0.00    -0.458 OA
BRANCH  22  23
ATOM     23  C   UNL A   1      44.719  19.699  24.383  1.00  0.00     0.338 C 
ATOM     24  O   UNL A   1      45.559  18.885  24.032  1.00  0.00    -0.246 OA
BRANCH  23  25
ATOM     25  C   UNL A   1      45.146  21.063  24.694  1.00  0.00     0.060 A 
ATOM     26  C   UNL A   1      45.505  21.316  26.024  1.00  0.00     0.016 A 
ATOM     27  C   UNL A   1      44.951  22.106  23.787  1.00  0.00     0.016 A 
ATOM     28  C   UNL A   1      45.643  22.624  26.465  1.00  0.00     0.010 A 
ATOM     29  C   UNL A   1      45.091  23.422  24.233  1.00  0.00     0.010 A 
ATOM     30  C   UNL A   1      45.420  23.681  25.574  1.00  0.00    -0.014 A 
BRANCH  30  31
ATOM     31  C   UNL A   1      45.613  25.061  26.054  1.00  0.00     0.031 A 
ATOM     32  C   UNL A   1      46.951  25.724  25.989  1.00  0.00     0.074 A 
ATOM     33  C   UNL A   1      44.532  25.717  26.506  1.00  0.00     0.049 A 
ATOM     34  N   UNL A   1      47.286  26.935  26.359  1.00  0.00    -0.248 NA
ATOM     35  C   UNL A   1      48.059  24.933  25.433  1.00  0.00     0.031 C 
ATOM     36  C   UNL A   1      43.180  25.157  26.569  1.00  0.00     0.029 A 
ATOM     37  N   UNL A   1      44.397  26.987  26.994  1.00  0.00    -0.354 N 
ATOM     38  C   UNL A   1      48.637  27.057  26.072  1.00  0.00     0.074 A 
ATOM     39  C   UNL A   1      49.069  25.791  25.514  1.00  0.00     0.031 C 
ATOM     40  C   UNL A   1      42.352  26.078  27.084  1.00  0.00     0.029 A 
ATOM     41  C   UNL A   1      43.120  27.278  27.400  1.00  0.00     0.049 A 
ATOM     42  H   UNL A   1      45.141  27.629  27.049  1.00  0.00     0.167 HD
ATOM     43  C   UNL A   1      49.435  28.136  26.258  1.00  0.00     0.037 A 
ATOM     44  C   UNL A   1      42.629  28.387  27.977  1.00  0.00     0.037 A 
ATOM     45  C   UNL A   1      48.992  29.383  26.827  1.00  0.00     0.049 A 
ATOM     46  C   UNL A   1      43.541  29.556  28.197  1.00  0.00     0.074 A 
ATOM     47  C   UNL A   1      49.726  30.531  27.077  1.00  0.00     0.029 A 
ATOM     48  N   UNL A   1      47.692  29.644  27.235  1.00  0.00    -0.354 N 
ATOM     49  N   UNL A   1      44.820  29.662  27.929  1.00  0.00    -0.248 NA
ATOM     50  C   UNL A   1      42.943  30.760  28.784  1.00  0.00     0.031 C 
ATOM     51  C   UNL A   1      48.873  31.478  27.659  1.00  0.00     0.029 A 
ATOM     52  C   UNL A   1      47.603  30.931  27.742  1.00  0.00     0.049 A 
ATOM     53  H   UNL A   1      46.942  29.009  27.173  1.00  0.00     0.167 HD
ATOM     54  C   UNL A   1      45.182  30.945  28.305  1.00  0.00     0.074 A 
ATOM     55  C   UNL A   1      43.980  31.586  28.807  1.00  0.00     0.031 C 
ATOM     56  C   UNL A   1      46.397  31.540  28.242  1.00  0.00     0.037 A 
BRANCH  43  57
ATOM     57  C   UNL A   1      50.873  28.014  25.854  1.00  0.00     0.064 A 
ATOM     58  C   UNL A   1      51.867  27.686  26.788  1.00  0.00     0.173 A 
ATOM     59  C   UNL A   1      51.252  28.163  24.513  1.00  0.00     0.173 A 
ATOM     60  F   UNL A   1      51.553  27.540  28.083  1.00  0.00    -0.203 F 
ATOM     61  C   UNL A   1      53.193  27.520  26.392  1.00  0.00     0.198 A 
ATOM     62  C   UNL A   1      52.575  27.981  24.118  1.00  0.00     0.198 A 
ATOM     63  F   UNL A   1      50.336  28.472  23.582  1.00  0.00    -0.203 F 
ATOM     64  F   UNL A   1      54.130  27.222  27.302  1.00  0.00    -0.200 F 
ATOM     65  C   UNL A   1      53.544  27.660  25.057  1.00  0.00     0.200 A 
ATOM     66  F   UNL A   1      52.912  28.108  22.827  1.00  0.00    -0.200 F 
ATOM     67  F   UNL A   1      54.817  27.487  24.676  1.00  0.00    -0.200 F 
ENDBRANCH  43  57
BRANCH  44  68
ATOM     68  C   UNL A   1      41.203  28.418  28.374  1.00  0.00     0.064 A 
ATOM     69  C   UNL A   1      40.796  27.983  29.640  1.00  0.00     0.173 A 
ATOM     70  C   UNL A   1      40.231  28.951  27.515  1.00  0.00     0.173 A 
ATOM     71  F   UNL A   1      41.691  27.456  30.487  1.00  0.00    -0.203 F 
ATOM     72  C   UNL A   1      39.463  28.081  30.035  1.00  0.00     0.198 A 
ATOM     73  C   UNL A   1      38.904  29.067  27.918  1.00  0.00     0.198 A 
ATOM     74  F   UNL A   1      40.579  29.389  26.296  1.00  0.00    -0.203 F 
ATOM     75  F   UNL A   1      39.093  27.646  31.247  1.00  0.00    -0.200 F 
ATOM     76  C   UNL A   1      38.521  28.630  29.177  1.00  0.00     0.200 A 
ATOM     77  F   UNL A   1      38.000  29.614  27.094  1.00  0.00    -0.200 F 
ATOM     78  F   UNL A   1      37.243  28.742  29.566  1.00  0.00    -0.200 F 
ENDBRANCH  44  68
BRANCH  56  79
ATOM     79  C   UNL A   1      46.475  32.955  28.723  1.00  0.00     0.064 A 
ATOM     80  C   UNL A   1      46.281  34.032  27.847  1.00  0.00     0.173 A 
ATOM     81  C   UNL A   1      46.740  33.234  30.070  1.00  0.00     0.173 A 
ATOM     82  F   UNL A   1      46.043  33.809  26.545  1.00  0.00    -0.203 F 
ATOM     83  C   UNL A   1      46.370  35.344  28.300  1.00  0.00     0.198 A 
ATOM     84  C   UNL A   1      46.811  34.548  30.524  1.00  0.00     0.198 A 
ATOM     85  F   UNL A   1      46.933  32.235  30.943  1.00  0.00    -0.203 F 
ATOM     86  F   UNL A   1      46.222  36.360  27.441  1.00  0.00    -0.200 F 
ATOM     87  C   UNL A   1      46.632  35.601  29.639  1.00  0.00     0.200 A 
ATOM     88  F   UNL A   1      47.062  34.796  31.817  1.00  0.00    -0.200 F 
ATOM     89  F   UNL A   1      46.724  36.865  30.073  1.00  0.00    -0.200 F 
ENDBRANCH  56  79
ENDBRANCH  30  31
ENDBRANCH  23  25
ENDBRANCH  22  23
ENDBRANCH  21  22
ENDBRANCH   1  21
TORSDOF 15
ENDMDL
MODEL 2
REMARK VINA RESULT:     -10.6      3.329      6.846
REMARK SMILES CC(C)N1C[C@@H](C(=O)N[C@@H](C)CC(=O)OCCOC(=O)c2ccc(-c3c4nc(c(-c5c(F)c(F)c(F)c(F)c5F)c5ccc([nH]5)c(-c5c(F)c(F)c(F)c(F)c5F)c5nc(c(-c6c(F)c(F)c(F)c(F)c6F)c6ccc3[nH]6)C=C5)C=C4)cc2)CC1=O
REMARK SMILES IDX 16 1 15 2 13 3 14 4 12 5 10 6 11 7 9 8 7 9 8 10 6 12 4 13
REMARK SMILES IDX 5 14 85 15 84 16 86 17 2 18 1 19 3 20 17 21 18 22 19 23
REMARK SMILES IDX 20 24 21 25 22 26 83 27 23 28 82 29 24 30 25 31 26 32 76 33
REMARK SMILES IDX 27 34 81 35 75 36 77 37 28 38 80 39 74 40 73 41 29 43 61 44
REMARK SMILES IDX 41 45 60 46 42 47 45 48 59 49 78 50 43 51 44 52 58 54 79 55
REMARK SMILES IDX 46 56 30 57 31 58 39 59 32 60 33 61 37 62 40 63 34 64 35 65
REMARK SMILES IDX 38 66 36 67 62 68 63 69 71 70 64 71 65 72 69 73 72 74 66 75
REMARK SMILES IDX 67 76 70 77 68 78 47 79 48 80 56 81 49 82 50 83 54 84 57 85
REMARK SMILES IDX 51 86 52 87 55 88 53 89
REMARK H PARENT 9 11 77 42 45 53
REMARK Flexibility Score: inf
ROOT
ATOM      1  C   UNL A   1      41.282  19.816  26.582  1.00  0.00     0.274 C 
ENDROOT
BRANCH   1   2
ATOM      2  O   UNL A   1      41.975  19.386  25.390  1.00  0.00    -0.462 OA
BRANCH   2   3
ATOM      3  C   UNL A   1      43.134  18.707  25.590  1.00  0.00     0.307 C 
ATOM      4  O   UNL A   1      43.338  17.936  26.522  1.00  0.00    -0.252 OA
BRANCH   3   5
ATOM      5  C   UNL A   1      44.213  19.068  24.600  1.00  0.00     0.147 C 
BRANCH   5   6
ATOM      6  C   UNL A   1      44.909  20.437  24.742  1.00  0.00     0.090 C 
ATOM      7  C   UNL A   1      46.404  20.146  24.961  1.00  0.00     0.031 C 
BRANCH   6   8
ATOM      8  N   UNL A   1      44.383  21.189  25.884  1.00  0.00    -0.353 N 
ATOM      9  C   UNL A   1      44.389  22.494  26.244  1.00  0.00     0.225 C 
ATOM     10  O   UNL A   1      43.812  22.750  27.310  1.00  0.00    -0.275 OA
ATOM     11  H   UNL A   1      43.922  20.615  26.538  1.00  0.00     0.163 HD
BRANCH   9  12
ATOM     12  C   UNL A   1      44.986  23.648  25.455  1.00  0.00     0.107 C 
ATOM     13  N   UNL A   1      46.532  25.413  25.524  1.00  0.00    -0.339 N 
ATOM     14  C   UNL A   1      46.402  24.010  25.864  1.00  0.00     0.133 C 
ATOM     15  C   UNL A   1      45.305  26.005  25.274  1.00  0.00     0.223 C 
ATOM     16  C   UNL A   1      44.229  24.965  25.408  1.00  0.00     0.115 C 
ATOM     17  O   UNL A   1      45.103  27.188  25.038  1.00  0.00    -0.275 OA
BRANCH  13  18
ATOM     18  C   UNL A   1      47.765  26.199  25.619  1.00  0.00     0.078 C 
ATOM     19  C   UNL A   1      48.803  25.510  26.505  1.00  0.00     0.031 C 
ATOM     20  C   UNL A   1      48.380  26.547  24.266  1.00  0.00     0.031 C 
ENDBRANCH  13  18
ENDBRANCH   9  12
ENDBRANCH   6   8
ENDBRANCH   5   6
ENDBRANCH   3   5
ENDBRANCH   2   3
ENDBRANCH   1   2
BRANCH   1  21
ATOM     21  C   UNL A   1      40.037  20.666  26.285  1.00  0.00     0.275 C 
BRANCH  21  22
ATOM     22  O   UNL A   1      40.310  22.079  26.167  1.00  0.00    -0.458 OA
BRANCH  22  23
ATOM     23  C   UNL A   1      39.204  22.848  26.217  1.00  0.00     0.338 C 
ATOM     24  O   UNL A   1      38.086  22.532  25.842  1.00  0.00    -0.246 OA
BRANCH  23  25
ATOM     25  C   UNL A   1      39.407  24.181  26.783  1.00  0.00     0.060 A 
ATOM     26  C   UNL A   1      40.147  25.082  26.006  1.00  0.00     0.016 A 
ATOM     27  C   UNL A   1      39.116  24.451  28.121  1.00  0.00     0.016 A 
ATOM     28  C   UNL A   1      40.627  26.252  26.575  1.00  0.00     0.010 A 
ATOM     29  C   UNL A   1      39.601  25.629  28.692  1.00  0.00     0.010 A 
ATOM     30  C   UNL A   1      40.369  26.520  27.925  1.00  0.00    -0.014 A 
BRANCH  30  31
ATOM     31  C   UNL A   1      40.854  27.789  28.498  1.00  0.00     0.031 A 
ATOM     32  C   UNL A   1      42.305  28.006  28.785  1.00  0.00     0.074 A 
ATOM     33  C   UNL A   1      39.950  28.760  28.708  1.00  0.00     0.049 A 
ATOM     34  N   UNL A   1      42.894  29.066  29.278  1.00  0.00    -0.248 NA
ATOM     35  C   UNL A   1      43.217  26.896  28.475  1.00  0.00     0.031 C 
ATOM     36  C   UNL A   1      38.518  28.645  28.421  1.00  0.00     0.029 A 
ATOM     37  N   UNL A   1      40.096  30.025  29.206  1.00  0.00    -0.354 N 
ATOM     38  C   UNL A   1      44.246  28.758  29.328  1.00  0.00     0.074 A 
ATOM     39  C   UNL A   1      44.390  27.404  28.834  1.00  0.00     0.031 C 
ATOM     40  C   UNL A   1      37.913  29.791  28.764  1.00  0.00     0.029 A 
ATOM     41  C   UNL A   1      38.911  30.707  29.307  1.00  0.00     0.049 A 
ATOM     42  H   UNL A   1      40.965  30.408  29.466  1.00  0.00     0.167 HD
ATOM     43  C   UNL A   1      45.266  29.544  29.748  1.00  0.00     0.037 A 
ATOM     44  C   UNL A   1      38.659  31.932  29.800  1.00  0.00     0.037 A 
ATOM     45  C   UNL A   1      45.102  30.885  30.249  1.00  0.00     0.049 A 
ATOM     46  C   UNL A   1      39.804  32.769  30.284  1.00  0.00     0.074 A 
ATOM     47  C   UNL A   1      46.069  31.759  30.719  1.00  0.00     0.029 A 
ATOM     48  N   UNL A   1      43.886  31.546  30.346  1.00  0.00    -0.354 N 
ATOM     49  N   UNL A   1      41.079  32.468  30.334  1.00  0.00    -0.248 NA
ATOM     50  C   UNL A   1      39.480  34.117  30.764  1.00  0.00     0.031 C 
ATOM     51  C   UNL A   1      45.433  32.940  31.122  1.00  0.00     0.029 A 
ATOM     52  C   UNL A   1      44.075  32.813  30.875  1.00  0.00     0.049 A 
ATOM     53  H   UNL A   1      43.016  31.170  30.079  1.00  0.00     0.167 HD
ATOM     54  C   UNL A   1      41.714  33.589  30.843  1.00  0.00     0.074 A 
ATOM     55  C   UNL A   1      40.683  34.584  31.071  1.00  0.00     0.031 C 
ATOM     56  C   UNL A   1      43.031  33.779  31.099  1.00  0.00     0.037 A 
BRANCH  43  57
ATOM     57  C   UNL A   1      46.650  28.973  29.694  1.00  0.00     0.064 A 
ATOM     58  C   UNL A   1      47.445  29.094  28.545  1.00  0.00     0.173 A 
ATOM     59  C   UNL A   1      47.210  28.357  30.822  1.00  0.00     0.173 A 
ATOM     60  F   UNL A   1      46.949  29.670  27.440  1.00  0.00    -0.203 F 
ATOM     61  C   UNL A   1      48.751  28.608  28.525  1.00  0.00     0.198 A 
ATOM     62  C   UNL A   1      48.521  27.887  30.804  1.00  0.00     0.198 A 
ATOM     63  F   UNL A   1      46.491  28.223  31.946  1.00  0.00    -0.203 F 
ATOM     64  F   UNL A   1      49.488  28.719  27.412  1.00  0.00    -0.200 F 
ATOM     65  C   UNL A   1      49.290  28.013  29.656  1.00  0.00     0.200 A 
ATOM     66  F   UNL A   1      49.044  27.319  31.900  1.00  0.00    -0.200 F 
ATOM     67  F   UNL A   1      50.550  27.558  29.640  1.00  0.00    -0.200 F 
ENDBRANCH  43  57
BRANCH  44  68
ATOM     68  C   UNL A   1      37.259  32.411  29.845  1.00  0.00     0.064 A 
ATOM     69  C   UNL A   1      36.436  32.136  30.942  1.00  0.00     0.173 A 
ATOM     70  C   UNL A   1      36.744  33.217  28.819  1.00  0.00     0.173 A 
ATOM     71  F   UNL A   1      36.887  31.360  31.939  1.00  0.00    -0.203 F 
ATOM     72  C   UNL A   1      35.144  32.651  31.014  1.00  0.00     0.198 A 
ATOM     73  C   UNL A   1      35.460  33.747  28.900  1.00  0.00     0.198 A 
ATOM     74  F   UNL A   1      37.503  33.515  27.753  1.00  0.00    -0.203 F 
ATOM     75  F   UNL A   1      34.368  32.364  32.067  1.00  0.00    -0.200 F 
ATOM     76  C   UNL A   1      34.660  33.462  29.997  1.00  0.00     0.200 A 
ATOM     77  F   UNL A   1      35.003  34.544  27.925  1.00  0.00    -0.200 F 
ATOM     78  F   UNL A   1      33.424  33.973  30.076  1.00  0.00    -0.200 F 
ENDBRANCH  44  68
BRANCH  56  79
ATOM     79  C   UNL A   1      43.420  35.116  31.647  1.00  0.00     0.064 A 
ATOM     80  C   UNL A   1      43.784  36.171  30.799  1.00  0.00     0.173 A 
ATOM     81  C   UNL A   1      43.421  35.344  33.029  1.00  0.00     0.173 A 
ATOM     82  F   UNL A   1      43.814  35.990  29.470  1.00  0.00    -0.203 F 
ATOM     83  C   UNL A   1      44.158  37.406  31.319  1.00  0.00     0.198 A 
ATOM     84  C   UNL A   1      43.779  36.587  33.546  1.00  0.00     0.198 A 
ATOM     85  F   UNL A   1      43.080  34.363  33.878  1.00  0.00    -0.203 F 
ATOM     86  F   UNL A   1      44.542  38.390  30.496  1.00  0.00    -0.200 F 
ATOM     87  C   UNL A   1      44.152  37.613  32.692  1.00  0.00     0.200 A 
ATOM     88  F   UNL A   1      43.771  36.787  34.871  1.00  0.00    -0.200 F 
ATOM     89  F   UNL A   1      44.519  38.801  33.192  1.00  0.00    -0.200 F 
ENDBRANCH  56  79
ENDBRANCH  30  31
ENDBRANCH  23  25
ENDBRANCH  22  23
ENDBRANCH  21  22
ENDBRANCH   1  21
TORSDOF 15
ENDMDL
MODEL 3
REMARK VINA RESULT:     -10.6      0.281      7.360
REMARK SMILES CC(C)N1C[C@@H](C(=O)N[C@@H](C)CC(=O)OCCOC(=O)c2ccc(-c3c4nc(c(-c5c(F)c(F)c(F)c(F)c5F)c5ccc([nH]5)c(-c5c(F)c(F)c(F)c(F)c5F)c5nc(c(-c6c(F)c(F)c(F)c(F)c6F)c6ccc3[nH]6)C=C5)C=C4)cc2)CC1=O
REMARK SMILES IDX 16 1 15 2 13 3 14 4 12 5 10 6 11 7 9 8 7 9 8 10 6 12 4 13
REMARK SMILES IDX 5 14 85 15 84 16 86 17 2 18 1 19 3 20 17 21 18 22 19 23
REMARK SMILES IDX 20 24 21 25 22 26 83 27 23 28 82 29 24 30 25 31 26 32 76 33
REMARK SMILES IDX 27 34 81 35 75 36 77 37 28 38 80 39 74 40 73 41 29 43 61 44
REMARK SMILES IDX 41 45 60 46 42 47 45 48 59 49 78 50 43 51 44 52 58 54 79 55
REMARK SMILES IDX 46 56 30 57 31 58 39 59 32 60 33 61 37 62 40 63 34 64 35 65
REMARK SMILES IDX 38 66 36 67 62 68 63 69 71 70 64 71 65 72 69 73 72 74 66 75
REMARK SMILES IDX 67 76 70 77 68 78 47 79 48 80 56 81 49 82 50 83 54 84 57 85
REMARK SMILES IDX 51 86 52 87 55 88 53 89
REMARK H PARENT 9 11 77 42 45 53
REMARK Flexibility Score: inf
ROOT
ATOM      1  C   UNL A   1      41.863  19.434  26.583  1.00  0.00     0.274 C 
ENDROOT
BRANCH   1   2
ATOM      2  O   UNL A   1      42.174  20.745  27.104  1.00  0.00    -0.462 OA
BRANCH   2   3
ATOM      3  C   UNL A   1      41.594  21.791  26.463  1.00  0.00     0.307 C 
ATOM      4  O   UNL A   1      41.963  22.236  25.380  1.00  0.00    -0.252 OA
BRANCH   3   5
ATOM      5  C   UNL A   1      40.491  22.441  27.260  1.00  0.00     0.147 C 
BRANCH   5   6
ATOM      6  C   UNL A   1      39.315  23.082  26.494  1.00  0.00     0.090 C 
ATOM      7  C   UNL A   1      38.788  24.223  27.382  1.00  0.00     0.031 C 
BRANCH   6   8
ATOM      8  N   UNL A   1      38.243  22.114  26.250  1.00  0.00    -0.353 N 
ATOM      9  C   UNL A   1      37.038  22.168  25.634  1.00  0.00     0.225 C 
ATOM     10  O   UNL A   1      36.404  21.104  25.622  1.00  0.00    -0.275 OA
ATOM     11  H   UNL A   1      38.444  21.223  26.618  1.00  0.00     0.163 HD
BRANCH   9  12
ATOM     12  C   UNL A   1      36.431  23.374  24.937  1.00  0.00     0.107 C 
ATOM     13  N   UNL A   1      34.504  24.700  24.743  1.00  0.00    -0.339 N 
ATOM     14  C   UNL A   1      35.349  24.073  25.740  1.00  0.00     0.133 C 
ATOM     15  C   UNL A   1      34.746  24.209  23.470  1.00  0.00     0.223 C 
ATOM     16  C   UNL A   1      35.850  23.193  23.545  1.00  0.00     0.115 C 
ATOM     17  O   UNL A   1      34.134  24.497  22.451  1.00  0.00    -0.275 OA
BRANCH  13  18
ATOM     18  C   UNL A   1      33.381  25.598  25.025  1.00  0.00     0.078 C 
ATOM     19  C   UNL A   1      32.440  25.006  26.075  1.00  0.00     0.031 C 
ATOM     20  C   UNL A   1      33.805  27.005  25.435  1.00  0.00     0.031 C 
ENDBRANCH  13  18
ENDBRANCH   9  12
ENDBRANCH   6   8
ENDBRANCH   5   6
ENDBRANCH   3   5
ENDBRANCH   2   3
ENDBRANCH   1   2
BRANCH   1  21
ATOM     21  C   UNL A   1      43.032  18.792  25.821  1.00  0.00     0.275 C 
BRANCH  21  22
ATOM     22  O   UNL A   1      43.375  19.475  24.595  1.00  0.00    -0.458 OA
BRANCH  22  23
ATOM     23  C   UNL A   1      44.696  19.702  24.456  1.00  0.00     0.338 C 
ATOM     24  O   UNL A   1      45.539  18.886  24.118  1.00  0.00    -0.246 OA
BRANCH  23  25
ATOM     25  C   UNL A   1      45.117  21.073  24.745  1.00  0.00     0.060 A 
ATOM     26  C   UNL A   1      45.472  21.349  26.073  1.00  0.00     0.016 A 
ATOM     27  C   UNL A   1      44.921  22.100  23.822  1.00  0.00     0.016 A 
ATOM     28  C   UNL A   1      45.605  22.664  26.492  1.00  0.00     0.010 A 
ATOM     29  C   UNL A   1      45.055  23.424  24.247  1.00  0.00     0.010 A 
ATOM     30  C   UNL A   1      45.380  23.705  25.584  1.00  0.00    -0.014 A 
BRANCH  30  31
ATOM     31  C   UNL A   1      45.567  25.094  26.042  1.00  0.00     0.031 A 
ATOM     32  C   UNL A   1      44.433  25.879  26.619  1.00  0.00     0.074 A 
ATOM     33  C   UNL A   1      46.804  25.611  25.965  1.00  0.00     0.049 A 
ATOM     34  N   UNL A   1      44.434  27.106  27.077  1.00  0.00    -0.248 NA
ATOM     35  C   UNL A   1      43.130  25.203  26.702  1.00  0.00     0.031 C 
ATOM     36  C   UNL A   1      47.975  24.900  25.448  1.00  0.00     0.029 A 
ATOM     37  N   UNL A   1      47.281  26.842  26.317  1.00  0.00    -0.354 N 
ATOM     38  C   UNL A   1      43.140  27.348  27.512  1.00  0.00     0.074 A 
ATOM     39  C   UNL A   1      42.372  26.148  27.246  1.00  0.00     0.031 C 
ATOM     40  C   UNL A   1      49.038  25.716  25.504  1.00  0.00     0.029 A 
ATOM     41  C   UNL A   1      48.614  27.005  26.041  1.00  0.00     0.049 A 
ATOM     42  H   UNL A   1      46.724  27.543  26.729  1.00  0.00     0.167 HD
ATOM     43  C   UNL A   1      42.648  28.473  28.083  1.00  0.00     0.037 A 
ATOM     44  C   UNL A   1      49.402  28.084  26.192  1.00  0.00     0.037 A 
ATOM     45  C   UNL A   1      43.423  29.663  28.327  1.00  0.00     0.049 A 
ATOM     46  C   UNL A   1      48.824  29.325  26.801  1.00  0.00     0.074 A 
ATOM     47  C   UNL A   1      43.014  30.864  28.882  1.00  0.00     0.029 A 
ATOM     48  N   UNL A   1      44.771  29.799  28.029  1.00  0.00    -0.354 N 
ATOM     49  N   UNL A   1      47.597  29.548  27.203  1.00  0.00    -0.248 NA
ATOM     50  C   UNL A   1      49.739  30.456  26.990  1.00  0.00     0.031 C 
ATOM     51  C   UNL A   1      44.111  31.736  28.897  1.00  0.00     0.029 A 
ATOM     52  C   UNL A   1      45.209  31.066  28.380  1.00  0.00     0.049 A 
ATOM     53  H   UNL A   1      45.334  29.099  27.627  1.00  0.00     0.167 HD
ATOM     54  C   UNL A   1      47.590  30.841  27.702  1.00  0.00     0.074 A 
ATOM     55  C   UNL A   1      48.943  31.347  27.565  1.00  0.00     0.031 C 
ATOM     56  C   UNL A   1      46.558  31.546  28.225  1.00  0.00     0.037 A 
BRANCH  43  57
ATOM     57  C   UNL A   1      41.202  28.479  28.474  1.00  0.00     0.064 A 
ATOM     58  C   UNL A   1      40.786  28.041  29.740  1.00  0.00     0.173 A 
ATOM     59  C   UNL A   1      40.229  28.985  27.600  1.00  0.00     0.173 A 
ATOM     60  F   UNL A   1      41.680  27.543  30.607  1.00  0.00    -0.203 F 
ATOM     61  C   UNL A   1      39.445  28.102  30.113  1.00  0.00     0.198 A 
ATOM     62  C   UNL A   1      38.892  29.059  27.982  1.00  0.00     0.198 A 
ATOM     63  F   UNL A   1      40.578  29.420  26.380  1.00  0.00    -0.203 F 
ATOM     64  F   UNL A   1      39.067  27.664  31.322  1.00  0.00    -0.200 F 
ATOM     65  C   UNL A   1      38.501  28.618  29.238  1.00  0.00     0.200 A 
ATOM     66  F   UNL A   1      37.982  29.566  27.138  1.00  0.00    -0.200 F 
ATOM     67  F   UNL A   1      37.214  28.689  29.603  1.00  0.00    -0.200 F 
ENDBRANCH  43  57
BRANCH  44  68
ATOM     68  C   UNL A   1      50.814  28.006  25.753  1.00  0.00     0.064 A 
ATOM     69  C   UNL A   1      51.844  27.783  26.673  1.00  0.00     0.173 A 
ATOM     70  C   UNL A   1      51.148  28.083  24.394  1.00  0.00     0.173 A 
ATOM     71  F   UNL A   1      51.569  27.713  27.984  1.00  0.00    -0.203 F 
ATOM     72  C   UNL A   1      53.163  27.638  26.248  1.00  0.00     0.198 A 
ATOM     73  C   UNL A   1      52.463  27.919  23.968  1.00  0.00     0.198 A 
ATOM     74  F   UNL A   1      50.189  28.287  23.477  1.00  0.00    -0.203 F 
ATOM     75  F   UNL A   1      54.136  27.438  27.146  1.00  0.00    -0.200 F 
ATOM     76  C   UNL A   1      53.469  27.698  24.896  1.00  0.00     0.200 A 
ATOM     77  F   UNL A   1      52.752  27.960  22.660  1.00  0.00    -0.200 F 
ATOM     78  F   UNL A   1      54.735  27.539  24.486  1.00  0.00    -0.200 F 
ENDBRANCH  44  68
BRANCH  56  79
ATOM     79  C   UNL A   1      46.865  32.935  28.691  1.00  0.00     0.064 A 
ATOM     80  C   UNL A   1      46.738  34.034  27.831  1.00  0.00     0.173 A 
ATOM     81  C   UNL A   1      47.281  33.167  30.009  1.00  0.00     0.173 A 
ATOM     82  F   UNL A   1      46.360  33.854  26.557  1.00  0.00    -0.203 F 
ATOM     83  C   UNL A   1      47.040  35.320  28.270  1.00  0.00     0.198 A 
ATOM     84  C   UNL A   1      47.566  34.456  30.449  1.00  0.00     0.198 A 
ATOM     85  F   UNL A   1      47.417  32.144  30.866  1.00  0.00    -0.203 F 
ATOM     86  F   UNL A   1      46.953  36.353  27.422  1.00  0.00    -0.200 F 
ATOM     87  C   UNL A   1      47.451  35.530  29.579  1.00  0.00     0.200 A 
ATOM     88  F   UNL A   1      47.960  34.658  31.714  1.00  0.00    -0.200 F 
ATOM     89  F   UNL A   1      47.748  36.767  29.998  1.00  0.00    -0.200 F 
ENDBRANCH  56  79
ENDBRANCH  30  31
ENDBRANCH  23  25
ENDBRANCH  22  23
ENDBRANCH  21  22
ENDBRANCH   1  21
TORSDOF 15
ENDMDL
