MODEL 1
REMARK VINA RESULT:     -12.8      0.000      0.000
REMARK SMILES CCc1ccc2c(CC(=O)OCCOC(=O)c3ccc(-c4c5nc(c(-c6c(F)c(F)c(F)c(F)c6F)c6ccc([nH]6)c(-c6c(F)c(F)c(F)c(F)c6F)c6nc(c(-c7c(F)c(F)c(F)c(F)c7F)c7ccc4[nH]7)C=C6)C=C5)cc3)c(C(=O)c3cc(C)ccn3)[nH]c2c1
REMARK SMILES IDX 12 1 11 2 9 3 10 4 8 5 7 6 3 7 4 8 92 9 5 10 91 11 6 12
REMARK SMILES IDX 90 13 80 14 2 16 1 17 81 18 82 19 83 20 84 21 89 22 85 23
REMARK SMILES IDX 88 24 86 25 87 26 13 27 14 28 15 29 16 30 17 31 18 32 79 33
REMARK SMILES IDX 19 34 78 35 20 36 21 37 22 38 72 39 23 40 77 41 71 42 73 43
REMARK SMILES IDX 24 44 76 45 70 46 69 47 25 49 57 50 37 51 56 52 38 53 41 54
REMARK SMILES IDX 55 55 74 56 39 57 40 58 54 60 75 61 42 62 26 63 27 64 35 65
REMARK SMILES IDX 28 66 29 67 33 68 36 69 30 70 31 71 34 72 32 73 58 74 59 75
REMARK SMILES IDX 67 76 60 77 61 78 65 79 68 80 62 81 63 82 66 83 64 84 43 85
REMARK SMILES IDX 44 86 52 87 45 88 46 89 50 90 53 91 47 92 48 93 51 94 49 95
REMARK H PARENT 90 15 73 48 41 59
REMARK Flexibility Score: inf
ROOT
ATOM      1  C   UNL A   1      31.833  28.309  26.987  1.00  0.00     0.274 C 
ENDROOT
BRANCH   1   2
ATOM      2  O   UNL A   1      30.655  27.529  26.690  1.00  0.00    -0.462 OA
BRANCH   2   3
ATOM      3  C   UNL A   1      30.891  26.276  26.220  1.00  0.00     0.310 C 
ATOM      4  O   UNL A   1      31.429  25.384  26.875  1.00  0.00    -0.252 OA
BRANCH   3   5
ATOM      5  C   UNL A   1      30.415  26.018  24.808  1.00  0.00     0.161 C 
BRANCH   5   6
ATOM      6  C   UNL A   1      30.765  27.036  23.763  1.00  0.00     0.000 A 
ATOM      7  C   UNL A   1      28.606  30.202  22.016  1.00  0.00    -0.046 A 
ATOM      8  C   UNL A   1      27.855  29.302  22.781  1.00  0.00     0.004 A 
ATOM      9  C   UNL A   1      29.963  29.939  21.758  1.00  0.00     0.030 A 
ATOM     10  C   UNL A   1      28.445  28.167  23.350  1.00  0.00     0.011 A 
ATOM     11  C   UNL A   1      30.539  28.815  22.361  1.00  0.00     0.046 A 
ATOM     12  C   UNL A   1      29.825  27.947  23.178  1.00  0.00     0.004 A 
ATOM     13  N   UNL A   1      31.834  28.357  22.331  1.00  0.00    -0.352 N 
ATOM     14  C   UNL A   1      32.035  27.433  23.335  1.00  0.00     0.093 A 
ATOM     15  H   UNL A   1      32.520  28.646  21.686  1.00  0.00     0.167 HD
BRANCH   7  16
ATOM     16  C   UNL A   1      27.974  31.486  21.535  1.00  0.00     0.032 C 
ATOM     17  C   UNL A   1      28.411  32.707  22.326  1.00  0.00     0.009 C 
ENDBRANCH   7  16
BRANCH  14  18
ATOM     18  C   UNL A   1      33.341  27.066  23.866  1.00  0.00     0.227 C 
ATOM     19  O   UNL A   1      34.170  27.893  24.237  1.00  0.00    -0.285 OA
BRANCH  18  20
ATOM     20  C   UNL A   1      33.770  25.647  23.835  1.00  0.00     0.113 A 
ATOM     21  C   UNL A   1      34.324  25.071  24.973  1.00  0.00     0.036 A 
ATOM     22  N   UNL A   1      33.532  24.973  22.688  1.00  0.00    -0.253 NA
ATOM     23  C   UNL A   1      34.662  23.716  24.927  1.00  0.00    -0.047 A 
ATOM     24  C   UNL A   1      33.828  23.659  22.680  1.00  0.00     0.112 A 
ATOM     25  C   UNL A   1      35.271  23.024  26.110  1.00  0.00     0.044 C 
ATOM     26  C   UNL A   1      34.389  22.996  23.761  1.00  0.00     0.023 A 
ENDBRANCH  18  20
ENDBRANCH  14  18
ENDBRANCH   5   6
ENDBRANCH   3   5
ENDBRANCH   2   3
ENDBRANCH   1   2
BRANCH   1  27
ATOM     27  C   UNL A   1      31.774  29.671  26.300  1.00  0.00     0.275 C 
BRANCH  27  28
ATOM     28  O   UNL A   1      33.103  30.198  26.144  1.00  0.00    -0.458 OA
BRANCH  28  29
ATOM     29  C   UNL A   1      33.441  31.158  27.033  1.00  0.00     0.338 C 
ATOM     30  O   UNL A   1      32.819  32.189  27.265  1.00  0.00    -0.246 OA
BRANCH  29  31
ATOM     31  C   UNL A   1      34.736  30.848  27.662  1.00  0.00     0.060 A 
ATOM     32  C   UNL A   1      35.089  29.542  28.004  1.00  0.00     0.016 A 
ATOM     33  C   UNL A   1      35.573  31.911  28.005  1.00  0.00     0.016 A 
ATOM     34  C   UNL A   1      36.237  29.309  28.765  1.00  0.00     0.010 A 
ATOM     35  C   UNL A   1      36.770  31.663  28.678  1.00  0.00     0.010 A 
ATOM     36  C   UNL A   1      37.104  30.362  29.089  1.00  0.00    -0.014 A 
BRANCH  36  37
ATOM     37  C   UNL A   1      38.366  30.126  29.840  1.00  0.00     0.031 A 
ATOM     38  C   UNL A   1      39.428  29.219  29.283  1.00  0.00     0.074 A 
ATOM     39  C   UNL A   1      38.539  30.681  31.055  1.00  0.00     0.049 A 
ATOM     40  N   UNL A   1      40.468  28.692  29.883  1.00  0.00    -0.248 NA
ATOM     41  C   UNL A   1      39.299  28.842  27.867  1.00  0.00     0.031 C 
ATOM     42  C   UNL A   1      37.612  31.610  31.702  1.00  0.00     0.029 A 
ATOM     43  N   UNL A   1      39.551  30.530  31.973  1.00  0.00    -0.354 N 
ATOM     44  C   UNL A   1      41.084  27.884  28.937  1.00  0.00     0.074 A 
ATOM     45  C   UNL A   1      40.306  27.991  27.720  1.00  0.00     0.031 C 
ATOM     46  C   UNL A   1      38.099  31.957  32.901  1.00  0.00     0.029 A 
ATOM     47  C   UNL A   1      39.329  31.210  33.144  1.00  0.00     0.049 A 
ATOM     48  H   UNL A   1      40.354  29.987  31.806  1.00  0.00     0.167 HD
ATOM     49  C   UNL A   1      42.195  27.121  29.079  1.00  0.00     0.037 A 
ATOM     50  C   UNL A   1      40.004  31.198  34.308  1.00  0.00     0.037 A 
ATOM     51  C   UNL A   1      42.996  27.057  30.276  1.00  0.00     0.049 A 
ATOM     52  C   UNL A   1      41.212  30.318  34.452  1.00  0.00     0.074 A 
ATOM     53  C   UNL A   1      44.153  26.333  30.503  1.00  0.00     0.029 A 
ATOM     54  N   UNL A   1      42.728  27.755  31.443  1.00  0.00    -0.354 N 
ATOM     55  N   UNL A   1      41.758  29.517  33.571  1.00  0.00    -0.248 NA
ATOM     56  C   UNL A   1      41.885  30.326  35.758  1.00  0.00     0.031 C 
ATOM     57  C   UNL A   1      44.570  26.569  31.818  1.00  0.00     0.029 A 
ATOM     58  C   UNL A   1      43.691  27.470  32.398  1.00  0.00     0.049 A 
ATOM     59  H   UNL A   1      41.965  28.365  31.575  1.00  0.00     0.167 HD
ATOM     60  C   UNL A   1      42.844  28.935  34.209  1.00  0.00     0.074 A 
ATOM     61  C   UNL A   1      42.888  29.484  35.549  1.00  0.00     0.031 C 
ATOM     62  C   UNL A   1      43.724  28.026  33.725  1.00  0.00     0.037 A 
BRANCH  49  63
ATOM     63  C   UNL A   1      42.605  26.262  27.920  1.00  0.00     0.064 A 
ATOM     64  C   UNL A   1      42.041  24.998  27.698  1.00  0.00     0.173 A 
ATOM     65  C   UNL A   1      43.534  26.741  26.982  1.00  0.00     0.173 A 
ATOM     66  F   UNL A   1      41.156  24.491  28.570  1.00  0.00    -0.203 F 
ATOM     67  C   UNL A   1      42.406  24.237  26.590  1.00  0.00     0.198 A 
ATOM     68  C   UNL A   1      43.879  25.987  25.863  1.00  0.00     0.198 A 
ATOM     69  F   UNL A   1      44.097  27.948  27.144  1.00  0.00    -0.203 F 
ATOM     70  F   UNL A   1      41.881  23.016  26.416  1.00  0.00    -0.200 F 
ATOM     71  C   UNL A   1      43.318  24.735  25.670  1.00  0.00     0.200 A 
ATOM     72  F   UNL A   1      44.751  26.475  24.971  1.00  0.00    -0.200 F 
ATOM     73  F   UNL A   1      43.661  24.002  24.601  1.00  0.00    -0.200 F 
ENDBRANCH  49  63
BRANCH  50  74
ATOM     74  C   UNL A   1      39.517  32.021  35.442  1.00  0.00     0.064 A 
ATOM     75  C   UNL A   1      39.939  33.347  35.600  1.00  0.00     0.173 A 
ATOM     76  C   UNL A   1      38.595  31.510  36.367  1.00  0.00     0.173 A 
ATOM     77  F   UNL A   1      40.840  33.868  34.754  1.00  0.00    -0.203 F 
ATOM     78  C   UNL A   1      39.457  34.133  36.645  1.00  0.00     0.198 A 
ATOM     79  C   UNL A   1      38.093  32.305  37.394  1.00  0.00     0.198 A 
ATOM     80  F   UNL A   1      38.162  30.246  36.256  1.00  0.00    -0.203 F 
ATOM     81  F   UNL A   1      39.898  35.389  36.792  1.00  0.00    -0.200 F 
ATOM     82  C   UNL A   1      38.528  33.615  37.534  1.00  0.00     0.200 A 
ATOM     83  F   UNL A   1      37.187  31.806  38.245  1.00  0.00    -0.200 F 
ATOM     84  F   UNL A   1      38.055  34.376  38.530  1.00  0.00    -0.200 F 
ENDBRANCH  50  74
BRANCH  62  85
ATOM     85  C   UNL A   1      44.827  27.590  34.641  1.00  0.00     0.064 A 
ATOM     86  C   UNL A   1      46.036  28.296  34.718  1.00  0.00     0.173 A 
ATOM     87  C   UNL A   1      44.658  26.474  35.473  1.00  0.00     0.173 A 
ATOM     88  F   UNL A   1      46.248  29.359  33.927  1.00  0.00    -0.203 F 
ATOM     89  C   UNL A   1      47.044  27.889  35.586  1.00  0.00     0.198 A 
ATOM     90  C   UNL A   1      45.661  26.083  36.355  1.00  0.00     0.198 A 
ATOM     91  F   UNL A   1      43.517  25.769  35.436  1.00  0.00    -0.203 F 
ATOM     92  F   UNL A   1      48.206  28.556  35.620  1.00  0.00    -0.200 F 
ATOM     93  C   UNL A   1      46.854  26.786  36.408  1.00  0.00     0.200 A 
ATOM     94  F   UNL A   1      45.474  25.022  37.152  1.00  0.00    -0.200 F 
ATOM     95  F   UNL A   1      47.825  26.399  37.245  1.00  0.00    -0.200 F 
ENDBRANCH  62  85
ENDBRANCH  36  37
ENDBRANCH  29  31
ENDBRANCH  28  29
ENDBRANCH  27  28
ENDBRANCH   1  27
TORSDOF 15
ENDMDL
MODEL 2
REMARK VINA RESULT:     -12.8      1.184      4.205
REMARK SMILES CCc1ccc2c(CC(=O)OCCOC(=O)c3ccc(-c4c5nc(c(-c6c(F)c(F)c(F)c(F)c6F)c6ccc([nH]6)c(-c6c(F)c(F)c(F)c(F)c6F)c6nc(c(-c7c(F)c(F)c(F)c(F)c7F)c7ccc4[nH]7)C=C6)C=C5)cc3)c(C(=O)c3cc(C)ccn3)[nH]c2c1
REMARK SMILES IDX 12 1 11 2 9 3 10 4 8 5 7 6 3 7 4 8 92 9 5 10 91 11 6 12
REMARK SMILES IDX 90 13 80 14 2 16 1 17 81 18 82 19 83 20 84 21 89 22 85 23
REMARK SMILES IDX 88 24 86 25 87 26 13 27 14 28 15 29 16 30 17 31 18 32 79 33
REMARK SMILES IDX 19 34 78 35 20 36 21 37 22 38 72 39 23 40 77 41 71 42 73 43
REMARK SMILES IDX 24 44 76 45 70 46 69 47 25 49 57 50 37 51 56 52 38 53 41 54
REMARK SMILES IDX 55 55 74 56 39 57 40 58 54 60 75 61 42 62 26 63 27 64 35 65
REMARK SMILES IDX 28 66 29 67 33 68 36 69 30 70 31 71 34 72 32 73 58 74 59 75
REMARK SMILES IDX 67 76 60 77 61 78 65 79 68 80 62 81 63 82 66 83 64 84 43 85
REMARK SMILES IDX 44 86 52 87 45 88 46 89 50 90 53 91 47 92 48 93 51 94 49 95
REMARK H PARENT 90 15 73 48 41 59
REMARK Flexibility Score: inf
ROOT
ATOM      1  C   UNL A   1      31.758  28.281  26.227  1.00  0.00     0.274 C 
ENDROOT
BRANCH   1   2
ATOM      2  O   UNL A   1      32.920  27.644  25.655  1.00  0.00    -0.462 OA
BRANCH   2   3
ATOM      3  C   UNL A   1      33.002  26.301  25.849  1.00  0.00     0.310 C 
ATOM      4  O   UNL A   1      32.204  25.653  26.525  1.00  0.00    -0.252 OA
BRANCH   3   5
ATOM      5  C   UNL A   1      34.152  25.618  25.145  1.00  0.00     0.161 C 
BRANCH   5   6
ATOM      6  C   UNL A   1      33.829  24.431  24.285  1.00  0.00     0.000 A 
ATOM      7  C   UNL A   1      33.315  20.338  25.133  1.00  0.00    -0.046 A 
ATOM      8  C   UNL A   1      33.864  21.109  26.164  1.00  0.00     0.004 A 
ATOM      9  C   UNL A   1      33.104  20.911  23.867  1.00  0.00     0.030 A 
ATOM     10  C   UNL A   1      34.154  22.466  25.978  1.00  0.00     0.011 A 
ATOM     11  C   UNL A   1      33.372  22.277  23.712  1.00  0.00     0.046 A 
ATOM     12  C   UNL A   1      33.854  23.073  24.743  1.00  0.00     0.004 A 
ATOM     13  N   UNL A   1      33.205  23.096  22.622  1.00  0.00    -0.352 N 
ATOM     14  C   UNL A   1      33.259  24.418  23.009  1.00  0.00     0.093 A 
ATOM     15  H   UNL A   1      33.066  22.784  21.698  1.00  0.00     0.167 HD
BRANCH   7  16
ATOM     16  C   UNL A   1      32.885  18.917  25.408  1.00  0.00     0.032 C 
ATOM     17  C   UNL A   1      32.681  18.095  24.147  1.00  0.00     0.009 C 
ENDBRANCH   7  16
BRANCH  14  18
ATOM     18  C   UNL A   1      32.715  25.525  22.233  1.00  0.00     0.227 C 
ATOM     19  O   UNL A   1      33.278  25.993  21.247  1.00  0.00    -0.285 OA
BRANCH  18  20
ATOM     20  C   UNL A   1      31.503  26.230  22.716  1.00  0.00     0.113 A 
ATOM     21  C   UNL A   1      31.297  27.560  22.368  1.00  0.00     0.036 A 
ATOM     22  N   UNL A   1      30.626  25.493  23.433  1.00  0.00    -0.253 NA
ATOM     23  C   UNL A   1      30.115  28.176  22.790  1.00  0.00    -0.047 A 
ATOM     24  C   UNL A   1      29.477  26.095  23.794  1.00  0.00     0.112 A 
ATOM     25  C   UNL A   1      29.823  29.610  22.462  1.00  0.00     0.044 C 
ATOM     26  C   UNL A   1      29.181  27.417  23.501  1.00  0.00     0.023 A 
ENDBRANCH  18  20
ENDBRANCH  14  18
ENDBRANCH   5   6
ENDBRANCH   3   5
ENDBRANCH   2   3
ENDBRANCH   1   2
BRANCH   1  27
ATOM     27  C   UNL A   1      31.673  29.745  25.803  1.00  0.00     0.275 C 
BRANCH  27  28
ATOM     28  O   UNL A   1      32.981  30.340  25.836  1.00  0.00    -0.458 OA
BRANCH  28  29
ATOM     29  C   UNL A   1      33.204  31.162  26.886  1.00  0.00     0.338 C 
ATOM     30  O   UNL A   1      32.494  32.093  27.248  1.00  0.00    -0.246 OA
BRANCH  29  31
ATOM     31  C   UNL A   1      34.493  30.846  27.525  1.00  0.00     0.060 A 
ATOM     32  C   UNL A   1      34.801  29.553  27.950  1.00  0.00     0.016 A 
ATOM     33  C   UNL A   1      35.372  31.898  27.791  1.00  0.00     0.016 A 
ATOM     34  C   UNL A   1      35.947  29.328  28.717  1.00  0.00     0.010 A 
ATOM     35  C   UNL A   1      36.566  31.650  28.471  1.00  0.00     0.010 A 
ATOM     36  C   UNL A   1      36.855  30.367  28.965  1.00  0.00    -0.014 A 
BRANCH  36  37
ATOM     37  C   UNL A   1      38.114  30.134  29.721  1.00  0.00     0.031 A 
ATOM     38  C   UNL A   1      39.192  29.249  29.157  1.00  0.00     0.074 A 
ATOM     39  C   UNL A   1      38.272  30.671  30.946  1.00  0.00     0.049 A 
ATOM     40  N   UNL A   1      40.234  28.725  29.756  1.00  0.00    -0.248 NA
ATOM     41  C   UNL A   1      39.077  28.893  27.734  1.00  0.00     0.031 C 
ATOM     42  C   UNL A   1      37.330  31.579  31.600  1.00  0.00     0.029 A 
ATOM     43  N   UNL A   1      39.279  30.517  31.868  1.00  0.00    -0.354 N 
ATOM     44  C   UNL A   1      40.866  27.940  28.801  1.00  0.00     0.074 A 
ATOM     45  C   UNL A   1      40.096  28.058  27.581  1.00  0.00     0.031 C 
ATOM     46  C   UNL A   1      37.804  31.912  32.808  1.00  0.00     0.029 A 
ATOM     47  C   UNL A   1      39.041  31.176  33.049  1.00  0.00     0.049 A 
ATOM     48  H   UNL A   1      40.090  29.987  31.699  1.00  0.00     0.167 HD
ATOM     49  C   UNL A   1      41.985  27.188  28.939  1.00  0.00     0.037 A 
ATOM     50  C   UNL A   1      39.708  31.152  34.217  1.00  0.00     0.037 A 
ATOM     51  C   UNL A   1      42.778  27.114  30.140  1.00  0.00     0.049 A 
ATOM     52  C   UNL A   1      40.925  30.286  34.355  1.00  0.00     0.074 A 
ATOM     53  C   UNL A   1      43.943  26.401  30.364  1.00  0.00     0.029 A 
ATOM     54  N   UNL A   1      42.493  27.790  31.317  1.00  0.00    -0.354 N 
ATOM     55  N   UNL A   1      41.488  29.506  33.466  1.00  0.00    -0.248 NA
ATOM     56  C   UNL A   1      41.589  30.280  35.667  1.00  0.00     0.031 C 
ATOM     57  C   UNL A   1      44.347  26.621  31.686  1.00  0.00     0.029 A 
ATOM     58  C   UNL A   1      43.453  27.501  32.274  1.00  0.00     0.049 A 
ATOM     59  H   UNL A   1      41.722  28.388  31.452  1.00  0.00     0.167 HD
ATOM     60  C   UNL A   1      42.576  28.927  34.102  1.00  0.00     0.074 A 
ATOM     61  C   UNL A   1      42.603  29.454  35.451  1.00  0.00     0.031 C 
ATOM     62  C   UNL A   1      43.470  28.036  33.610  1.00  0.00     0.037 A 
BRANCH  49  63
ATOM     63  C   UNL A   1      42.413  26.353  27.769  1.00  0.00     0.064 A 
ATOM     64  C   UNL A   1      43.409  26.779  26.879  1.00  0.00     0.173 A 
ATOM     65  C   UNL A   1      41.858  25.079  27.573  1.00  0.00     0.173 A 
ATOM     66  F   UNL A   1      43.964  27.993  27.017  1.00  0.00    -0.203 F 
ATOM     67  C   UNL A   1      43.821  25.967  25.825  1.00  0.00     0.198 A 
ATOM     68  C   UNL A   1      42.288  24.260  26.532  1.00  0.00     0.198 A 
ATOM     69  F   UNL A   1      40.907  24.620  28.401  1.00  0.00    -0.203 F 
ATOM     70  F   UNL A   1      44.749  26.408  24.965  1.00  0.00    -0.200 F 
ATOM     71  C   UNL A   1      43.266  24.706  25.656  1.00  0.00     0.200 A 
ATOM     72  F   UNL A   1      41.759  23.038  26.377  1.00  0.00    -0.200 F 
ATOM     73  F   UNL A   1      43.670  23.925  24.645  1.00  0.00    -0.200 F 
ENDBRANCH  49  63
BRANCH  50  74
ATOM     74  C   UNL A   1      39.203  31.952  35.361  1.00  0.00     0.064 A 
ATOM     75  C   UNL A   1      38.404  31.364  36.349  1.00  0.00     0.173 A 
ATOM     76  C   UNL A   1      39.539  33.305  35.505  1.00  0.00     0.173 A 
ATOM     77  F   UNL A   1      38.037  30.079  36.238  1.00  0.00    -0.203 F 
ATOM     78  C   UNL A   1      37.957  32.104  37.442  1.00  0.00     0.198 A 
ATOM     79  C   UNL A   1      39.113  34.037  36.611  1.00  0.00     0.198 A 
ATOM     80  F   UNL A   1      40.301  33.911  34.584  1.00  0.00    -0.203 F 
ATOM     81  F   UNL A   1      37.169  31.527  38.360  1.00  0.00    -0.200 F 
ATOM     82  C   UNL A   1      38.319  33.436  37.577  1.00  0.00     0.200 A 
ATOM     83  F   UNL A   1      39.475  35.319  36.745  1.00  0.00    -0.200 F 
ATOM     84  F   UNL A   1      37.899  34.142  38.635  1.00  0.00    -0.200 F 
ENDBRANCH  50  74
BRANCH  62  85
ATOM     85  C   UNL A   1      44.572  27.599  34.526  1.00  0.00     0.064 A 
ATOM     86  C   UNL A   1      44.445  26.456  35.329  1.00  0.00     0.173 A 
ATOM     87  C   UNL A   1      45.778  28.312  34.577  1.00  0.00     0.173 A 
ATOM     88  F   UNL A   1      43.302  25.752  35.326  1.00  0.00    -0.203 F 
ATOM     89  C   UNL A   1      45.483  26.052  36.163  1.00  0.00     0.198 A 
ATOM     90  C   UNL A   1      46.821  27.893  35.397  1.00  0.00     0.198 A 
ATOM     91  F   UNL A   1      45.946  29.410  33.825  1.00  0.00    -0.203 F 
ATOM     92  F   UNL A   1      45.329  24.977  36.948  1.00  0.00    -0.200 F 
ATOM     93  C   UNL A   1      46.672  26.767  36.192  1.00  0.00     0.200 A 
ATOM     94  F   UNL A   1      47.971  28.581  35.420  1.00  0.00    -0.200 F 
ATOM     95  F   UNL A   1      47.672  26.374  36.993  1.00  0.00    -0.200 F 
ENDBRANCH  62  85
ENDBRANCH  36  37
ENDBRANCH  29  31
ENDBRANCH  28  29
ENDBRANCH  27  28
ENDBRANCH   1  27
TORSDOF 15
ENDMDL
MODEL 3
REMARK VINA RESULT:     -12.8      1.218      3.760
REMARK SMILES CCc1ccc2c(CC(=O)OCCOC(=O)c3ccc(-c4c5nc(c(-c6c(F)c(F)c(F)c(F)c6F)c6ccc([nH]6)c(-c6c(F)c(F)c(F)c(F)c6F)c6nc(c(-c7c(F)c(F)c(F)c(F)c7F)c7ccc4[nH]7)C=C6)C=C5)cc3)c(C(=O)c3cc(C)ccn3)[nH]c2c1
REMARK SMILES IDX 12 1 11 2 9 3 10 4 8 5 7 6 3 7 4 8 92 9 5 10 91 11 6 12
REMARK SMILES IDX 90 13 80 14 2 16 1 17 81 18 82 19 83 20 84 21 89 22 85 23
REMARK SMILES IDX 88 24 86 25 87 26 13 27 14 28 15 29 16 30 17 31 18 32 79 33
REMARK SMILES IDX 19 34 78 35 20 36 21 37 22 38 72 39 23 40 77 41 71 42 73 43
REMARK SMILES IDX 24 44 76 45 70 46 69 47 25 49 57 50 37 51 56 52 38 53 41 54
REMARK SMILES IDX 55 55 74 56 39 57 40 58 54 60 75 61 42 62 26 63 27 64 35 65
REMARK SMILES IDX 28 66 29 67 33 68 36 69 30 70 31 71 34 72 32 73 58 74 59 75
REMARK SMILES IDX 67 76 60 77 61 78 65 79 68 80 62 81 63 82 66 83 64 84 43 85
REMARK SMILES IDX 44 86 52 87 45 88 46 89 50 90 53 91 47 92 48 93 51 94 49 95
REMARK H PARENT 90 15 73 48 41 59
REMARK Flexibility Score: inf
ROOT
ATOM      1  C   UNL A   1      32.053  27.881  26.000  1.00  0.00     0.274 C 
ENDROOT
BRANCH   1   2
ATOM      2  O   UNL A   1      33.296  27.289  25.567  1.00  0.00    -0.462 OA
BRANCH   2   3
ATOM      3  C   UNL A   1      33.371  25.937  25.687  1.00  0.00     0.310 C 
ATOM      4  O   UNL A   1      32.680  25.276  26.461  1.00  0.00    -0.252 OA
BRANCH   3   5
ATOM      5  C   UNL A   1      34.364  25.262  24.768  1.00  0.00     0.161 C 
BRANCH   5   6
ATOM      6  C   UNL A   1      33.829  24.256  23.792  1.00  0.00     0.000 A 
ATOM      7  C   UNL A   1      32.920  20.157  24.119  1.00  0.00    -0.046 A 
ATOM      8  C   UNL A   1      33.645  20.706  25.182  1.00  0.00     0.004 A 
ATOM      9  C   UNL A   1      32.663  20.930  22.973  1.00  0.00     0.030 A 
ATOM     10  C   UNL A   1      34.073  22.039  25.155  1.00  0.00     0.011 A 
ATOM     11  C   UNL A   1      33.074  22.268  22.980  1.00  0.00     0.046 A 
ATOM     12  C   UNL A   1      33.736  22.849  24.054  1.00  0.00     0.004 A 
ATOM     13  N   UNL A   1      32.906  23.253  22.037  1.00  0.00    -0.352 N 
ATOM     14  C   UNL A   1      33.148  24.491  22.594  1.00  0.00     0.093 A 
ATOM     15  H   UNL A   1      32.650  23.098  21.098  1.00  0.00     0.167 HD
BRANCH   7  16
ATOM     16  C   UNL A   1      32.353  18.762  24.239  1.00  0.00     0.032 C 
ATOM     17  C   UNL A   1      32.510  17.937  22.974  1.00  0.00     0.009 C 
ENDBRANCH   7  16
BRANCH  14  18
ATOM     18  C   UNL A   1      32.670  25.750  22.039  1.00  0.00     0.227 C 
ATOM     19  O   UNL A   1      33.297  26.397  21.204  1.00  0.00    -0.285 OA
BRANCH  18  20
ATOM     20  C   UNL A   1      31.444  26.375  22.595  1.00  0.00     0.113 A 
ATOM     21  C   UNL A   1      31.137  27.692  22.272  1.00  0.00     0.036 A 
ATOM     22  N   UNL A   1      30.656  25.579  23.351  1.00  0.00    -0.253 NA
ATOM     23  C   UNL A   1      29.944  28.229  22.764  1.00  0.00    -0.047 A 
ATOM     24  C   UNL A   1      29.493  26.105  23.780  1.00  0.00     0.112 A 
ATOM     25  C   UNL A   1      29.546  29.644  22.467  1.00  0.00     0.044 C 
ATOM     26  C   UNL A   1      29.100  27.408  23.517  1.00  0.00     0.023 A 
ENDBRANCH  18  20
ENDBRANCH  14  18
ENDBRANCH   5   6
ENDBRANCH   3   5
ENDBRANCH   2   3
ENDBRANCH   1   2
BRANCH   1  27
ATOM     27  C   UNL A   1      32.006  29.367  25.656  1.00  0.00     0.275 C 
BRANCH  27  28
ATOM     28  O   UNL A   1      33.299  29.959  25.870  1.00  0.00    -0.458 OA
BRANCH  28  29
ATOM     29  C   UNL A   1      33.334  30.918  26.821  1.00  0.00     0.338 C 
ATOM     30  O   UNL A   1      32.525  31.827  26.972  1.00  0.00    -0.246 OA
BRANCH  29  31
ATOM     31  C   UNL A   1      34.549  30.787  27.643  1.00  0.00     0.060 A 
ATOM     32  C   UNL A   1      35.403  31.869  27.864  1.00  0.00     0.016 A 
ATOM     33  C   UNL A   1      34.888  29.520  28.121  1.00  0.00     0.016 A 
ATOM     34  C   UNL A   1      36.636  31.666  28.488  1.00  0.00     0.010 A 
ATOM     35  C   UNL A   1      36.075  29.341  28.832  1.00  0.00     0.010 A 
ATOM     36  C   UNL A   1      36.976  30.406  29.002  1.00  0.00    -0.014 A 
BRANCH  36  37
ATOM     37  C   UNL A   1      38.254  30.183  29.729  1.00  0.00     0.031 A 
ATOM     38  C   UNL A   1      39.313  29.283  29.155  1.00  0.00     0.074 A 
ATOM     39  C   UNL A   1      38.446  30.746  30.938  1.00  0.00     0.049 A 
ATOM     40  N   UNL A   1      40.369  28.768  29.737  1.00  0.00    -0.248 NA
ATOM     41  C   UNL A   1      39.159  28.899  27.743  1.00  0.00     0.031 C 
ATOM     42  C   UNL A   1      37.524  31.670  31.598  1.00  0.00     0.029 A 
ATOM     43  N   UNL A   1      39.477  30.607  31.836  1.00  0.00    -0.354 N 
ATOM     44  C   UNL A   1      40.973  27.961  28.783  1.00  0.00     0.074 A 
ATOM     45  C   UNL A   1      40.171  28.056  27.581  1.00  0.00     0.031 C 
ATOM     46  C   UNL A   1      38.032  32.027  32.786  1.00  0.00     0.029 A 
ATOM     47  C   UNL A   1      39.273  31.291  33.009  1.00  0.00     0.049 A 
ATOM     48  H   UNL A   1      40.282  30.071  31.656  1.00  0.00     0.167 HD
ATOM     49  C   UNL A   1      42.093  27.208  28.906  1.00  0.00     0.037 A 
ATOM     50  C   UNL A   1      39.971  31.290  34.159  1.00  0.00     0.037 A 
ATOM     51  C   UNL A   1      42.918  27.156  30.087  1.00  0.00     0.049 A 
ATOM     52  C   UNL A   1      41.188  30.421  34.283  1.00  0.00     0.074 A 
ATOM     53  C   UNL A   1      44.086  26.443  30.295  1.00  0.00     0.029 A 
ATOM     54  N   UNL A   1      42.667  27.858  31.256  1.00  0.00    -0.354 N 
ATOM     55  N   UNL A   1      41.724  29.621  33.395  1.00  0.00    -0.248 NA
ATOM     56  C   UNL A   1      41.886  30.441  35.576  1.00  0.00     0.031 C 
ATOM     57  C   UNL A   1      44.526  26.689  31.600  1.00  0.00     0.029 A 
ATOM     58  C   UNL A   1      43.651  27.585  32.193  1.00  0.00     0.049 A 
ATOM     59  H   UNL A   1      41.902  28.461  31.400  1.00  0.00     0.167 HD
ATOM     60  C   UNL A   1      42.827  29.051  34.014  1.00  0.00     0.074 A 
ATOM     61  C   UNL A   1      42.892  29.607  35.350  1.00  0.00     0.031 C 
ATOM     62  C   UNL A   1      43.705  28.147  33.517  1.00  0.00     0.037 A 
BRANCH  49  63
ATOM     63  C   UNL A   1      42.487  26.348  27.742  1.00  0.00     0.064 A 
ATOM     64  C   UNL A   1      41.901  25.096  27.514  1.00  0.00     0.173 A 
ATOM     65  C   UNL A   1      43.426  26.814  26.808  1.00  0.00     0.173 A 
ATOM     66  F   UNL A   1      41.006  24.600  28.383  1.00  0.00    -0.203 F 
ATOM     67  C   UNL A   1      42.252  24.333  26.403  1.00  0.00     0.198 A 
ATOM     68  C   UNL A   1      43.757  26.060  25.685  1.00  0.00     0.198 A 
ATOM     69  F   UNL A   1      44.011  28.010  26.975  1.00  0.00    -0.203 F 
ATOM     70  F   UNL A   1      41.705  23.123  26.222  1.00  0.00    -0.200 F 
ATOM     71  C   UNL A   1      43.173  24.818  25.486  1.00  0.00     0.200 A 
ATOM     72  F   UNL A   1      44.639  26.535  24.795  1.00  0.00    -0.200 F 
ATOM     73  F   UNL A   1      43.503  24.085  24.413  1.00  0.00    -0.200 F 
ENDBRANCH  49  63
BRANCH  50  74
ATOM     74  C   UNL A   1      39.499  32.114  35.299  1.00  0.00     0.064 A 
ATOM     75  C   UNL A   1      39.892  33.451  35.429  1.00  0.00     0.173 A 
ATOM     76  C   UNL A   1      38.619  31.591  36.258  1.00  0.00     0.173 A 
ATOM     77  F   UNL A   1      40.752  33.985  34.549  1.00  0.00    -0.203 F 
ATOM     78  C   UNL A   1      39.423  34.237  36.479  1.00  0.00     0.198 A 
ATOM     79  C   UNL A   1      38.130  32.385  37.292  1.00  0.00     0.198 A 
ATOM     80  F   UNL A   1      38.215  30.315  36.175  1.00  0.00    -0.203 F 
ATOM     81  F   UNL A   1      39.836  35.506  36.599  1.00  0.00    -0.200 F 
ATOM     82  C   UNL A   1      38.535  33.707  37.404  1.00  0.00     0.200 A 
ATOM     83  F   UNL A   1      37.264  31.873  38.176  1.00  0.00    -0.200 F 
ATOM     84  F   UNL A   1      38.075  34.468  38.406  1.00  0.00    -0.200 F 
ENDBRANCH  50  74
BRANCH  62  85
ATOM     85  C   UNL A   1      44.829  27.725  34.413  1.00  0.00     0.064 A 
ATOM     86  C   UNL A   1      46.039  28.433  34.453  1.00  0.00     0.173 A 
ATOM     87  C   UNL A   1      44.681  26.619  35.263  1.00  0.00     0.173 A 
ATOM     88  F   UNL A   1      46.231  29.486  33.643  1.00  0.00    -0.203 F 
ATOM     89  C   UNL A   1      47.068  28.039  35.302  1.00  0.00     0.198 A 
ATOM     90  C   UNL A   1      45.705  26.241  36.127  1.00  0.00     0.198 A 
ATOM     91  F   UNL A   1      43.541  25.913  35.261  1.00  0.00    -0.203 F 
ATOM     92  F   UNL A   1      48.228  28.708  35.301  1.00  0.00    -0.200 F 
ATOM     93  C   UNL A   1      46.898  26.947  36.143  1.00  0.00     0.200 A 
ATOM     94  F   UNL A   1      45.538  25.190  36.941  1.00  0.00    -0.200 F 
ATOM     95  F   UNL A   1      47.889  26.571  36.963  1.00  0.00    -0.200 F 
ENDBRANCH  62  85
ENDBRANCH  36  37
ENDBRANCH  29  31
ENDBRANCH  28  29
ENDBRANCH  27  28
ENDBRANCH   1  27
TORSDOF 15
ENDMDL
