MODEL 1
REMARK VINA RESULT:     -10.5      0.000      0.000
REMARK SMILES C=CCN(CC(=O)OCCOC(=O)c1ccc(-c2c3nc(c(-c4c(F)c(F)c(F)c(F)c4F)c4ccc([nH]4)c(-c4c(F)c(F)c(F)c(F)c4F)c4nc(c(-c5c(F)c(F)c(F)c(F)c5F)c5ccc2[nH]5)C=C4)C=C3)cc1)C(=O)c1sc(N)nc1C
REMARK SMILES IDX 9 1 8 2 6 3 7 4 5 5 4 6 3 7 2 8 1 9 77 10 78 11 79 12 80 13
REMARK SMILES IDX 84 14 81 15 83 16 85 17 82 18 10 21 11 22 12 23 13 24 14 25
REMARK SMILES IDX 15 26 76 27 16 28 75 29 17 30 18 31 19 32 69 33 20 34 74 35
REMARK SMILES IDX 68 36 70 37 21 38 73 39 67 40 66 41 22 43 54 44 34 45 53 46
REMARK SMILES IDX 35 47 38 48 52 49 71 50 36 51 37 52 51 54 72 55 39 56 23 57
REMARK SMILES IDX 24 58 32 59 25 60 26 61 30 62 33 63 27 64 28 65 31 66 29 67
REMARK SMILES IDX 55 68 56 69 64 70 57 71 58 72 62 73 65 74 59 75 60 76 63 77
REMARK SMILES IDX 61 78 40 79 41 80 49 81 42 82 43 83 47 84 50 85 44 86 45 87
REMARK SMILES IDX 48 88 46 89
REMARK H PARENT 82 19 82 20 70 42 38 53
REMARK Flexibility Score: inf
ROOT
ATOM      1  C   UNL A   1      31.930  28.146  26.275  1.00  0.00     0.274 C 
ENDROOT
BRANCH   1   2
ATOM      2  O   UNL A   1      31.508  27.613  24.994  1.00  0.00    -0.461 OA
BRANCH   2   3
ATOM      3  C   UNL A   1      32.437  26.864  24.345  1.00  0.00     0.325 C 
ATOM      4  O   UNL A   1      33.541  27.286  24.008  1.00  0.00    -0.250 OA
BRANCH   3   5
ATOM      5  C   UNL A   1      32.097  25.373  24.228  1.00  0.00     0.242 C 
BRANCH   5   6
ATOM      6  N   UNL A   1      32.644  24.377  25.153  1.00  0.00    -0.323 N 
BRANCH   6   7
ATOM      7  C   UNL A   1      32.109  24.395  26.507  1.00  0.00     0.147 C 
BRANCH   7   8
ATOM      8  C   UNL A   1      30.635  24.104  26.455  1.00  0.00    -0.014 C 
ATOM      9  C   UNL A   1      30.086  22.939  26.826  1.00  0.00     0.006 C 
ENDBRANCH   7   8
ENDBRANCH   6   7
BRANCH   6  10
ATOM     10  C   UNL A   1      33.552  23.353  24.838  1.00  0.00     0.266 C 
ATOM     11  O   UNL A   1      34.641  23.626  24.330  1.00  0.00    -0.268 OA
BRANCH  10  12
ATOM     12  C   UNL A   1      33.187  21.967  25.018  1.00  0.00     0.117 A 
ATOM     13  S   UNL A   1      33.609  21.048  26.398  1.00  0.00    -0.092 S 
ATOM     14  C   UNL A   1      32.631  21.137  24.059  1.00  0.00     0.063 A 
ATOM     15  C   UNL A   1      32.920  19.651  25.664  1.00  0.00     0.180 A 
ATOM     16  N   UNL A   1      32.485  19.812  24.441  1.00  0.00    -0.225 NA
ATOM     17  C   UNL A   1      32.132  21.560  22.727  1.00  0.00     0.068 C 
BRANCH  15  18
ATOM     18  N   UNL A   1      32.848  18.472  26.292  1.00  0.00    -0.375 N 
ATOM     19  H   UNL A   1      33.672  17.994  26.540  1.00  0.00     0.159 HD
ATOM     20  H   UNL A   1      31.969  18.081  26.505  1.00  0.00     0.159 HD
ENDBRANCH  15  18
ENDBRANCH  10  12
ENDBRANCH   6  10
ENDBRANCH   5   6
ENDBRANCH   3   5
ENDBRANCH   2   3
ENDBRANCH   1   2
BRANCH   1  21
ATOM     21  C   UNL A   1      31.778  29.676  26.390  1.00  0.00     0.275 C 
BRANCH  21  22
ATOM     22  O   UNL A   1      32.955  30.413  25.988  1.00  0.00    -0.458 OA
BRANCH  22  23
ATOM     23  C   UNL A   1      33.386  31.245  26.956  1.00  0.00     0.338 C 
ATOM     24  O   UNL A   1      32.733  32.154  27.442  1.00  0.00    -0.246 OA
BRANCH  23  25
ATOM     25  C   UNL A   1      34.706  30.950  27.507  1.00  0.00     0.060 A 
ATOM     26  C   UNL A   1      34.949  29.652  27.966  1.00  0.00     0.016 A 
ATOM     27  C   UNL A   1      35.553  32.001  27.857  1.00  0.00     0.016 A 
ATOM     28  C   UNL A   1      36.031  29.406  28.803  1.00  0.00     0.010 A 
ATOM     29  C   UNL A   1      36.667  31.744  28.659  1.00  0.00     0.010 A 
ATOM     30  C   UNL A   1      36.905  30.448  29.143  1.00  0.00    -0.014 A 
BRANCH  30  31
ATOM     31  C   UNL A   1      38.145  30.137  29.884  1.00  0.00     0.031 A 
ATOM     32  C   UNL A   1      39.217  29.265  29.312  1.00  0.00     0.074 A 
ATOM     33  C   UNL A   1      38.278  30.675  31.109  1.00  0.00     0.049 A 
ATOM     34  N   UNL A   1      40.290  28.787  29.888  1.00  0.00    -0.248 NA
ATOM     35  C   UNL A   1      39.064  28.874  27.906  1.00  0.00     0.031 C 
ATOM     36  C   UNL A   1      37.307  31.575  31.733  1.00  0.00     0.029 A 
ATOM     37  N   UNL A   1      39.272  30.549  32.039  1.00  0.00    -0.354 N 
ATOM     38  C   UNL A   1      40.923  28.009  28.928  1.00  0.00     0.074 A 
ATOM     39  C   UNL A   1      40.115  28.081  27.728  1.00  0.00     0.031 C 
ATOM     40  C   UNL A   1      37.756  31.927  32.945  1.00  0.00     0.029 A 
ATOM     41  C   UNL A   1      39.014  31.235  33.198  1.00  0.00     0.049 A 
ATOM     42  H   UNL A   1      40.089  30.021  31.892  1.00  0.00     0.167 HD
ATOM     43  C   UNL A   1      42.077  27.308  29.051  1.00  0.00     0.037 A 
ATOM     44  C   UNL A   1      39.702  31.274  34.352  1.00  0.00     0.037 A 
ATOM     45  C   UNL A   1      42.891  27.296  30.243  1.00  0.00     0.049 A 
ATOM     46  C   UNL A   1      40.970  30.489  34.464  1.00  0.00     0.074 A 
ATOM     47  C   UNL A   1      44.087  26.637  30.471  1.00  0.00     0.029 A 
ATOM     48  N   UNL A   1      42.594  27.993  31.407  1.00  0.00    -0.354 N 
ATOM     49  N   UNL A   1      41.535  29.711  33.573  1.00  0.00    -0.248 NA
ATOM     50  C   UNL A   1      41.691  30.580  35.737  1.00  0.00     0.031 C 
ATOM     51  C   UNL A   1      44.502  26.919  31.778  1.00  0.00     0.029 A 
ATOM     52  C   UNL A   1      43.581  27.778  32.356  1.00  0.00     0.049 A 
ATOM     53  H   UNL A   1      41.798  28.558  31.539  1.00  0.00     0.167 HD
ATOM     54  C   UNL A   1      42.682  29.219  34.174  1.00  0.00     0.074 A 
ATOM     55  C   UNL A   1      42.739  29.802  35.500  1.00  0.00     0.031 C 
ATOM     56  C   UNL A   1      43.604  28.360  33.673  1.00  0.00     0.037 A 
BRANCH  43  57
ATOM     57  C   UNL A   1      42.525  26.479  27.884  1.00  0.00     0.064 A 
ATOM     58  C   UNL A   1      42.072  25.167  27.689  1.00  0.00     0.173 A 
ATOM     59  C   UNL A   1      43.375  27.030  26.910  1.00  0.00     0.173 A 
ATOM     60  F   UNL A   1      41.267  24.590  28.595  1.00  0.00    -0.203 F 
ATOM     61  C   UNL A   1      42.463  24.431  26.572  1.00  0.00     0.198 A 
ATOM     62  C   UNL A   1      43.747  26.299  25.784  1.00  0.00     0.198 A 
ATOM     63  F   UNL A   1      43.832  28.283  27.045  1.00  0.00    -0.203 F 
ATOM     64  F   UNL A   1      42.039  23.168  26.421  1.00  0.00    -0.200 F 
ATOM     65  C   UNL A   1      43.294  24.999  25.618  1.00  0.00     0.200 A 
ATOM     66  F   UNL A   1      44.541  26.854  24.859  1.00  0.00    -0.200 F 
ATOM     67  F   UNL A   1      43.661  24.294  24.539  1.00  0.00    -0.200 F 
ENDBRANCH  43  57
BRANCH  44  68
ATOM     68  C   UNL A   1      39.171  32.091  35.467  1.00  0.00     0.064 A 
ATOM     69  C   UNL A   1      38.373  31.514  36.460  1.00  0.00     0.173 A 
ATOM     70  C   UNL A   1      39.543  33.436  35.615  1.00  0.00     0.173 A 
ATOM     71  F   UNL A   1      37.989  30.234  36.351  1.00  0.00    -0.203 F 
ATOM     72  C   UNL A   1      37.972  32.251  37.572  1.00  0.00     0.198 A 
ATOM     73  C   UNL A   1      39.160  34.164  36.737  1.00  0.00     0.198 A 
ATOM     74  F   UNL A   1      40.321  34.023  34.694  1.00  0.00    -0.203 F 
ATOM     75  F   UNL A   1      37.205  31.680  38.510  1.00  0.00    -0.200 F 
ATOM     76  C   UNL A   1      38.375  33.571  37.715  1.00  0.00     0.200 A 
ATOM     77  F   UNL A   1      39.569  35.431  36.882  1.00  0.00    -0.200 F 
ATOM     78  F   UNL A   1      38.013  34.270  38.800  1.00  0.00    -0.200 F 
ENDBRANCH  44  68
BRANCH  56  79
ATOM     79  C   UNL A   1      44.748  28.015  34.573  1.00  0.00     0.064 A 
ATOM     80  C   UNL A   1      45.916  28.790  34.593  1.00  0.00     0.173 A 
ATOM     81  C   UNL A   1      44.676  26.901  35.420  1.00  0.00     0.173 A 
ATOM     82  F   UNL A   1      46.034  29.853  33.782  1.00  0.00    -0.203 F 
ATOM     83  C   UNL A   1      46.984  28.447  35.416  1.00  0.00     0.198 A 
ATOM     84  C   UNL A   1      45.738  26.571  36.255  1.00  0.00     0.198 A 
ATOM     85  F   UNL A   1      43.578  26.130  35.433  1.00  0.00    -0.203 F 
ATOM     86  F   UNL A   1      48.109  29.175  35.390  1.00  0.00    -0.200 F 
ATOM     87  C   UNL A   1      46.894  27.340  36.248  1.00  0.00     0.200 A 
ATOM     88  F   UNL A   1      45.651  25.503  37.060  1.00  0.00    -0.200 F 
ATOM     89  F   UNL A   1      47.925  27.008  37.035  1.00  0.00    -0.200 F 
ENDBRANCH  56  79
ENDBRANCH  30  31
ENDBRANCH  23  25
ENDBRANCH  22  23
ENDBRANCH  21  22
ENDBRANCH   1  21
TORSDOF 17
ENDMDL
MODEL 2
REMARK VINA RESULT:     -10.4      1.554      2.765
REMARK SMILES C=CCN(CC(=O)OCCOC(=O)c1ccc(-c2c3nc(c(-c4c(F)c(F)c(F)c(F)c4F)c4ccc([nH]4)c(-c4c(F)c(F)c(F)c(F)c4F)c4nc(c(-c5c(F)c(F)c(F)c(F)c5F)c5ccc2[nH]5)C=C4)C=C3)cc1)C(=O)c1sc(N)nc1C
REMARK SMILES IDX 9 1 8 2 6 3 7 4 5 5 4 6 3 7 2 8 1 9 77 10 78 11 79 12 80 13
REMARK SMILES IDX 84 14 81 15 83 16 85 17 82 18 10 21 11 22 12 23 13 24 14 25
REMARK SMILES IDX 15 26 76 27 16 28 75 29 17 30 18 31 19 32 69 33 20 34 74 35
REMARK SMILES IDX 68 36 70 37 21 38 73 39 67 40 66 41 22 43 54 44 34 45 53 46
REMARK SMILES IDX 35 47 38 48 52 49 71 50 36 51 37 52 51 54 72 55 39 56 23 57
REMARK SMILES IDX 24 58 32 59 25 60 26 61 30 62 33 63 27 64 28 65 31 66 29 67
REMARK SMILES IDX 55 68 56 69 64 70 57 71 58 72 62 73 65 74 59 75 60 76 63 77
REMARK SMILES IDX 61 78 40 79 41 80 49 81 42 82 43 83 47 84 50 85 44 86 45 87
REMARK SMILES IDX 48 88 46 89
REMARK H PARENT 82 19 82 20 70 42 38 53
REMARK Flexibility Score: inf
ROOT
ATOM      1  C   UNL A   1      31.900  28.358  27.133  1.00  0.00     0.274 C 
ENDROOT
BRANCH   1   2
ATOM      2  O   UNL A   1      31.363  27.305  26.293  1.00  0.00    -0.461 OA
BRANCH   2   3
ATOM      3  C   UNL A   1      31.952  26.090  26.442  1.00  0.00     0.325 C 
ATOM      4  O   UNL A   1      31.372  25.100  26.883  1.00  0.00    -0.250 OA
BRANCH   3   5
ATOM      5  C   UNL A   1      33.355  25.973  25.833  1.00  0.00     0.242 C 
BRANCH   5   6
ATOM      6  N   UNL A   1      33.609  25.201  24.614  1.00  0.00    -0.323 N 
BRANCH   6   7
ATOM      7  C   UNL A   1      34.077  23.835  24.803  1.00  0.00     0.147 C 
BRANCH   7   8
ATOM      8  C   UNL A   1      32.910  22.896  24.672  1.00  0.00    -0.014 C 
ATOM      9  C   UNL A   1      32.895  21.826  23.865  1.00  0.00     0.006 C 
ENDBRANCH   7   8
ENDBRANCH   6   7
BRANCH   6  10
ATOM     10  C   UNL A   1      33.353  25.613  23.296  1.00  0.00     0.266 C 
ATOM     11  O   UNL A   1      34.027  25.165  22.365  1.00  0.00    -0.268 OA
BRANCH  10  12
ATOM     12  C   UNL A   1      32.364  26.629  23.022  1.00  0.00     0.117 A 
ATOM     13  S   UNL A   1      32.735  28.291  22.851  1.00  0.00    -0.092 S 
ATOM     14  C   UNL A   1      30.990  26.459  23.048  1.00  0.00     0.063 A 
ATOM     15  C   UNL A   1      31.054  28.639  22.710  1.00  0.00     0.180 A 
ATOM     16  N   UNL A   1      30.251  27.619  22.870  1.00  0.00    -0.225 NA
ATOM     17  C   UNL A   1      30.276  25.164  23.175  1.00  0.00     0.068 C 
BRANCH  15  18
ATOM     18  N   UNL A   1      30.594  29.872  22.471  1.00  0.00    -0.375 N 
ATOM     19  H   UNL A   1      30.624  30.555  23.179  1.00  0.00     0.159 HD
ATOM     20  H   UNL A   1      30.225  30.096  21.586  1.00  0.00     0.159 HD
ENDBRANCH  15  18
ENDBRANCH  10  12
ENDBRANCH   6  10
ENDBRANCH   5   6
ENDBRANCH   3   5
ENDBRANCH   2   3
ENDBRANCH   1   2
BRANCH   1  21
ATOM     21  C   UNL A   1      31.747  29.770  26.532  1.00  0.00     0.275 C 
BRANCH  21  22
ATOM     22  O   UNL A   1      32.998  30.369  26.121  1.00  0.00    -0.458 OA
BRANCH  22  23
ATOM     23  C   UNL A   1      33.471  31.234  27.039  1.00  0.00     0.338 C 
ATOM     24  O   UNL A   1      32.858  32.194  27.478  1.00  0.00    -0.246 OA
BRANCH  23  25
ATOM     25  C   UNL A   1      34.782  30.916  27.596  1.00  0.00     0.060 A 
ATOM     26  C   UNL A   1      35.004  29.611  28.046  1.00  0.00     0.016 A 
ATOM     27  C   UNL A   1      35.640  31.953  27.963  1.00  0.00     0.016 A 
ATOM     28  C   UNL A   1      36.077  29.343  28.889  1.00  0.00     0.010 A 
ATOM     29  C   UNL A   1      36.745  31.674  28.770  1.00  0.00     0.010 A 
ATOM     30  C   UNL A   1      36.962  30.370  29.245  1.00  0.00    -0.014 A 
BRANCH  30  31
ATOM     31  C   UNL A   1      38.192  30.036  29.992  1.00  0.00     0.031 A 
ATOM     32  C   UNL A   1      39.262  29.165  29.414  1.00  0.00     0.074 A 
ATOM     33  C   UNL A   1      38.318  30.551  31.227  1.00  0.00     0.049 A 
ATOM     34  N   UNL A   1      40.326  28.668  29.992  1.00  0.00    -0.248 NA
ATOM     35  C   UNL A   1      39.120  28.801  28.000  1.00  0.00     0.031 C 
ATOM     36  C   UNL A   1      37.348  31.447  31.858  1.00  0.00     0.029 A 
ATOM     37  N   UNL A   1      39.301  30.400  32.164  1.00  0.00    -0.354 N 
ATOM     38  C   UNL A   1      40.962  27.902  29.024  1.00  0.00     0.074 A 
ATOM     39  C   UNL A   1      40.166  28.002  27.818  1.00  0.00     0.031 C 
ATOM     40  C   UNL A   1      37.788  31.774  33.080  1.00  0.00     0.029 A 
ATOM     41  C   UNL A   1      39.037  31.067  33.333  1.00  0.00     0.049 A 
ATOM     42  H   UNL A   1      40.115  29.868  32.015  1.00  0.00     0.167 HD
ATOM     43  C   UNL A   1      42.109  27.190  29.146  1.00  0.00     0.037 A 
ATOM     44  C   UNL A   1      39.714  31.080  34.493  1.00  0.00     0.037 A 
ATOM     45  C   UNL A   1      42.911  27.150  30.345  1.00  0.00     0.049 A 
ATOM     46  C   UNL A   1      40.975  30.283  34.604  1.00  0.00     0.074 A 
ATOM     47  C   UNL A   1      44.099  26.477  30.573  1.00  0.00     0.029 A 
ATOM     48  N   UNL A   1      42.609  27.829  31.519  1.00  0.00    -0.354 N 
ATOM     49  N   UNL A   1      41.542  29.516  33.705  1.00  0.00    -0.248 NA
ATOM     50  C   UNL A   1      41.684  30.346  35.885  1.00  0.00     0.031 C 
ATOM     51  C   UNL A   1      44.504  26.732  31.889  1.00  0.00     0.029 A 
ATOM     52  C   UNL A   1      43.584  27.588  32.473  1.00  0.00     0.049 A 
ATOM     53  H   UNL A   1      41.816  28.398  31.653  1.00  0.00     0.167 HD
ATOM     54  C   UNL A   1      42.680  29.004  34.307  1.00  0.00     0.074 A 
ATOM     55  C   UNL A   1      42.728  29.563  35.645  1.00  0.00     0.031 C 
ATOM     56  C   UNL A   1      43.599  28.147  33.800  1.00  0.00     0.037 A 
BRANCH  43  57
ATOM     57  C   UNL A   1      42.561  26.377  27.969  1.00  0.00     0.064 A 
ATOM     58  C   UNL A   1      43.432  26.896  27.001  1.00  0.00     0.173 A 
ATOM     59  C   UNL A   1      42.165  25.035  27.842  1.00  0.00     0.173 A 
ATOM     60  F   UNL A   1      43.833  28.174  27.071  1.00  0.00    -0.203 F 
ATOM     61  C   UNL A   1      43.879  26.107  25.942  1.00  0.00     0.198 A 
ATOM     62  C   UNL A   1      42.630  24.244  26.794  1.00  0.00     0.198 A 
ATOM     63  F   UNL A   1      41.338  24.487  28.744  1.00  0.00    -0.203 F 
ATOM     64  F   UNL A   1      44.689  26.633  25.012  1.00  0.00    -0.200 F 
ATOM     65  C   UNL A   1      43.483  24.782  25.843  1.00  0.00     0.200 A 
ATOM     66  F   UNL A   1      42.255  22.961  26.706  1.00  0.00    -0.200 F 
ATOM     67  F   UNL A   1      43.922  24.023  24.829  1.00  0.00    -0.200 F 
ENDBRANCH  43  57
BRANCH  44  68
ATOM     68  C   UNL A   1      39.179  31.883  35.617  1.00  0.00     0.064 A 
ATOM     69  C   UNL A   1      38.294  31.318  36.542  1.00  0.00     0.173 A 
ATOM     70  C   UNL A   1      39.629  33.191  35.847  1.00  0.00     0.173 A 
ATOM     71  F   UNL A   1      37.834  30.072  36.353  1.00  0.00    -0.203 F 
ATOM     72  C   UNL A   1      37.883  32.031  37.665  1.00  0.00     0.198 A 
ATOM     73  C   UNL A   1      39.235  33.894  36.982  1.00  0.00     0.198 A 
ATOM     74  F   UNL A   1      40.491  33.764  34.994  1.00  0.00    -0.203 F 
ATOM     75  F   UNL A   1      37.032  31.472  38.536  1.00  0.00    -0.200 F 
ATOM     76  C   UNL A   1      38.363  33.313  37.890  1.00  0.00     0.200 A 
ATOM     77  F   UNL A   1      39.718  35.123  37.206  1.00  0.00    -0.200 F 
ATOM     78  F   UNL A   1      37.990  33.987  38.987  1.00  0.00    -0.200 F 
ENDBRANCH  44  68
BRANCH  56  79
ATOM     79  C   UNL A   1      44.732  27.776  34.705  1.00  0.00     0.064 A 
ATOM     80  C   UNL A   1      45.906  28.540  34.749  1.00  0.00     0.173 A 
ATOM     81  C   UNL A   1      44.641  26.649  35.533  1.00  0.00     0.173 A 
ATOM     82  F   UNL A   1      46.041  29.616  33.957  1.00  0.00    -0.203 F 
ATOM     83  C   UNL A   1      46.963  28.174  35.576  1.00  0.00     0.198 A 
ATOM     84  C   UNL A   1      45.693  26.296  36.372  1.00  0.00     0.198 A 
ATOM     85  F   UNL A   1      43.537  25.888  35.521  1.00  0.00    -0.203 F 
ATOM     86  F   UNL A   1      48.094  28.893  35.573  1.00  0.00    -0.200 F 
ATOM     87  C   UNL A   1      46.855  27.055  36.388  1.00  0.00     0.200 A 
ATOM     88  F   UNL A   1      45.589  25.215  37.158  1.00  0.00    -0.200 F 
ATOM     89  F   UNL A   1      47.876  26.699  37.179  1.00  0.00    -0.200 F 
ENDBRANCH  56  79
ENDBRANCH  30  31
ENDBRANCH  23  25
ENDBRANCH  22  23
ENDBRANCH  21  22
ENDBRANCH   1  21
TORSDOF 17
ENDMDL
MODEL 3
REMARK VINA RESULT:     -10.4      1.536      2.755
REMARK SMILES C=CCN(CC(=O)OCCOC(=O)c1ccc(-c2c3nc(c(-c4c(F)c(F)c(F)c(F)c4F)c4ccc([nH]4)c(-c4c(F)c(F)c(F)c(F)c4F)c4nc(c(-c5c(F)c(F)c(F)c(F)c5F)c5ccc2[nH]5)C=C4)C=C3)cc1)C(=O)c1sc(N)nc1C
REMARK SMILES IDX 9 1 8 2 6 3 7 4 5 5 4 6 3 7 2 8 1 9 77 10 78 11 79 12 80 13
REMARK SMILES IDX 84 14 81 15 83 16 85 17 82 18 10 21 11 22 12 23 13 24 14 25
REMARK SMILES IDX 15 26 76 27 16 28 75 29 17 30 18 31 19 32 69 33 20 34 74 35
REMARK SMILES IDX 68 36 70 37 21 38 73 39 67 40 66 41 22 43 54 44 34 45 53 46
REMARK SMILES IDX 35 47 38 48 52 49 71 50 36 51 37 52 51 54 72 55 39 56 23 57
REMARK SMILES IDX 24 58 32 59 25 60 26 61 30 62 33 63 27 64 28 65 31 66 29 67
REMARK SMILES IDX 55 68 56 69 64 70 57 71 58 72 62 73 65 74 59 75 60 76 63 77
REMARK SMILES IDX 61 78 40 79 41 80 49 81 42 82 43 83 47 84 50 85 44 86 45 87
REMARK SMILES IDX 48 88 46 89
REMARK H PARENT 82 19 82 20 70 42 38 53
REMARK Flexibility Score: inf
ROOT
ATOM      1  C   UNL A   1      31.392  29.403  25.200  1.00  0.00     0.274 C 
ENDROOT
BRANCH   1   2
ATOM      2  O   UNL A   1      31.001  28.135  25.784  1.00  0.00    -0.461 OA
BRANCH   2   3
ATOM      3  C   UNL A   1      31.735  27.742  26.857  1.00  0.00     0.325 C 
ATOM      4  O   UNL A   1      31.365  27.871  28.022  1.00  0.00    -0.250 OA
BRANCH   3   5
ATOM      5  C   UNL A   1      32.994  26.934  26.517  1.00  0.00     0.242 C 
BRANCH   5   6
ATOM      6  N   UNL A   1      32.937  25.713  25.710  1.00  0.00    -0.323 N 
BRANCH   6   7
ATOM      7  C   UNL A   1      31.835  24.804  25.994  1.00  0.00     0.147 C 
BRANCH   7   8
ATOM      8  C   UNL A   1      32.372  23.593  26.705  1.00  0.00    -0.014 C 
ATOM      9  C   UNL A   1      32.312  22.346  26.215  1.00  0.00     0.006 C 
ENDBRANCH   7   8
ENDBRANCH   6   7
BRANCH   6  10
ATOM     10  C   UNL A   1      33.775  25.384  24.632  1.00  0.00     0.266 C 
ATOM     11  O   UNL A   1      34.892  24.905  24.839  1.00  0.00    -0.268 OA
BRANCH  10  12
ATOM     12  C   UNL A   1      33.380  25.686  23.276  1.00  0.00     0.117 A 
ATOM     13  S   UNL A   1      32.811  24.509  22.171  1.00  0.00    -0.092 S 
ATOM     14  C   UNL A   1      33.576  26.887  22.615  1.00  0.00     0.063 A 
ATOM     15  C   UNL A   1      32.759  25.710  20.937  1.00  0.00     0.180 A 
ATOM     16  N   UNL A   1      33.217  26.888  21.276  1.00  0.00    -0.225 NA
ATOM     17  C   UNL A   1      34.055  28.150  23.232  1.00  0.00     0.068 C 
BRANCH  15  18
ATOM     18  N   UNL A   1      32.298  25.456  19.707  1.00  0.00    -0.375 N 
ATOM     19  H   UNL A   1      31.412  25.787  19.435  1.00  0.00     0.159 HD
ATOM     20  H   UNL A   1      32.845  24.936  19.075  1.00  0.00     0.159 HD
ENDBRANCH  15  18
ENDBRANCH  10  12
ENDBRANCH   6  10
ENDBRANCH   5   6
ENDBRANCH   3   5
ENDBRANCH   2   3
ENDBRANCH   1   2
BRANCH   1  21
ATOM     21  C   UNL A   1      31.903  30.430  26.231  1.00  0.00     0.275 C 
BRANCH  21  22
ATOM     22  O   UNL A   1      33.323  30.692  26.141  1.00  0.00    -0.458 OA
BRANCH  22  23
ATOM     23  C   UNL A   1      33.773  31.409  27.188  1.00  0.00     0.338 C 
ATOM     24  O   UNL A   1      33.141  32.278  27.766  1.00  0.00    -0.246 OA
BRANCH  23  25
ATOM     25  C   UNL A   1      35.084  31.026  27.704  1.00  0.00     0.060 A 
ATOM     26  C   UNL A   1      35.231  29.740  28.232  1.00  0.00     0.016 A 
ATOM     27  C   UNL A   1      36.035  32.015  27.957  1.00  0.00     0.016 A 
ATOM     28  C   UNL A   1      36.323  29.444  29.040  1.00  0.00     0.010 A 
ATOM     29  C   UNL A   1      37.157  31.703  28.729  1.00  0.00     0.010 A 
ATOM     30  C   UNL A   1      37.300  30.420  29.282  1.00  0.00    -0.014 A 
BRANCH  30  31
ATOM     31  C   UNL A   1      38.539  30.041  29.991  1.00  0.00     0.031 A 
ATOM     32  C   UNL A   1      39.544  29.108  29.394  1.00  0.00     0.074 A 
ATOM     33  C   UNL A   1      38.734  30.572  31.210  1.00  0.00     0.049 A 
ATOM     34  N   UNL A   1      40.603  28.571  29.944  1.00  0.00    -0.248 NA
ATOM     35  C   UNL A   1      39.333  28.724  27.993  1.00  0.00     0.031 C 
ATOM     36  C   UNL A   1      37.832  31.526  31.857  1.00  0.00     0.029 A 
ATOM     37  N   UNL A   1      39.742  30.391  32.115  1.00  0.00    -0.354 N 
ATOM     38  C   UNL A   1      41.166  27.756  28.970  1.00  0.00     0.074 A 
ATOM     39  C   UNL A   1      40.332  27.872  27.791  1.00  0.00     0.031 C 
ATOM     40  C   UNL A   1      38.332  31.855  33.055  1.00  0.00     0.029 A 
ATOM     41  C   UNL A   1      39.554  31.092  33.278  1.00  0.00     0.049 A 
ATOM     42  H   UNL A   1      40.525  29.817  31.948  1.00  0.00     0.167 HD
ATOM     43  C   UNL A   1      42.280  26.991  29.066  1.00  0.00     0.037 A 
ATOM     44  C   UNL A   1      40.273  31.094  34.413  1.00  0.00     0.037 A 
ATOM     45  C   UNL A   1      43.123  26.934  30.236  1.00  0.00     0.049 A 
ATOM     46  C   UNL A   1      41.497  30.238  34.495  1.00  0.00     0.074 A 
ATOM     47  C   UNL A   1      44.285  26.209  30.435  1.00  0.00     0.029 A 
ATOM     48  N   UNL A   1      42.897  27.649  31.405  1.00  0.00    -0.354 N 
ATOM     49  N   UNL A   1      41.994  29.428  33.593  1.00  0.00    -0.248 NA
ATOM     50  C   UNL A   1      42.255  30.290  35.749  1.00  0.00     0.031 C 
ATOM     51  C   UNL A   1      44.750  26.469  31.730  1.00  0.00     0.029 A 
ATOM     52  C   UNL A   1      43.894  27.379  32.329  1.00  0.00     0.049 A 
ATOM     53  H   UNL A   1      42.138  28.259  31.556  1.00  0.00     0.167 HD
ATOM     54  C   UNL A   1      43.126  28.873  34.165  1.00  0.00     0.074 A 
ATOM     55  C   UNL A   1      43.251  29.453  35.488  1.00  0.00     0.031 C 
ATOM     56  C   UNL A   1      43.984  27.962  33.643  1.00  0.00     0.037 A 
BRANCH  43  57
ATOM     57  C   UNL A   1      42.650  26.135  27.890  1.00  0.00     0.064 A 
ATOM     58  C   UNL A   1      42.072  24.876  27.678  1.00  0.00     0.173 A 
ATOM     59  C   UNL A   1      43.554  26.612  26.926  1.00  0.00     0.173 A 
ATOM     60  F   UNL A   1      41.210  24.371  28.574  1.00  0.00    -0.203 F 
ATOM     61  C   UNL A   1      42.393  24.119  26.553  1.00  0.00     0.198 A 
ATOM     62  C   UNL A   1      43.858  25.862  25.792  1.00  0.00     0.198 A 
ATOM     63  F   UNL A   1      44.132  27.813  27.077  1.00  0.00    -0.203 F 
ATOM     64  F   UNL A   1      41.849  22.906  26.385  1.00  0.00    -0.200 F 
ATOM     65  C   UNL A   1      43.280  24.614  25.609  1.00  0.00     0.200 A 
ATOM     66  F   UNL A   1      44.706  26.346  24.876  1.00  0.00    -0.200 F 
ATOM     67  F   UNL A   1      43.581  23.889  24.522  1.00  0.00    -0.200 F 
ENDBRANCH  43  57
BRANCH  44  68
ATOM     68  C   UNL A   1      39.819  31.943  35.539  1.00  0.00     0.064 A 
ATOM     69  C   UNL A   1      40.309  33.243  35.698  1.00  0.00     0.173 A 
ATOM     70  C   UNL A   1      38.809  31.506  36.409  1.00  0.00     0.173 A 
ATOM     71  F   UNL A   1      41.281  33.695  34.892  1.00  0.00    -0.203 F 
ATOM     72  C   UNL A   1      39.797  34.084  36.682  1.00  0.00     0.198 A 
ATOM     73  C   UNL A   1      38.283  32.355  37.378  1.00  0.00     0.198 A 
ATOM     74  F   UNL A   1      38.299  30.272  36.281  1.00  0.00    -0.203 F 
ATOM     75  F   UNL A   1      40.283  35.325  36.819  1.00  0.00    -0.200 F 
ATOM     76  C   UNL A   1      38.777  33.644  37.513  1.00  0.00     0.200 A 
ATOM     77  F   UNL A   1      37.283  31.934  38.163  1.00  0.00    -0.200 F 
ATOM     78  F   UNL A   1      38.265  34.465  38.440  1.00  0.00    -0.200 F 
ENDBRANCH  44  68
BRANCH  56  79
ATOM     79  C   UNL A   1      45.130  27.553  34.515  1.00  0.00     0.064 A 
ATOM     80  C   UNL A   1      45.031  26.451  35.374  1.00  0.00     0.173 A 
ATOM     81  C   UNL A   1      46.334  28.269  34.488  1.00  0.00     0.173 A 
ATOM     82  F   UNL A   1      43.888  25.751  35.445  1.00  0.00    -0.203 F 
ATOM     83  C   UNL A   1      46.094  26.092  36.198  1.00  0.00     0.198 A 
ATOM     84  C   UNL A   1      47.401  27.897  35.300  1.00  0.00     0.198 A 
ATOM     85  F   UNL A   1      46.472  29.332  33.682  1.00  0.00    -0.203 F 
ATOM     86  F   UNL A   1      45.966  25.061  37.044  1.00  0.00    -0.200 F 
ATOM     87  C   UNL A   1      47.278  26.814  36.158  1.00  0.00     0.200 A 
ATOM     88  F   UNL A   1      48.546  28.593  35.261  1.00  0.00    -0.200 F 
ATOM     89  F   UNL A   1      48.298  26.472  36.956  1.00  0.00    -0.200 F 
ENDBRANCH  56  79
ENDBRANCH  30  31
ENDBRANCH  23  25
ENDBRANCH  22  23
ENDBRANCH  21  22
ENDBRANCH   1  21
TORSDOF 17
ENDMDL
