MODEL 1
REMARK VINA RESULT:     -12.9      0.000      0.000
REMARK SMILES O=C(OCCOC(=O)[C@H]1CC=CC[C@@H]1C(=O)N[C@@H]1CCCN(c2ccccc2F)C1=O)c1ccc(-c2c3nc(c(-c4c(F)c(F)c(F)c(F)c4F)c4ccc([nH]4)c(-c4c(F)c(F)c(F)c(F)c4F)c4nc(c(-c5c(F)c(F)c(F)c(F)c5F)c5ccc2[nH]5)C=C4)C=C3)cc1
REMARK SMILES IDX 5 1 4 2 3 3 2 4 1 5 32 6 33 7 94 8 34 9 93 10 35 11 36 12
REMARK SMILES IDX 37 13 87 14 38 15 92 16 86 17 88 18 39 19 91 20 85 21 84 22
REMARK SMILES IDX 40 24 72 25 52 26 71 27 53 28 56 29 70 30 89 31 54 32 55 33
REMARK SMILES IDX 69 35 90 36 57 37 41 38 42 39 50 40 43 41 44 42 48 43 51 44
REMARK SMILES IDX 45 45 46 46 49 47 47 48 73 49 74 50 82 51 75 52 76 53 80 54
REMARK SMILES IDX 83 55 77 56 78 57 81 58 79 59 58 60 59 61 67 62 60 63 61 64
REMARK SMILES IDX 65 65 68 66 62 67 63 68 66 69 64 70 6 71 7 72 8 73 9 74
REMARK SMILES IDX 10 75 14 76 11 77 13 78 12 79 15 80 16 81 17 82 18 84 19 85
REMARK SMILES IDX 30 86 20 87 22 88 31 89 21 90 23 91 24 92 28 93 25 94 27 95
REMARK SMILES IDX 29 96 26 97
REMARK H PARENT 88 23 56 34 17 83
REMARK Flexibility Score: inf
ROOT
ATOM      1  C   UNL A   1      36.555  23.395  24.070  1.00  0.00     0.274 C 
ENDROOT
BRANCH   1   2
ATOM      2  C   UNL A   1      37.155  22.274  24.945  1.00  0.00     0.275 C 
BRANCH   2   3
ATOM      3  O   UNL A   1      37.859  22.624  26.147  1.00  0.00    -0.458 OA
BRANCH   3   4
ATOM      4  C   UNL A   1      39.161  22.929  26.314  1.00  0.00     0.338 C 
ATOM      5  O   UNL A   1      40.032  22.082  26.126  1.00  0.00    -0.246 OA
BRANCH   4   6
ATOM      6  C   UNL A   1      39.571  24.249  26.851  1.00  0.00     0.060 A 
ATOM      7  C   UNL A   1      40.305  25.206  26.149  1.00  0.00     0.016 A 
ATOM      8  C   UNL A   1      39.195  24.522  28.170  1.00  0.00     0.016 A 
ATOM      9  C   UNL A   1      40.571  26.453  26.718  1.00  0.00     0.010 A 
ATOM     10  C   UNL A   1      39.404  25.779  28.723  1.00  0.00     0.010 A 
ATOM     11  C   UNL A   1      40.122  26.749  28.006  1.00  0.00    -0.014 A 
BRANCH  11  12
ATOM     12  C   UNL A   1      40.541  27.996  28.687  1.00  0.00     0.031 A 
ATOM     13  C   UNL A   1      41.851  27.974  29.435  1.00  0.00     0.074 A 
ATOM     14  C   UNL A   1      39.711  29.057  28.743  1.00  0.00     0.049 A 
ATOM     15  N   UNL A   1      42.322  28.827  30.309  1.00  0.00    -0.248 NA
ATOM     16  C   UNL A   1      42.700  26.782  29.247  1.00  0.00     0.031 C 
ATOM     17  C   UNL A   1      38.363  29.114  28.166  1.00  0.00     0.029 A 
ATOM     18  N   UNL A   1      39.836  30.256  29.404  1.00  0.00    -0.354 N 
ATOM     19  C   UNL A   1      43.522  28.274  30.749  1.00  0.00     0.074 A 
ATOM     20  C   UNL A   1      43.618  26.951  30.183  1.00  0.00     0.031 C 
ATOM     21  C   UNL A   1      37.762  30.252  28.557  1.00  0.00     0.029 A 
ATOM     22  C   UNL A   1      38.672  30.991  29.427  1.00  0.00     0.049 A 
ATOM     23  H   UNL A   1      40.676  30.559  29.819  1.00  0.00     0.167 HD
ATOM     24  C   UNL A   1      44.499  28.856  31.485  1.00  0.00     0.037 A 
ATOM     25  C   UNL A   1      38.354  32.081  30.155  1.00  0.00     0.037 A 
ATOM     26  C   UNL A   1      44.383  30.188  32.004  1.00  0.00     0.049 A 
ATOM     27  C   UNL A   1      39.413  32.689  31.034  1.00  0.00     0.074 A 
ATOM     28  C   UNL A   1      45.334  30.954  32.649  1.00  0.00     0.029 A 
ATOM     29  N   UNL A   1      43.229  30.954  31.924  1.00  0.00    -0.354 N 
ATOM     30  N   UNL A   1      40.597  32.218  31.346  1.00  0.00    -0.248 NA
ATOM     31  C   UNL A   1      39.106  33.992  31.638  1.00  0.00     0.031 C 
ATOM     32  C   UNL A   1      44.741  32.168  33.002  1.00  0.00     0.029 A 
ATOM     33  C   UNL A   1      43.439  32.182  32.522  1.00  0.00     0.049 A 
ATOM     34  H   UNL A   1      42.387  30.667  31.504  1.00  0.00     0.167 HD
ATOM     35  C   UNL A   1      41.209  33.204  32.109  1.00  0.00     0.074 A 
ATOM     36  C   UNL A   1      40.244  34.274  32.258  1.00  0.00     0.031 C 
ATOM     37  C   UNL A   1      42.466  33.240  32.611  1.00  0.00     0.037 A 
BRANCH  24  38
ATOM     38  C   UNL A   1      45.788  28.099  31.681  1.00  0.00     0.064 A 
ATOM     39  C   UNL A   1      46.833  28.171  30.748  1.00  0.00     0.173 A 
ATOM     40  C   UNL A   1      45.968  27.243  32.783  1.00  0.00     0.173 A 
ATOM     41  F   UNL A   1      46.710  28.921  29.645  1.00  0.00    -0.203 F 
ATOM     42  C   UNL A   1      48.010  27.446  30.924  1.00  0.00     0.198 A 
ATOM     43  C   UNL A   1      47.157  26.543  32.972  1.00  0.00     0.198 A 
ATOM     44  F   UNL A   1      44.997  27.106  33.699  1.00  0.00    -0.203 F 
ATOM     45  F   UNL A   1      48.983  27.524  30.005  1.00  0.00    -0.200 F 
ATOM     46  C   UNL A   1      48.176  26.642  32.040  1.00  0.00     0.200 A 
ATOM     47  F   UNL A   1      47.315  25.779  34.061  1.00  0.00    -0.200 F 
ATOM     48  F   UNL A   1      49.315  25.958  32.214  1.00  0.00    -0.200 F 
ENDBRANCH  24  38
BRANCH  25  49
ATOM     49  C   UNL A   1      36.978  32.646  30.124  1.00  0.00     0.064 A 
ATOM     50  C   UNL A   1      36.061  32.391  31.155  1.00  0.00     0.173 A 
ATOM     51  C   UNL A   1      36.567  33.491  29.086  1.00  0.00     0.173 A 
ATOM     52  F   UNL A   1      36.401  31.596  32.179  1.00  0.00    -0.203 F 
ATOM     53  C   UNL A   1      34.788  32.962  31.150  1.00  0.00     0.198 A 
ATOM     54  C   UNL A   1      35.301  34.078  29.091  1.00  0.00     0.198 A 
ATOM     55  F   UNL A   1      37.417  33.786  28.093  1.00  0.00    -0.203 F 
ATOM     56  F   UNL A   1      33.935  32.698  32.149  1.00  0.00    -0.200 F 
ATOM     57  C   UNL A   1      34.412  33.812  30.122  1.00  0.00     0.200 A 
ATOM     58  F   UNL A   1      34.953  34.920  28.110  1.00  0.00    -0.200 F 
ATOM     59  F   UNL A   1      33.201  34.384  30.132  1.00  0.00    -0.200 F 
ENDBRANCH  25  49
BRANCH  37  60
ATOM     60  C   UNL A   1      42.921  34.509  33.262  1.00  0.00     0.064 A 
ATOM     61  C   UNL A   1      42.766  34.668  34.649  1.00  0.00     0.173 A 
ATOM     62  C   UNL A   1      43.398  35.596  32.520  1.00  0.00     0.173 A 
ATOM     63  F   UNL A   1      42.304  33.654  35.398  1.00  0.00    -0.203 F 
ATOM     64  C   UNL A   1      43.043  35.883  35.265  1.00  0.00     0.198 A 
ATOM     65  C   UNL A   1      43.706  36.800  33.145  1.00  0.00     0.198 A 
ATOM     66  F   UNL A   1      43.577  35.481  31.195  1.00  0.00    -0.203 F 
ATOM     67  F   UNL A   1      42.838  36.027  36.581  1.00  0.00    -0.200 F 
ATOM     68  C   UNL A   1      43.515  36.948  34.512  1.00  0.00     0.200 A 
ATOM     69  F   UNL A   1      44.184  37.823  32.423  1.00  0.00    -0.200 F 
ATOM     70  F   UNL A   1      43.782  38.119  35.105  1.00  0.00    -0.200 F 
ENDBRANCH  37  60
ENDBRANCH  11  12
ENDBRANCH   4   6
ENDBRANCH   3   4
ENDBRANCH   2   3
ENDBRANCH   1   2
BRANCH   1  71
ATOM     71  O   UNL A   1      35.238  23.911  24.376  1.00  0.00    -0.462 OA
BRANCH  71  72
ATOM     72  C   UNL A   1      34.318  23.556  23.433  1.00  0.00     0.310 C 
ATOM     73  O   UNL A   1      34.661  23.325  22.278  1.00  0.00    -0.252 OA
BRANCH  72  74
ATOM     74  C   UNL A   1      32.844  23.696  23.896  1.00  0.00     0.115 C 
ATOM     75  C   UNL A   1      32.081  22.715  22.967  1.00  0.00     0.043 C 
ATOM     76  C   UNL A   1      32.504  23.391  25.390  1.00  0.00     0.097 C 
ATOM     77  C   UNL A   1      32.288  21.284  23.402  1.00  0.00    -0.030 C 
ATOM     78  C   UNL A   1      32.950  21.950  25.731  1.00  0.00     0.041 C 
ATOM     79  C   UNL A   1      32.719  20.950  24.630  1.00  0.00    -0.030 C 
BRANCH  76  80
ATOM     80  C   UNL A   1      30.981  23.441  25.658  1.00  0.00     0.224 C 
ATOM     81  O   UNL A   1      30.381  22.473  26.143  1.00  0.00    -0.275 OA
ATOM     82  N   UNL A   1      30.151  24.473  25.443  1.00  0.00    -0.344 N 
ATOM     83  H   UNL A   1      29.221  24.183  25.586  1.00  0.00     0.164 HD
BRANCH  82  84
ATOM     84  C   UNL A   1      30.169  25.882  25.072  1.00  0.00     0.172 C 
ATOM     85  C   UNL A   1      30.185  26.166  23.589  1.00  0.00     0.037 C 
ATOM     86  C   UNL A   1      31.092  26.766  25.950  1.00  0.00     0.249 C 
ATOM     87  C   UNL A   1      29.985  27.664  23.451  1.00  0.00     0.025 C 
ATOM     88  N   UNL A   1      31.482  28.005  25.412  1.00  0.00    -0.308 N 
ATOM     89  O   UNL A   1      31.278  26.442  27.127  1.00  0.00    -0.272 OA
ATOM     90  C   UNL A   1      31.193  28.369  24.026  1.00  0.00     0.126 C 
BRANCH  88  91
ATOM     91  C   UNL A   1      32.375  28.874  26.129  1.00  0.00     0.080 A 
ATOM     92  C   UNL A   1      31.963  30.161  26.509  1.00  0.00     0.029 A 
ATOM     93  C   UNL A   1      33.689  28.494  26.446  1.00  0.00     0.146 A 
ATOM     94  C   UNL A   1      32.819  31.014  27.214  1.00  0.00     0.002 A 
ATOM     95  C   UNL A   1      34.544  29.341  27.153  1.00  0.00     0.041 A 
ATOM     96  F   UNL A   1      34.210  27.353  25.970  1.00  0.00    -0.205 F 
ATOM     97  C   UNL A   1      34.107  30.602  27.543  1.00  0.00     0.003 A 
ENDBRANCH  88  91
ENDBRANCH  82  84
ENDBRANCH  76  80
ENDBRANCH  72  74
ENDBRANCH  71  72
ENDBRANCH   1  71
TORSDOF 14
ENDMDL
MODEL 2
REMARK VINA RESULT:     -12.9      2.986      8.708
REMARK SMILES O=C(OCCOC(=O)[C@H]1CC=CC[C@@H]1C(=O)N[C@@H]1CCCN(c2ccccc2F)C1=O)c1ccc(-c2c3nc(c(-c4c(F)c(F)c(F)c(F)c4F)c4ccc([nH]4)c(-c4c(F)c(F)c(F)c(F)c4F)c4nc(c(-c5c(F)c(F)c(F)c(F)c5F)c5ccc2[nH]5)C=C4)C=C3)cc1
REMARK SMILES IDX 5 1 4 2 3 3 2 4 1 5 32 6 33 7 94 8 34 9 93 10 35 11 36 12
REMARK SMILES IDX 37 13 87 14 38 15 92 16 86 17 88 18 39 19 91 20 85 21 84 22
REMARK SMILES IDX 40 24 72 25 52 26 71 27 53 28 56 29 70 30 89 31 54 32 55 33
REMARK SMILES IDX 69 35 90 36 57 37 41 38 42 39 50 40 43 41 44 42 48 43 51 44
REMARK SMILES IDX 45 45 46 46 49 47 47 48 73 49 74 50 82 51 75 52 76 53 80 54
REMARK SMILES IDX 83 55 77 56 78 57 81 58 79 59 58 60 59 61 67 62 60 63 61 64
REMARK SMILES IDX 65 65 68 66 62 67 63 68 66 69 64 70 6 71 7 72 8 73 9 74
REMARK SMILES IDX 10 75 14 76 11 77 13 78 12 79 15 80 16 81 17 82 18 84 19 85
REMARK SMILES IDX 30 86 20 87 22 88 31 89 21 90 23 91 24 92 28 93 25 94 27 95
REMARK SMILES IDX 29 96 26 97
REMARK H PARENT 88 23 56 34 17 83
REMARK Flexibility Score: inf
ROOT
ATOM      1  C   UNL A   1      32.777  27.893  26.992  1.00  0.00     0.274 C 
ENDROOT
BRANCH   1   2
ATOM      2  C   UNL A   1      34.046  28.757  26.832  1.00  0.00     0.275 C 
BRANCH   2   3
ATOM      3  O   UNL A   1      34.006  30.139  27.222  1.00  0.00    -0.458 OA
BRANCH   3   4
ATOM      4  C   UNL A   1      34.781  30.796  28.109  1.00  0.00     0.338 C 
ATOM      5  O   UNL A   1      34.463  31.914  28.511  1.00  0.00    -0.246 OA
BRANCH   4   6
ATOM      6  C   UNL A   1      36.096  30.250  28.522  1.00  0.00     0.060 A 
ATOM      7  C   UNL A   1      36.365  29.657  29.757  1.00  0.00     0.016 A 
ATOM      8  C   UNL A   1      37.133  30.368  27.590  1.00  0.00     0.016 A 
ATOM      9  C   UNL A   1      37.618  29.101  30.018  1.00  0.00     0.010 A 
ATOM     10  C   UNL A   1      38.364  29.766  27.819  1.00  0.00     0.010 A 
ATOM     11  C   UNL A   1      38.625  29.150  29.052  1.00  0.00    -0.014 A 
BRANCH  11  12
ATOM     12  C   UNL A   1      40.005  28.720  29.374  1.00  0.00     0.031 A 
ATOM     13  C   UNL A   1      40.959  29.769  29.891  1.00  0.00     0.074 A 
ATOM     14  C   UNL A   1      40.418  27.469  29.083  1.00  0.00     0.049 A 
ATOM     15  N   UNL A   1      42.262  29.722  30.007  1.00  0.00    -0.248 NA
ATOM     16  C   UNL A   1      40.376  31.081  30.231  1.00  0.00     0.031 C 
ATOM     17  C   UNL A   1      39.600  26.430  28.448  1.00  0.00     0.029 A 
ATOM     18  N   UNL A   1      41.662  26.893  29.184  1.00  0.00    -0.354 N 
ATOM     19  C   UNL A   1      42.635  30.989  30.447  1.00  0.00     0.074 A 
ATOM     20  C   UNL A   1      41.457  31.820  30.412  1.00  0.00     0.031 C 
ATOM     21  C   UNL A   1      40.379  25.373  28.153  1.00  0.00     0.029 A 
ATOM     22  C   UNL A   1      41.750  25.669  28.556  1.00  0.00     0.049 A 
ATOM     23  H   UNL A   1      42.416  27.313  29.658  1.00  0.00     0.167 HD
ATOM     24  C   UNL A   1      43.834  31.395  30.927  1.00  0.00     0.037 A 
ATOM     25  C   UNL A   1      42.837  24.930  28.256  1.00  0.00     0.037 A 
ATOM     26  C   UNL A   1      44.977  30.530  30.979  1.00  0.00     0.049 A 
ATOM     27  C   UNL A   1      44.184  25.414  28.720  1.00  0.00     0.074 A 
ATOM     28  C   UNL A   1      46.212  30.756  31.554  1.00  0.00     0.029 A 
ATOM     29  N   UNL A   1      45.011  29.255  30.430  1.00  0.00    -0.354 N 
ATOM     30  N   UNL A   1      44.507  26.569  29.252  1.00  0.00    -0.248 NA
ATOM     31  C   UNL A   1      45.310  24.484  28.572  1.00  0.00     0.031 C 
ATOM     32  C   UNL A   1      47.011  29.636  31.313  1.00  0.00     0.029 A 
ATOM     33  C   UNL A   1      46.253  28.687  30.641  1.00  0.00     0.049 A 
ATOM     34  H   UNL A   1      44.263  28.821  29.962  1.00  0.00     0.167 HD
ATOM     35  C   UNL A   1      45.853  26.472  29.581  1.00  0.00     0.074 A 
ATOM     36  C   UNL A   1      46.297  25.167  29.138  1.00  0.00     0.031 C 
ATOM     37  C   UNL A   1      46.642  27.365  30.223  1.00  0.00     0.037 A 
BRANCH  24  38
ATOM     38  C   UNL A   1      43.935  32.782  31.509  1.00  0.00     0.064 A 
ATOM     39  C   UNL A   1      44.362  33.874  30.740  1.00  0.00     0.173 A 
ATOM     40  C   UNL A   1      43.662  33.022  32.869  1.00  0.00     0.173 A 
ATOM     41  F   UNL A   1      44.696  33.711  29.453  1.00  0.00    -0.203 F 
ATOM     42  C   UNL A   1      44.479  35.148  31.294  1.00  0.00     0.198 A 
ATOM     43  C   UNL A   1      43.751  34.300  33.413  1.00  0.00     0.198 A 
ATOM     44  F   UNL A   1      43.276  32.015  33.669  1.00  0.00    -0.203 F 
ATOM     45  F   UNL A   1      44.906  36.167  30.535  1.00  0.00    -0.200 F 
ATOM     46  C   UNL A   1      44.164  35.362  32.626  1.00  0.00     0.200 A 
ATOM     47  F   UNL A   1      43.429  34.502  34.698  1.00  0.00    -0.200 F 
ATOM     48  F   UNL A   1      44.263  36.590  33.153  1.00  0.00    -0.200 F 
ENDBRANCH  24  38
BRANCH  25  49
ATOM     49  C   UNL A   1      42.716  23.686  27.448  1.00  0.00     0.064 A 
ATOM     50  C   UNL A   1      43.097  23.653  26.098  1.00  0.00     0.173 A 
ATOM     51  C   UNL A   1      42.259  22.494  28.022  1.00  0.00     0.173 A 
ATOM     52  F   UNL A   1      43.549  24.761  25.497  1.00  0.00    -0.203 F 
ATOM     53  C   UNL A   1      43.030  22.474  25.356  1.00  0.00     0.198 A 
ATOM     54  C   UNL A   1      42.211  21.310  27.286  1.00  0.00     0.198 A 
ATOM     55  F   UNL A   1      41.910  22.469  29.316  1.00  0.00    -0.203 F 
ATOM     56  F   UNL A   1      43.401  22.474  24.069  1.00  0.00    -0.200 F 
ATOM     57  C   UNL A   1      42.595  21.301  25.952  1.00  0.00     0.200 A 
ATOM     58  F   UNL A   1      41.816  20.174  27.874  1.00  0.00    -0.200 F 
ATOM     59  F   UNL A   1      42.558  20.162  25.249  1.00  0.00    -0.200 F 
ENDBRANCH  25  49
BRANCH  37  60
ATOM     60  C   UNL A   1      48.026  26.931  30.597  1.00  0.00     0.064 A 
ATOM     61  C   UNL A   1      49.098  27.229  29.740  1.00  0.00     0.173 A 
ATOM     62  C   UNL A   1      48.278  26.138  31.722  1.00  0.00     0.173 A 
ATOM     63  F   UNL A   1      48.900  27.980  28.646  1.00  0.00    -0.203 F 
ATOM     64  C   UNL A   1      50.368  26.719  29.981  1.00  0.00     0.198 A 
ATOM     65  C   UNL A   1      49.557  25.656  31.978  1.00  0.00     0.198 A 
ATOM     66  F   UNL A   1      47.285  25.843  32.575  1.00  0.00    -0.203 F 
ATOM     67  F   UNL A   1      51.365  26.973  29.122  1.00  0.00    -0.200 F 
ATOM     68  C   UNL A   1      50.598  25.934  31.102  1.00  0.00     0.200 A 
ATOM     69  F   UNL A   1      49.786  24.917  33.073  1.00  0.00    -0.200 F 
ATOM     70  F   UNL A   1      51.822  25.443  31.334  1.00  0.00    -0.200 F 
ENDBRANCH  37  60
ENDBRANCH  11  12
ENDBRANCH   4   6
ENDBRANCH   3   4
ENDBRANCH   2   3
ENDBRANCH   1   2
BRANCH   1  71
ATOM     71  O   UNL A   1      32.783  26.524  26.523  1.00  0.00    -0.462 OA
BRANCH  71  72
ATOM     72  C   UNL A   1      31.568  26.146  26.030  1.00  0.00     0.310 C 
ATOM     73  O   UNL A   1      30.554  26.254  26.713  1.00  0.00    -0.252 OA
BRANCH  72  74
ATOM     74  C   UNL A   1      31.634  25.391  24.677  1.00  0.00     0.115 C 
ATOM     75  C   UNL A   1      30.144  25.256  24.267  1.00  0.00     0.043 C 
ATOM     76  C   UNL A   1      32.454  26.032  23.511  1.00  0.00     0.097 C 
ATOM     77  C   UNL A   1      29.607  26.564  23.736  1.00  0.00    -0.030 C 
ATOM     78  C   UNL A   1      31.900  27.445  23.213  1.00  0.00     0.041 C 
ATOM     79  C   UNL A   1      30.401  27.557  23.304  1.00  0.00    -0.030 C 
BRANCH  76  80
ATOM     80  C   UNL A   1      32.309  25.231  22.195  1.00  0.00     0.224 C 
ATOM     81  O   UNL A   1      31.944  25.777  21.146  1.00  0.00    -0.275 OA
ATOM     82  N   UNL A   1      32.562  23.927  22.005  1.00  0.00    -0.344 N 
ATOM     83  H   UNL A   1      32.263  23.661  21.104  1.00  0.00     0.164 HD
BRANCH  82  84
ATOM     84  C   UNL A   1      33.133  22.773  22.687  1.00  0.00     0.172 C 
ATOM     85  C   UNL A   1      32.179  21.989  23.556  1.00  0.00     0.037 C 
ATOM     86  C   UNL A   1      34.553  23.007  23.264  1.00  0.00     0.249 C 
ATOM     87  C   UNL A   1      32.931  20.740  23.976  1.00  0.00     0.025 C 
ATOM     88  N   UNL A   1      34.983  22.121  24.268  1.00  0.00    -0.308 N 
ATOM     89  O   UNL A   1      35.298  23.813  22.698  1.00  0.00    -0.272 OA
ATOM     90  C   UNL A   1      34.079  21.144  24.873  1.00  0.00     0.126 C 
BRANCH  88  91
ATOM     91  C   UNL A   1      36.264  22.285  24.899  1.00  0.00     0.080 A 
ATOM     92  C   UNL A   1      37.204  21.242  24.884  1.00  0.00     0.029 A 
ATOM     93  C   UNL A   1      36.614  23.462  25.579  1.00  0.00     0.146 A 
ATOM     94  C   UNL A   1      38.457  21.391  25.487  1.00  0.00     0.002 A 
ATOM     95  C   UNL A   1      37.864  23.616  26.179  1.00  0.00     0.041 A 
ATOM     96  F   UNL A   1      35.711  24.433  25.785  1.00  0.00    -0.205 F 
ATOM     97  C   UNL A   1      38.791  22.580  26.129  1.00  0.00     0.003 A 
ENDBRANCH  88  91
ENDBRANCH  82  84
ENDBRANCH  76  80
ENDBRANCH  72  74
ENDBRANCH  71  72
ENDBRANCH   1  71
TORSDOF 14
ENDMDL
MODEL 3
REMARK VINA RESULT:     -12.9      2.881      8.642
REMARK SMILES O=C(OCCOC(=O)[C@H]1CC=CC[C@@H]1C(=O)N[C@@H]1CCCN(c2ccccc2F)C1=O)c1ccc(-c2c3nc(c(-c4c(F)c(F)c(F)c(F)c4F)c4ccc([nH]4)c(-c4c(F)c(F)c(F)c(F)c4F)c4nc(c(-c5c(F)c(F)c(F)c(F)c5F)c5ccc2[nH]5)C=C4)C=C3)cc1
REMARK SMILES IDX 5 1 4 2 3 3 2 4 1 5 32 6 33 7 94 8 34 9 93 10 35 11 36 12
REMARK SMILES IDX 37 13 87 14 38 15 92 16 86 17 88 18 39 19 91 20 85 21 84 22
REMARK SMILES IDX 40 24 72 25 52 26 71 27 53 28 56 29 70 30 89 31 54 32 55 33
REMARK SMILES IDX 69 35 90 36 57 37 41 38 42 39 50 40 43 41 44 42 48 43 51 44
REMARK SMILES IDX 45 45 46 46 49 47 47 48 73 49 74 50 82 51 75 52 76 53 80 54
REMARK SMILES IDX 83 55 77 56 78 57 81 58 79 59 58 60 59 61 67 62 60 63 61 64
REMARK SMILES IDX 65 65 68 66 62 67 63 68 66 69 64 70 6 71 7 72 8 73 9 74
REMARK SMILES IDX 10 75 14 76 11 77 13 78 12 79 15 80 16 81 17 82 18 84 19 85
REMARK SMILES IDX 30 86 20 87 22 88 31 89 21 90 23 91 24 92 28 93 25 94 27 95
REMARK SMILES IDX 29 96 26 97
REMARK H PARENT 88 23 56 34 17 83
REMARK Flexibility Score: inf
ROOT
ATOM      1  C   UNL A   1      32.422  28.200  27.169  1.00  0.00     0.274 C 
ENDROOT
BRANCH   1   2
ATOM      2  C   UNL A   1      32.675  29.595  26.559  1.00  0.00     0.275 C 
BRANCH   2   3
ATOM      3  O   UNL A   1      33.964  30.208  26.723  1.00  0.00    -0.458 OA
BRANCH   3   4
ATOM      4  C   UNL A   1      34.539  30.694  27.841  1.00  0.00     0.338 C 
ATOM      5  O   UNL A   1      34.030  31.634  28.450  1.00  0.00    -0.246 OA
BRANCH   4   6
ATOM      6  C   UNL A   1      35.862  30.201  28.292  1.00  0.00     0.060 A 
ATOM      7  C   UNL A   1      36.139  29.703  29.567  1.00  0.00     0.016 A 
ATOM      8  C   UNL A   1      36.899  30.267  27.355  1.00  0.00     0.016 A 
ATOM      9  C   UNL A   1      37.401  29.187  29.867  1.00  0.00     0.010 A 
ATOM     10  C   UNL A   1      38.139  29.703  27.626  1.00  0.00     0.010 A 
ATOM     11  C   UNL A   1      38.408  29.182  28.900  1.00  0.00    -0.014 A 
BRANCH  11  12
ATOM     12  C   UNL A   1      39.795  28.799  29.253  1.00  0.00     0.031 A 
ATOM     13  C   UNL A   1      40.709  29.885  29.764  1.00  0.00     0.074 A 
ATOM     14  C   UNL A   1      40.248  27.555  28.994  1.00  0.00     0.049 A 
ATOM     15  N   UNL A   1      42.011  29.878  29.901  1.00  0.00    -0.248 NA
ATOM     16  C   UNL A   1      40.084  31.186  30.068  1.00  0.00     0.031 C 
ATOM     17  C   UNL A   1      39.470  26.480  28.367  1.00  0.00     0.029 A 
ATOM     18  N   UNL A   1      41.506  27.017  29.126  1.00  0.00    -0.354 N 
ATOM     19  C   UNL A   1      42.341  31.163  30.322  1.00  0.00     0.074 A 
ATOM     20  C   UNL A   1      41.140  31.959  30.251  1.00  0.00     0.031 C 
ATOM     21  C   UNL A   1      40.284  25.441  28.106  1.00  0.00     0.029 A 
ATOM     22  C   UNL A   1      41.639  25.784  28.524  1.00  0.00     0.049 A 
ATOM     23  H   UNL A   1      42.239  27.468  29.604  1.00  0.00     0.167 HD
ATOM     24  C   UNL A   1      43.520  31.614  30.812  1.00  0.00     0.037 A 
ATOM     25  C   UNL A   1      42.751  25.071  28.256  1.00  0.00     0.037 A 
ATOM     26  C   UNL A   1      44.686  30.783  30.899  1.00  0.00     0.049 A 
ATOM     27  C   UNL A   1      44.076  25.603  28.732  1.00  0.00     0.074 A 
ATOM     28  C   UNL A   1      45.904  31.056  31.489  1.00  0.00     0.029 A 
ATOM     29  N   UNL A   1      44.765  29.499  30.377  1.00  0.00    -0.354 N 
ATOM     30  N   UNL A   1      44.357  26.777  29.245  1.00  0.00    -0.248 NA
ATOM     31  C   UNL A   1      45.231  24.703  28.620  1.00  0.00     0.031 C 
ATOM     32  C   UNL A   1      46.738  29.954  31.283  1.00  0.00     0.029 A 
ATOM     33  C   UNL A   1      46.019  28.971  30.618  1.00  0.00     0.049 A 
ATOM     34  H   UNL A   1      44.037  29.034  29.906  1.00  0.00     0.167 HD
ATOM     35  C   UNL A   1      45.700  26.726  29.597  1.00  0.00     0.074 A 
ATOM     36  C   UNL A   1      46.188  25.425  29.188  1.00  0.00     0.031 C 
ATOM     37  C   UNL A   1      46.453  27.654  30.234  1.00  0.00     0.037 A 
BRANCH  24  38
ATOM     38  C   UNL A   1      43.571  33.014  31.368  1.00  0.00     0.064 A 
ATOM     39  C   UNL A   1      43.252  33.286  32.706  1.00  0.00     0.173 A 
ATOM     40  C   UNL A   1      43.885  34.112  30.546  1.00  0.00     0.173 A 
ATOM     41  F   UNL A   1      42.886  32.298  33.534  1.00  0.00    -0.203 F 
ATOM     42  C   UNL A   1      43.275  34.588  33.205  1.00  0.00     0.198 A 
ATOM     43  C   UNL A   1      43.937  35.407  31.053  1.00  0.00     0.198 A 
ATOM     44  F   UNL A   1      44.174  33.925  29.248  1.00  0.00    -0.203 F 
ATOM     45  F   UNL A   1      42.949  34.816  34.485  1.00  0.00    -0.200 F 
ATOM     46  C   UNL A   1      43.628  35.645  32.382  1.00  0.00     0.200 A 
ATOM     47  F   UNL A   1      44.294  36.423  30.255  1.00  0.00    -0.200 F 
ATOM     48  F   UNL A   1      43.664  36.893  32.867  1.00  0.00    -0.200 F 
ENDBRANCH  24  38
BRANCH  25  49
ATOM     49  C   UNL A   1      42.679  23.809  27.472  1.00  0.00     0.064 A 
ATOM     50  C   UNL A   1      43.049  23.768  26.119  1.00  0.00     0.173 A 
ATOM     51  C   UNL A   1      42.281  22.607  28.071  1.00  0.00     0.173 A 
ATOM     52  F   UNL A   1      43.445  24.884  25.494  1.00  0.00    -0.203 F 
ATOM     53  C   UNL A   1      43.028  22.574  25.398  1.00  0.00     0.198 A 
ATOM     54  C   UNL A   1      42.280  21.409  27.356  1.00  0.00     0.198 A 
ATOM     55  F   UNL A   1      41.945  22.591  29.369  1.00  0.00    -0.203 F 
ATOM     56  F   UNL A   1      43.387  22.567  24.108  1.00  0.00    -0.200 F 
ATOM     57  C   UNL A   1      42.652  21.393  26.020  1.00  0.00     0.200 A 
ATOM     58  F   UNL A   1      41.942  20.268  27.969  1.00  0.00    -0.200 F 
ATOM     59  F   UNL A   1      42.660  20.241  25.337  1.00  0.00    -0.200 F 
ENDBRANCH  25  49
BRANCH  37  60
ATOM     60  C   UNL A   1      47.842  27.266  30.638  1.00  0.00     0.064 A 
ATOM     61  C   UNL A   1      48.053  26.657  31.885  1.00  0.00     0.173 A 
ATOM     62  C   UNL A   1      48.960  27.590  29.861  1.00  0.00     0.173 A 
ATOM     63  F   UNL A   1      47.010  26.337  32.666  1.00  0.00    -0.203 F 
ATOM     64  C   UNL A   1      49.339  26.415  32.354  1.00  0.00     0.198 A 
ATOM     65  C   UNL A   1      50.245  27.317  30.319  1.00  0.00     0.198 A 
ATOM     66  F   UNL A   1      48.802  28.158  28.655  1.00  0.00    -0.203 F 
ATOM     67  F   UNL A   1      49.518  25.882  33.570  1.00  0.00    -0.200 F 
ATOM     68  C   UNL A   1      50.435  26.744  31.569  1.00  0.00     0.200 A 
ATOM     69  F   UNL A   1      51.303  27.612  29.552  1.00  0.00    -0.200 F 
ATOM     70  F   UNL A   1      51.674  26.511  32.021  1.00  0.00    -0.200 F 
ENDBRANCH  37  60
ENDBRANCH  11  12
ENDBRANCH   4   6
ENDBRANCH   3   4
ENDBRANCH   2   3
ENDBRANCH   1   2
BRANCH   1  71
ATOM     71  O   UNL A   1      32.677  27.017  26.375  1.00  0.00    -0.462 OA
BRANCH  71  72
ATOM     72  C   UNL A   1      31.526  26.352  26.065  1.00  0.00     0.310 C 
ATOM     73  O   UNL A   1      30.608  26.275  26.876  1.00  0.00    -0.252 OA
BRANCH  72  74
ATOM     74  C   UNL A   1      31.592  25.547  24.741  1.00  0.00     0.115 C 
ATOM     75  C   UNL A   1      30.116  25.521  24.263  1.00  0.00     0.043 C 
ATOM     76  C   UNL A   1      32.514  26.077  23.597  1.00  0.00     0.097 C 
ATOM     77  C   UNL A   1      29.715  26.849  23.666  1.00  0.00    -0.030 C 
ATOM     78  C   UNL A   1      32.095  27.520  23.229  1.00  0.00     0.041 C 
ATOM     79  C   UNL A   1      30.609  27.758  23.244  1.00  0.00    -0.030 C 
BRANCH  76  80
ATOM     80  C   UNL A   1      32.364  25.246  22.300  1.00  0.00     0.224 C 
ATOM     81  O   UNL A   1      32.024  25.773  21.234  1.00  0.00    -0.275 OA
ATOM     82  N   UNL A   1      32.587  23.931  22.147  1.00  0.00    -0.344 N 
ATOM     83  H   UNL A   1      32.292  23.650  21.251  1.00  0.00     0.164 HD
BRANCH  82  84
ATOM     84  C   UNL A   1      33.122  22.782  22.866  1.00  0.00     0.172 C 
ATOM     85  C   UNL A   1      32.161  22.094  23.805  1.00  0.00     0.037 C 
ATOM     86  C   UNL A   1      34.573  22.966  23.381  1.00  0.00     0.249 C 
ATOM     87  C   UNL A   1      32.862  20.827  24.261  1.00  0.00     0.025 C 
ATOM     88  N   UNL A   1      34.993  22.108  24.412  1.00  0.00    -0.308 N 
ATOM     89  O   UNL A   1      35.337  23.703  22.751  1.00  0.00    -0.272 OA
ATOM     90  C   UNL A   1      34.062  21.211  25.097  1.00  0.00     0.126 C 
BRANCH  88  91
ATOM     91  C   UNL A   1      36.303  22.232  24.991  1.00  0.00     0.080 A 
ATOM     92  C   UNL A   1      37.183  21.138  25.001  1.00  0.00     0.029 A 
ATOM     93  C   UNL A   1      36.742  23.422  25.592  1.00  0.00     0.146 A 
ATOM     94  C   UNL A   1      38.464  21.248  25.553  1.00  0.00     0.002 A 
ATOM     95  C   UNL A   1      38.020  23.536  26.140  1.00  0.00     0.041 A 
ATOM     96  F   UNL A   1      35.901  24.453  25.774  1.00  0.00    -0.205 F 
ATOM     97  C   UNL A   1      38.886  22.449  26.116  1.00  0.00     0.003 A 
ENDBRANCH  88  91
ENDBRANCH  82  84
ENDBRANCH  76  80
ENDBRANCH  72  74
ENDBRANCH  71  72
ENDBRANCH   1  71
TORSDOF 14
ENDMDL
