MODEL 1
REMARK VINA RESULT:     -13.0      0.000      0.000
REMARK SMILES CCc1cc(C[NH+]2CCC(C(=O)OCCOC(=O)c3ccc(-c4c5nc(c(-c6c(F)c(F)c(F)c(F)c6F)c6ccc([nH]6)c(-c6c(F)c(F)c(F)c(F)c6F)c6nc(c(-c7c(F)c(F)c(F)c(F)c7F)c7ccc4[nH]7)C=C6)C=C5)cc3)(n3ccc(-c4ccco4)n3)CC2)on1
REMARK SMILES IDX 14 1 13 2 11 3 12 4 10 5 7 6 8 7 93 8 9 10 92 11 6 12 5 13
REMARK SMILES IDX 3 14 4 15 95 16 94 17 2 18 1 19 82 20 83 21 91 22 84 23
REMARK SMILES IDX 85 24 86 25 87 26 90 27 88 28 89 29 15 30 16 31 17 32 18 33
REMARK SMILES IDX 19 34 20 35 81 36 21 37 80 38 22 39 23 40 24 41 74 42 25 43
REMARK SMILES IDX 79 44 73 45 75 46 26 47 78 48 72 49 71 50 27 52 59 53 39 54
REMARK SMILES IDX 58 55 40 56 43 57 57 58 76 59 41 60 42 61 56 63 77 64 44 65
REMARK SMILES IDX 28 66 29 67 37 68 30 69 31 70 35 71 38 72 32 73 33 74 36 75
REMARK SMILES IDX 34 76 60 77 61 78 69 79 62 80 63 81 67 82 70 83 64 84 65 85
REMARK SMILES IDX 68 86 66 87 45 88 46 89 54 90 47 91 48 92 52 93 55 94 49 95
REMARK SMILES IDX 50 96 53 97 51 98
REMARK H PARENT 7 9 75 51 43 62
REMARK Flexibility Score: inf
ROOT
ATOM      1  C   UNL A   1      37.423  21.452  24.600  1.00  0.00     0.274 C 
ENDROOT
BRANCH   1   2
ATOM      2  O   UNL A   1      36.851  22.774  24.623  1.00  0.00    -0.460 OA
BRANCH   2   3
ATOM      3  C   UNL A   1      36.025  23.087  23.581  1.00  0.00     0.334 C 
ATOM      4  O   UNL A   1      36.441  23.229  22.435  1.00  0.00    -0.249 OA
BRANCH   3   5
ATOM      5  C   UNL A   1      34.570  23.388  24.037  1.00  0.00     0.170 C 
ATOM      6  N   UNL A   1      32.238  25.247  23.892  1.00  0.00    -0.328 N 
ATOM      7  C   UNL A   1      33.062  25.224  25.098  1.00  0.00     0.265 C 
ATOM      8  C   UNL A   1      32.370  24.135  22.952  1.00  0.00     0.265 C 
ATOM      9  H   UNL A   1      32.665  26.012  23.371  1.00  0.00     0.348 HD
ATOM     10  C   UNL A   1      34.476  24.680  24.894  1.00  0.00     0.104 C 
ATOM     11  C   UNL A   1      33.809  23.673  22.729  1.00  0.00     0.104 C 
BRANCH   6  12
ATOM     12  C   UNL A   1      30.824  25.598  24.167  1.00  0.00     0.341 C 
BRANCH  12  13
ATOM     13  C   UNL A   1      30.278  26.799  23.458  1.00  0.00     0.191 A 
ATOM     14  C   UNL A   1      29.242  28.546  22.576  1.00  0.00     0.084 A 
ATOM     15  C   UNL A   1      29.087  27.490  23.509  1.00  0.00     0.078 A 
ATOM     16  N   UNL A   1      30.452  28.504  22.006  1.00  0.00    -0.085 NA
ATOM     17  O   UNL A   1      31.105  27.428  22.577  1.00  0.00    -0.355 OA
BRANCH  14  18
ATOM     18  C   UNL A   1      28.284  29.645  22.253  1.00  0.00     0.056 C 
ATOM     19  C   UNL A   1      27.869  30.485  23.453  1.00  0.00     0.011 C 
ENDBRANCH  14  18
ENDBRANCH  12  13
ENDBRANCH   6  12
BRANCH   5  20
ATOM     20  N   UNL A   1      34.017  22.203  24.730  1.00  0.00    -0.254 N 
ATOM     21  C   UNL A   1      33.645  22.104  26.044  1.00  0.00     0.111 A 
ATOM     22  N   UNL A   1      33.910  21.003  24.100  1.00  0.00    -0.168 NA
ATOM     23  C   UNL A   1      33.178  20.842  26.248  1.00  0.00     0.054 A 
ATOM     24  C   UNL A   1      33.459  20.179  25.043  1.00  0.00     0.128 A 
BRANCH  24  25
ATOM     25  C   UNL A   1      33.376  18.702  25.002  1.00  0.00     0.154 A 
ATOM     26  C   UNL A   1      32.154  17.576  25.355  1.00  0.00     0.052 A 
ATOM     27  O   UNL A   1      34.901  17.919  24.626  1.00  0.00    -0.463 OA
ATOM     28  C   UNL A   1      32.891  15.795  25.283  1.00  0.00     0.043 A 
ATOM     29  C   UNL A   1      34.852  16.132  24.818  1.00  0.00     0.196 A 
ENDBRANCH  24  25
ENDBRANCH   5  20
ENDBRANCH   3   5
ENDBRANCH   2   3
ENDBRANCH   1   2
BRANCH   1  30
ATOM     30  C   UNL A   1      38.208  21.181  25.887  1.00  0.00     0.275 C 
BRANCH  30  31
ATOM     31  O   UNL A   1      39.590  21.601  25.784  1.00  0.00    -0.458 OA
BRANCH  31  32
ATOM     32  C   UNL A   1      40.112  22.104  26.934  1.00  0.00     0.338 C 
ATOM     33  O   UNL A   1      40.711  21.468  27.790  1.00  0.00    -0.246 OA
BRANCH  32  34
ATOM     34  C   UNL A   1      40.085  23.583  26.966  1.00  0.00     0.060 A 
ATOM     35  C   UNL A   1      39.512  24.146  28.106  1.00  0.00     0.016 A 
ATOM     36  C   UNL A   1      40.511  24.427  25.944  1.00  0.00     0.016 A 
ATOM     37  C   UNL A   1      39.470  25.521  28.313  1.00  0.00     0.010 A 
ATOM     38  C   UNL A   1      40.509  25.820  26.167  1.00  0.00     0.010 A 
ATOM     39  C   UNL A   1      40.088  26.369  27.406  1.00  0.00    -0.014 A 
BRANCH  39  40
ATOM     40  C   UNL A   1      40.220  27.848  27.708  1.00  0.00     0.031 A 
ATOM     41  C   UNL A   1      41.693  28.267  27.892  1.00  0.00     0.074 A 
ATOM     42  C   UNL A   1      39.163  28.763  27.950  1.00  0.00     0.049 A 
ATOM     43  N   UNL A   1      42.264  29.406  28.217  1.00  0.00    -0.248 NA
ATOM     44  C   UNL A   1      42.674  27.191  27.621  1.00  0.00     0.031 C 
ATOM     45  C   UNL A   1      37.014  29.180  27.898  1.00  0.00     0.029 A 
ATOM     46  N   UNL A   1      39.668  30.022  29.258  1.00  0.00    -0.354 N 
ATOM     47  C   UNL A   1      43.643  29.164  28.210  1.00  0.00     0.074 A 
ATOM     48  C   UNL A   1      43.827  27.771  27.887  1.00  0.00     0.031 C 
ATOM     49  C   UNL A   1      36.662  30.348  29.011  1.00  0.00     0.029 A 
ATOM     50  C   UNL A   1      38.245  30.987  29.813  1.00  0.00     0.049 A 
ATOM     51  H   UNL A   1      40.586  30.138  29.594  1.00  0.00     0.167 HD
ATOM     52  C   UNL A   1      44.692  29.996  28.435  1.00  0.00     0.037 A 
ATOM     53  C   UNL A   1      38.188  32.285  30.205  1.00  0.00     0.037 A 
ATOM     54  C   UNL A   1      44.578  31.375  28.821  1.00  0.00     0.049 A 
ATOM     55  C   UNL A   1      39.402  33.156  30.182  1.00  0.00     0.074 A 
ATOM     56  C   UNL A   1      45.597  32.296  29.001  1.00  0.00     0.029 A 
ATOM     57  N   UNL A   1      43.393  32.019  29.140  1.00  0.00    -0.354 N 
ATOM     58  N   UNL A   1      40.641  32.867  29.874  1.00  0.00    -0.248 NA
ATOM     59  C   UNL A   1      39.164  34.578  30.472  1.00  0.00     0.031 C 
ATOM     60  C   UNL A   1      45.039  33.468  29.516  1.00  0.00     0.029 A 
ATOM     61  C   UNL A   1      43.664  33.316  29.555  1.00  0.00     0.049 A 
ATOM     62  H   UNL A   1      42.496  31.618  29.084  1.00  0.00     0.167 HD
ATOM     63  C   UNL A   1      41.339  34.063  29.982  1.00  0.00     0.074 A 
ATOM     64  C   UNL A   1      40.362  35.095  30.257  1.00  0.00     0.031 C 
ATOM     65  C   UNL A   1      42.671  34.297  29.903  1.00  0.00     0.037 A 
BRANCH  52  66
ATOM     66  C   UNL A   1      46.082  29.414  28.303  1.00  0.00     0.064 A 
ATOM     67  C   UNL A   1      46.736  29.321  27.063  1.00  0.00     0.173 A 
ATOM     68  C   UNL A   1      46.772  28.948  29.435  1.00  0.00     0.173 A 
ATOM     69  F   UNL A   1      46.130  29.745  25.944  1.00  0.00    -0.203 F 
ATOM     70  C   UNL A   1      47.995  28.731  26.953  1.00  0.00     0.198 A 
ATOM     71  C   UNL A   1      48.050  28.402  29.328  1.00  0.00     0.198 A 
ATOM     72  F   UNL A   1      46.209  29.022  30.650  1.00  0.00    -0.203 F 
ATOM     73  F   UNL A   1      48.560  28.579  25.747  1.00  0.00    -0.200 F 
ATOM     74  C   UNL A   1      48.653  28.278  28.086  1.00  0.00     0.200 A 
ATOM     75  F   UNL A   1      48.695  27.988  30.427  1.00  0.00    -0.200 F 
ATOM     76  F   UNL A   1      49.864  27.713  27.979  1.00  0.00    -0.200 F 
ENDBRANCH  52  66
BRANCH  53  77
ATOM     77  C   UNL A   1      36.815  32.864  30.316  1.00  0.00     0.064 A 
ATOM     78  C   UNL A   1      36.144  32.939  31.549  1.00  0.00     0.173 A 
ATOM     79  C   UNL A   1      36.223  33.504  29.217  1.00  0.00     0.173 A 
ATOM     80  F   UNL A   1      36.681  32.374  32.642  1.00  0.00    -0.203 F 
ATOM     81  C   UNL A   1      34.931  33.613  31.674  1.00  0.00     0.198 A 
ATOM     82  C   UNL A   1      35.032  34.216  29.354  1.00  0.00     0.198 A 
ATOM     83  F   UNL A   1      36.852  33.515  28.032  1.00  0.00    -0.203 F 
ATOM     84  F   UNL A   1      34.303  33.648  32.857  1.00  0.00    -0.200 F 
ATOM     85  C   UNL A   1      34.384  34.263  30.579  1.00  0.00     0.200 A 
ATOM     86  F   UNL A   1      34.537  34.892  28.309  1.00  0.00    -0.200 F 
ATOM     87  F   UNL A   1      33.241  34.952  30.709  1.00  0.00    -0.200 F 
ENDBRANCH  53  77
BRANCH  65  88
ATOM     88  C   UNL A   1      43.134  35.692  30.232  1.00  0.00     0.064 A 
ATOM     89  C   UNL A   1      43.290  36.660  29.225  1.00  0.00     0.173 A 
ATOM     90  C   UNL A   1      43.409  36.073  31.553  1.00  0.00     0.173 A 
ATOM     91  F   UNL A   1      43.040  36.351  27.944  1.00  0.00    -0.203 F 
ATOM     92  C   UNL A   1      43.763  37.934  29.522  1.00  0.00     0.198 A 
ATOM     93  C   UNL A   1      43.838  37.364  31.851  1.00  0.00     0.198 A 
ATOM     94  F   UNL A   1      43.262  35.196  32.558  1.00  0.00    -0.203 F 
ATOM     95  F   UNL A   1      43.983  38.812  28.532  1.00  0.00    -0.200 F 
ATOM     96  C   UNL A   1      44.030  38.287  30.834  1.00  0.00     0.200 A 
ATOM     97  F   UNL A   1      44.071  37.713  33.124  1.00  0.00    -0.200 F 
ATOM     98  F   UNL A   1      44.486  39.515  31.119  1.00  0.00    -0.200 F 
ENDBRANCH  65  88
ENDBRANCH  39  40
ENDBRANCH  32  34
ENDBRANCH  31  32
ENDBRANCH  30  31
ENDBRANCH   1  30
TORSDOF 16
ENDMDL
MODEL 2
REMARK VINA RESULT:     -13.0      4.478     10.530
REMARK SMILES CCc1cc(C[NH+]2CCC(C(=O)OCCOC(=O)c3ccc(-c4c5nc(c(-c6c(F)c(F)c(F)c(F)c6F)c6ccc([nH]6)c(-c6c(F)c(F)c(F)c(F)c6F)c6nc(c(-c7c(F)c(F)c(F)c(F)c7F)c7ccc4[nH]7)C=C6)C=C5)cc3)(n3ccc(-c4ccco4)n3)CC2)on1
REMARK SMILES IDX 14 1 13 2 11 3 12 4 10 5 7 6 8 7 93 8 9 10 92 11 6 12 5 13
REMARK SMILES IDX 3 14 4 15 95 16 94 17 2 18 1 19 82 20 83 21 91 22 84 23
REMARK SMILES IDX 85 24 86 25 87 26 90 27 88 28 89 29 15 30 16 31 17 32 18 33
REMARK SMILES IDX 19 34 20 35 81 36 21 37 80 38 22 39 23 40 24 41 74 42 25 43
REMARK SMILES IDX 79 44 73 45 75 46 26 47 78 48 72 49 71 50 27 52 59 53 39 54
REMARK SMILES IDX 58 55 40 56 43 57 57 58 76 59 41 60 42 61 56 63 77 64 44 65
REMARK SMILES IDX 28 66 29 67 37 68 30 69 31 70 35 71 38 72 32 73 33 74 36 75
REMARK SMILES IDX 34 76 60 77 61 78 69 79 62 80 63 81 67 82 70 83 64 84 65 85
REMARK SMILES IDX 68 86 66 87 45 88 46 89 54 90 47 91 48 92 52 93 55 94 49 95
REMARK SMILES IDX 50 96 53 97 51 98
REMARK H PARENT 7 9 75 51 43 62
REMARK Flexibility Score: inf
ROOT
ATOM      1  C   UNL A   1      32.145  30.119  27.215  1.00  0.00     0.274 C 
ENDROOT
BRANCH   1   2
ATOM      2  O   UNL A   1      32.680  28.802  26.985  1.00  0.00    -0.460 OA
BRANCH   2   3
ATOM      3  C   UNL A   1      31.779  27.776  27.006  1.00  0.00     0.334 C 
ATOM      4  O   UNL A   1      31.111  27.511  28.001  1.00  0.00    -0.249 OA
BRANCH   3   5
ATOM      5  C   UNL A   1      31.817  26.916  25.712  1.00  0.00     0.170 C 
ATOM      6  N   UNL A   1      31.918  24.175  24.534  1.00  0.00    -0.328 N 
ATOM      7  C   UNL A   1      33.121  25.003  24.525  1.00  0.00     0.265 C 
ATOM      8  C   UNL A   1      30.638  24.830  24.800  1.00  0.00     0.265 C 
ATOM      9  H   UNL A   1      32.054  23.631  25.386  1.00  0.00     0.348 HD
ATOM     10  C   UNL A   1      33.139  26.112  25.577  1.00  0.00     0.104 C 
ATOM     11  C   UNL A   1      30.693  25.882  25.905  1.00  0.00     0.104 C 
BRANCH   6  12
ATOM     12  C   UNL A   1      31.854  23.239  23.385  1.00  0.00     0.341 C 
BRANCH  12  13
ATOM     13  C   UNL A   1      32.137  21.797  23.674  1.00  0.00     0.191 A 
ATOM     14  C   UNL A   1      32.528  19.622  23.820  1.00  0.00     0.084 A 
ATOM     15  C   UNL A   1      32.183  20.652  22.909  1.00  0.00     0.078 A 
ATOM     16  N   UNL A   1      32.692  20.114  25.054  1.00  0.00    -0.085 NA
ATOM     17  O   UNL A   1      32.472  21.475  24.955  1.00  0.00    -0.355 OA
BRANCH  14  18
ATOM     18  C   UNL A   1      32.772  18.177  23.536  1.00  0.00     0.056 C 
ATOM     19  C   UNL A   1      34.072  17.637  24.116  1.00  0.00     0.011 C 
ENDBRANCH  14  18
ENDBRANCH  12  13
ENDBRANCH   6  12
BRANCH   5  20
ATOM     20  N   UNL A   1      31.552  27.780  24.540  1.00  0.00    -0.254 N 
ATOM     21  C   UNL A   1      32.434  28.145  23.558  1.00  0.00     0.111 A 
ATOM     22  N   UNL A   1      30.354  28.400  24.376  1.00  0.00    -0.168 NA
ATOM     23  C   UNL A   1      31.764  28.931  22.672  1.00  0.00     0.054 A 
ATOM     24  C   UNL A   1      30.515  29.137  23.280  1.00  0.00     0.128 A 
BRANCH  24  25
ATOM     25  C   UNL A   1      29.629  30.200  22.755  1.00  0.00     0.154 A 
ATOM     26  C   UNL A   1      28.791  30.427  21.295  1.00  0.00     0.052 A 
ATOM     27  O   UNL A   1      29.504  31.599  23.807  1.00  0.00    -0.463 OA
ATOM     28  C   UNL A   1      28.029  32.199  21.269  1.00  0.00     0.043 A 
ATOM     29  C   UNL A   1      28.631  32.980  23.058  1.00  0.00     0.196 A 
ENDBRANCH  24  25
ENDBRANCH   5  20
ENDBRANCH   3   5
ENDBRANCH   2   3
ENDBRANCH   1   2
BRANCH   1  30
ATOM     30  C   UNL A   1      33.168  31.193  26.837  1.00  0.00     0.275 C 
BRANCH  30  31
ATOM     31  O   UNL A   1      33.722  31.855  28.001  1.00  0.00    -0.458 OA
BRANCH  31  32
ATOM     32  C   UNL A   1      35.047  32.145  27.907  1.00  0.00     0.338 C 
ATOM     33  O   UNL A   1      35.526  33.237  27.638  1.00  0.00    -0.246 OA
BRANCH  32  34
ATOM     34  C   UNL A   1      35.901  31.037  28.389  1.00  0.00     0.060 A 
ATOM     35  C   UNL A   1      36.962  30.692  27.552  1.00  0.00     0.016 A 
ATOM     36  C   UNL A   1      35.691  30.289  29.544  1.00  0.00     0.016 A 
ATOM     37  C   UNL A   1      37.891  29.716  27.895  1.00  0.00     0.010 A 
ATOM     38  C   UNL A   1      36.653  29.328  29.916  1.00  0.00     0.010 A 
ATOM     39  C   UNL A   1      37.823  29.115  29.143  1.00  0.00    -0.014 A 
BRANCH  39  40
ATOM     40  C   UNL A   1      38.930  28.192  29.610  1.00  0.00     0.031 A 
ATOM     41  C   UNL A   1      39.743  28.809  30.766  1.00  0.00     0.074 A 
ATOM     42  C   UNL A   1      39.323  26.966  29.012  1.00  0.00     0.049 A 
ATOM     43  N   UNL A   1      40.805  28.405  31.427  1.00  0.00    -0.248 NA
ATOM     44  C   UNL A   1      39.214  30.101  31.263  1.00  0.00     0.031 C 
ATOM     45  C   UNL A   1      38.886  25.371  27.577  1.00  0.00     0.029 A 
ATOM     46  N   UNL A   1      41.191  26.747  29.125  1.00  0.00    -0.354 N 
ATOM     47  C   UNL A   1      41.069  29.397  32.379  1.00  0.00     0.074 A 
ATOM     48  C   UNL A   1      40.087  30.436  32.193  1.00  0.00     0.031 C 
ATOM     49  C   UNL A   1      40.300  24.651  27.121  1.00  0.00     0.029 A 
ATOM     50  C   UNL A   1      41.745  25.367  28.098  1.00  0.00     0.049 A 
ATOM     51  H   UNL A   1      41.786  27.310  29.671  1.00  0.00     0.167 HD
ATOM     52  C   UNL A   1      42.021  29.471  33.344  1.00  0.00     0.037 A 
ATOM     53  C   UNL A   1      42.763  24.496  28.308  1.00  0.00     0.037 A 
ATOM     54  C   UNL A   1      43.065  28.504  33.544  1.00  0.00     0.049 A 
ATOM     55  C   UNL A   1      43.596  24.560  29.547  1.00  0.00     0.074 A 
ATOM     56  C   UNL A   1      44.023  28.480  34.543  1.00  0.00     0.029 A 
ATOM     57  N   UNL A   1      43.326  27.428  32.710  1.00  0.00    -0.354 N 
ATOM     58  N   UNL A   1      43.560  25.408  30.544  1.00  0.00    -0.248 NA
ATOM     59  C   UNL A   1      44.553  23.457  29.722  1.00  0.00     0.031 C 
ATOM     60  C   UNL A   1      44.919  27.446  34.264  1.00  0.00     0.029 A 
ATOM     61  C   UNL A   1      44.457  26.758  33.154  1.00  0.00     0.049 A 
ATOM     62  H   UNL A   1      42.791  27.178  31.923  1.00  0.00     0.167 HD
ATOM     63  C   UNL A   1      44.524  24.967  31.441  1.00  0.00     0.074 A 
ATOM     64  C   UNL A   1      45.032  23.712  30.928  1.00  0.00     0.031 C 
ATOM     65  C   UNL A   1      44.988  25.556  32.570  1.00  0.00     0.037 A 
BRANCH  52  66
ATOM     66  C   UNL A   1      42.000  30.682  34.252  1.00  0.00     0.064 A 
ATOM     67  C   UNL A   1      41.182  30.743  35.393  1.00  0.00     0.173 A 
ATOM     68  C   UNL A   1      42.813  31.794  33.978  1.00  0.00     0.173 A 
ATOM     69  F   UNL A   1      40.380  29.715  35.707  1.00  0.00    -0.203 F 
ATOM     70  C   UNL A   1      41.136  31.889  36.186  1.00  0.00     0.198 A 
ATOM     71  C   UNL A   1      42.799  32.920  34.800  1.00  0.00     0.198 A 
ATOM     72  F   UNL A   1      43.627  31.793  32.912  1.00  0.00    -0.203 F 
ATOM     73  F   UNL A   1      40.285  31.952  37.221  1.00  0.00    -0.200 F 
ATOM     74  C   UNL A   1      41.948  32.973  35.892  1.00  0.00     0.200 A 
ATOM     75  F   UNL A   1      43.603  33.957  34.528  1.00  0.00    -0.200 F 
ATOM     76  F   UNL A   1      41.902  34.074  36.657  1.00  0.00    -0.200 F 
ENDBRANCH  52  66
BRANCH  53  77
ATOM     77  C   UNL A   1      42.772  23.291  27.424  1.00  0.00     0.064 A 
ATOM     78  C   UNL A   1      43.564  23.234  26.264  1.00  0.00     0.173 A 
ATOM     79  C   UNL A   1      42.116  22.115  27.819  1.00  0.00     0.173 A 
ATOM     80  F   UNL A   1      44.242  24.319  25.858  1.00  0.00    -0.203 F 
ATOM     81  C   UNL A   1      43.684  22.057  25.527  1.00  0.00     0.198 A 
ATOM     82  C   UNL A   1      42.274  20.928  27.106  1.00  0.00     0.198 A 
ATOM     83  F   UNL A   1      41.398  22.100  28.952  1.00  0.00    -0.203 F 
ATOM     84  F   UNL A   1      44.428  22.038  24.412  1.00  0.00    -0.200 F 
ATOM     85  C   UNL A   1      43.051  20.902  25.957  1.00  0.00     0.200 A 
ATOM     86  F   UNL A   1      41.709  19.801  27.557  1.00  0.00    -0.200 F 
ATOM     87  F   UNL A   1      43.204  19.758  25.275  1.00  0.00    -0.200 F 
ENDBRANCH  53  77
BRANCH  65  88
ATOM     88  C   UNL A   1      46.166  24.899  33.240  1.00  0.00     0.064 A 
ATOM     89  C   UNL A   1      47.482  25.298  32.948  1.00  0.00     0.173 A 
ATOM     90  C   UNL A   1      45.988  23.880  34.186  1.00  0.00     0.173 A 
ATOM     91  F   UNL A   1      47.711  26.269  32.051  1.00  0.00    -0.203 F 
ATOM     92  C   UNL A   1      48.572  24.659  33.530  1.00  0.00     0.198 A 
ATOM     93  C   UNL A   1      47.081  23.276  34.802  1.00  0.00     0.198 A 
ATOM     94  F   UNL A   1      44.755  23.469  34.518  1.00  0.00    -0.203 F 
ATOM     95  F   UNL A   1      49.817  25.003  33.171  1.00  0.00    -0.200 F 
ATOM     96  C   UNL A   1      48.371  23.654  34.461  1.00  0.00     0.200 A 
ATOM     97  F   UNL A   1      46.886  22.320  35.722  1.00  0.00    -0.200 F 
ATOM     98  F   UNL A   1      49.422  23.040  35.022  1.00  0.00    -0.200 F 
ENDBRANCH  65  88
ENDBRANCH  39  40
ENDBRANCH  32  34
ENDBRANCH  31  32
ENDBRANCH  30  31
ENDBRANCH   1  30
TORSDOF 16
ENDMDL
MODEL 3
REMARK VINA RESULT:     -12.6      4.543     10.444
REMARK SMILES CCc1cc(C[NH+]2CCC(C(=O)OCCOC(=O)c3ccc(-c4c5nc(c(-c6c(F)c(F)c(F)c(F)c6F)c6ccc([nH]6)c(-c6c(F)c(F)c(F)c(F)c6F)c6nc(c(-c7c(F)c(F)c(F)c(F)c7F)c7ccc4[nH]7)C=C6)C=C5)cc3)(n3ccc(-c4ccco4)n3)CC2)on1
REMARK SMILES IDX 14 1 13 2 11 3 12 4 10 5 7 6 8 7 93 8 9 10 92 11 6 12 5 13
REMARK SMILES IDX 3 14 4 15 95 16 94 17 2 18 1 19 82 20 83 21 91 22 84 23
REMARK SMILES IDX 85 24 86 25 87 26 90 27 88 28 89 29 15 30 16 31 17 32 18 33
REMARK SMILES IDX 19 34 20 35 81 36 21 37 80 38 22 39 23 40 24 41 74 42 25 43
REMARK SMILES IDX 79 44 73 45 75 46 26 47 78 48 72 49 71 50 27 52 59 53 39 54
REMARK SMILES IDX 58 55 40 56 43 57 57 58 76 59 41 60 42 61 56 63 77 64 44 65
REMARK SMILES IDX 28 66 29 67 37 68 30 69 31 70 35 71 38 72 32 73 33 74 36 75
REMARK SMILES IDX 34 76 60 77 61 78 69 79 62 80 63 81 67 82 70 83 64 84 65 85
REMARK SMILES IDX 68 86 66 87 45 88 46 89 54 90 47 91 48 92 52 93 55 94 49 95
REMARK SMILES IDX 50 96 53 97 51 98
REMARK H PARENT 7 9 75 51 43 62
REMARK Flexibility Score: inf
ROOT
ATOM      1  C   UNL A   1      32.431  29.867  27.250  1.00  0.00     0.274 C 
ENDROOT
BRANCH   1   2
ATOM      2  O   UNL A   1      32.992  28.575  26.951  1.00  0.00    -0.460 OA
BRANCH   2   3
ATOM      3  C   UNL A   1      32.115  27.527  26.940  1.00  0.00     0.334 C 
ATOM      4  O   UNL A   1      31.453  27.218  27.926  1.00  0.00    -0.249 OA
BRANCH   3   5
ATOM      5  C   UNL A   1      32.174  26.707  25.622  1.00  0.00     0.170 C 
ATOM      6  N   UNL A   1      32.464  24.016  24.363  1.00  0.00    -0.328 N 
ATOM      7  C   UNL A   1      33.589  24.947  24.330  1.00  0.00     0.265 C 
ATOM      8  C   UNL A   1      31.144  24.548  24.697  1.00  0.00     0.265 C 
ATOM      9  H   UNL A   1      32.682  23.465  25.193  1.00  0.00     0.348 HD
ATOM     10  C   UNL A   1      33.554  26.026  25.412  1.00  0.00     0.104 C 
ATOM     11  C   UNL A   1      31.153  25.573  25.829  1.00  0.00     0.104 C 
BRANCH   6  12
ATOM     12  C   UNL A   1      32.434  23.107  23.191  1.00  0.00     0.341 C 
BRANCH  12  13
ATOM     13  C   UNL A   1      32.498  21.638  23.475  1.00  0.00     0.191 A 
ATOM     14  C   UNL A   1      32.502  19.429  23.628  1.00  0.00     0.084 A 
ATOM     15  C   UNL A   1      32.177  20.504  22.763  1.00  0.00     0.078 A 
ATOM     16  N   UNL A   1      32.998  19.883  24.785  1.00  0.00    -0.085 NA
ATOM     17  O   UNL A   1      33.018  21.261  24.677  1.00  0.00    -0.355 OA
BRANCH  14  18
ATOM     18  C   UNL A   1      32.412  17.963  23.360  1.00  0.00     0.056 C 
ATOM     19  C   UNL A   1      33.734  17.220  23.500  1.00  0.00     0.011 C 
ENDBRANCH  14  18
ENDBRANCH  12  13
ENDBRANCH   6  12
BRANCH   5  20
ATOM     20  N   UNL A   1      31.787  27.573  24.486  1.00  0.00    -0.254 N 
ATOM     21  C   UNL A   1      32.530  27.875  23.376  1.00  0.00     0.111 A 
ATOM     22  N   UNL A   1      30.616  28.264  24.492  1.00  0.00    -0.168 NA
ATOM     23  C   UNL A   1      31.781  28.690  22.586  1.00  0.00     0.054 A 
ATOM     24  C   UNL A   1      30.653  28.978  23.370  1.00  0.00     0.128 A 
BRANCH  24  25
ATOM     25  C   UNL A   1      29.762  30.088  22.964  1.00  0.00     0.154 A 
ATOM     26  C   UNL A   1      28.990  31.350  23.797  1.00  0.00     0.052 A 
ATOM     27  O   UNL A   1      29.289  30.032  21.274  1.00  0.00    -0.463 OA
ATOM     28  C   UNL A   1      27.790  32.264  22.595  1.00  0.00     0.043 A 
ATOM     29  C   UNL A   1      28.020  31.231  20.848  1.00  0.00     0.196 A 
ENDBRANCH  24  25
ENDBRANCH   5  20
ENDBRANCH   3   5
ENDBRANCH   2   3
ENDBRANCH   1   2
BRANCH   1  30
ATOM     30  C   UNL A   1      33.375  30.984  26.799  1.00  0.00     0.275 C 
BRANCH  30  31
ATOM     31  O   UNL A   1      33.839  31.790  27.910  1.00  0.00    -0.458 OA
BRANCH  31  32
ATOM     32  C   UNL A   1      35.164  32.090  27.872  1.00  0.00     0.338 C 
ATOM     33  O   UNL A   1      35.647  33.186  27.625  1.00  0.00    -0.246 OA
BRANCH  32  34
ATOM     34  C   UNL A   1      36.006  30.988  28.389  1.00  0.00     0.060 A 
ATOM     35  C   UNL A   1      37.102  30.650  27.596  1.00  0.00     0.016 A 
ATOM     36  C   UNL A   1      35.754  30.240  29.536  1.00  0.00     0.016 A 
ATOM     37  C   UNL A   1      38.023  29.680  27.977  1.00  0.00     0.010 A 
ATOM     38  C   UNL A   1      36.707  29.285  29.947  1.00  0.00     0.010 A 
ATOM     39  C   UNL A   1      37.909  29.079  29.221  1.00  0.00    -0.014 A 
BRANCH  39  40
ATOM     40  C   UNL A   1      39.002  28.164  29.733  1.00  0.00     0.031 A 
ATOM     41  C   UNL A   1      39.780  28.797  30.905  1.00  0.00     0.074 A 
ATOM     42  C   UNL A   1      39.414  26.931  29.163  1.00  0.00     0.049 A 
ATOM     43  N   UNL A   1      40.822  28.403  31.603  1.00  0.00    -0.248 NA
ATOM     44  C   UNL A   1      39.235  30.094  31.369  1.00  0.00     0.031 C 
ATOM     45  C   UNL A   1      39.022  25.317  27.737  1.00  0.00     0.029 A 
ATOM     46  N   UNL A   1      41.278  26.716  29.335  1.00  0.00    -0.354 N 
ATOM     47  C   UNL A   1      41.056  29.408  32.550  1.00  0.00     0.074 A 
ATOM     48  C   UNL A   1      40.079  30.443  32.320  1.00  0.00     0.031 C 
ATOM     49  C   UNL A   1      40.449  24.593  27.332  1.00  0.00     0.029 A 
ATOM     50  C   UNL A   1      41.865  25.324  28.343  1.00  0.00     0.049 A 
ATOM     51  H   UNL A   1      41.856  27.287  29.891  1.00  0.00     0.167 HD
ATOM     52  C   UNL A   1      41.979  29.495  33.542  1.00  0.00     0.037 A 
ATOM     53  C   UNL A   1      42.877  24.457  28.594  1.00  0.00     0.037 A 
ATOM     54  C   UNL A   1      43.018  28.533  33.785  1.00  0.00     0.049 A 
ATOM     55  C   UNL A   1      43.671  24.538  29.857  1.00  0.00     0.074 A 
ATOM     56  C   UNL A   1      43.946  28.523  34.813  1.00  0.00     0.029 A 
ATOM     57  N   UNL A   1      43.304  27.446  32.974  1.00  0.00    -0.354 N 
ATOM     58  N   UNL A   1      43.605  25.398  30.841  1.00  0.00    -0.248 NA
ATOM     59  C   UNL A   1      44.624  23.439  30.075  1.00  0.00     0.031 C 
ATOM     60  C   UNL A   1      44.850  27.486  34.573  1.00  0.00     0.029 A 
ATOM     61  C   UNL A   1      44.423  26.784  33.459  1.00  0.00     0.049 A 
ATOM     62  H   UNL A   1      42.794  27.185  32.173  1.00  0.00     0.167 HD
ATOM     63  C   UNL A   1      44.542  24.971  31.772  1.00  0.00     0.074 A 
ATOM     64  C   UNL A   1      45.067  23.710  31.291  1.00  0.00     0.031 C 
ATOM     65  C   UNL A   1      44.972  25.575  32.907  1.00  0.00     0.037 A 
BRANCH  52  66
ATOM     66  C   UNL A   1      41.930  30.718  34.432  1.00  0.00     0.064 A 
ATOM     67  C   UNL A   1      42.770  31.825  34.225  1.00  0.00     0.173 A 
ATOM     68  C   UNL A   1      41.024  30.785  35.504  1.00  0.00     0.173 A 
ATOM     69  F   UNL A   1      43.659  31.822  33.221  1.00  0.00    -0.203 F 
ATOM     70  C   UNL A   1      42.747  32.919  35.089  1.00  0.00     0.198 A 
ATOM     71  C   UNL A   1      40.972  31.901  36.337  1.00  0.00     0.198 A 
ATOM     72  F   UNL A   1      40.184  29.768  35.746  1.00  0.00    -0.203 F 
ATOM     73  F   UNL A   1      43.618  33.925  34.917  1.00  0.00    -0.200 F 
ATOM     74  C   UNL A   1      41.844  32.959  36.139  1.00  0.00     0.200 A 
ATOM     75  F   UNL A   1      40.081  31.948  37.337  1.00  0.00    -0.200 F 
ATOM     76  F   UNL A   1      41.824  34.013  36.968  1.00  0.00    -0.200 F 
ENDBRANCH  52  66
BRANCH  53  77
ATOM     77  C   UNL A   1      42.913  23.241  27.727  1.00  0.00     0.064 A 
ATOM     78  C   UNL A   1      42.162  22.092  28.036  1.00  0.00     0.173 A 
ATOM     79  C   UNL A   1      43.567  23.272  26.486  1.00  0.00     0.173 A 
ATOM     80  F   UNL A   1      41.488  22.022  29.194  1.00  0.00    -0.203 F 
ATOM     81  C   UNL A   1      42.082  21.020  27.149  1.00  0.00     0.198 A 
ATOM     82  C   UNL A   1      43.447  22.218  25.582  1.00  0.00     0.198 A 
ATOM     83  F   UNL A   1      44.245  24.369  26.117  1.00  0.00    -0.203 F 
ATOM     84  F   UNL A   1      41.378  19.929  27.481  1.00  0.00    -0.200 F 
ATOM     85  C   UNL A   1      42.712  21.090  25.917  1.00  0.00     0.200 A 
ATOM     86  F   UNL A   1      44.009  22.314  24.370  1.00  0.00    -0.200 F 
ATOM     87  F   UNL A   1      42.595  20.080  25.044  1.00  0.00    -0.200 F 
ENDBRANCH  53  77
BRANCH  65  88
ATOM     88  C   UNL A   1      46.130  24.928  33.620  1.00  0.00     0.064 A 
ATOM     89  C   UNL A   1      45.918  23.993  34.647  1.00  0.00     0.173 A 
ATOM     90  C   UNL A   1      47.455  25.228  33.274  1.00  0.00     0.173 A 
ATOM     91  F   UNL A   1      44.670  23.667  35.020  1.00  0.00    -0.203 F 
ATOM     92  C   UNL A   1      46.986  23.431  35.339  1.00  0.00     0.198 A 
ATOM     93  C   UNL A   1      48.522  24.628  33.938  1.00  0.00     0.198 A 
ATOM     94  F   UNL A   1      47.719  26.101  32.290  1.00  0.00    -0.203 F 
ATOM     95  F   UNL A   1      46.754  22.606  36.370  1.00  0.00    -0.200 F 
ATOM     96  C   UNL A   1      48.287  23.744  34.980  1.00  0.00     0.200 A 
ATOM     97  F   UNL A   1      49.780  24.912  33.573  1.00  0.00    -0.200 F 
ATOM     98  F   UNL A   1      49.316  23.202  35.647  1.00  0.00    -0.200 F 
ENDBRANCH  65  88
ENDBRANCH  39  40
ENDBRANCH  32  34
ENDBRANCH  31  32
ENDBRANCH  30  31
ENDBRANCH   1  30
TORSDOF 16
ENDMDL
