MODEL 1
REMARK VINA RESULT:     -10.4      0.000      0.000
REMARK SMILES C[NH2+]CCCC(=O)NC[C@@H]1CC[C@H](C(=O)OCCOC(=O)c2ccc(-c3c4nc(c(-c5c(F)c(F)c(F)c(F)c5F)c5ccc([nH]5)c(-c5c(F)c(F)c(F)c(F)c5F)c5nc(c(-c6c(F)c(F)c(F)c(F)c6F)c6ccc3[nH]6)C=C5)C=C4)cc2)O1
REMARK SMILES IDX 14 1 15 2 13 3 10 4 11 5 85 6 12 7 9 8 8 9 6 10 7 11 5 13
REMARK SMILES IDX 4 14 3 15 2 16 1 17 16 20 17 21 18 22 19 23 20 24 21 25
REMARK SMILES IDX 22 26 23 27 84 28 24 29 83 30 25 31 26 32 27 33 77 34 28 35
REMARK SMILES IDX 82 36 76 37 78 38 29 39 81 40 75 41 74 42 30 44 62 45 42 46
REMARK SMILES IDX 61 47 43 48 46 49 60 50 79 51 44 52 45 53 59 55 80 56 47 57
REMARK SMILES IDX 31 58 32 59 40 60 33 61 34 62 38 63 41 64 35 65 36 66 39 67
REMARK SMILES IDX 37 68 63 69 64 70 72 71 65 72 66 73 70 74 73 75 67 76 68 77
REMARK SMILES IDX 71 78 69 79 48 80 49 81 57 82 50 83 51 84 55 85 58 86 52 87
REMARK SMILES IDX 53 88 56 89 54 90
REMARK H PARENT 8 12 2 18 2 19 78 43 46 54
REMARK Flexibility Score: inf
ROOT
ATOM      1  C   UNL A   1      36.697  21.739  24.852  1.00  0.00     0.335 C 
ATOM      2  O   UNL A   1      37.004  22.201  23.756  1.00  0.00    -0.249 OA
ENDROOT
BRANCH   1   3
ATOM      3  C   UNL A   1      36.107  22.605  25.973  1.00  0.00     0.228 C 
ATOM      4  C   UNL A   1      33.788  22.912  26.067  1.00  0.00     0.138 C 
ATOM      5  C   UNL A   1      34.375  24.080  25.283  1.00  0.00     0.037 C 
ATOM      6  O   UNL A   1      34.876  22.058  26.441  1.00  0.00    -0.361 OA
ATOM      7  C   UNL A   1      35.840  24.062  25.652  1.00  0.00     0.047 C 
BRANCH   4   8
ATOM      8  C   UNL A   1      32.694  22.083  25.358  1.00  0.00     0.147 C 
BRANCH   8   9
ATOM      9  N   UNL A   1      32.626  20.694  25.802  1.00  0.00    -0.353 N 
ATOM     10  C   UNL A   1      32.518  19.525  25.124  1.00  0.00     0.220 C 
ATOM     11  O   UNL A   1      32.421  18.486  25.783  1.00  0.00    -0.275 OA
ATOM     12  H   UNL A   1      32.666  20.585  26.779  1.00  0.00     0.163 HD
BRANCH  10  13
ATOM     13  C   UNL A   1      32.532  19.479  23.614  1.00  0.00     0.106 C 
BRANCH  13  14
ATOM     14  C   UNL A   1      32.453  18.048  23.078  1.00  0.00     0.071 C 
BRANCH  14  15
ATOM     15  C   UNL A   1      33.764  17.270  23.185  1.00  0.00     0.260 C 
BRANCH  15  16
ATOM     16  N   UNL A   1      33.713  16.135  24.107  1.00  0.00    -0.349 N 
ATOM     17  C   UNL A   1      34.824  16.149  25.046  1.00  0.00     0.330 C 
ATOM     18  H   UNL A   1      32.839  16.172  24.630  1.00  0.00     0.346 HD
ATOM     19  H   UNL A   1      33.776  15.278  23.557  1.00  0.00     0.346 HD
ENDBRANCH  15  16
ENDBRANCH  14  15
ENDBRANCH  13  14
ENDBRANCH  10  13
ENDBRANCH   8   9
ENDBRANCH   4   8
ENDBRANCH   1   3
BRANCH   1  20
ATOM     20  O   UNL A   1      36.875  20.440  25.212  1.00  0.00    -0.460 OA
BRANCH  20  21
ATOM     21  C   UNL A   1      38.169  19.875  24.913  1.00  0.00     0.274 C 
BRANCH  21  22
ATOM     22  C   UNL A   1      39.293  20.540  25.715  1.00  0.00     0.275 C 
BRANCH  22  23
ATOM     23  O   UNL A   1      40.037  19.590  26.500  1.00  0.00    -0.458 OA
BRANCH  23  24
ATOM     24  C   UNL A   1      41.346  19.495  26.175  1.00  0.00     0.338 C 
ATOM     25  O   UNL A   1      41.913  18.553  25.648  1.00  0.00    -0.246 OA
BRANCH  24  26
ATOM     26  C   UNL A   1      42.024  20.780  26.401  1.00  0.00     0.060 A 
ATOM     27  C   UNL A   1      42.240  21.164  27.727  1.00  0.00     0.016 A 
ATOM     28  C   UNL A   1      42.330  21.646  25.352  1.00  0.00     0.016 A 
ATOM     29  C   UNL A   1      42.739  22.425  28.019  1.00  0.00     0.010 A 
ATOM     30  C   UNL A   1      42.826  22.922  25.645  1.00  0.00     0.010 A 
ATOM     31  C   UNL A   1      43.007  23.323  26.980  1.00  0.00    -0.014 A 
BRANCH  31  32
ATOM     32  C   UNL A   1      43.371  24.714  27.330  1.00  0.00     0.031 A 
ATOM     33  C   UNL A   1      44.753  25.212  27.027  1.00  0.00     0.074 A 
ATOM     34  C   UNL A   1      42.441  25.542  27.836  1.00  0.00     0.049 A 
ATOM     35  N   UNL A   1      45.273  26.395  27.235  1.00  0.00    -0.248 NA
ATOM     36  C   UNL A   1      45.675  24.251  26.401  1.00  0.00     0.031 C 
ATOM     37  C   UNL A   1      41.055  25.176  28.121  1.00  0.00     0.029 A 
ATOM     38  N   UNL A   1      42.522  26.865  28.187  1.00  0.00    -0.354 N 
ATOM     39  C   UNL A   1      46.584  26.314  26.785  1.00  0.00     0.074 A 
ATOM     40  C   UNL A   1      46.787  24.964  26.304  1.00  0.00     0.031 C 
ATOM     41  C   UNL A   1      40.411  26.253  28.601  1.00  0.00     0.029 A 
ATOM     42  C   UNL A   1      41.348  27.372  28.683  1.00  0.00     0.049 A 
ATOM     43  H   UNL A   1      43.344  27.400  28.092  1.00  0.00     0.167 HD
ATOM     44  C   UNL A   1      47.530  27.283  26.775  1.00  0.00     0.037 A 
ATOM     45  C   UNL A   1      41.067  28.597  29.163  1.00  0.00     0.037 A 
ATOM     46  C   UNL A   1      47.316  28.629  27.236  1.00  0.00     0.049 A 
ATOM     47  C   UNL A   1      42.142  29.650  29.159  1.00  0.00     0.074 A 
ATOM     48  C   UNL A   1      48.206  29.688  27.260  1.00  0.00     0.029 A 
ATOM     49  N   UNL A   1      46.117  29.101  27.753  1.00  0.00    -0.354 N 
ATOM     50  N   UNL A   1      43.380  29.565  28.735  1.00  0.00    -0.248 NA
ATOM     51  C   UNL A   1      41.781  30.969  29.698  1.00  0.00     0.031 C 
ATOM     52  C   UNL A   1      47.556  30.792  27.823  1.00  0.00     0.029 A 
ATOM     53  C   UNL A   1      46.250  30.433  28.114  1.00  0.00     0.049 A 
ATOM     54  H   UNL A   1      45.295  28.569  27.851  1.00  0.00     0.167 HD
ATOM     55  C   UNL A   1      43.940  30.819  28.938  1.00  0.00     0.074 A 
ATOM     56  C   UNL A   1      42.901  31.651  29.510  1.00  0.00     0.031 C 
ATOM     57  C   UNL A   1      45.201  31.242  28.677  1.00  0.00     0.037 A 
BRANCH  44  58
ATOM     58  C   UNL A   1      48.893  26.909  26.279  1.00  0.00     0.064 A 
ATOM     59  C   UNL A   1      49.280  27.119  24.947  1.00  0.00     0.173 A 
ATOM     60  C   UNL A   1      49.833  26.346  27.156  1.00  0.00     0.173 A 
ATOM     61  F   UNL A   1      48.412  27.637  24.066  1.00  0.00    -0.203 F 
ATOM     62  C   UNL A   1      50.551  26.759  24.506  1.00  0.00     0.198 A 
ATOM     63  C   UNL A   1      51.111  26.009  26.717  1.00  0.00     0.198 A 
ATOM     64  F   UNL A   1      49.513  26.125  28.439  1.00  0.00    -0.203 F 
ATOM     65  F   UNL A   1      50.886  26.929  23.220  1.00  0.00    -0.200 F 
ATOM     66  C   UNL A   1      51.466  26.210  25.392  1.00  0.00     0.200 A 
ATOM     67  F   UNL A   1      51.996  25.485  27.576  1.00  0.00    -0.200 F 
ATOM     68  F   UNL A   1      52.690  25.867  24.966  1.00  0.00    -0.200 F 
ENDBRANCH  44  58
BRANCH  45  69
ATOM     69  C   UNL A   1      39.710  28.886  29.690  1.00  0.00     0.064 A 
ATOM     70  C   UNL A   1      39.378  28.619  31.024  1.00  0.00     0.173 A 
ATOM     71  C   UNL A   1      38.721  29.448  28.869  1.00  0.00     0.173 A 
ATOM     72  F   UNL A   1      40.283  28.059  31.840  1.00  0.00    -0.203 F 
ATOM     73  C   UNL A   1      38.104  28.895  31.516  1.00  0.00     0.198 A 
ATOM     74  C   UNL A   1      37.456  29.747  29.367  1.00  0.00     0.198 A 
ATOM     75  F   UNL A   1      38.991  29.720  27.583  1.00  0.00    -0.203 F 
ATOM     76  F   UNL A   1      37.799  28.598  32.786  1.00  0.00    -0.200 F 
ATOM     77  C   UNL A   1      37.146  29.466  30.690  1.00  0.00     0.200 A 
ATOM     78  F   UNL A   1      36.537  30.307  28.568  1.00  0.00    -0.200 F 
ATOM     79  F   UNL A   1      35.924  29.737  31.165  1.00  0.00    -0.200 F 
ENDBRANCH  45  69
BRANCH  57  80
ATOM     80  C   UNL A   1      45.517  32.675  28.985  1.00  0.00     0.064 A 
ATOM     81  C   UNL A   1      46.066  33.053  30.219  1.00  0.00     0.173 A 
ATOM     82  C   UNL A   1      45.303  33.672  28.023  1.00  0.00     0.173 A 
ATOM     83  F   UNL A   1      46.274  32.136  31.175  1.00  0.00    -0.203 F 
ATOM     84  C   UNL A   1      46.369  34.385  30.486  1.00  0.00     0.198 A 
ATOM     85  C   UNL A   1      45.631  34.999  28.284  1.00  0.00     0.198 A 
ATOM     86  F   UNL A   1      44.787  33.357  26.826  1.00  0.00    -0.203 F 
ATOM     87  F   UNL A   1      46.856  34.733  31.685  1.00  0.00    -0.200 F 
ATOM     88  C   UNL A   1      46.157  35.356  29.516  1.00  0.00     0.200 A 
ATOM     89  F   UNL A   1      45.434  35.934  27.344  1.00  0.00    -0.200 F 
ATOM     90  F   UNL A   1      46.454  36.637  29.774  1.00  0.00    -0.200 F 
ENDBRANCH  57  80
ENDBRANCH  31  32
ENDBRANCH  24  26
ENDBRANCH  23  24
ENDBRANCH  22  23
ENDBRANCH  21  22
ENDBRANCH  20  21
ENDBRANCH   1  20
TORSDOF 17
ENDMDL
MODEL 2
REMARK VINA RESULT:     -10.3      4.809     10.024
REMARK SMILES C[NH2+]CCCC(=O)NC[C@@H]1CC[C@H](C(=O)OCCOC(=O)c2ccc(-c3c4nc(c(-c5c(F)c(F)c(F)c(F)c5F)c5ccc([nH]5)c(-c5c(F)c(F)c(F)c(F)c5F)c5nc(c(-c6c(F)c(F)c(F)c(F)c6F)c6ccc3[nH]6)C=C5)C=C4)cc2)O1
REMARK SMILES IDX 14 1 15 2 13 3 10 4 11 5 85 6 12 7 9 8 8 9 6 10 7 11 5 13
REMARK SMILES IDX 4 14 3 15 2 16 1 17 16 20 17 21 18 22 19 23 20 24 21 25
REMARK SMILES IDX 22 26 23 27 84 28 24 29 83 30 25 31 26 32 27 33 77 34 28 35
REMARK SMILES IDX 82 36 76 37 78 38 29 39 81 40 75 41 74 42 30 44 62 45 42 46
REMARK SMILES IDX 61 47 43 48 46 49 60 50 79 51 44 52 45 53 59 55 80 56 47 57
REMARK SMILES IDX 31 58 32 59 40 60 33 61 34 62 38 63 41 64 35 65 36 66 39 67
REMARK SMILES IDX 37 68 63 69 64 70 72 71 65 72 66 73 70 74 73 75 67 76 68 77
REMARK SMILES IDX 71 78 69 79 48 80 49 81 57 82 50 83 51 84 55 85 58 86 52 87
REMARK SMILES IDX 53 88 56 89 54 90
REMARK H PARENT 8 12 2 18 2 19 78 43 46 54
REMARK Flexibility Score: inf
ROOT
ATOM      1  C   UNL A   1      32.230  26.858  25.851  1.00  0.00     0.335 C 
ATOM      2  O   UNL A   1      31.692  26.101  26.656  1.00  0.00    -0.249 OA
ENDROOT
BRANCH   1   3
ATOM      3  C   UNL A   1      33.302  26.380  24.864  1.00  0.00     0.228 C 
ATOM      4  C   UNL A   1      32.971  24.366  23.717  1.00  0.00     0.138 C 
ATOM      5  C   UNL A   1      33.785  24.055  24.968  1.00  0.00     0.037 C 
ATOM      6  O   UNL A   1      32.704  25.773  23.720  1.00  0.00    -0.361 OA
ATOM      7  C   UNL A   1      34.333  25.399  25.384  1.00  0.00     0.047 C 
BRANCH   4   8
ATOM      8  C   UNL A   1      31.650  23.584  23.540  1.00  0.00     0.147 C 
BRANCH   8   9
ATOM      9  N   UNL A   1      31.811  22.299  22.867  1.00  0.00    -0.353 N 
ATOM     10  C   UNL A   1      32.050  21.050  23.335  1.00  0.00     0.220 C 
ATOM     11  O   UNL A   1      32.200  20.145  22.508  1.00  0.00    -0.275 OA
ATOM     12  H   UNL A   1      31.731  22.349  21.887  1.00  0.00     0.163 HD
BRANCH  10  13
ATOM     13  C   UNL A   1      32.115  20.755  24.815  1.00  0.00     0.106 C 
BRANCH  13  14
ATOM     14  C   UNL A   1      33.132  19.660  25.144  1.00  0.00     0.071 C 
BRANCH  14  15
ATOM     15  C   UNL A   1      32.525  18.261  25.253  1.00  0.00     0.260 C 
BRANCH  15  16
ATOM     16  N   UNL A   1      33.270  17.351  26.124  1.00  0.00    -0.349 N 
ATOM     17  C   UNL A   1      33.923  16.292  25.370  1.00  0.00     0.330 C 
ATOM     18  H   UNL A   1      33.979  17.883  26.628  1.00  0.00     0.346 HD
ATOM     19  H   UNL A   1      32.608  16.919  26.768  1.00  0.00     0.346 HD
ENDBRANCH  15  16
ENDBRANCH  14  15
ENDBRANCH  13  14
ENDBRANCH  10  13
ENDBRANCH   8   9
ENDBRANCH   4   8
ENDBRANCH   1   3
BRANCH   1  20
ATOM     20  O   UNL A   1      31.974  28.191  25.766  1.00  0.00    -0.460 OA
BRANCH  20  21
ATOM     21  C   UNL A   1      31.750  28.871  27.019  1.00  0.00     0.274 C 
BRANCH  21  22
ATOM     22  C   UNL A   1      31.736  30.394  26.860  1.00  0.00     0.275 C 
BRANCH  22  23
ATOM     23  O   UNL A   1      33.021  30.912  26.466  1.00  0.00    -0.458 OA
BRANCH  23  24
ATOM     24  C   UNL A   1      33.541  31.830  27.312  1.00  0.00     0.338 C 
ATOM     25  O   UNL A   1      32.981  32.807  27.782  1.00  0.00    -0.246 OA
BRANCH  24  26
ATOM     26  C   UNL A   1      34.883  31.420  27.749  1.00  0.00     0.060 A 
ATOM     27  C   UNL A   1      35.081  30.063  28.017  1.00  0.00     0.016 A 
ATOM     28  C   UNL A   1      35.889  32.350  28.009  1.00  0.00     0.016 A 
ATOM     29  C   UNL A   1      36.275  29.626  28.572  1.00  0.00     0.010 A 
ATOM     30  C   UNL A   1      37.091  31.912  28.576  1.00  0.00     0.010 A 
ATOM     31  C   UNL A   1      37.277  30.552  28.883  1.00  0.00    -0.014 A 
BRANCH  31  32
ATOM     32  C   UNL A   1      38.463  30.080  29.631  1.00  0.00     0.031 A 
ATOM     33  C   UNL A   1      38.661  30.521  31.051  1.00  0.00     0.074 A 
ATOM     34  C   UNL A   1      39.304  29.198  29.065  1.00  0.00     0.049 A 
ATOM     35  N   UNL A   1      39.618  30.214  31.889  1.00  0.00    -0.248 NA
ATOM     36  C   UNL A   1      37.642  31.426  31.606  1.00  0.00     0.031 C 
ATOM     37  C   UNL A   1      39.177  28.665  27.709  1.00  0.00     0.029 A 
ATOM     38  N   UNL A   1      40.425  28.588  29.565  1.00  0.00    -0.354 N 
ATOM     39  C   UNL A   1      39.328  30.901  33.060  1.00  0.00     0.074 A 
ATOM     40  C   UNL A   1      38.113  31.652  32.823  1.00  0.00     0.031 C 
ATOM     41  C   UNL A   1      40.181  27.800  27.487  1.00  0.00     0.029 A 
ATOM     42  C   UNL A   1      41.034  27.744  28.671  1.00  0.00     0.049 A 
ATOM     43  H   UNL A   1      40.760  28.740  30.479  1.00  0.00     0.167 HD
ATOM     44  C   UNL A   1      40.015  30.902  34.226  1.00  0.00     0.037 A 
ATOM     45  C   UNL A   1      42.162  27.020  28.793  1.00  0.00     0.037 A 
ATOM     46  C   UNL A   1      41.211  30.137  34.462  1.00  0.00     0.049 A 
ATOM     47  C   UNL A   1      42.918  27.054  30.093  1.00  0.00     0.074 A 
ATOM     48  C   UNL A   1      41.978  30.061  35.612  1.00  0.00     0.029 A 
ATOM     49  N   UNL A   1      41.812  29.309  33.524  1.00  0.00    -0.354 N 
ATOM     50  N   UNL A   1      42.639  27.709  31.194  1.00  0.00    -0.248 NA
ATOM     51  C   UNL A   1      44.144  26.247  30.169  1.00  0.00     0.031 C 
ATOM     52  C   UNL A   1      43.062  29.214  35.358  1.00  0.00     0.029 A 
ATOM     53  C   UNL A   1      42.949  28.731  34.064  1.00  0.00     0.049 A 
ATOM     54  H   UNL A   1      41.481  29.156  32.610  1.00  0.00     0.167 HD
ATOM     55  C   UNL A   1      43.641  27.382  32.098  1.00  0.00     0.074 A 
ATOM     56  C   UNL A   1      44.527  26.457  31.420  1.00  0.00     0.031 C 
ATOM     57  C   UNL A   1      43.814  27.810  33.372  1.00  0.00     0.037 A 
BRANCH  44  58
ATOM     58  C   UNL A   1      39.506  31.785  35.325  1.00  0.00     0.064 A 
ATOM     59  C   UNL A   1      38.571  31.331  36.266  1.00  0.00     0.173 A 
ATOM     60  C   UNL A   1      39.975  33.101  35.447  1.00  0.00     0.173 A 
ATOM     61  F   UNL A   1      38.079  30.086  36.182  1.00  0.00    -0.203 F 
ATOM     62  C   UNL A   1      38.107  32.169  37.277  1.00  0.00     0.198 A 
ATOM     63  C   UNL A   1      39.528  33.930  36.472  1.00  0.00     0.198 A 
ATOM     64  F   UNL A   1      40.870  33.584  34.571  1.00  0.00    -0.203 F 
ATOM     65  F   UNL A   1      37.183  31.728  38.140  1.00  0.00    -0.200 F 
ATOM     66  C   UNL A   1      38.590  33.466  37.382  1.00  0.00     0.200 A 
ATOM     67  F   UNL A   1      40.000  35.180  36.576  1.00  0.00    -0.200 F 
ATOM     68  F   UNL A   1      38.144  34.271  38.357  1.00  0.00    -0.200 F 
ENDBRANCH  44  58
BRANCH  45  69
ATOM     69  C   UNL A   1      42.641  26.208  27.647  1.00  0.00     0.064 A 
ATOM     70  C   UNL A   1      43.575  26.719  26.737  1.00  0.00     0.173 A 
ATOM     71  C   UNL A   1      42.180  24.899  27.447  1.00  0.00     0.173 A 
ATOM     72  F   UNL A   1      44.026  27.974  26.873  1.00  0.00    -0.203 F 
ATOM     73  C   UNL A   1      44.024  25.952  25.663  1.00  0.00     0.198 A 
ATOM     74  C   UNL A   1      42.648  24.125  26.388  1.00  0.00     0.198 A 
ATOM     75  F   UNL A   1      41.282  24.367  28.290  1.00  0.00    -0.203 F 
ATOM     76  F   UNL A   1      44.892  26.474  24.786  1.00  0.00    -0.200 F 
ATOM     77  C   UNL A   1      43.567  24.653  25.494  1.00  0.00     0.200 A 
ATOM     78  F   UNL A   1      42.209  22.867  26.234  1.00  0.00    -0.200 F 
ATOM     79  F   UNL A   1      44.005  23.915  24.467  1.00  0.00    -0.200 F 
ENDBRANCH  45  69
BRANCH  57  80
ATOM     80  C   UNL A   1      44.990  27.263  34.122  1.00  0.00     0.064 A 
ATOM     81  C   UNL A   1      46.234  27.910  34.103  1.00  0.00     0.173 A 
ATOM     82  C   UNL A   1      44.861  26.102  34.897  1.00  0.00     0.173 A 
ATOM     83  F   UNL A   1      46.409  29.015  33.365  1.00  0.00    -0.203 F 
ATOM     84  C   UNL A   1      47.315  27.399  34.817  1.00  0.00     0.198 A 
ATOM     85  C   UNL A   1      45.936  25.607  35.629  1.00  0.00     0.198 A 
ATOM     86  F   UNL A   1      43.688  25.452  34.953  1.00  0.00    -0.203 F 
ATOM     87  F   UNL A   1      48.507  28.008  34.754  1.00  0.00    -0.200 F 
ATOM     88  C   UNL A   1      47.163  26.252  35.584  1.00  0.00     0.200 A 
ATOM     89  F   UNL A   1      45.787  24.505  36.377  1.00  0.00    -0.200 F 
ATOM     90  F   UNL A   1      48.203  25.764  36.275  1.00  0.00    -0.200 F 
ENDBRANCH  57  80
ENDBRANCH  31  32
ENDBRANCH  24  26
ENDBRANCH  23  24
ENDBRANCH  22  23
ENDBRANCH  21  22
ENDBRANCH  20  21
ENDBRANCH   1  20
TORSDOF 17
ENDMDL
MODEL 3
REMARK VINA RESULT:     -10.3      0.422      7.406
REMARK SMILES C[NH2+]CCCC(=O)NC[C@@H]1CC[C@H](C(=O)OCCOC(=O)c2ccc(-c3c4nc(c(-c5c(F)c(F)c(F)c(F)c5F)c5ccc([nH]5)c(-c5c(F)c(F)c(F)c(F)c5F)c5nc(c(-c6c(F)c(F)c(F)c(F)c6F)c6ccc3[nH]6)C=C5)C=C4)cc2)O1
REMARK SMILES IDX 14 1 15 2 13 3 10 4 11 5 85 6 12 7 9 8 8 9 6 10 7 11 5 13
REMARK SMILES IDX 4 14 3 15 2 16 1 17 16 20 17 21 18 22 19 23 20 24 21 25
REMARK SMILES IDX 22 26 23 27 84 28 24 29 83 30 25 31 26 32 27 33 77 34 28 35
REMARK SMILES IDX 82 36 76 37 78 38 29 39 81 40 75 41 74 42 30 44 62 45 42 46
REMARK SMILES IDX 61 47 43 48 46 49 60 50 79 51 44 52 45 53 59 55 80 56 47 57
REMARK SMILES IDX 31 58 32 59 40 60 33 61 34 62 38 63 41 64 35 65 36 66 39 67
REMARK SMILES IDX 37 68 63 69 64 70 72 71 65 72 66 73 70 74 73 75 67 76 68 77
REMARK SMILES IDX 71 78 69 79 48 80 49 81 57 82 50 83 51 84 55 85 58 86 52 87
REMARK SMILES IDX 53 88 56 89 54 90
REMARK H PARENT 8 12 2 18 2 19 78 43 46 54
REMARK Flexibility Score: inf
ROOT
ATOM      1  C   UNL A   1      36.605  21.738  24.717  1.00  0.00     0.335 C 
ATOM      2  O   UNL A   1      37.013  22.209  23.659  1.00  0.00    -0.249 OA
ENDROOT
BRANCH   1   3
ATOM      3  C   UNL A   1      35.980  22.607  25.817  1.00  0.00     0.228 C 
ATOM      4  C   UNL A   1      33.648  22.788  25.930  1.00  0.00     0.138 C 
ATOM      5  C   UNL A   1      34.162  23.961  25.102  1.00  0.00     0.037 C 
ATOM      6  O   UNL A   1      34.786  22.009  26.318  1.00  0.00    -0.361 OA
ATOM      7  C   UNL A   1      35.629  24.035  25.454  1.00  0.00     0.047 C 
BRANCH   4   8
ATOM      8  C   UNL A   1      32.594  21.878  25.262  1.00  0.00     0.147 C 
BRANCH   8   9
ATOM      9  N   UNL A   1      32.496  20.550  25.861  1.00  0.00    -0.353 N 
ATOM     10  C   UNL A   1      32.731  19.310  25.370  1.00  0.00     0.220 C 
ATOM     11  O   UNL A   1      32.502  18.347  26.107  1.00  0.00    -0.275 OA
ATOM     12  H   UNL A   1      32.204  20.558  26.801  1.00  0.00     0.163 HD
BRANCH  10  13
ATOM     13  C   UNL A   1      33.272  19.097  23.975  1.00  0.00     0.106 C 
BRANCH  13  14
ATOM     14  C   UNL A   1      32.917  17.716  23.420  1.00  0.00     0.071 C 
BRANCH  14  15
ATOM     15  C   UNL A   1      34.034  16.682  23.564  1.00  0.00     0.260 C 
BRANCH  15  16
ATOM     16  N   UNL A   1      34.056  16.001  24.859  1.00  0.00    -0.349 N 
ATOM     17  C   UNL A   1      35.408  15.866  25.377  1.00  0.00     0.330 C 
ATOM     18  H   UNL A   1      33.500  16.538  25.524  1.00  0.00     0.346 HD
ATOM     19  H   UNL A   1      33.672  15.065  24.730  1.00  0.00     0.346 HD
ENDBRANCH  15  16
ENDBRANCH  14  15
ENDBRANCH  13  14
ENDBRANCH  10  13
ENDBRANCH   8   9
ENDBRANCH   4   8
ENDBRANCH   1   3
BRANCH   1  20
ATOM     20  O   UNL A   1      36.691  20.423  25.053  1.00  0.00    -0.460 OA
BRANCH  20  21
ATOM     21  C   UNL A   1      38.009  19.840  24.982  1.00  0.00     0.274 C 
BRANCH  21  22
ATOM     22  C   UNL A   1      39.041  20.636  25.788  1.00  0.00     0.275 C 
BRANCH  22  23
ATOM     23  O   UNL A   1      39.811  19.795  26.666  1.00  0.00    -0.458 OA
BRANCH  23  24
ATOM     24  C   UNL A   1      41.093  19.604  26.282  1.00  0.00     0.338 C 
ATOM     25  O   UNL A   1      41.570  18.613  25.756  1.00  0.00    -0.246 OA
BRANCH  24  26
ATOM     26  C   UNL A   1      41.864  20.847  26.437  1.00  0.00     0.060 A 
ATOM     27  C   UNL A   1      42.037  21.333  27.735  1.00  0.00     0.016 A 
ATOM     28  C   UNL A   1      42.300  21.585  25.337  1.00  0.00     0.016 A 
ATOM     29  C   UNL A   1      42.624  22.572  27.946  1.00  0.00     0.010 A 
ATOM     30  C   UNL A   1      42.886  22.838  25.548  1.00  0.00     0.010 A 
ATOM     31  C   UNL A   1      43.026  23.346  26.852  1.00  0.00    -0.014 A 
BRANCH  31  32
ATOM     32  C   UNL A   1      43.486  24.730  27.101  1.00  0.00     0.031 A 
ATOM     33  C   UNL A   1      42.537  25.725  27.702  1.00  0.00     0.074 A 
ATOM     34  C   UNL A   1      44.767  25.062  26.867  1.00  0.00     0.049 A 
ATOM     35  N   UNL A   1      42.738  26.979  28.016  1.00  0.00    -0.248 NA
ATOM     36  C   UNL A   1      41.178  25.242  27.994  1.00  0.00     0.031 C 
ATOM     37  C   UNL A   1      45.786  24.160  26.332  1.00  0.00     0.029 A 
ATOM     38  N   UNL A   1      45.431  26.246  27.061  1.00  0.00    -0.354 N 
ATOM     39  C   UNL A   1      41.531  27.439  28.522  1.00  0.00     0.074 A 
ATOM     40  C   UNL A   1      40.596  26.335  28.463  1.00  0.00     0.031 C 
ATOM     41  C   UNL A   1      46.951  24.823  26.245  1.00  0.00     0.029 A 
ATOM     42  C   UNL A   1      46.750  26.200  26.689  1.00  0.00     0.049 A 
ATOM     43  H   UNL A   1      45.001  27.051  27.432  1.00  0.00     0.167 HD
ATOM     44  C   UNL A   1      41.233  28.672  28.995  1.00  0.00     0.037 A 
ATOM     45  C   UNL A   1      47.686  27.168  26.694  1.00  0.00     0.037 A 
ATOM     46  C   UNL A   1      42.172  29.759  29.070  1.00  0.00     0.049 A 
ATOM     47  C   UNL A   1      47.323  28.536  27.205  1.00  0.00     0.074 A 
ATOM     48  C   UNL A   1      41.973  31.045  29.540  1.00  0.00     0.029 A 
ATOM     49  N   UNL A   1      43.497  29.683  28.662  1.00  0.00    -0.354 N 
ATOM     50  N   UNL A   1      46.178  28.964  27.679  1.00  0.00    -0.248 NA
ATOM     51  C   UNL A   1      48.383  29.554  27.184  1.00  0.00     0.031 C 
ATOM     52  C   UNL A   1      43.168  31.757  29.386  1.00  0.00     0.029 A 
ATOM     53  C   UNL A   1      44.122  30.904  28.857  1.00  0.00     0.049 A 
ATOM     54  H   UNL A   1      43.928  28.880  28.289  1.00  0.00     0.167 HD
ATOM     55  C   UNL A   1      46.381  30.291  28.029  1.00  0.00     0.074 A 
ATOM     56  C   UNL A   1      47.766  30.594  27.726  1.00  0.00     0.031 C 
ATOM     57  C   UNL A   1      45.502  31.181  28.551  1.00  0.00     0.037 A 
BRANCH  44  58
ATOM     58  C   UNL A   1      39.822  28.918  29.436  1.00  0.00     0.064 A 
ATOM     59  C   UNL A   1      38.836  29.372  28.547  1.00  0.00     0.173 A 
ATOM     60  C   UNL A   1      39.447  28.678  30.766  1.00  0.00     0.173 A 
ATOM     61  F   UNL A   1      39.150  29.632  27.269  1.00  0.00    -0.203 F 
ATOM     62  C   UNL A   1      37.532  29.598  28.979  1.00  0.00     0.198 A 
ATOM     63  C   UNL A   1      38.136  28.883  31.190  1.00  0.00     0.198 A 
ATOM     64  F   UNL A   1      40.352  28.244  31.657  1.00  0.00    -0.203 F 
ATOM     65  F   UNL A   1      36.617  30.071  28.123  1.00  0.00    -0.200 F 
ATOM     66  C   UNL A   1      37.182  29.349  30.298  1.00  0.00     0.200 A 
ATOM     67  F   UNL A   1      37.799  28.635  32.463  1.00  0.00    -0.200 F 
ATOM     68  F   UNL A   1      35.925  29.564  30.711  1.00  0.00    -0.200 F 
ENDBRANCH  44  58
BRANCH  45  69
ATOM     69  C   UNL A   1      49.051  26.872  26.193  1.00  0.00     0.064 A 
ATOM     70  C   UNL A   1      50.057  26.419  27.055  1.00  0.00     0.173 A 
ATOM     71  C   UNL A   1      49.371  27.025  24.836  1.00  0.00     0.173 A 
ATOM     72  F   UNL A   1      49.805  26.280  28.365  1.00  0.00    -0.203 F 
ATOM     73  C   UNL A   1      51.337  26.138  26.580  1.00  0.00     0.198 A 
ATOM     74  C   UNL A   1      50.643  26.720  24.357  1.00  0.00     0.198 A 
ATOM     75  F   UNL A   1      48.441  27.458  23.972  1.00  0.00    -0.203 F 
ATOM     76  F   UNL A   1      52.293  25.739  27.430  1.00  0.00    -0.200 F 
ATOM     77  C   UNL A   1      51.626  26.281  25.231  1.00  0.00     0.200 A 
ATOM     78  F   UNL A   1      50.915  26.852  23.052  1.00  0.00    -0.200 F 
ATOM     79  F   UNL A   1      52.854  26.004  24.774  1.00  0.00    -0.200 F 
ENDBRANCH  45  69
BRANCH  57  80
ATOM     80  C   UNL A   1      46.019  32.556  28.850  1.00  0.00     0.064 A 
ATOM     81  C   UNL A   1      46.556  32.878  30.105  1.00  0.00     0.173 A 
ATOM     82  C   UNL A   1      46.009  33.549  27.860  1.00  0.00     0.173 A 
ATOM     83  F   UNL A   1      46.573  31.965  31.087  1.00  0.00    -0.203 F 
ATOM     84  C   UNL A   1      47.047  34.154  30.364  1.00  0.00     0.198 A 
ATOM     85  C   UNL A   1      46.523  34.817  28.115  1.00  0.00     0.198 A 
ATOM     86  F   UNL A   1      45.512  33.286  26.643  1.00  0.00    -0.203 F 
ATOM     87  F   UNL A   1      47.520  34.455  31.581  1.00  0.00    -0.200 F 
ATOM     88  C   UNL A   1      47.036  35.121  29.367  1.00  0.00     0.200 A 
ATOM     89  F   UNL A   1      46.520  35.747  27.150  1.00  0.00    -0.200 F 
ATOM     90  F   UNL A   1      47.513  36.348  29.618  1.00  0.00    -0.200 F 
ENDBRANCH  57  80
ENDBRANCH  31  32
ENDBRANCH  24  26
ENDBRANCH  23  24
ENDBRANCH  22  23
ENDBRANCH  21  22
ENDBRANCH  20  21
ENDBRANCH   1  20
TORSDOF 17
ENDMDL
