MODEL 1
REMARK VINA RESULT:     -12.3      0.000      0.000
REMARK SMILES Cc1cc(C)nc(N2CCCC[C@H]2C(=O)OCCOC(=O)c2ccc(-c3c4nc(c(-c5c(F)c(F)c(F)c(F)c5F)c5ccc([nH]5)c(-c5c(F)c(F)c(F)c(F)c5F)c5nc(c(-c6c(F)c(F)c(F)c(F)c6F)c6ccc3[nH]6)C=C5)C=C4)cc2)n1
REMARK SMILES IDX 18 1 17 2 16 3 14 4 15 5 13 6 8 7 9 8 10 9 12 10 11 11 7 12
REMARK SMILES IDX 1 13 2 14 3 15 85 16 4 17 5 18 6 19 19 20 20 21 21 22 22 23
REMARK SMILES IDX 23 24 84 25 24 26 83 27 25 28 26 29 27 30 77 31 28 32 82 33
REMARK SMILES IDX 76 34 78 35 29 36 81 37 75 38 74 39 30 41 62 42 42 43 61 44
REMARK SMILES IDX 43 45 46 46 60 47 79 48 44 49 45 50 59 52 80 53 47 54 31 55
REMARK SMILES IDX 32 56 40 57 33 58 34 59 38 60 41 61 35 62 36 63 39 64 37 65
REMARK SMILES IDX 63 66 64 67 72 68 65 69 66 70 70 71 73 72 67 73 68 74 71 75
REMARK SMILES IDX 69 76 48 77 49 78 57 79 50 80 51 81 55 82 58 83 52 84 53 85
REMARK SMILES IDX 56 86 54 87
REMARK H PARENT 78 40 46 51
REMARK Flexibility Score: inf
ROOT
ATOM      1  C   UNL A   1      31.777  29.960  26.234  1.00  0.00     0.275 C 
ENDROOT
BRANCH   1   2
ATOM      2  C   UNL A   1      31.737  28.439  26.346  1.00  0.00     0.274 C 
BRANCH   2   3
ATOM      3  O   UNL A   1      30.887  27.879  25.325  1.00  0.00    -0.461 OA
BRANCH   3   4
ATOM      4  C   UNL A   1      31.313  26.716  24.748  1.00  0.00     0.328 C 
ATOM      5  O   UNL A   1      31.790  25.773  25.370  1.00  0.00    -0.250 OA
BRANCH   4   6
ATOM      6  C   UNL A   1      31.121  26.750  23.218  1.00  0.00     0.195 C 
ATOM      7  N   UNL A   1      31.177  28.111  22.706  1.00  0.00    -0.327 N 
ATOM      8  C   UNL A   1      32.417  28.855  22.744  1.00  0.00     0.120 C 
ATOM      9  C   UNL A   1      33.535  28.045  22.078  1.00  0.00     0.022 C 
ATOM     10  C   UNL A   1      32.163  25.952  22.419  1.00  0.00     0.037 C 
ATOM     11  C   UNL A   1      33.560  26.573  22.496  1.00  0.00     0.005 C 
BRANCH   7  12
ATOM     12  C   UNL A   1      29.980  28.746  22.547  1.00  0.00     0.226 A 
ATOM     13  C   UNL A   1      28.859  32.189  22.031  1.00  0.00     0.067 C 
ATOM     14  C   UNL A   1      28.827  30.728  22.355  1.00  0.00     0.043 A 
ATOM     15  C   UNL A   1      27.664  30.124  22.780  1.00  0.00     0.047 A 
ATOM     16  N   UNL A   1      29.989  30.056  22.262  1.00  0.00    -0.218 NA
ATOM     17  C   UNL A   1      27.745  28.776  23.065  1.00  0.00     0.043 A 
ATOM     18  C   UNL A   1      26.569  28.047  23.640  1.00  0.00     0.067 C 
ATOM     19  N   UNL A   1      28.883  28.074  22.914  1.00  0.00    -0.218 NA
ENDBRANCH   7  12
ENDBRANCH   4   6
ENDBRANCH   3   4
ENDBRANCH   2   3
ENDBRANCH   1   2
BRANCH   1  20
ATOM     20  O   UNL A   1      33.148  30.390  26.208  1.00  0.00    -0.458 OA
BRANCH  20  21
ATOM     21  C   UNL A   1      33.479  31.370  27.071  1.00  0.00     0.338 C 
ATOM     22  O   UNL A   1      32.797  32.316  27.441  1.00  0.00    -0.246 OA
BRANCH  21  23
ATOM     23  C   UNL A   1      34.808  31.083  27.619  1.00  0.00     0.060 A 
ATOM     24  C   UNL A   1      35.101  29.768  27.969  1.00  0.00     0.016 A 
ATOM     25  C   UNL A   1      35.710  32.104  27.906  1.00  0.00     0.016 A 
ATOM     26  C   UNL A   1      36.251  29.464  28.685  1.00  0.00     0.010 A 
ATOM     27  C   UNL A   1      36.909  31.789  28.556  1.00  0.00     0.010 A 
ATOM     28  C   UNL A   1      37.172  30.471  28.984  1.00  0.00    -0.014 A 
BRANCH  28  29
ATOM     29  C   UNL A   1      38.369  30.167  29.808  1.00  0.00     0.031 A 
ATOM     30  C   UNL A   1      39.457  29.298  29.241  1.00  0.00     0.074 A 
ATOM     31  C   UNL A   1      38.510  30.691  31.040  1.00  0.00     0.049 A 
ATOM     32  N   UNL A   1      40.484  28.755  29.843  1.00  0.00    -0.248 NA
ATOM     33  C   UNL A   1      39.377  29.001  27.802  1.00  0.00     0.031 C 
ATOM     34  C   UNL A   1      37.582  31.626  31.677  1.00  0.00     0.029 A 
ATOM     35  N   UNL A   1      39.498  30.515  31.977  1.00  0.00    -0.354 N 
ATOM     36  C   UNL A   1      41.139  28.009  28.871  1.00  0.00     0.074 A 
ATOM     37  C   UNL A   1      40.402  28.177  27.638  1.00  0.00     0.031 C 
ATOM     38  C   UNL A   1      38.054  31.958  32.889  1.00  0.00     0.029 A 
ATOM     39  C   UNL A   1      39.273  31.196  33.148  1.00  0.00     0.049 A 
ATOM     40  H   UNL A   1      40.292  29.953  31.825  1.00  0.00     0.167 HD
ATOM     41  C   UNL A   1      42.251  27.247  29.003  1.00  0.00     0.037 A 
ATOM     42  C   UNL A   1      39.946  31.173  34.314  1.00  0.00     0.037 A 
ATOM     43  C   UNL A   1      43.009  27.121  30.219  1.00  0.00     0.049 A 
ATOM     44  C   UNL A   1      41.140  30.269  34.456  1.00  0.00     0.074 A 
ATOM     45  C   UNL A   1      44.143  26.365  30.458  1.00  0.00     0.029 A 
ATOM     46  N   UNL A   1      42.716  27.787  31.400  1.00  0.00    -0.354 N 
ATOM     47  N   UNL A   1      41.704  29.497  33.559  1.00  0.00    -0.248 NA
ATOM     48  C   UNL A   1      41.772  30.212  35.782  1.00  0.00     0.031 C 
ATOM     49  C   UNL A   1      44.520  26.551  31.793  1.00  0.00     0.029 A 
ATOM     50  C   UNL A   1      43.641  27.450  32.374  1.00  0.00     0.049 A 
ATOM     51  H   UNL A   1      41.963  28.408  31.527  1.00  0.00     0.167 HD
ATOM     52  C   UNL A   1      42.759  28.871  34.207  1.00  0.00     0.074 A 
ATOM     53  C   UNL A   1      42.770  29.366  35.568  1.00  0.00     0.031 C 
ATOM     54  C   UNL A   1      43.637  27.960  33.721  1.00  0.00     0.037 A 
BRANCH  41  55
ATOM     55  C   UNL A   1      42.685  26.452  27.810  1.00  0.00     0.064 A 
ATOM     56  C   UNL A   1      42.183  25.171  27.548  1.00  0.00     0.173 A 
ATOM     57  C   UNL A   1      43.604  26.999  26.901  1.00  0.00     0.173 A 
ATOM     58  F   UNL A   1      41.317  24.599  28.398  1.00  0.00    -0.203 F 
ATOM     59  C   UNL A   1      42.603  24.455  26.430  1.00  0.00     0.198 A 
ATOM     60  C   UNL A   1      44.004  26.291  25.772  1.00  0.00     0.198 A 
ATOM     61  F   UNL A   1      44.112  28.224  27.108  1.00  0.00    -0.203 F 
ATOM     62  F   UNL A   1      42.141  23.214  26.217  1.00  0.00    -0.200 F 
ATOM     63  C   UNL A   1      43.507  25.017  25.540  1.00  0.00     0.200 A 
ATOM     64  F   UNL A   1      44.872  26.838  24.911  1.00  0.00    -0.200 F 
ATOM     65  F   UNL A   1      43.907  24.328  24.463  1.00  0.00    -0.200 F 
ENDBRANCH  41  55
BRANCH  42  66
ATOM     66  C   UNL A   1      39.475  31.993  35.460  1.00  0.00     0.064 A 
ATOM     67  C   UNL A   1      39.963  33.291  35.665  1.00  0.00     0.173 A 
ATOM     68  C   UNL A   1      38.538  31.495  36.377  1.00  0.00     0.173 A 
ATOM     69  F   UNL A   1      40.883  33.799  34.833  1.00  0.00    -0.203 F 
ATOM     70  C   UNL A   1      39.537  34.055  36.750  1.00  0.00     0.198 A 
ATOM     71  C   UNL A   1      38.093  32.269  37.444  1.00  0.00     0.198 A 
ATOM     72  F   UNL A   1      38.046  30.256  36.228  1.00  0.00    -0.203 F 
ATOM     73  F   UNL A   1      40.049  35.277  36.947  1.00  0.00    -0.200 F 
ATOM     74  C   UNL A   1      38.597  33.546  37.634  1.00  0.00     0.200 A 
ATOM     75  F   UNL A   1      37.179  31.777  38.292  1.00  0.00    -0.200 F 
ATOM     76  F   UNL A   1      38.185  34.283  38.675  1.00  0.00    -0.200 F 
ENDBRANCH  42  66
BRANCH  54  77
ATOM     77  C   UNL A   1      44.695  27.461  34.658  1.00  0.00     0.064 A 
ATOM     78  C   UNL A   1      44.502  26.304  35.425  1.00  0.00     0.173 A 
ATOM     79  C   UNL A   1      45.924  28.127  34.760  1.00  0.00     0.173 A 
ATOM     80  F   UNL A   1      43.335  25.645  35.373  1.00  0.00    -0.203 F 
ATOM     81  C   UNL A   1      45.501  25.839  36.277  1.00  0.00     0.198 A 
ATOM     82  C   UNL A   1      46.928  27.647  35.596  1.00  0.00     0.198 A 
ATOM     83  F   UNL A   1      46.155  29.237  34.042  1.00  0.00    -0.203 F 
ATOM     84  F   UNL A   1      45.285  24.751  37.029  1.00  0.00    -0.200 F 
ATOM     85  C   UNL A   1      46.715  26.507  36.356  1.00  0.00     0.200 A 
ATOM     86  F   UNL A   1      48.103  28.288  35.667  1.00  0.00    -0.200 F 
ATOM     87  F   UNL A   1      47.676  26.056  37.173  1.00  0.00    -0.200 F 
ENDBRANCH  54  77
ENDBRANCH  28  29
ENDBRANCH  21  23
ENDBRANCH  20  21
ENDBRANCH   1  20
TORSDOF 12
ENDMDL
MODEL 2
REMARK VINA RESULT:     -12.3      1.534      3.205
REMARK SMILES Cc1cc(C)nc(N2CCCC[C@H]2C(=O)OCCOC(=O)c2ccc(-c3c4nc(c(-c5c(F)c(F)c(F)c(F)c5F)c5ccc([nH]5)c(-c5c(F)c(F)c(F)c(F)c5F)c5nc(c(-c6c(F)c(F)c(F)c(F)c6F)c6ccc3[nH]6)C=C5)C=C4)cc2)n1
REMARK SMILES IDX 18 1 17 2 16 3 14 4 15 5 13 6 8 7 9 8 10 9 12 10 11 11 7 12
REMARK SMILES IDX 1 13 2 14 3 15 85 16 4 17 5 18 6 19 19 20 20 21 21 22 22 23
REMARK SMILES IDX 23 24 84 25 24 26 83 27 25 28 26 29 27 30 77 31 28 32 82 33
REMARK SMILES IDX 76 34 78 35 29 36 81 37 75 38 74 39 30 41 62 42 42 43 61 44
REMARK SMILES IDX 43 45 46 46 60 47 79 48 44 49 45 50 59 52 80 53 47 54 31 55
REMARK SMILES IDX 32 56 40 57 33 58 34 59 38 60 41 61 35 62 36 63 39 64 37 65
REMARK SMILES IDX 63 66 64 67 72 68 65 69 66 70 70 71 73 72 67 73 68 74 71 75
REMARK SMILES IDX 69 76 48 77 49 78 57 79 50 80 51 81 55 82 58 83 52 84 53 85
REMARK SMILES IDX 56 86 54 87
REMARK H PARENT 78 40 46 51
REMARK Flexibility Score: inf
ROOT
ATOM      1  C   UNL A   1      31.766  29.896  26.491  1.00  0.00     0.275 C 
ENDROOT
BRANCH   1   2
ATOM      2  C   UNL A   1      31.779  28.443  26.956  1.00  0.00     0.274 C 
BRANCH   2   3
ATOM      3  O   UNL A   1      32.903  27.741  26.390  1.00  0.00    -0.461 OA
BRANCH   3   4
ATOM      4  C   UNL A   1      32.629  26.564  25.754  1.00  0.00     0.328 C 
ATOM      5  O   UNL A   1      31.908  25.684  26.212  1.00  0.00    -0.250 OA
BRANCH   4   6
ATOM      6  C   UNL A   1      33.349  26.485  24.392  1.00  0.00     0.195 C 
ATOM      7  N   UNL A   1      32.705  25.527  23.506  1.00  0.00    -0.327 N 
ATOM      8  C   UNL A   1      31.378  25.785  22.990  1.00  0.00     0.120 C 
ATOM      9  C   UNL A   1      31.336  27.163  22.318  1.00  0.00     0.022 C 
ATOM     10  C   UNL A   1      33.405  27.810  23.614  1.00  0.00     0.037 C 
ATOM     11  C   UNL A   1      32.026  28.262  23.129  1.00  0.00     0.005 C 
BRANCH   7  12
ATOM     12  C   UNL A   1      33.231  24.268  23.493  1.00  0.00     0.226 A 
ATOM     13  C   UNL A   1      32.269  20.983  24.780  1.00  0.00     0.067 C 
ATOM     14  C   UNL A   1      33.107  22.087  24.216  1.00  0.00     0.043 A 
ATOM     15  C   UNL A   1      34.453  21.905  23.985  1.00  0.00     0.047 A 
ATOM     16  N   UNL A   1      32.497  23.267  23.999  1.00  0.00    -0.218 NA
ATOM     17  C   UNL A   1      35.137  22.990  23.476  1.00  0.00     0.043 A 
ATOM     18  C   UNL A   1      36.623  22.936  23.293  1.00  0.00     0.067 C 
ATOM     19  N   UNL A   1      34.530  24.157  23.190  1.00  0.00    -0.218 NA
ENDBRANCH   7  12
ENDBRANCH   4   6
ENDBRANCH   3   4
ENDBRANCH   2   3
ENDBRANCH   1   2
BRANCH   1  20
ATOM     20  O   UNL A   1      33.121  30.350  26.339  1.00  0.00    -0.458 OA
BRANCH  20  21
ATOM     21  C   UNL A   1      33.493  31.378  27.125  1.00  0.00     0.338 C 
ATOM     22  O   UNL A   1      32.844  32.367  27.439  1.00  0.00    -0.246 OA
BRANCH  21  23
ATOM     23  C   UNL A   1      34.825  31.094  27.670  1.00  0.00     0.060 A 
ATOM     24  C   UNL A   1      35.121  29.780  28.017  1.00  0.00     0.016 A 
ATOM     25  C   UNL A   1      35.724  32.117  27.958  1.00  0.00     0.016 A 
ATOM     26  C   UNL A   1      36.274  29.476  28.731  1.00  0.00     0.010 A 
ATOM     27  C   UNL A   1      36.925  31.804  28.605  1.00  0.00     0.010 A 
ATOM     28  C   UNL A   1      37.193  30.486  29.030  1.00  0.00    -0.014 A 
BRANCH  28  29
ATOM     29  C   UNL A   1      38.392  30.183  29.852  1.00  0.00     0.031 A 
ATOM     30  C   UNL A   1      39.481  29.319  29.281  1.00  0.00     0.074 A 
ATOM     31  C   UNL A   1      38.533  30.705  31.085  1.00  0.00     0.049 A 
ATOM     32  N   UNL A   1      40.511  28.776  29.880  1.00  0.00    -0.248 NA
ATOM     33  C   UNL A   1      39.399  29.025  27.841  1.00  0.00     0.031 C 
ATOM     34  C   UNL A   1      37.604  31.636  31.725  1.00  0.00     0.029 A 
ATOM     35  N   UNL A   1      39.523  30.529  32.020  1.00  0.00    -0.354 N 
ATOM     36  C   UNL A   1      41.166  28.035  28.905  1.00  0.00     0.074 A 
ATOM     37  C   UNL A   1      40.426  28.204  27.674  1.00  0.00     0.031 C 
ATOM     38  C   UNL A   1      38.077  31.966  32.936  1.00  0.00     0.029 A 
ATOM     39  C   UNL A   1      39.299  31.207  33.192  1.00  0.00     0.049 A 
ATOM     40  H   UNL A   1      40.319  29.970  31.864  1.00  0.00     0.167 HD
ATOM     41  C   UNL A   1      42.280  27.276  29.034  1.00  0.00     0.037 A 
ATOM     42  C   UNL A   1      39.973  31.184  34.357  1.00  0.00     0.037 A 
ATOM     43  C   UNL A   1      43.041  27.149  30.248  1.00  0.00     0.049 A 
ATOM     44  C   UNL A   1      41.170  30.282  34.495  1.00  0.00     0.074 A 
ATOM     45  C   UNL A   1      44.177  26.395  30.483  1.00  0.00     0.029 A 
ATOM     46  N   UNL A   1      42.748  27.812  31.431  1.00  0.00    -0.354 N 
ATOM     47  N   UNL A   1      41.734  29.514  33.596  1.00  0.00    -0.248 NA
ATOM     48  C   UNL A   1      41.804  30.224  35.820  1.00  0.00     0.031 C 
ATOM     49  C   UNL A   1      44.556  26.580  31.818  1.00  0.00     0.029 A 
ATOM     50  C   UNL A   1      43.676  27.475  32.403  1.00  0.00     0.049 A 
ATOM     51  H   UNL A   1      41.993  28.430  31.560  1.00  0.00     0.167 HD
ATOM     52  C   UNL A   1      42.792  28.889  34.240  1.00  0.00     0.074 A 
ATOM     53  C   UNL A   1      42.805  29.382  35.602  1.00  0.00     0.031 C 
ATOM     54  C   UNL A   1      43.673  27.982  33.750  1.00  0.00     0.037 A 
BRANCH  41  55
ATOM     55  C   UNL A   1      42.714  26.485  27.838  1.00  0.00     0.064 A 
ATOM     56  C   UNL A   1      42.235  25.192  27.588  1.00  0.00     0.173 A 
ATOM     57  C   UNL A   1      43.611  27.046  26.915  1.00  0.00     0.173 A 
ATOM     58  F   UNL A   1      41.391  24.607  28.451  1.00  0.00    -0.203 F 
ATOM     59  C   UNL A   1      42.654  24.480  26.467  1.00  0.00     0.198 A 
ATOM     60  C   UNL A   1      44.009  26.341  25.784  1.00  0.00     0.198 A 
ATOM     61  F   UNL A   1      44.097  28.282  27.110  1.00  0.00    -0.203 F 
ATOM     62  F   UNL A   1      42.214  23.230  26.265  1.00  0.00    -0.200 F 
ATOM     63  C   UNL A   1      43.535  25.057  25.563  1.00  0.00     0.200 A 
ATOM     64  F   UNL A   1      44.855  26.902  24.909  1.00  0.00    -0.200 F 
ATOM     65  F   UNL A   1      43.935  24.371  24.483  1.00  0.00    -0.200 F 
ENDBRANCH  41  55
BRANCH  42  66
ATOM     66  C   UNL A   1      39.502  32.000  35.505  1.00  0.00     0.064 A 
ATOM     67  C   UNL A   1      39.999  33.292  35.723  1.00  0.00     0.173 A 
ATOM     68  C   UNL A   1      38.555  31.503  36.413  1.00  0.00     0.173 A 
ATOM     69  F   UNL A   1      40.929  33.798  34.899  1.00  0.00    -0.203 F 
ATOM     70  C   UNL A   1      39.574  34.052  36.810  1.00  0.00     0.198 A 
ATOM     71  C   UNL A   1      38.110  32.274  37.483  1.00  0.00     0.198 A 
ATOM     72  F   UNL A   1      38.054  30.270  36.252  1.00  0.00    -0.203 F 
ATOM     73  F   UNL A   1      40.094  35.269  37.019  1.00  0.00    -0.200 F 
ATOM     74  C   UNL A   1      38.624  33.546  37.685  1.00  0.00     0.200 A 
ATOM     75  F   UNL A   1      37.186  31.784  38.321  1.00  0.00    -0.200 F 
ATOM     76  F   UNL A   1      38.212  34.279  38.728  1.00  0.00    -0.200 F 
ENDBRANCH  42  66
BRANCH  54  77
ATOM     77  C   UNL A   1      44.733  27.484  34.685  1.00  0.00     0.064 A 
ATOM     78  C   UNL A   1      45.950  28.163  34.835  1.00  0.00     0.173 A 
ATOM     79  C   UNL A   1      44.512  26.339  35.463  1.00  0.00     0.173 A 
ATOM     80  F   UNL A   1      46.211  29.253  34.097  1.00  0.00    -0.203 F 
ATOM     81  C   UNL A   1      46.919  27.702  35.722  1.00  0.00     0.198 A 
ATOM     82  C   UNL A   1      45.474  25.894  36.365  1.00  0.00     0.198 A 
ATOM     83  F   UNL A   1      43.362  25.659  35.356  1.00  0.00    -0.203 F 
ATOM     84  F   UNL A   1      48.090  28.345  35.825  1.00  0.00    -0.200 F 
ATOM     85  C   UNL A   1      46.677  26.572  36.491  1.00  0.00     0.200 A 
ATOM     86  F   UNL A   1      45.238  24.807  37.113  1.00  0.00    -0.200 F 
ATOM     87  F   UNL A   1      47.610  26.132  37.347  1.00  0.00    -0.200 F 
ENDBRANCH  54  77
ENDBRANCH  28  29
ENDBRANCH  21  23
ENDBRANCH  20  21
ENDBRANCH   1  20
TORSDOF 12
ENDMDL
MODEL 3
REMARK VINA RESULT:     -12.3      1.770      3.760
REMARK SMILES Cc1cc(C)nc(N2CCCC[C@H]2C(=O)OCCOC(=O)c2ccc(-c3c4nc(c(-c5c(F)c(F)c(F)c(F)c5F)c5ccc([nH]5)c(-c5c(F)c(F)c(F)c(F)c5F)c5nc(c(-c6c(F)c(F)c(F)c(F)c6F)c6ccc3[nH]6)C=C5)C=C4)cc2)n1
REMARK SMILES IDX 18 1 17 2 16 3 14 4 15 5 13 6 8 7 9 8 10 9 12 10 11 11 7 12
REMARK SMILES IDX 1 13 2 14 3 15 85 16 4 17 5 18 6 19 19 20 20 21 21 22 22 23
REMARK SMILES IDX 23 24 84 25 24 26 83 27 25 28 26 29 27 30 77 31 28 32 82 33
REMARK SMILES IDX 76 34 78 35 29 36 81 37 75 38 74 39 30 41 62 42 42 43 61 44
REMARK SMILES IDX 43 45 46 46 60 47 79 48 44 49 45 50 59 52 80 53 47 54 31 55
REMARK SMILES IDX 32 56 40 57 33 58 34 59 38 60 41 61 35 62 36 63 39 64 37 65
REMARK SMILES IDX 63 66 64 67 72 68 65 69 66 70 70 71 73 72 67 73 68 74 71 75
REMARK SMILES IDX 69 76 48 77 49 78 57 79 50 80 51 81 55 82 58 83 52 84 53 85
REMARK SMILES IDX 56 86 54 87
REMARK H PARENT 78 40 46 51
REMARK Flexibility Score: inf
ROOT
ATOM      1  C   UNL A   1      31.645  30.538  25.755  1.00  0.00     0.275 C 
ENDROOT
BRANCH   1   2
ATOM      2  C   UNL A   1      31.481  29.234  24.981  1.00  0.00     0.274 C 
BRANCH   2   3
ATOM      3  O   UNL A   1      32.768  28.653  24.689  1.00  0.00    -0.461 OA
BRANCH   3   4
ATOM      4  C   UNL A   1      32.987  27.390  25.160  1.00  0.00     0.328 C 
ATOM      5  O   UNL A   1      32.680  27.011  26.285  1.00  0.00    -0.250 OA
BRANCH   4   6
ATOM      6  C   UNL A   1      33.672  26.510  24.095  1.00  0.00     0.195 C 
ATOM      7  N   UNL A   1      33.158  25.148  24.120  1.00  0.00    -0.327 N 
ATOM      8  C   UNL A   1      31.794  24.875  23.723  1.00  0.00     0.120 C 
ATOM      9  C   UNL A   1      31.525  25.464  22.333  1.00  0.00     0.022 C 
ATOM     10  C   UNL A   1      33.505  26.999  22.648  1.00  0.00     0.037 C 
ATOM     11  C   UNL A   1      32.061  26.886  22.155  1.00  0.00     0.005 C 
BRANCH   7  12
ATOM     12  C   UNL A   1      33.869  24.248  24.858  1.00  0.00     0.226 A 
ATOM     13  C   UNL A   1      33.274  22.202  27.830  1.00  0.00     0.067 C 
ATOM     14  C   UNL A   1      33.995  22.915  26.729  1.00  0.00     0.043 A 
ATOM     15  C   UNL A   1      35.371  22.901  26.661  1.00  0.00     0.047 A 
ATOM     16  N   UNL A   1      33.242  23.604  25.852  1.00  0.00    -0.218 NA
ATOM     17  C   UNL A   1      35.937  23.600  25.614  1.00  0.00     0.043 A 
ATOM     18  C   UNL A   1      37.424  23.743  25.510  1.00  0.00     0.067 C 
ATOM     19  N   UNL A   1      35.197  24.239  24.689  1.00  0.00    -0.218 NA
ENDBRANCH   7  12
ENDBRANCH   4   6
ENDBRANCH   3   4
ENDBRANCH   2   3
ENDBRANCH   1   2
BRANCH   1  20
ATOM     20  O   UNL A   1      32.709  30.384  26.710  1.00  0.00    -0.458 OA
BRANCH  20  21
ATOM     21  C   UNL A   1      33.251  31.523  27.182  1.00  0.00     0.338 C 
ATOM     22  O   UNL A   1      32.735  32.629  27.269  1.00  0.00    -0.246 OA
BRANCH  21  23
ATOM     23  C   UNL A   1      34.588  31.224  27.705  1.00  0.00     0.060 A 
ATOM     24  C   UNL A   1      34.884  29.903  28.024  1.00  0.00     0.016 A 
ATOM     25  C   UNL A   1      35.494  32.239  28.001  1.00  0.00     0.016 A 
ATOM     26  C   UNL A   1      36.045  29.583  28.717  1.00  0.00     0.010 A 
ATOM     27  C   UNL A   1      36.702  31.910  28.627  1.00  0.00     0.010 A 
ATOM     28  C   UNL A   1      36.971  30.584  29.023  1.00  0.00    -0.014 A 
BRANCH  28  29
ATOM     29  C   UNL A   1      38.179  30.262  29.824  1.00  0.00     0.031 A 
ATOM     30  C   UNL A   1      39.247  29.385  29.233  1.00  0.00     0.074 A 
ATOM     31  C   UNL A   1      38.348  30.778  31.057  1.00  0.00     0.049 A 
ATOM     32  N   UNL A   1      40.279  28.827  29.813  1.00  0.00    -0.248 NA
ATOM     33  C   UNL A   1      39.137  29.097  27.794  1.00  0.00     0.031 C 
ATOM     34  C   UNL A   1      37.441  31.719  31.715  1.00  0.00     0.029 A 
ATOM     35  N   UNL A   1      39.351  30.585  31.975  1.00  0.00    -0.354 N 
ATOM     36  C   UNL A   1      40.907  28.079  28.825  1.00  0.00     0.074 A 
ATOM     37  C   UNL A   1      40.150  28.262  27.607  1.00  0.00     0.031 C 
ATOM     38  C   UNL A   1      37.939  32.039  32.920  1.00  0.00     0.029 A 
ATOM     39  C   UNL A   1      39.154  31.262  33.152  1.00  0.00     0.049 A 
ATOM     40  H   UNL A   1      40.136  30.015  31.804  1.00  0.00     0.167 HD
ATOM     41  C   UNL A   1      42.013  27.305  28.933  1.00  0.00     0.037 A 
ATOM     42  C   UNL A   1      39.848  31.226  34.306  1.00  0.00     0.037 A 
ATOM     43  C   UNL A   1      42.793  27.164  30.134  1.00  0.00     0.049 A 
ATOM     44  C   UNL A   1      41.034  30.308  34.421  1.00  0.00     0.074 A 
ATOM     45  C   UNL A   1      43.922  26.394  30.348  1.00  0.00     0.029 A 
ATOM     46  N   UNL A   1      42.528  27.827  31.324  1.00  0.00    -0.354 N 
ATOM     47  N   UNL A   1      41.573  29.535  33.510  1.00  0.00    -0.248 NA
ATOM     48  C   UNL A   1      41.689  30.236  35.735  1.00  0.00     0.031 C 
ATOM     49  C   UNL A   1      44.326  26.569  31.677  1.00  0.00     0.029 A 
ATOM     50  C   UNL A   1      43.467  27.474  32.279  1.00  0.00     0.049 A 
ATOM     51  H   UNL A   1      41.784  28.455  31.468  1.00  0.00     0.167 HD
ATOM     52  C   UNL A   1      42.633  28.894  34.135  1.00  0.00     0.074 A 
ATOM     53  C   UNL A   1      42.675  29.382  35.498  1.00  0.00     0.031 C 
ATOM     54  C   UNL A   1      43.493  27.976  33.628  1.00  0.00     0.037 A 
BRANCH  41  55
ATOM     55  C   UNL A   1      42.417  26.512  27.728  1.00  0.00     0.064 A 
ATOM     56  C   UNL A   1      43.406  26.958  26.842  1.00  0.00     0.173 A 
ATOM     57  C   UNL A   1      41.814  25.270  27.473  1.00  0.00     0.173 A 
ATOM     58  F   UNL A   1      43.997  28.148  27.033  1.00  0.00    -0.203 F 
ATOM     59  C   UNL A   1      43.764  26.199  25.730  1.00  0.00     0.198 A 
ATOM     60  C   UNL A   1      42.190  24.503  26.375  1.00  0.00     0.198 A 
ATOM     61  F   UNL A   1      40.863  24.799  28.294  1.00  0.00    -0.203 F 
ATOM     62  F   UNL A   1      44.684  26.661  24.872  1.00  0.00    -0.200 F 
ATOM     63  C   UNL A   1      43.161  24.970  25.501  1.00  0.00     0.200 A 
ATOM     64  F   UNL A   1      41.612  23.314  26.159  1.00  0.00    -0.200 F 
ATOM     65  F   UNL A   1      43.508  24.240  24.432  1.00  0.00    -0.200 F 
ENDBRANCH  41  55
BRANCH  42  66
ATOM     66  C   UNL A   1      39.406  32.044  35.465  1.00  0.00     0.064 A 
ATOM     67  C   UNL A   1      38.521  31.524  36.418  1.00  0.00     0.173 A 
ATOM     68  C   UNL A   1      39.849  33.364  35.636  1.00  0.00     0.173 A 
ATOM     69  F   UNL A   1      38.046  30.277  36.280  1.00  0.00    -0.203 F 
ATOM     70  C   UNL A   1      38.090  32.295  37.495  1.00  0.00     0.198 A 
ATOM     71  C   UNL A   1      39.440  34.125  36.727  1.00  0.00     0.198 A 
ATOM     72  F   UNL A   1      40.691  33.910  34.747  1.00  0.00    -0.203 F 
ATOM     73  F   UNL A   1      37.213  31.788  38.371  1.00  0.00    -0.200 F 
ATOM     74  C   UNL A   1      38.556  33.593  37.653  1.00  0.00     0.200 A 
ATOM     75  F   UNL A   1      39.898  35.375  36.880  1.00  0.00    -0.200 F 
ATOM     76  F   UNL A   1      38.144  34.333  38.691  1.00  0.00    -0.200 F 
ENDBRANCH  42  66
BRANCH  54  77
ATOM     77  C   UNL A   1      44.562  27.461  34.543  1.00  0.00     0.064 A 
ATOM     78  C   UNL A   1      45.787  28.127  34.682  1.00  0.00     0.173 A 
ATOM     79  C   UNL A   1      44.342  26.311  35.316  1.00  0.00     0.173 A 
ATOM     80  F   UNL A   1      46.048  29.221  33.949  1.00  0.00    -0.203 F 
ATOM     81  C   UNL A   1      46.764  27.650  35.551  1.00  0.00     0.198 A 
ATOM     82  C   UNL A   1      45.312  25.850  36.200  1.00  0.00     0.198 A 
ATOM     83  F   UNL A   1      43.183  25.642  35.219  1.00  0.00    -0.203 F 
ATOM     84  F   UNL A   1      47.943  28.281  35.643  1.00  0.00    -0.200 F 
ATOM     85  C   UNL A   1      46.523  26.516  36.314  1.00  0.00     0.200 A 
ATOM     86  F   UNL A   1      45.076  24.759  36.942  1.00  0.00    -0.200 F 
ATOM     87  F   UNL A   1      47.463  26.061  37.154  1.00  0.00    -0.200 F 
ENDBRANCH  54  77
ENDBRANCH  28  29
ENDBRANCH  21  23
ENDBRANCH  20  21
ENDBRANCH   1  20
TORSDOF 12
ENDMDL
