MODEL 1
REMARK VINA RESULT:     -12.2      0.000      0.000
REMARK SMILES CCN1C(=O)CC[C@H](C(=O)OCCOC(=O)c2ccc(-c3c4nc(c(-c5c(F)c(F)c(F)c(F)c5F)c5ccc([nH]5)c(-c5c(F)c(F)c(F)c(F)c5F)c5nc(c(-c6c(F)c(F)c(F)c(F)c6F)c6ccc3[nH]6)C=C5)C=C4)cc2)[C@@H]1c1ccc(OC)cc1
REMARK SMILES IDX 12 1 11 2 9 3 10 4 8 5 3 6 4 7 80 8 5 9 6 10 7 11 2 12 1 13
REMARK SMILES IDX 81 14 82 15 88 16 83 17 87 18 84 19 85 20 86 21 13 22 14 23
REMARK SMILES IDX 15 24 16 25 17 26 18 27 79 28 19 29 78 30 20 31 21 32 22 33
REMARK SMILES IDX 72 34 23 35 77 36 71 37 73 38 24 39 76 40 70 41 69 42 25 44
REMARK SMILES IDX 57 45 37 46 56 47 38 48 41 49 55 50 74 51 39 52 40 53 54 55
REMARK SMILES IDX 75 56 42 57 26 58 27 59 35 60 28 61 29 62 33 63 36 64 30 65
REMARK SMILES IDX 31 66 34 67 32 68 58 69 59 70 67 71 60 72 61 73 65 74 68 75
REMARK SMILES IDX 62 76 63 77 66 78 64 79 43 80 44 81 52 82 45 83 46 84 50 85
REMARK SMILES IDX 53 86 47 87 48 88 51 89 49 90
REMARK H PARENT 73 43 41 54
REMARK Flexibility Score: inf
ROOT
ATOM      1  C   UNL A   1      31.786  28.445  27.622  1.00  0.00     0.274 C 
ENDROOT
BRANCH   1   2
ATOM      2  O   UNL A   1      32.326  27.310  26.919  1.00  0.00    -0.462 OA
BRANCH   2   3
ATOM      3  C   UNL A   1      31.431  26.489  26.317  1.00  0.00     0.311 C 
ATOM      4  O   UNL A   1      30.354  26.151  26.799  1.00  0.00    -0.252 OA
BRANCH   3   5
ATOM      5  C   UNL A   1      31.896  25.975  24.972  1.00  0.00     0.127 C 
ATOM      6  N   UNL A   1      32.632  26.610  22.682  1.00  0.00    -0.335 N 
ATOM      7  C   UNL A   1      32.469  25.298  22.246  1.00  0.00     0.223 C 
ATOM      8  C   UNL A   1      32.054  27.108  23.951  1.00  0.00     0.129 C 
ATOM      9  O   UNL A   1      32.894  24.878  21.170  1.00  0.00    -0.275 OA
ATOM     10  C   UNL A   1      31.825  24.287  23.184  1.00  0.00     0.101 C 
ATOM     11  C   UNL A   1      31.077  24.844  24.376  1.00  0.00     0.028 C 
BRANCH   6  12
ATOM     12  C   UNL A   1      33.440  27.594  21.942  1.00  0.00     0.117 C 
ATOM     13  C   UNL A   1      34.282  28.598  22.715  1.00  0.00     0.027 C 
ENDBRANCH   6  12
BRANCH   8  14
ATOM     14  C   UNL A   1      30.768  27.911  23.757  1.00  0.00    -0.024 A 
ATOM     15  C   UNL A   1      30.741  29.311  23.749  1.00  0.00     0.010 A 
ATOM     16  C   UNL A   1      29.568  27.224  23.493  1.00  0.00     0.010 A 
ATOM     17  C   UNL A   1      29.572  29.996  23.406  1.00  0.00     0.047 A 
ATOM     18  C   UNL A   1      28.408  27.909  23.126  1.00  0.00     0.047 A 
ATOM     19  C   UNL A   1      28.418  29.299  23.048  1.00  0.00     0.118 A 
BRANCH  19  20
ATOM     20  O   UNL A   1      27.354  30.068  22.664  1.00  0.00    -0.497 OA
ATOM     21  C   UNL A   1      27.653  31.444  22.447  1.00  0.00     0.278 C 
ENDBRANCH  19  20
ENDBRANCH   8  14
ENDBRANCH   3   5
ENDBRANCH   2   3
ENDBRANCH   1   2
BRANCH   1  22
ATOM     22  C   UNL A   1      31.768  29.698  26.744  1.00  0.00     0.275 C 
BRANCH  22  23
ATOM     23  O   UNL A   1      33.100  30.137  26.415  1.00  0.00    -0.458 OA
BRANCH  23  24
ATOM     24  C   UNL A   1      33.519  31.233  27.090  1.00  0.00     0.338 C 
ATOM     25  O   UNL A   1      32.898  32.260  27.300  1.00  0.00    -0.246 OA
BRANCH  24  26
ATOM     26  C   UNL A   1      34.827  30.965  27.701  1.00  0.00     0.060 A 
ATOM     27  C   UNL A   1      35.117  29.647  28.062  1.00  0.00     0.016 A 
ATOM     28  C   UNL A   1      35.714  31.996  28.003  1.00  0.00     0.016 A 
ATOM     29  C   UNL A   1      36.295  29.343  28.730  1.00  0.00     0.010 A 
ATOM     30  C   UNL A   1      36.898  31.695  28.684  1.00  0.00     0.010 A 
ATOM     31  C   UNL A   1      37.185  30.370  29.060  1.00  0.00    -0.014 A 
BRANCH  31  32
ATOM     32  C   UNL A   1      38.376  30.062  29.879  1.00  0.00     0.031 A 
ATOM     33  C   UNL A   1      39.433  29.158  29.322  1.00  0.00     0.074 A 
ATOM     34  C   UNL A   1      38.514  30.610  31.098  1.00  0.00     0.049 A 
ATOM     35  N   UNL A   1      40.486  28.651  29.910  1.00  0.00    -0.248 NA
ATOM     36  C   UNL A   1      39.284  28.770  27.910  1.00  0.00     0.031 C 
ATOM     37  C   UNL A   1      37.583  31.562  31.704  1.00  0.00     0.029 A 
ATOM     38  N   UNL A   1      39.489  30.440  32.046  1.00  0.00    -0.354 N 
ATOM     39  C   UNL A   1      41.108  27.864  28.951  1.00  0.00     0.074 A 
ATOM     40  C   UNL A   1      40.315  27.954  27.744  1.00  0.00     0.031 C 
ATOM     41  C   UNL A   1      38.027  31.882  32.931  1.00  0.00     0.029 A 
ATOM     42  C   UNL A   1      39.240  31.121  33.212  1.00  0.00     0.049 A 
ATOM     43  H   UNL A   1      40.289  29.884  31.905  1.00  0.00     0.167 HD
ATOM     44  C   UNL A   1      42.239  27.130  29.076  1.00  0.00     0.037 A 
ATOM     45  C   UNL A   1      39.900  31.096  34.385  1.00  0.00     0.037 A 
ATOM     46  C   UNL A   1      43.027  27.064  30.278  1.00  0.00     0.049 A 
ATOM     47  C   UNL A   1      41.118  30.222  34.519  1.00  0.00     0.074 A 
ATOM     48  C   UNL A   1      44.188  26.351  30.513  1.00  0.00     0.029 A 
ATOM     49  N   UNL A   1      42.730  27.746  31.450  1.00  0.00    -0.354 N 
ATOM     50  N   UNL A   1      41.684  29.451  33.621  1.00  0.00    -0.248 NA
ATOM     51  C   UNL A   1      41.781  30.206  35.829  1.00  0.00     0.031 C 
ATOM     52  C   UNL A   1      44.575  26.572  31.841  1.00  0.00     0.029 A 
ATOM     53  C   UNL A   1      43.678  27.456  32.418  1.00  0.00     0.049 A 
ATOM     54  H   UNL A   1      41.960  28.346  31.575  1.00  0.00     0.167 HD
ATOM     55  C   UNL A   1      42.779  28.876  34.250  1.00  0.00     0.074 A 
ATOM     56  C   UNL A   1      42.805  29.394  35.602  1.00  0.00     0.031 C 
ATOM     57  C   UNL A   1      43.682  27.994  33.754  1.00  0.00     0.037 A 
BRANCH  44  58
ATOM     58  C   UNL A   1      42.664  26.310  27.895  1.00  0.00     0.064 A 
ATOM     59  C   UNL A   1      43.605  26.781  26.968  1.00  0.00     0.173 A 
ATOM     60  C   UNL A   1      42.135  25.026  27.702  1.00  0.00     0.173 A 
ATOM     61  F   UNL A   1      44.126  28.010  27.099  1.00  0.00    -0.203 F 
ATOM     62  C   UNL A   1      43.985  26.001  25.877  1.00  0.00     0.198 A 
ATOM     63  C   UNL A   1      42.536  24.240  26.624  1.00  0.00     0.198 A 
ATOM     64  F   UNL A   1      41.232  24.530  28.560  1.00  0.00    -0.203 F 
ATOM     65  F   UNL A   1      44.854  26.487  24.979  1.00  0.00    -0.200 F 
ATOM     66  C   UNL A   1      43.455  24.731  25.709  1.00  0.00     0.200 A 
ATOM     67  F   UNL A   1      42.028  23.010  26.469  1.00  0.00    -0.200 F 
ATOM     68  F   UNL A   1      43.824  23.983  24.662  1.00  0.00    -0.200 F 
ENDBRANCH  44  58
BRANCH  45  69
ATOM     69  C   UNL A   1      39.399  31.895  35.532  1.00  0.00     0.064 A 
ATOM     70  C   UNL A   1      39.808  33.221  35.720  1.00  0.00     0.173 A 
ATOM     71  C   UNL A   1      38.500  31.350  36.461  1.00  0.00     0.173 A 
ATOM     72  F   UNL A   1      40.686  33.778  34.873  1.00  0.00    -0.203 F 
ATOM     73  C   UNL A   1      39.345  33.970  36.800  1.00  0.00     0.198 A 
ATOM     74  C   UNL A   1      38.018  32.107  37.525  1.00  0.00     0.198 A 
ATOM     75  F   UNL A   1      38.080  30.084  36.326  1.00  0.00    -0.203 F 
ATOM     76  F   UNL A   1      39.781  35.224  36.980  1.00  0.00    -0.200 F 
ATOM     77  C   UNL A   1      38.445  33.415  37.698  1.00  0.00     0.200 A 
ATOM     78  F   UNL A   1      37.139  31.570  38.383  1.00  0.00    -0.200 F 
ATOM     79  F   UNL A   1      37.995  34.137  38.734  1.00  0.00    -0.200 F 
ENDBRANCH  45  69
BRANCH  57  80
ATOM     80  C   UNL A   1      44.789  27.563  34.669  1.00  0.00     0.064 A 
ATOM     81  C   UNL A   1      45.982  28.292  34.769  1.00  0.00     0.173 A 
ATOM     82  C   UNL A   1      44.635  26.433  35.485  1.00  0.00     0.173 A 
ATOM     83  F   UNL A   1      46.182  29.371  33.996  1.00  0.00    -0.203 F 
ATOM     84  C   UNL A   1      46.991  27.893  35.641  1.00  0.00     0.198 A 
ATOM     85  C   UNL A   1      45.635  26.051  36.373  1.00  0.00     0.198 A 
ATOM     86  F   UNL A   1      43.509  25.707  35.428  1.00  0.00    -0.203 F 
ATOM     87  F   UNL A   1      48.140  28.582  35.694  1.00  0.00    -0.200 F 
ATOM     88  C   UNL A   1      46.814  26.779  36.448  1.00  0.00     0.200 A 
ATOM     89  F   UNL A   1      45.458  24.980  37.160  1.00  0.00    -0.200 F 
ATOM     90  F   UNL A   1      47.784  26.400  37.292  1.00  0.00    -0.200 F 
ENDBRANCH  57  80
ENDBRANCH  31  32
ENDBRANCH  24  26
ENDBRANCH  23  24
ENDBRANCH  22  23
ENDBRANCH   1  22
TORSDOF 14
ENDMDL
MODEL 2
REMARK VINA RESULT:     -12.1      4.678      9.951
REMARK SMILES CCN1C(=O)CC[C@H](C(=O)OCCOC(=O)c2ccc(-c3c4nc(c(-c5c(F)c(F)c(F)c(F)c5F)c5ccc([nH]5)c(-c5c(F)c(F)c(F)c(F)c5F)c5nc(c(-c6c(F)c(F)c(F)c(F)c6F)c6ccc3[nH]6)C=C5)C=C4)cc2)[C@@H]1c1ccc(OC)cc1
REMARK SMILES IDX 12 1 11 2 9 3 10 4 8 5 3 6 4 7 80 8 5 9 6 10 7 11 2 12 1 13
REMARK SMILES IDX 81 14 82 15 88 16 83 17 87 18 84 19 85 20 86 21 13 22 14 23
REMARK SMILES IDX 15 24 16 25 17 26 18 27 79 28 19 29 78 30 20 31 21 32 22 33
REMARK SMILES IDX 72 34 23 35 77 36 71 37 73 38 24 39 76 40 70 41 69 42 25 44
REMARK SMILES IDX 57 45 37 46 56 47 38 48 41 49 55 50 74 51 39 52 40 53 54 55
REMARK SMILES IDX 75 56 42 57 26 58 27 59 35 60 28 61 29 62 33 63 36 64 30 65
REMARK SMILES IDX 31 66 34 67 32 68 58 69 59 70 67 71 60 72 61 73 65 74 68 75
REMARK SMILES IDX 62 76 63 77 66 78 64 79 43 80 44 81 52 82 45 83 46 84 50 85
REMARK SMILES IDX 53 86 47 87 48 88 51 89 49 90
REMARK H PARENT 73 43 41 54
REMARK Flexibility Score: inf
ROOT
ATOM      1  C   UNL A   1      36.727  22.653  23.305  1.00  0.00     0.274 C 
ENDROOT
BRANCH   1   2
ATOM      2  O   UNL A   1      35.710  23.540  23.805  1.00  0.00    -0.462 OA
BRANCH   2   3
ATOM      3  C   UNL A   1      34.497  23.472  23.202  1.00  0.00     0.311 C 
ATOM      4  O   UNL A   1      34.319  23.243  22.009  1.00  0.00    -0.252 OA
BRANCH   3   5
ATOM      5  C   UNL A   1      33.342  23.746  24.141  1.00  0.00     0.127 C 
ATOM      6  N   UNL A   1      32.190  23.036  26.228  1.00  0.00    -0.335 N 
ATOM      7  C   UNL A   1      31.079  23.807  25.898  1.00  0.00     0.223 C 
ATOM      8  C   UNL A   1      33.241  22.687  25.245  1.00  0.00     0.129 C 
ATOM      9  O   UNL A   1      30.167  24.063  26.685  1.00  0.00    -0.275 OA
ATOM     10  C   UNL A   1      31.022  24.464  24.526  1.00  0.00     0.101 C 
ATOM     11  C   UNL A   1      31.989  23.947  23.483  1.00  0.00     0.028 C 
BRANCH   6  12
ATOM     12  C   UNL A   1      32.439  22.553  27.597  1.00  0.00     0.117 C 
ATOM     13  C   UNL A   1      33.870  22.460  28.105  1.00  0.00     0.027 C 
ENDBRANCH   6  12
BRANCH   8  14
ATOM     14  C   UNL A   1      33.105  21.268  24.691  1.00  0.00    -0.024 A 
ATOM     15  C   UNL A   1      32.197  20.933  23.679  1.00  0.00     0.010 A 
ATOM     16  C   UNL A   1      33.981  20.268  25.154  1.00  0.00     0.010 A 
ATOM     17  C   UNL A   1      32.224  19.663  23.095  1.00  0.00     0.047 A 
ATOM     18  C   UNL A   1      34.024  19.010  24.552  1.00  0.00     0.047 A 
ATOM     19  C   UNL A   1      33.167  18.716  23.496  1.00  0.00     0.118 A 
BRANCH  19  20
ATOM     20  O   UNL A   1      33.149  17.533  22.810  1.00  0.00    -0.497 OA
ATOM     21  C   UNL A   1      34.109  16.572  23.242  1.00  0.00     0.278 C 
ENDBRANCH  19  20
ENDBRANCH   8  14
ENDBRANCH   3   5
ENDBRANCH   2   3
ENDBRANCH   1   2
BRANCH   1  22
ATOM     22  C   UNL A   1      37.009  21.507  24.280  1.00  0.00     0.275 C 
BRANCH  22  23
ATOM     23  O   UNL A   1      37.377  21.996  25.583  1.00  0.00    -0.458 OA
BRANCH  23  24
ATOM     24  C   UNL A   1      38.617  21.641  25.993  1.00  0.00     0.338 C 
ATOM     25  O   UNL A   1      39.183  20.576  25.818  1.00  0.00    -0.246 OA
BRANCH  24  26
ATOM     26  C   UNL A   1      39.296  22.807  26.574  1.00  0.00     0.060 A 
ATOM     27  C   UNL A   1      38.884  24.074  26.155  1.00  0.00     0.016 A 
ATOM     28  C   UNL A   1      40.377  22.662  27.441  1.00  0.00     0.016 A 
ATOM     29  C   UNL A   1      39.548  25.211  26.594  1.00  0.00     0.010 A 
ATOM     30  C   UNL A   1      41.055  23.804  27.878  1.00  0.00     0.010 A 
ATOM     31  C   UNL A   1      40.650  25.080  27.446  1.00  0.00    -0.014 A 
BRANCH  31  32
ATOM     32  C   UNL A   1      41.430  26.281  27.811  1.00  0.00     0.031 A 
ATOM     33  C   UNL A   1      40.778  27.360  28.621  1.00  0.00     0.074 A 
ATOM     34  C   UNL A   1      42.717  26.385  27.438  1.00  0.00     0.049 A 
ATOM     35  N   UNL A   1      41.227  28.546  28.938  1.00  0.00    -0.248 NA
ATOM     36  C   UNL A   1      39.435  27.062  29.143  1.00  0.00     0.031 C 
ATOM     37  C   UNL A   1      43.471  25.361  26.714  1.00  0.00     0.029 A 
ATOM     38  N   UNL A   1      43.615  27.406  27.614  1.00  0.00    -0.354 N 
ATOM     39  C   UNL A   1      40.214  29.146  29.672  1.00  0.00     0.074 A 
ATOM     40  C   UNL A   1      39.124  28.199  29.750  1.00  0.00     0.031 C 
ATOM     41  C   UNL A   1      44.717  25.813  26.496  1.00  0.00     0.029 A 
ATOM     42  C   UNL A   1      44.829  27.172  27.018  1.00  0.00     0.049 A 
ATOM     43  H   UNL A   1      43.410  28.226  28.117  1.00  0.00     0.167 HD
ATOM     44  C   UNL A   1      40.201  30.382  30.226  1.00  0.00     0.037 A 
ATOM     45  C   UNL A   1      45.895  27.983  26.877  1.00  0.00     0.037 A 
ATOM     46  C   UNL A   1      41.300  31.308  30.154  1.00  0.00     0.049 A 
ATOM     47  C   UNL A   1      45.830  29.375  27.446  1.00  0.00     0.074 A 
ATOM     48  C   UNL A   1      41.391  32.585  30.677  1.00  0.00     0.029 A 
ATOM     49  N   UNL A   1      42.506  31.048  29.518  1.00  0.00    -0.354 N 
ATOM     50  N   UNL A   1      44.858  29.953  28.109  1.00  0.00    -0.248 NA
ATOM     51  C   UNL A   1      47.006  30.230  27.236  1.00  0.00     0.031 C 
ATOM     52  C   UNL A   1      42.640  33.112  30.326  1.00  0.00     0.029 A 
ATOM     53  C   UNL A   1      43.342  32.147  29.622  1.00  0.00     0.049 A 
ATOM     54  H   UNL A   1      42.734  30.206  29.061  1.00  0.00     0.167 HD
ATOM     55  C   UNL A   1      45.310  31.229  28.414  1.00  0.00     0.074 A 
ATOM     56  C   UNL A   1      46.650  31.337  27.872  1.00  0.00     0.031 C 
ATOM     57  C   UNL A   1      44.674  32.224  29.079  1.00  0.00     0.037 A 
BRANCH  44  58
ATOM     58  C   UNL A   1      38.944  30.816  30.918  1.00  0.00     0.064 A 
ATOM     59  C   UNL A   1      38.773  30.669  32.303  1.00  0.00     0.173 A 
ATOM     60  C   UNL A   1      37.903  31.405  30.185  1.00  0.00     0.173 A 
ATOM     61  F   UNL A   1      39.732  30.094  33.044  1.00  0.00    -0.203 F 
ATOM     62  C   UNL A   1      37.596  31.078  32.924  1.00  0.00     0.198 A 
ATOM     63  C   UNL A   1      36.738  31.835  30.814  1.00  0.00     0.198 A 
ATOM     64  F   UNL A   1      38.017  31.567  28.859  1.00  0.00    -0.203 F 
ATOM     65  F   UNL A   1      37.436  30.890  34.242  1.00  0.00    -0.200 F 
ATOM     66  C   UNL A   1      36.583  31.666  32.182  1.00  0.00     0.200 A 
ATOM     67  F   UNL A   1      35.763  32.409  30.096  1.00  0.00    -0.200 F 
ATOM     68  F   UNL A   1      35.453  32.061  32.783  1.00  0.00    -0.200 F 
ENDBRANCH  44  58
BRANCH  45  69
ATOM     69  C   UNL A   1      47.093  27.509  26.139  1.00  0.00     0.064 A 
ATOM     70  C   UNL A   1      47.172  27.623  24.745  1.00  0.00     0.173 A 
ATOM     71  C   UNL A   1      48.182  26.936  26.811  1.00  0.00     0.173 A 
ATOM     72  F   UNL A   1      46.146  28.141  24.055  1.00  0.00    -0.203 F 
ATOM     73  C   UNL A   1      48.293  27.172  24.051  1.00  0.00     0.198 A 
ATOM     74  C   UNL A   1      49.312  26.510  26.119  1.00  0.00     0.198 A 
ATOM     75  F   UNL A   1      48.153  26.804  28.146  1.00  0.00    -0.203 F 
ATOM     76  F   UNL A   1      48.329  27.256  22.713  1.00  0.00    -0.200 F 
ATOM     77  C   UNL A   1      49.364  26.622  24.738  1.00  0.00     0.200 A 
ATOM     78  F   UNL A   1      50.350  25.990  26.790  1.00  0.00    -0.200 F 
ATOM     79  F   UNL A   1      50.445  26.194  24.071  1.00  0.00    -0.200 F 
ENDBRANCH  45  69
BRANCH  57  80
ATOM     80  C   UNL A   1      45.432  33.501  29.286  1.00  0.00     0.064 A 
ATOM     81  C   UNL A   1      45.347  34.560  28.372  1.00  0.00     0.173 A 
ATOM     82  C   UNL A   1      46.217  33.681  30.435  1.00  0.00     0.173 A 
ATOM     83  F   UNL A   1      44.622  34.427  27.250  1.00  0.00    -0.203 F 
ATOM     84  C   UNL A   1      46.038  35.748  28.591  1.00  0.00     0.198 A 
ATOM     85  C   UNL A   1      46.886  34.879  30.663  1.00  0.00     0.198 A 
ATOM     86  F   UNL A   1      46.324  32.698  31.341  1.00  0.00    -0.203 F 
ATOM     87  F   UNL A   1      45.975  36.735  27.685  1.00  0.00    -0.200 F 
ATOM     88  C   UNL A   1      46.800  35.910  29.738  1.00  0.00     0.200 A 
ATOM     89  F   UNL A   1      47.613  35.037  31.778  1.00  0.00    -0.200 F 
ATOM     90  F   UNL A   1      47.459  37.058  29.951  1.00  0.00    -0.200 F 
ENDBRANCH  57  80
ENDBRANCH  31  32
ENDBRANCH  24  26
ENDBRANCH  23  24
ENDBRANCH  22  23
ENDBRANCH   1  22
TORSDOF 14
ENDMDL
MODEL 3
REMARK VINA RESULT:     -12.0      1.110      2.151
REMARK SMILES CCN1C(=O)CC[C@H](C(=O)OCCOC(=O)c2ccc(-c3c4nc(c(-c5c(F)c(F)c(F)c(F)c5F)c5ccc([nH]5)c(-c5c(F)c(F)c(F)c(F)c5F)c5nc(c(-c6c(F)c(F)c(F)c(F)c6F)c6ccc3[nH]6)C=C5)C=C4)cc2)[C@@H]1c1ccc(OC)cc1
REMARK SMILES IDX 12 1 11 2 9 3 10 4 8 5 3 6 4 7 80 8 5 9 6 10 7 11 2 12 1 13
REMARK SMILES IDX 81 14 82 15 88 16 83 17 87 18 84 19 85 20 86 21 13 22 14 23
REMARK SMILES IDX 15 24 16 25 17 26 18 27 79 28 19 29 78 30 20 31 21 32 22 33
REMARK SMILES IDX 72 34 23 35 77 36 71 37 73 38 24 39 76 40 70 41 69 42 25 44
REMARK SMILES IDX 57 45 37 46 56 47 38 48 41 49 55 50 74 51 39 52 40 53 54 55
REMARK SMILES IDX 75 56 42 57 26 58 27 59 35 60 28 61 29 62 33 63 36 64 30 65
REMARK SMILES IDX 31 66 34 67 32 68 58 69 59 70 67 71 60 72 61 73 65 74 68 75
REMARK SMILES IDX 62 76 63 77 66 78 64 79 43 80 44 81 52 82 45 83 46 84 50 85
REMARK SMILES IDX 53 86 47 87 48 88 51 89 49 90
REMARK H PARENT 73 43 41 54
REMARK Flexibility Score: inf
ROOT
ATOM      1  C   UNL A   1      31.249  30.589  25.571  1.00  0.00     0.274 C 
ENDROOT
BRANCH   1   2
ATOM      2  O   UNL A   1      31.695  29.335  26.119  1.00  0.00    -0.462 OA
BRANCH   2   3
ATOM      3  C   UNL A   1      32.544  28.606  25.353  1.00  0.00     0.311 C 
ATOM      4  O   UNL A   1      33.535  29.053  24.785  1.00  0.00    -0.252 OA
BRANCH   3   5
ATOM      5  C   UNL A   1      32.138  27.154  25.221  1.00  0.00     0.127 C 
ATOM      6  N   UNL A   1      31.505  25.341  23.639  1.00  0.00    -0.335 N 
ATOM      7  C   UNL A   1      31.037  24.561  24.693  1.00  0.00     0.223 C 
ATOM      8  C   UNL A   1      31.775  26.790  23.777  1.00  0.00     0.129 C 
ATOM      9  O   UNL A   1      30.755  23.367  24.586  1.00  0.00    -0.275 OA
ATOM     10  C   UNL A   1      30.961  25.174  26.084  1.00  0.00     0.101 C 
ATOM     11  C   UNL A   1      31.050  26.683  26.169  1.00  0.00     0.028 C 
BRANCH   6  12
ATOM     12  C   UNL A   1      31.826  24.775  22.318  1.00  0.00     0.117 C 
ATOM     13  C   UNL A   1      32.894  25.439  21.463  1.00  0.00     0.027 C 
ENDBRANCH   6  12
BRANCH   8  14
ATOM     14  C   UNL A   1      30.659  27.670  23.210  1.00  0.00    -0.024 A 
ATOM     15  C   UNL A   1      29.310  27.489  23.539  1.00  0.00     0.010 A 
ATOM     16  C   UNL A   1      31.000  28.761  22.389  1.00  0.00     0.010 A 
ATOM     17  C   UNL A   1      28.349  28.417  23.125  1.00  0.00     0.047 A 
ATOM     18  C   UNL A   1      30.044  29.700  22.000  1.00  0.00     0.047 A 
ATOM     19  C   UNL A   1      28.719  29.547  22.397  1.00  0.00     0.118 A 
BRANCH  19  20
ATOM     20  O   UNL A   1      27.710  30.423  22.106  1.00  0.00    -0.497 OA
ATOM     21  C   UNL A   1      27.796  31.682  22.767  1.00  0.00     0.278 C 
ENDBRANCH  19  20
ENDBRANCH   8  14
ENDBRANCH   3   5
ENDBRANCH   2   3
ENDBRANCH   1   2
BRANCH   1  22
ATOM     22  C   UNL A   1      31.601  31.764  26.487  1.00  0.00     0.275 C 
BRANCH  22  23
ATOM     23  O   UNL A   1      32.748  31.475  27.308  1.00  0.00    -0.458 OA
BRANCH  23  24
ATOM     24  C   UNL A   1      33.501  32.552  27.629  1.00  0.00     0.338 C 
ATOM     25  O   UNL A   1      33.176  33.726  27.592  1.00  0.00    -0.246 OA
BRANCH  24  26
ATOM     26  C   UNL A   1      34.778  32.107  28.202  1.00  0.00     0.060 A 
ATOM     27  C   UNL A   1      34.856  30.794  28.672  1.00  0.00     0.016 A 
ATOM     28  C   UNL A   1      35.849  32.985  28.363  1.00  0.00     0.016 A 
ATOM     29  C   UNL A   1      36.003  30.343  29.311  1.00  0.00     0.010 A 
ATOM     30  C   UNL A   1      37.002  32.536  29.013  1.00  0.00     0.010 A 
ATOM     31  C   UNL A   1      37.077  31.218  29.500  1.00  0.00    -0.014 A 
BRANCH  31  32
ATOM     32  C   UNL A   1      38.245  30.773  30.288  1.00  0.00     0.031 A 
ATOM     33  C   UNL A   1      39.238  29.841  29.663  1.00  0.00     0.074 A 
ATOM     34  C   UNL A   1      38.421  31.223  31.542  1.00  0.00     0.049 A 
ATOM     35  N   UNL A   1      40.254  29.224  30.208  1.00  0.00    -0.248 NA
ATOM     36  C   UNL A   1      39.061  29.565  28.228  1.00  0.00     0.031 C 
ATOM     37  C   UNL A   1      37.558  32.190  32.219  1.00  0.00     0.029 A 
ATOM     38  N   UNL A   1      39.383  30.920  32.471  1.00  0.00    -0.354 N 
ATOM     39  C   UNL A   1      40.820  28.466  29.192  1.00  0.00     0.074 A 
ATOM     40  C   UNL A   1      40.034  28.694  27.999  1.00  0.00     0.031 C 
ATOM     41  C   UNL A   1      38.023  32.392  33.463  1.00  0.00     0.029 A 
ATOM     42  C   UNL A   1      39.182  31.532  33.683  1.00  0.00     0.049 A 
ATOM     43  H   UNL A   1      40.143  30.323  32.286  1.00  0.00     0.167 HD
ATOM     44  C   UNL A   1      41.899  27.650  29.258  1.00  0.00     0.037 A 
ATOM     45  C   UNL A   1      39.840  31.379  34.848  1.00  0.00     0.037 A 
ATOM     46  C   UNL A   1      42.682  27.446  30.449  1.00  0.00     0.049 A 
ATOM     47  C   UNL A   1      40.996  30.417  34.912  1.00  0.00     0.074 A 
ATOM     48  C   UNL A   1      43.792  26.640  30.626  1.00  0.00     0.029 A 
ATOM     49  N   UNL A   1      42.433  28.061  31.668  1.00  0.00    -0.354 N 
ATOM     50  N   UNL A   1      41.508  29.676  33.959  1.00  0.00    -0.248 NA
ATOM     51  C   UNL A   1      41.657  30.264  36.214  1.00  0.00     0.031 C 
ATOM     52  C   UNL A   1      44.194  26.740  31.963  1.00  0.00     0.029 A 
ATOM     53  C   UNL A   1      43.359  27.640  32.607  1.00  0.00     0.049 A 
ATOM     54  H   UNL A   1      41.705  28.702  31.839  1.00  0.00     0.167 HD
ATOM     55  C   UNL A   1      42.561  28.984  34.539  1.00  0.00     0.074 A 
ATOM     56  C   UNL A   1      42.623  29.403  35.925  1.00  0.00     0.031 C 
ATOM     57  C   UNL A   1      43.402  28.080  33.978  1.00  0.00     0.037 A 
BRANCH  44  58
ATOM     58  C   UNL A   1      42.266  26.889  28.020  1.00  0.00     0.064 A 
ATOM     59  C   UNL A   1      43.171  27.400  27.078  1.00  0.00     0.173 A 
ATOM     60  C   UNL A   1      41.718  25.619  27.785  1.00  0.00     0.173 A 
ATOM     61  F   UNL A   1      43.707  28.618  27.249  1.00  0.00    -0.203 F 
ATOM     62  C   UNL A   1      43.497  26.675  25.934  1.00  0.00     0.198 A 
ATOM     63  C   UNL A   1      42.066  24.887  26.653  1.00  0.00     0.198 A 
ATOM     64  F   UNL A   1      40.849  25.086  28.655  1.00  0.00    -0.203 F 
ATOM     65  F   UNL A   1      44.330  27.201  25.025  1.00  0.00    -0.200 F 
ATOM     66  C   UNL A   1      42.950  25.418  25.725  1.00  0.00     0.200 A 
ATOM     67  F   UNL A   1      41.541  23.669  26.457  1.00  0.00    -0.200 F 
ATOM     68  F   UNL A   1      43.267  24.722  24.626  1.00  0.00    -0.200 F 
ENDBRANCH  44  58
BRANCH  45  69
ATOM     69  C   UNL A   1      39.396  32.128  36.051  1.00  0.00     0.064 A 
ATOM     70  C   UNL A   1      38.388  31.624  36.883  1.00  0.00     0.173 A 
ATOM     71  C   UNL A   1      39.972  33.360  36.394  1.00  0.00     0.173 A 
ATOM     72  F   UNL A   1      37.789  30.463  36.582  1.00  0.00    -0.203 F 
ATOM     73  C   UNL A   1      37.966  32.330  38.007  1.00  0.00     0.198 A 
ATOM     74  C   UNL A   1      39.567  34.051  37.533  1.00  0.00     0.198 A 
ATOM     75  F   UNL A   1      40.940  33.885  35.628  1.00  0.00    -0.203 F 
ATOM     76  F   UNL A   1      36.972  31.845  38.766  1.00  0.00    -0.200 F 
ATOM     77  C   UNL A   1      38.560  33.539  38.335  1.00  0.00     0.200 A 
ATOM     78  F   UNL A   1      40.154  35.214  37.852  1.00  0.00    -0.200 F 
ATOM     79  F   UNL A   1      38.158  34.215  39.421  1.00  0.00    -0.200 F 
ENDBRANCH  45  69
BRANCH  57  80
ATOM     80  C   UNL A   1      44.478  27.512  34.854  1.00  0.00     0.064 A 
ATOM     81  C   UNL A   1      44.288  26.321  35.568  1.00  0.00     0.173 A 
ATOM     82  C   UNL A   1      45.727  28.145  34.943  1.00  0.00     0.173 A 
ATOM     83  F   UNL A   1      43.105  25.690  35.526  1.00  0.00    -0.203 F 
ATOM     84  C   UNL A   1      45.305  25.793  36.358  1.00  0.00     0.198 A 
ATOM     85  C   UNL A   1      46.749  27.601  35.714  1.00  0.00     0.198 A 
ATOM     86  F   UNL A   1      45.957  29.284  34.273  1.00  0.00    -0.203 F 
ATOM     87  F   UNL A   1      45.091  24.674  37.063  1.00  0.00    -0.200 F 
ATOM     88  C   UNL A   1      46.536  26.428  36.424  1.00  0.00     0.200 A 
ATOM     89  F   UNL A   1      47.942  28.211  35.768  1.00  0.00    -0.200 F 
ATOM     90  F   UNL A   1      47.518  25.915  37.179  1.00  0.00    -0.200 F 
ENDBRANCH  57  80
ENDBRANCH  31  32
ENDBRANCH  24  26
ENDBRANCH  23  24
ENDBRANCH  22  23
ENDBRANCH   1  22
TORSDOF 14
ENDMDL
