MODEL 1
REMARK VINA RESULT:     -14.5      0.000      0.000
REMARK SMILES O=C(OCCOC(=O)[C@@H](Cc1ccc(O)cc1)Nc1c2ccccc2nc2ccccc12)c1ccc(-c2c3nc(c(-c4c(F)c(F)c(F)c(F)c4F)c4ccc([nH]4)c(-c4c(F)c(F)c(F)c(F)c4F)c4nc(c(-c5c(F)c(F)c(F)c(F)c5F)c5ccc2[nH]5)C=C4)C=C3)cc1
REMARK SMILES IDX 5 1 4 2 3 3 2 4 1 5 33 6 34 7 95 8 35 9 94 10 36 11 37 12
REMARK SMILES IDX 38 13 88 14 39 15 93 16 87 17 89 18 40 19 92 20 86 21 85 22
REMARK SMILES IDX 41 24 73 25 53 26 72 27 54 28 57 29 71 30 90 31 55 32 56 33
REMARK SMILES IDX 70 35 91 36 58 37 42 38 43 39 51 40 44 41 45 42 49 43 52 44
REMARK SMILES IDX 46 45 47 46 50 47 48 48 74 49 75 50 83 51 76 52 77 53 81 54
REMARK SMILES IDX 84 55 78 56 79 57 82 58 80 59 59 60 60 61 68 62 61 63 62 64
REMARK SMILES IDX 66 65 69 66 63 67 64 68 67 69 65 70 6 71 7 72 8 73 9 74
REMARK SMILES IDX 10 75 11 76 12 77 17 78 13 79 16 80 14 81 15 82 18 84 19 86
REMARK SMILES IDX 20 87 32 88 21 89 25 90 27 91 31 92 22 93 24 94 26 95 28 96
REMARK SMILES IDX 30 97 23 98 29 99
REMARK H PARENT 89 23 57 34 15 83 18 85
REMARK Flexibility Score: inf
ROOT
ATOM      1  C   UNL A   1      40.354  20.548  26.657  1.00  0.00     0.274 C 
ENDROOT
BRANCH   1   2
ATOM      2  C   UNL A   1      41.747  20.686  26.023  1.00  0.00     0.275 C 
BRANCH   2   3
ATOM      3  O   UNL A   1      41.864  21.915  25.316  1.00  0.00    -0.458 OA
BRANCH   3   4
ATOM      4  C   UNL A   1      42.896  22.760  25.409  1.00  0.00     0.338 C 
ATOM      5  O   UNL A   1      43.927  22.524  24.781  1.00  0.00    -0.246 OA
BRANCH   4   6
ATOM      6  C   UNL A   1      42.917  23.971  26.279  1.00  0.00     0.060 A 
ATOM      7  C   UNL A   1      43.398  25.723  25.914  1.00  0.00     0.016 A 
ATOM      8  C   UNL A   1      41.920  23.630  27.751  1.00  0.00     0.016 A 
ATOM      9  C   UNL A   1      42.929  27.058  27.092  1.00  0.00     0.010 A 
ATOM     10  C   UNL A   1      41.315  24.992  28.771  1.00  0.00     0.010 A 
ATOM     11  C   UNL A   1      41.905  26.689  28.552  1.00  0.00    -0.014 A 
BRANCH  11  12
ATOM     12  C   UNL A   1      41.625  27.740  29.595  1.00  0.00     0.031 A 
ATOM     13  C   UNL A   1      40.483  28.734  29.462  1.00  0.00     0.074 A 
ATOM     14  C   UNL A   1      42.326  27.744  30.742  1.00  0.00     0.049 A 
ATOM     15  N   UNL A   1      39.739  29.273  30.403  1.00  0.00    -0.248 NA
ATOM     16  C   UNL A   1      40.070  29.160  28.123  1.00  0.00     0.031 C 
ATOM     17  C   UNL A   1      43.504  26.929  31.010  1.00  0.00     0.029 A 
ATOM     18  N   UNL A   1      42.155  28.459  31.902  1.00  0.00    -0.354 N 
ATOM     19  C   UNL A   1      38.697  29.918  29.740  1.00  0.00     0.074 A 
ATOM     20  C   UNL A   1      38.905  29.741  28.332  1.00  0.00     0.031 C 
ATOM     21  C   UNL A   1      43.920  27.134  32.266  1.00  0.00     0.029 A 
ATOM     22  C   UNL A   1      43.073  28.151  32.878  1.00  0.00     0.049 A 
ATOM     23  H   UNL A   1      41.443  29.128  32.024  1.00  0.00     0.167 HD
ATOM     24  C   UNL A   1      37.698  30.691  30.225  1.00  0.00     0.037 A 
ATOM     25  C   UNL A   1      43.229  28.652  34.118  1.00  0.00     0.037 A 
ATOM     26  C   UNL A   1      37.740  31.253  31.539  1.00  0.00     0.049 A 
ATOM     27  C   UNL A   1      42.248  29.684  34.595  1.00  0.00     0.074 A 
ATOM     28  C   UNL A   1      36.936  32.233  32.088  1.00  0.00     0.029 A 
ATOM     29  N   UNL A   1      38.744  30.980  32.458  1.00  0.00    -0.354 N 
ATOM     30  N   UNL A   1      41.176  30.142  33.991  1.00  0.00    -0.248 NA
ATOM     31  C   UNL A   1      42.499  30.286  35.910  1.00  0.00     0.031 C 
ATOM     32  C   UNL A   1      37.530  32.640  33.287  1.00  0.00     0.029 A 
ATOM     33  C   UNL A   1      38.637  31.838  33.535  1.00  0.00     0.049 A 
ATOM     34  H   UNL A   1      39.429  30.281  32.358  1.00  0.00     0.167 HD
ATOM     35  C   UNL A   1      40.623  31.084  34.845  1.00  0.00     0.074 A 
ATOM     36  C   UNL A   1      41.472  31.120  36.020  1.00  0.00     0.031 C 
ATOM     37  C   UNL A   1      39.518  31.851  34.676  1.00  0.00     0.037 A 
BRANCH  24  38
ATOM     38  C   UNL A   1      36.641  31.117  29.241  1.00  0.00     0.064 A 
ATOM     39  C   UNL A   1      36.551  32.452  28.809  1.00  0.00     0.173 A 
ATOM     40  C   UNL A   1      35.643  30.226  28.821  1.00  0.00     0.173 A 
ATOM     41  F   UNL A   1      37.458  33.354  29.211  1.00  0.00    -0.203 F 
ATOM     42  C   UNL A   1      35.486  32.881  28.016  1.00  0.00     0.198 A 
ATOM     43  C   UNL A   1      34.588  30.656  28.017  1.00  0.00     0.198 A 
ATOM     44  F   UNL A   1      35.659  28.950  29.231  1.00  0.00    -0.203 F 
ATOM     45  F   UNL A   1      35.387  34.171  27.666  1.00  0.00    -0.200 F 
ATOM     46  C   UNL A   1      34.504  31.983  27.625  1.00  0.00     0.200 A 
ATOM     47  F   UNL A   1      33.630  29.791  27.654  1.00  0.00    -0.200 F 
ATOM     48  F   UNL A   1      33.463  32.403  26.892  1.00  0.00    -0.200 F 
ENDBRANCH  24  38
BRANCH  25  49
ATOM     49  C   UNL A   1      44.385  28.196  34.940  1.00  0.00     0.064 A 
ATOM     50  C   UNL A   1      45.618  28.860  34.916  1.00  0.00     0.173 A 
ATOM     51  C   UNL A   1      44.244  27.123  35.839  1.00  0.00     0.173 A 
ATOM     52  F   UNL A   1      45.818  29.873  34.062  1.00  0.00    -0.203 F 
ATOM     53  C   UNL A   1      46.655  28.482  35.772  1.00  0.00     0.198 A 
ATOM     54  C   UNL A   1      45.267  26.768  36.714  1.00  0.00     0.198 A 
ATOM     55  F   UNL A   1      43.086  26.447  35.895  1.00  0.00    -0.203 F 
ATOM     56  F   UNL A   1      47.831  29.123  35.720  1.00  0.00    -0.200 F 
ATOM     57  C   UNL A   1      46.473  27.449  36.680  1.00  0.00     0.200 A 
ATOM     58  F   UNL A   1      45.079  25.779  37.598  1.00  0.00    -0.200 F 
ATOM     59  F   UNL A   1      47.459  27.109  37.521  1.00  0.00    -0.200 F 
ENDBRANCH  25  49
BRANCH  37  60
ATOM     60  C   UNL A   1      39.152  32.793  35.779  1.00  0.00     0.064 A 
ATOM     61  C   UNL A   1      38.362  32.386  36.862  1.00  0.00     0.173 A 
ATOM     62  C   UNL A   1      39.713  34.078  35.809  1.00  0.00     0.173 A 
ATOM     63  F   UNL A   1      37.805  31.165  36.872  1.00  0.00    -0.203 F 
ATOM     64  C   UNL A   1      38.139  33.239  37.937  1.00  0.00     0.198 A 
ATOM     65  C   UNL A   1      39.513  34.917  36.899  1.00  0.00     0.198 A 
ATOM     66  F   UNL A   1      40.489  34.501  34.800  1.00  0.00    -0.203 F 
ATOM     67  F   UNL A   1      37.364  32.842  38.956  1.00  0.00    -0.200 F 
ATOM     68  C   UNL A   1      38.724  34.498  37.961  1.00  0.00     0.200 A 
ATOM     69  F   UNL A   1      40.097  36.121  36.930  1.00  0.00    -0.200 F 
ATOM     70  F   UNL A   1      38.532  35.307  39.011  1.00  0.00    -0.200 F 
ENDBRANCH  37  60
ENDBRANCH  11  12
ENDBRANCH   4   6
ENDBRANCH   3   4
ENDBRANCH   2   3
ENDBRANCH   1   2
BRANCH   1  71
ATOM     71  O   UNL A   1      39.373  21.460  26.096  1.00  0.00    -0.461 OA
BRANCH  71  72
ATOM     72  C   UNL A   1      38.259  20.945  25.486  1.00  0.00     0.329 C 
ATOM     73  O   UNL A   1      38.224  19.819  25.005  1.00  0.00    -0.250 OA
BRANCH  72  74
ATOM     74  C   UNL A   1      37.006  21.914  25.575  1.00  0.00     0.194 C 
BRANCH  74  75
ATOM     75  C   UNL A   1      36.446  22.976  24.157  1.00  0.00     0.072 C 
BRANCH  75  76
ATOM     76  C   UNL A   1      34.591  23.744  23.347  1.00  0.00    -0.045 A 
ATOM     77  C   UNL A   1      33.996  25.163  23.467  1.00  0.00     0.007 A 
ATOM     78  C   UNL A   1      33.628  23.174  22.372  1.00  0.00     0.007 A 
ATOM     79  C   UNL A   1      33.321  25.912  22.479  1.00  0.00     0.046 A 
ATOM     80  C   UNL A   1      32.904  23.903  21.372  1.00  0.00     0.046 A 
ATOM     81  C   UNL A   1      32.896  25.274  21.356  1.00  0.00     0.115 A 
BRANCH  81  82
ATOM     82  O   UNL A   1      32.383  25.950  20.301  1.00  0.00    -0.508 OA
ATOM     83  H   UNL A   1      32.869  26.651  19.913  1.00  0.00     0.293 HD
ENDBRANCH  81  82
ENDBRANCH  75  76
ENDBRANCH  74  75
BRANCH  74  84
ATOM     84  N   UNL A   1      35.838  21.238  26.191  1.00  0.00    -0.371 N 
ATOM     85  H   UNL A   1      35.964  20.975  27.131  1.00  0.00     0.161 HD
BRANCH  84  86
ATOM     86  C   UNL A   1      34.585  20.916  25.656  1.00  0.00     0.054 A 
ATOM     87  C   UNL A   1      34.288  19.719  24.917  1.00  0.00     0.024 A 
ATOM     88  C   UNL A   1      33.516  21.843  25.913  1.00  0.00     0.024 A 
ATOM     89  C   UNL A   1      35.175  18.643  24.626  1.00  0.00     0.012 A 
ATOM     90  C   UNL A   1      32.951  19.545  24.490  1.00  0.00     0.073 A 
ATOM     91  C   UNL A   1      32.234  21.521  25.432  1.00  0.00     0.073 A 
ATOM     92  C   UNL A   1      33.654  23.068  26.625  1.00  0.00     0.012 A 
ATOM     93  C   UNL A   1      34.776  17.495  23.932  1.00  0.00     0.001 A 
ATOM     94  C   UNL A   1      32.571  18.402  23.799  1.00  0.00     0.029 A 
ATOM     95  N   UNL A   1      31.972  20.415  24.740  1.00  0.00    -0.248 NA
ATOM     96  C   UNL A   1      31.165  22.370  25.687  1.00  0.00     0.029 A 
ATOM     97  C   UNL A   1      32.566  23.904  26.881  1.00  0.00     0.001 A 
ATOM     98  C   UNL A   1      33.466  17.376  23.512  1.00  0.00     0.002 A 
ATOM     99  C   UNL A   1      31.314  23.551  26.411  1.00  0.00     0.002 A 
ENDBRANCH  84  86
ENDBRANCH  74  84
ENDBRANCH  72  74
ENDBRANCH  71  72
ENDBRANCH   1  71
TORSDOF 16
ENDMDL
MODEL 2
REMARK VINA RESULT:     -13.7      0.923      2.172
REMARK SMILES O=C(OCCOC(=O)[C@@H](Cc1ccc(O)cc1)Nc1c2ccccc2nc2ccccc12)c1ccc(-c2c3nc(c(-c4c(F)c(F)c(F)c(F)c4F)c4ccc([nH]4)c(-c4c(F)c(F)c(F)c(F)c4F)c4nc(c(-c5c(F)c(F)c(F)c(F)c5F)c5ccc2[nH]5)C=C4)C=C3)cc1
REMARK SMILES IDX 5 1 4 2 3 3 2 4 1 5 33 6 34 7 95 8 35 9 94 10 36 11 37 12
REMARK SMILES IDX 38 13 88 14 39 15 93 16 87 17 89 18 40 19 92 20 86 21 85 22
REMARK SMILES IDX 41 24 73 25 53 26 72 27 54 28 57 29 71 30 90 31 55 32 56 33
REMARK SMILES IDX 70 35 91 36 58 37 42 38 43 39 51 40 44 41 45 42 49 43 52 44
REMARK SMILES IDX 46 45 47 46 50 47 48 48 74 49 75 50 83 51 76 52 77 53 81 54
REMARK SMILES IDX 84 55 78 56 79 57 82 58 80 59 59 60 60 61 68 62 61 63 62 64
REMARK SMILES IDX 66 65 69 66 63 67 64 68 67 69 65 70 6 71 7 72 8 73 9 74
REMARK SMILES IDX 10 75 11 76 12 77 17 78 13 79 16 80 14 81 15 82 18 84 19 86
REMARK SMILES IDX 20 87 32 88 21 89 25 90 27 91 31 92 22 93 24 94 26 95 28 96
REMARK SMILES IDX 30 97 23 98 29 99
REMARK H PARENT 89 23 57 34 15 83 18 85
REMARK Flexibility Score: inf
ROOT
ATOM      1  C   UNL A   1      39.798  20.819  26.501  1.00  0.00     0.274 C 
ENDROOT
BRANCH   1   2
ATOM      2  C   UNL A   1      41.041  20.577  25.630  1.00  0.00     0.275 C 
BRANCH   2   3
ATOM      3  O   UNL A   1      42.161  21.298  26.130  1.00  0.00    -0.458 OA
BRANCH   3   4
ATOM      4  C   UNL A   1      42.607  22.460  25.642  1.00  0.00     0.338 C 
ATOM      5  O   UNL A   1      42.984  22.517  24.472  1.00  0.00    -0.246 OA
BRANCH   4   6
ATOM      6  C   UNL A   1      42.740  23.713  26.439  1.00  0.00     0.060 A 
ATOM      7  C   UNL A   1      43.506  25.347  26.019  1.00  0.00     0.016 A 
ATOM      8  C   UNL A   1      41.586  23.624  27.832  1.00  0.00     0.016 A 
ATOM      9  C   UNL A   1      43.148  26.815  27.071  1.00  0.00     0.010 A 
ATOM     10  C   UNL A   1      41.111  25.128  28.712  1.00  0.00     0.010 A 
ATOM     11  C   UNL A   1      41.965  26.702  28.451  1.00  0.00    -0.014 A 
BRANCH  11  12
ATOM     12  C   UNL A   1      41.763  27.852  29.402  1.00  0.00     0.031 A 
ATOM     13  C   UNL A   1      40.606  28.829  29.262  1.00  0.00     0.074 A 
ATOM     14  C   UNL A   1      42.555  27.972  30.482  1.00  0.00     0.049 A 
ATOM     15  N   UNL A   1      39.936  29.460  30.202  1.00  0.00    -0.248 NA
ATOM     16  C   UNL A   1      40.082  29.117  27.926  1.00  0.00     0.031 C 
ATOM     17  C   UNL A   1      43.757  27.189  30.733  1.00  0.00     0.029 A 
ATOM     18  N   UNL A   1      42.472  28.801  31.573  1.00  0.00    -0.354 N 
ATOM     19  C   UNL A   1      38.838  30.035  29.565  1.00  0.00     0.074 A 
ATOM     20  C   UNL A   1      38.933  29.716  28.169  1.00  0.00     0.031 C 
ATOM     21  C   UNL A   1      44.271  27.520  31.924  1.00  0.00     0.029 A 
ATOM     22  C   UNL A   1      43.469  28.593  32.498  1.00  0.00     0.049 A 
ATOM     23  H   UNL A   1      41.767  29.479  31.685  1.00  0.00     0.167 HD
ATOM     24  C   UNL A   1      37.876  30.853  30.049  1.00  0.00     0.037 A 
ATOM     25  C   UNL A   1      43.721  29.217  33.664  1.00  0.00     0.037 A 
ATOM     26  C   UNL A   1      38.020  31.546  31.292  1.00  0.00     0.049 A 
ATOM     27  C   UNL A   1      42.773  30.293  34.113  1.00  0.00     0.074 A 
ATOM     28  C   UNL A   1      37.255  32.576  31.803  1.00  0.00     0.029 A 
ATOM     29  N   UNL A   1      39.097  31.367  32.149  1.00  0.00    -0.354 N 
ATOM     30  N   UNL A   1      41.652  30.687  33.555  1.00  0.00    -0.248 NA
ATOM     31  C   UNL A   1      43.125  31.024  35.335  1.00  0.00     0.031 C 
ATOM     32  C   UNL A   1      37.941  33.102  32.902  1.00  0.00     0.029 A 
ATOM     33  C   UNL A   1      39.071  32.329  33.138  1.00  0.00     0.049 A 
ATOM     34  H   UNL A   1      39.778  30.661  32.064  1.00  0.00     0.167 HD
ATOM     35  C   UNL A   1      41.163  31.711  34.352  1.00  0.00     0.074 A 
ATOM     36  C   UNL A   1      42.104  31.865  35.445  1.00  0.00     0.031 C 
ATOM     37  C   UNL A   1      40.041  32.457  34.197  1.00  0.00     0.037 A 
BRANCH  24  38
ATOM     38  C   UNL A   1      36.739  31.177  29.116  1.00  0.00     0.064 A 
ATOM     39  C   UNL A   1      36.565  32.479  28.614  1.00  0.00     0.173 A 
ATOM     40  C   UNL A   1      35.753  30.226  28.819  1.00  0.00     0.173 A 
ATOM     41  F   UNL A   1      37.458  33.438  28.899  1.00  0.00    -0.203 F 
ATOM     42  C   UNL A   1      35.433  32.818  27.872  1.00  0.00     0.198 A 
ATOM     43  C   UNL A   1      34.631  30.565  28.066  1.00  0.00     0.198 A 
ATOM     44  F   UNL A   1      35.850  28.979  29.301  1.00  0.00    -0.203 F 
ATOM     45  F   UNL A   1      35.257  34.080  27.454  1.00  0.00    -0.200 F 
ATOM     46  C   UNL A   1      34.466  31.862  27.602  1.00  0.00     0.200 A 
ATOM     47  F   UNL A   1      33.688  29.645  27.821  1.00  0.00    -0.200 F 
ATOM     48  F   UNL A   1      33.362  32.196  26.920  1.00  0.00    -0.200 F 
ENDBRANCH  24  38
BRANCH  25  49
ATOM     49  C   UNL A   1      44.943  28.846  34.431  1.00  0.00     0.064 A 
ATOM     50  C   UNL A   1      46.152  29.537  34.276  1.00  0.00     0.173 A 
ATOM     51  C   UNL A   1      44.895  27.834  35.406  1.00  0.00     0.173 A 
ATOM     52  F   UNL A   1      46.263  30.494  33.344  1.00  0.00    -0.203 F 
ATOM     53  C   UNL A   1      47.256  29.243  35.079  1.00  0.00     0.198 A 
ATOM     54  C   UNL A   1      45.985  27.565  36.229  1.00  0.00     0.198 A 
ATOM     55  F   UNL A   1      43.764  27.135  35.589  1.00  0.00    -0.203 F 
ATOM     56  F   UNL A   1      48.406  29.908  34.903  1.00  0.00    -0.200 F 
ATOM     57  C   UNL A   1      47.166  28.270  36.065  1.00  0.00     0.200 A 
ATOM     58  F   UNL A   1      45.887  26.634  37.187  1.00  0.00    -0.200 F 
ATOM     59  F   UNL A   1      48.218  28.013  36.855  1.00  0.00    -0.200 F 
ENDBRANCH  25  49
BRANCH  37  60
ATOM     60  C   UNL A   1      39.759  33.506  35.226  1.00  0.00     0.064 A 
ATOM     61  C   UNL A   1      39.080  33.206  36.414  1.00  0.00     0.173 A 
ATOM     62  C   UNL A   1      40.292  34.793  35.070  1.00  0.00     0.173 A 
ATOM     63  F   UNL A   1      38.553  31.987  36.603  1.00  0.00    -0.203 F 
ATOM     64  C   UNL A   1      38.939  34.166  37.411  1.00  0.00     0.198 A 
ATOM     65  C   UNL A   1      40.176  35.740  36.080  1.00  0.00     0.198 A 
ATOM     66  F   UNL A   1      40.963  35.117  33.953  1.00  0.00    -0.203 F 
ATOM     67  F   UNL A   1      38.269  33.869  38.533  1.00  0.00    -0.200 F 
ATOM     68  C   UNL A   1      39.497  35.426  37.249  1.00  0.00     0.200 A 
ATOM     69  F   UNL A   1      40.735  36.948  35.931  1.00  0.00    -0.200 F 
ATOM     70  F   UNL A   1      39.386  36.339  38.223  1.00  0.00    -0.200 F 
ENDBRANCH  37  60
ENDBRANCH  11  12
ENDBRANCH   4   6
ENDBRANCH   3   4
ENDBRANCH   2   3
ENDBRANCH   1   2
BRANCH   1  71
ATOM     71  O   UNL A   1      38.630  21.220  25.738  1.00  0.00    -0.461 OA
BRANCH  71  72
ATOM     72  C   UNL A   1      38.183  22.512  25.838  1.00  0.00     0.329 C 
ATOM     73  O   UNL A   1      38.925  23.457  26.076  1.00  0.00    -0.250 OA
BRANCH  72  74
ATOM     74  C   UNL A   1      36.639  22.656  25.501  1.00  0.00     0.194 C 
BRANCH  74  75
ATOM     75  C   UNL A   1      36.016  23.346  23.892  1.00  0.00     0.072 C 
BRANCH  75  76
ATOM     76  C   UNL A   1      34.139  23.993  23.029  1.00  0.00    -0.045 A 
ATOM     77  C   UNL A   1      32.951  23.136  22.542  1.00  0.00     0.007 A 
ATOM     78  C   UNL A   1      33.517  25.336  22.910  1.00  0.00     0.007 A 
ATOM     79  C   UNL A   1      31.571  23.394  22.692  1.00  0.00     0.046 A 
ATOM     80  C   UNL A   1      32.121  25.635  23.029  1.00  0.00     0.046 A 
ATOM     81  C   UNL A   1      31.180  24.638  23.076  1.00  0.00     0.115 A 
BRANCH  81  82
ATOM     82  O   UNL A   1      29.893  24.917  23.390  1.00  0.00    -0.508 OA
ATOM     83  H   UNL A   1      29.289  25.162  22.717  1.00  0.00     0.293 HD
ENDBRANCH  81  82
ENDBRANCH  75  76
ENDBRANCH  74  75
BRANCH  74  84
ATOM     84  N   UNL A   1      35.888  21.425  25.846  1.00  0.00    -0.371 N 
ATOM     85  H   UNL A   1      36.430  20.716  26.261  1.00  0.00     0.161 HD
BRANCH  84  86
ATOM     86  C   UNL A   1      34.536  21.105  25.679  1.00  0.00     0.054 A 
ATOM     87  C   UNL A   1      33.437  21.975  26.001  1.00  0.00     0.024 A 
ATOM     88  C   UNL A   1      34.244  19.822  25.099  1.00  0.00     0.024 A 
ATOM     89  C   UNL A   1      33.511  23.306  26.503  1.00  0.00     0.012 A 
ATOM     90  C   UNL A   1      32.137  21.494  25.723  1.00  0.00     0.073 A 
ATOM     91  C   UNL A   1      32.896  19.493  24.870  1.00  0.00     0.073 A 
ATOM     92  C   UNL A   1      35.220  18.854  24.729  1.00  0.00     0.012 A 
ATOM     93  C   UNL A   1      32.377  24.090  26.746  1.00  0.00     0.001 A 
ATOM     94  C   UNL A   1      31.021  22.283  25.973  1.00  0.00     0.029 A 
ATOM     95  N   UNL A   1      31.886  20.301  25.182  1.00  0.00    -0.248 NA
ATOM     96  C   UNL A   1      32.569  18.279  24.280  1.00  0.00     0.029 A 
ATOM     97  C   UNL A   1      34.874  17.644  24.128  1.00  0.00     0.001 A 
ATOM     98  C   UNL A   1      31.124  23.573  26.483  1.00  0.00     0.002 A 
ATOM     99  C   UNL A   1      33.541  17.356  23.899  1.00  0.00     0.002 A 
ENDBRANCH  84  86
ENDBRANCH  74  84
ENDBRANCH  72  74
ENDBRANCH  71  72
ENDBRANCH   1  71
TORSDOF 16
ENDMDL
MODEL 3
REMARK VINA RESULT:     -13.6      2.994      8.560
REMARK SMILES O=C(OCCOC(=O)[C@@H](Cc1ccc(O)cc1)Nc1c2ccccc2nc2ccccc12)c1ccc(-c2c3nc(c(-c4c(F)c(F)c(F)c(F)c4F)c4ccc([nH]4)c(-c4c(F)c(F)c(F)c(F)c4F)c4nc(c(-c5c(F)c(F)c(F)c(F)c5F)c5ccc2[nH]5)C=C4)C=C3)cc1
REMARK SMILES IDX 5 1 4 2 3 3 2 4 1 5 33 6 34 7 95 8 35 9 94 10 36 11 37 12
REMARK SMILES IDX 38 13 88 14 39 15 93 16 87 17 89 18 40 19 92 20 86 21 85 22
REMARK SMILES IDX 41 24 73 25 53 26 72 27 54 28 57 29 71 30 90 31 55 32 56 33
REMARK SMILES IDX 70 35 91 36 58 37 42 38 43 39 51 40 44 41 45 42 49 43 52 44
REMARK SMILES IDX 46 45 47 46 50 47 48 48 74 49 75 50 83 51 76 52 77 53 81 54
REMARK SMILES IDX 84 55 78 56 79 57 82 58 80 59 59 60 60 61 68 62 61 63 62 64
REMARK SMILES IDX 66 65 69 66 63 67 64 68 67 69 65 70 6 71 7 72 8 73 9 74
REMARK SMILES IDX 10 75 11 76 12 77 17 78 13 79 16 80 14 81 15 82 18 84 19 86
REMARK SMILES IDX 20 87 32 88 21 89 25 90 27 91 31 92 22 93 24 94 26 95 28 96
REMARK SMILES IDX 30 97 23 98 29 99
REMARK H PARENT 89 23 57 34 15 83 18 85
REMARK Flexibility Score: inf
ROOT
ATOM      1  C   UNL A   1      31.745  29.400  25.100  1.00  0.00     0.274 C 
ENDROOT
BRANCH   1   2
ATOM      2  C   UNL A   1      31.401  30.833  25.534  1.00  0.00     0.275 C 
BRANCH   2   3
ATOM      3  O   UNL A   1      31.849  31.084  26.861  1.00  0.00    -0.458 OA
BRANCH   3   4
ATOM      4  C   UNL A   1      32.615  32.116  27.232  1.00  0.00     0.338 C 
ATOM      5  O   UNL A   1      32.156  33.256  27.178  1.00  0.00    -0.246 OA
BRANCH   4   6
ATOM      6  C   UNL A   1      34.036  31.997  27.666  1.00  0.00     0.060 A 
ATOM      7  C   UNL A   1      35.314  33.293  28.013  1.00  0.00     0.016 A 
ATOM      8  C   UNL A   1      34.297  30.323  28.304  1.00  0.00     0.016 A 
ATOM      9  C   UNL A   1      36.851  32.834  28.919  1.00  0.00     0.010 A 
ATOM     10  C   UNL A   1      35.721  29.967  29.356  1.00  0.00     0.010 A 
ATOM     11  C   UNL A   1      37.074  31.149  29.570  1.00  0.00    -0.014 A 
BRANCH  11  12
ATOM     12  C   UNL A   1      38.377  30.719  30.193  1.00  0.00     0.031 A 
ATOM     13  C   UNL A   1      38.793  31.153  31.590  1.00  0.00     0.074 A 
ATOM     14  C   UNL A   1      39.162  29.834  29.555  1.00  0.00     0.049 A 
ATOM     15  N   UNL A   1      39.495  30.495  32.487  1.00  0.00    -0.248 NA
ATOM     16  C   UNL A   1      38.343  32.454  32.089  1.00  0.00     0.031 C 
ATOM     17  C   UNL A   1      38.972  29.377  28.184  1.00  0.00     0.029 A 
ATOM     18  N   UNL A   1      40.283  29.157  29.971  1.00  0.00    -0.354 N 
ATOM     19  C   UNL A   1      39.386  31.229  33.667  1.00  0.00     0.074 A 
ATOM     20  C   UNL A   1      38.588  32.387  33.383  1.00  0.00     0.031 C 
ATOM     21  C   UNL A   1      39.893  28.454  27.884  1.00  0.00     0.029 A 
ATOM     22  C   UNL A   1      40.789  28.298  29.023  1.00  0.00     0.049 A 
ATOM     23  H   UNL A   1      40.685  29.274  30.862  1.00  0.00     0.167 HD
ATOM     24  C   UNL A   1      39.974  31.043  34.870  1.00  0.00     0.037 A 
ATOM     25  C   UNL A   1      41.869  27.495  29.062  1.00  0.00     0.037 A 
ATOM     26  C   UNL A   1      41.109  30.189  35.039  1.00  0.00     0.049 A 
ATOM     27  C   UNL A   1      42.670  27.444  30.332  1.00  0.00     0.074 A 
ATOM     28  C   UNL A   1      41.954  30.076  36.125  1.00  0.00     0.029 A 
ATOM     29  N   UNL A   1      41.640  29.409  34.020  1.00  0.00    -0.354 N 
ATOM     30  N   UNL A   1      42.429  28.033  31.481  1.00  0.00    -0.248 NA
ATOM     31  C   UNL A   1      43.897  26.639  30.315  1.00  0.00     0.031 C 
ATOM     32  C   UNL A   1      43.063  29.326  35.718  1.00  0.00     0.029 A 
ATOM     33  C   UNL A   1      42.852  28.883  34.418  1.00  0.00     0.049 A 
ATOM     34  H   UNL A   1      41.216  29.256  33.145  1.00  0.00     0.167 HD
ATOM     35  C   UNL A   1      43.471  27.674  32.324  1.00  0.00     0.074 A 
ATOM     36  C   UNL A   1      44.337  26.801  31.556  1.00  0.00     0.031 C 
ATOM     37  C   UNL A   1      43.692  28.033  33.613  1.00  0.00     0.037 A 
BRANCH  24  38
ATOM     38  C   UNL A   1      39.520  31.945  35.987  1.00  0.00     0.064 A 
ATOM     39  C   UNL A   1      40.222  33.124  36.295  1.00  0.00     0.173 A 
ATOM     40  C   UNL A   1      38.461  31.578  36.829  1.00  0.00     0.173 A 
ATOM     41  F   UNL A   1      41.267  33.503  35.545  1.00  0.00    -0.203 F 
ATOM     42  C   UNL A   1      39.894  33.884  37.418  1.00  0.00     0.198 A 
ATOM     43  C   UNL A   1      38.128  32.346  37.943  1.00  0.00     0.198 A 
ATOM     44  F   UNL A   1      37.780  30.445  36.604  1.00  0.00    -0.203 F 
ATOM     45  F   UNL A   1      40.615  34.971  37.727  1.00  0.00    -0.200 F 
ATOM     46  C   UNL A   1      38.850  33.492  38.243  1.00  0.00     0.200 A 
ATOM     47  F   UNL A   1      37.131  31.957  38.749  1.00  0.00    -0.200 F 
ATOM     48  F   UNL A   1      38.558  34.201  39.342  1.00  0.00    -0.200 F 
ENDBRANCH  24  38
BRANCH  25  49
ATOM     49  C   UNL A   1      42.245  26.732  27.839  1.00  0.00     0.064 A 
ATOM     50  C   UNL A   1      43.151  27.240  26.900  1.00  0.00     0.173 A 
ATOM     51  C   UNL A   1      41.758  25.429  27.633  1.00  0.00     0.173 A 
ATOM     52  F   UNL A   1      43.628  28.485  27.032  1.00  0.00    -0.203 F 
ATOM     53  C   UNL A   1      43.571  26.466  25.815  1.00  0.00     0.198 A 
ATOM     54  C   UNL A   1      42.203  24.647  26.570  1.00  0.00     0.198 A 
ATOM     55  F   UNL A   1      40.881  24.898  28.498  1.00  0.00    -0.203 F 
ATOM     56  F   UNL A   1      44.428  26.978  24.922  1.00  0.00    -0.200 F 
ATOM     57  C   UNL A   1      43.110  25.166  25.661  1.00  0.00     0.200 A 
ATOM     58  F   UNL A   1      41.764  23.388  26.436  1.00  0.00    -0.200 F 
ATOM     59  F   UNL A   1      43.540  24.416  24.637  1.00  0.00    -0.200 F 
ENDBRANCH  25  49
BRANCH  37  60
ATOM     60  C   UNL A   1      44.913  27.487  34.284  1.00  0.00     0.064 A 
ATOM     61  C   UNL A   1      46.111  28.211  34.333  1.00  0.00     0.173 A 
ATOM     62  C   UNL A   1      44.834  26.281  34.996  1.00  0.00     0.173 A 
ATOM     63  F   UNL A   1      46.231  29.368  33.665  1.00  0.00    -0.203 F 
ATOM     64  C   UNL A   1      47.194  27.741  35.069  1.00  0.00     0.198 A 
ATOM     65  C   UNL A   1      45.907  25.830  35.754  1.00  0.00     0.198 A 
ATOM     66  F   UNL A   1      43.699  25.565  34.988  1.00  0.00    -0.203 F 
ATOM     67  F   UNL A   1      48.340  28.435  35.089  1.00  0.00    -0.200 F 
ATOM     68  C   UNL A   1      47.087  26.559  35.788  1.00  0.00     0.200 A 
ATOM     69  F   UNL A   1      45.793  24.701  36.466  1.00  0.00    -0.200 F 
ATOM     70  F   UNL A   1      48.121  26.123  36.520  1.00  0.00    -0.200 F 
ENDBRANCH  37  60
ENDBRANCH  11  12
ENDBRANCH   4   6
ENDBRANCH   3   4
ENDBRANCH   2   3
ENDBRANCH   1   2
BRANCH   1  71
ATOM     71  O   UNL A   1      32.593  28.699  26.048  1.00  0.00    -0.461 OA
BRANCH  71  72
ATOM     72  C   UNL A   1      32.033  27.759  26.872  1.00  0.00     0.329 C 
ATOM     73  O   UNL A   1      31.010  27.961  27.514  1.00  0.00    -0.250 OA
BRANCH  72  74
ATOM     74  C   UNL A   1      32.784  26.362  26.812  1.00  0.00     0.194 C 
BRANCH  74  75
ATOM     75  C   UNL A   1      31.893  24.732  26.874  1.00  0.00     0.072 C 
BRANCH  75  76
ATOM     76  C   UNL A   1      32.330  22.638  26.543  1.00  0.00    -0.045 A 
ATOM     77  C   UNL A   1      31.893  21.731  25.373  1.00  0.00     0.007 A 
ATOM     78  C   UNL A   1      33.267  21.705  27.218  1.00  0.00     0.007 A 
ATOM     79  C   UNL A   1      32.647  20.738  24.711  1.00  0.00     0.046 A 
ATOM     80  C   UNL A   1      34.031  20.670  26.587  1.00  0.00     0.046 A 
ATOM     81  C   UNL A   1      33.805  20.313  25.282  1.00  0.00     0.115 A 
BRANCH  81  82
ATOM     82  O   UNL A   1      34.657  19.482  24.636  1.00  0.00    -0.508 OA
ATOM     83  H   UNL A   1      35.039  18.757  25.090  1.00  0.00     0.293 HD
ENDBRANCH  81  82
ENDBRANCH  75  76
ENDBRANCH  74  75
BRANCH  74  84
ATOM     84  N   UNL A   1      33.805  26.338  25.737  1.00  0.00    -0.371 N 
ATOM     85  H   UNL A   1      34.525  27.001  25.839  1.00  0.00     0.161 HD
BRANCH  84  86
ATOM     86  C   UNL A   1      33.914  25.527  24.602  1.00  0.00     0.054 A 
ATOM     87  C   UNL A   1      33.163  25.702  23.388  1.00  0.00     0.024 A 
ATOM     88  C   UNL A   1      34.886  24.469  24.656  1.00  0.00     0.024 A 
ATOM     89  C   UNL A   1      32.218  26.728  23.100  1.00  0.00     0.012 A 
ATOM     90  C   UNL A   1      33.440  24.806  22.328  1.00  0.00     0.073 A 
ATOM     91  C   UNL A   1      35.056  23.668  23.512  1.00  0.00     0.073 A 
ATOM     92  C   UNL A   1      35.702  24.169  25.784  1.00  0.00     0.012 A 
ATOM     93  C   UNL A   1      31.568  26.837  21.865  1.00  0.00     0.001 A 
ATOM     94  C   UNL A   1      32.784  24.926  21.110  1.00  0.00     0.029 A 
ATOM     95  N   UNL A   1      34.348  23.833  22.397  1.00  0.00    -0.248 NA
ATOM     96  C   UNL A   1      36.008  22.658  23.508  1.00  0.00     0.029 A 
ATOM     97  C   UNL A   1      36.661  23.156  25.758  1.00  0.00     0.001 A 
ATOM     98  C   UNL A   1      31.850  25.928  20.865  1.00  0.00     0.002 A 
ATOM     99  C   UNL A   1      36.817  22.399  24.612  1.00  0.00     0.002 A 
ENDBRANCH  84  86
ENDBRANCH  74  84
ENDBRANCH  72  74
ENDBRANCH  71  72
ENDBRANCH   1  71
TORSDOF 16
ENDMDL
