MODEL 1
REMARK VINA RESULT:     -12.1      0.000      0.000
REMARK SMILES O=C(Nc1c(F)cc(F)cc1F)N[C@H]1C=C[C@@H](C(=O)OCCOC(=O)c2ccc(-c3c4nc(c(-c5c(F)c(F)c(F)c(F)c5F)c5ccc([nH]5)c(-c5c(F)c(F)c(F)c(F)c5F)c5nc(c(-c6c(F)c(F)c(F)c(F)c6F)c6ccc3[nH]6)C=C5)C=C4)cc2)C1
REMARK SMILES IDX 21 1 20 2 18 3 19 4 17 5 14 6 15 7 89 8 16 9 13 10 1 11 2 12
REMARK SMILES IDX 3 13 4 16 5 17 11 18 6 19 7 20 10 21 12 22 8 23 9 24 22 25
REMARK SMILES IDX 23 26 24 27 25 28 26 29 27 30 88 31 28 32 87 33 29 34 30 35
REMARK SMILES IDX 31 36 81 37 32 38 86 39 80 40 82 41 33 42 85 43 79 44 78 45
REMARK SMILES IDX 34 47 66 48 46 49 65 50 47 51 50 52 64 53 83 54 48 55 49 56
REMARK SMILES IDX 63 58 84 59 51 60 35 61 36 62 44 63 37 64 38 65 42 66 45 67
REMARK SMILES IDX 39 68 40 69 43 70 41 71 67 72 68 73 76 74 69 75 70 76 74 77
REMARK SMILES IDX 77 78 71 79 72 80 75 81 73 82 52 83 53 84 61 85 54 86 55 87
REMARK SMILES IDX 59 88 62 89 56 90 57 91 60 92 58 93
REMARK H PARENT 3 14 13 15 82 46 50 57
REMARK Flexibility Score: inf
ROOT
ATOM      1  C   UNL A   1      32.182  31.533  26.572  1.00  0.00     0.274 C 
ENDROOT
BRANCH   1   2
ATOM      2  O   UNL A   1      32.739  30.808  27.683  1.00  0.00    -0.462 OA
BRANCH   2   3
ATOM      3  C   UNL A   1      33.840  30.053  27.434  1.00  0.00     0.312 C 
ATOM      4  O   UNL A   1      34.983  30.493  27.357  1.00  0.00    -0.252 OA
BRANCH   3   5
ATOM      5  C   UNL A   1      33.527  28.572  27.251  1.00  0.00     0.124 C 
ATOM      6  C   UNL A   1      31.916  27.111  26.103  1.00  0.00     0.107 C 
ATOM      7  C   UNL A   1      33.234  27.178  25.393  1.00  0.00    -0.006 C 
ATOM      8  C   UNL A   1      32.043  28.193  27.183  1.00  0.00     0.048 C 
ATOM      9  C   UNL A   1      34.100  28.000  25.994  1.00  0.00    -0.014 C 
BRANCH   6  10
ATOM     10  N   UNL A   1      30.891  27.395  25.136  1.00  0.00    -0.332 N 
ATOM     11  O   UNL A   1      30.419  25.227  24.617  1.00  0.00    -0.248 OA
ATOM     12  C   UNL A   1      30.220  26.427  24.454  1.00  0.00     0.319 C 
ATOM     13  N   UNL A   1      29.173  26.847  23.686  1.00  0.00    -0.303 N 
ATOM     14  H   UNL A   1      28.488  26.161  23.512  1.00  0.00     0.172 HD
ATOM     15  H   UNL A   1      30.661  28.336  24.959  1.00  0.00     0.165 HD
BRANCH  13  16
ATOM     16  C   UNL A   1      28.910  28.102  23.100  1.00  0.00     0.115 A 
ATOM     17  C   UNL A   1      29.851  28.844  22.375  1.00  0.00     0.152 A 
ATOM     18  C   UNL A   1      27.614  28.617  23.205  1.00  0.00     0.152 A 
ATOM     19  F   UNL A   1      31.089  28.373  22.167  1.00  0.00    -0.204 F 
ATOM     20  C   UNL A   1      29.527  30.074  21.813  1.00  0.00     0.081 A 
ATOM     21  C   UNL A   1      27.278  29.856  22.669  1.00  0.00     0.081 A 
ATOM     22  F   UNL A   1      26.679  27.928  23.877  1.00  0.00    -0.204 F 
ATOM     23  C   UNL A   1      28.243  30.574  21.977  1.00  0.00     0.129 A 
ATOM     24  F   UNL A   1      27.931  31.765  21.453  1.00  0.00    -0.207 F 
ENDBRANCH  13  16
ENDBRANCH   6  10
ENDBRANCH   3   5
ENDBRANCH   2   3
ENDBRANCH   1   2
BRANCH   1  25
ATOM     25  C   UNL A   1      31.938  32.996  26.956  1.00  0.00     0.275 C 
BRANCH  25  26
ATOM     26  O   UNL A   1      33.181  33.698  27.156  1.00  0.00    -0.458 OA
BRANCH  26  27
ATOM     27  C   UNL A   1      33.274  34.377  28.323  1.00  0.00     0.338 C 
ATOM     28  O   UNL A   1      32.528  35.243  28.740  1.00  0.00    -0.246 OA
BRANCH  27  29
ATOM     29  C   UNL A   1      34.382  33.836  29.122  1.00  0.00     0.060 A 
ATOM     30  C   UNL A   1      35.671  34.316  28.876  1.00  0.00     0.016 A 
ATOM     31  C   UNL A   1      34.171  32.803  30.035  1.00  0.00     0.016 A 
ATOM     32  C   UNL A   1      36.762  33.764  29.541  1.00  0.00     0.010 A 
ATOM     33  C   UNL A   1      35.267  32.249  30.704  1.00  0.00     0.010 A 
ATOM     34  C   UNL A   1      36.568  32.720  30.454  1.00  0.00    -0.014 A 
BRANCH  34  35
ATOM     35  C   UNL A   1      37.736  32.093  31.114  1.00  0.00     0.031 A 
ATOM     36  C   UNL A   1      38.523  31.039  30.395  1.00  0.00     0.074 A 
ATOM     37  C   UNL A   1      38.105  32.495  32.344  1.00  0.00     0.049 A 
ATOM     38  N   UNL A   1      39.508  30.299  30.833  1.00  0.00    -0.248 NA
ATOM     39  C   UNL A   1      38.156  30.787  28.992  1.00  0.00     0.031 C 
ATOM     40  C   UNL A   1      37.463  33.563  33.110  1.00  0.00     0.029 A 
ATOM     41  N   UNL A   1      39.113  32.053  33.163  1.00  0.00    -0.354 N 
ATOM     42  C   UNL A   1      39.873  29.487  29.768  1.00  0.00     0.074 A 
ATOM     43  C   UNL A   1      38.995  29.814  28.664  1.00  0.00     0.031 C 
ATOM     44  C   UNL A   1      38.099  33.702  34.283  1.00  0.00     0.029 A 
ATOM     45  C   UNL A   1      39.158  32.699  34.374  1.00  0.00     0.049 A 
ATOM     46  H   UNL A   1      39.744  31.343  32.906  1.00  0.00     0.167 HD
ATOM     47  C   UNL A   1      40.857  28.559  29.719  1.00  0.00     0.037 A 
ATOM     48  C   UNL A   1      39.946  32.484  35.444  1.00  0.00     0.037 A 
ATOM     49  C   UNL A   1      41.731  28.243  30.818  1.00  0.00     0.049 A 
ATOM     50  C   UNL A   1      40.969  31.382  35.396  1.00  0.00     0.074 A 
ATOM     51  C   UNL A   1      42.738  27.296  30.876  1.00  0.00     0.029 A 
ATOM     52  N   UNL A   1      41.706  28.877  32.053  1.00  0.00    -0.354 N 
ATOM     53  N   UNL A   1      41.273  30.581  34.405  1.00  0.00    -0.248 NA
ATOM     54  C   UNL A   1      41.745  31.141  36.621  1.00  0.00     0.031 C 
ATOM     55  C   UNL A   1      43.303  27.334  32.155  1.00  0.00     0.029 A 
ATOM     56  C   UNL A   1      42.673  28.332  32.882  1.00  0.00     0.049 A 
ATOM     57  H   UNL A   1      41.092  29.605  32.301  1.00  0.00     0.167 HD
ATOM     58  C   UNL A   1      42.284  29.756  34.875  1.00  0.00     0.074 A 
ATOM     59  C   UNL A   1      42.551  30.159  36.241  1.00  0.00     0.031 C 
ATOM     60  C   UNL A   1      42.930  28.753  34.234  1.00  0.00     0.037 A 
BRANCH  47  61
ATOM     61  C   UNL A   1      41.033  27.798  28.441  1.00  0.00     0.064 A 
ATOM     62  C   UNL A   1      40.352  26.589  28.234  1.00  0.00     0.173 A 
ATOM     63  C   UNL A   1      41.923  28.231  27.448  1.00  0.00     0.173 A 
ATOM     64  F   UNL A   1      39.493  26.130  29.158  1.00  0.00    -0.203 F 
ATOM     65  C   UNL A   1      40.565  25.835  27.084  1.00  0.00     0.198 A 
ATOM     66  C   UNL A   1      42.118  27.485  26.289  1.00  0.00     0.198 A 
ATOM     67  F   UNL A   1      42.588  29.386  27.595  1.00  0.00    -0.203 F 
ATOM     68  F   UNL A   1      39.923  24.670  26.919  1.00  0.00    -0.200 F 
ATOM     69  C   UNL A   1      41.446  26.284  26.112  1.00  0.00     0.200 A 
ATOM     70  F   UNL A   1      42.955  27.928  25.341  1.00  0.00    -0.200 F 
ATOM     71  F   UNL A   1      41.646  25.560  25.001  1.00  0.00    -0.200 F 
ENDBRANCH  47  61
BRANCH  48  72
ATOM     72  C   UNL A   1      39.788  33.326  36.657  1.00  0.00     0.064 A 
ATOM     73  C   UNL A   1      38.846  33.009  37.647  1.00  0.00     0.173 A 
ATOM     74  C   UNL A   1      40.570  34.474  36.841  1.00  0.00     0.173 A 
ATOM     75  F   UNL A   1      38.077  31.917  37.520  1.00  0.00    -0.203 F 
ATOM     76  C   UNL A   1      38.679  33.821  38.766  1.00  0.00     0.198 A 
ATOM     77  C   UNL A   1      40.418  35.272  37.974  1.00  0.00     0.198 A 
ATOM     78  F   UNL A   1      41.501  34.801  35.934  1.00  0.00    -0.203 F 
ATOM     79  F   UNL A   1      37.753  33.511  39.685  1.00  0.00    -0.200 F 
ATOM     80  C   UNL A   1      39.468  34.950  38.931  1.00  0.00     0.200 A 
ATOM     81  F   UNL A   1      41.200  36.347  38.141  1.00  0.00    -0.200 F 
ATOM     82  F   UNL A   1      39.316  35.723  40.014  1.00  0.00    -0.200 F 
ENDBRANCH  48  72
BRANCH  60  83
ATOM     83  C   UNL A   1      44.008  28.031  34.986  1.00  0.00     0.064 A 
ATOM     84  C   UNL A   1      43.711  26.862  35.701  1.00  0.00     0.173 A 
ATOM     85  C   UNL A   1      45.311  28.541  35.064  1.00  0.00     0.173 A 
ATOM     86  F   UNL A   1      42.475  26.340  35.663  1.00  0.00    -0.203 F 
ATOM     87  C   UNL A   1      44.680  26.234  36.478  1.00  0.00     0.198 A 
ATOM     88  C   UNL A   1      46.283  27.899  35.824  1.00  0.00     0.198 A 
ATOM     89  F   UNL A   1      45.642  29.650  34.386  1.00  0.00    -0.203 F 
ATOM     90  F   UNL A   1      44.369  25.133  37.176  1.00  0.00    -0.200 F 
ATOM     91  C   UNL A   1      45.966  26.752  36.538  1.00  0.00     0.200 A 
ATOM     92  F   UNL A   1      47.531  28.389  35.865  1.00  0.00    -0.200 F 
ATOM     93  F   UNL A   1      46.900  26.144  37.281  1.00  0.00    -0.200 F 
ENDBRANCH  60  83
ENDBRANCH  34  35
ENDBRANCH  27  29
ENDBRANCH  26  27
ENDBRANCH  25  26
ENDBRANCH   1  25
TORSDOF 13
ENDMDL
MODEL 2
REMARK VINA RESULT:     -12.1      0.681      7.245
REMARK SMILES O=C(Nc1c(F)cc(F)cc1F)N[C@H]1C=C[C@@H](C(=O)OCCOC(=O)c2ccc(-c3c4nc(c(-c5c(F)c(F)c(F)c(F)c5F)c5ccc([nH]5)c(-c5c(F)c(F)c(F)c(F)c5F)c5nc(c(-c6c(F)c(F)c(F)c(F)c6F)c6ccc3[nH]6)C=C5)C=C4)cc2)C1
REMARK SMILES IDX 21 1 20 2 18 3 19 4 17 5 14 6 15 7 89 8 16 9 13 10 1 11 2 12
REMARK SMILES IDX 3 13 4 16 5 17 11 18 6 19 7 20 10 21 12 22 8 23 9 24 22 25
REMARK SMILES IDX 23 26 24 27 25 28 26 29 27 30 88 31 28 32 87 33 29 34 30 35
REMARK SMILES IDX 31 36 81 37 32 38 86 39 80 40 82 41 33 42 85 43 79 44 78 45
REMARK SMILES IDX 34 47 66 48 46 49 65 50 47 51 50 52 64 53 83 54 48 55 49 56
REMARK SMILES IDX 63 58 84 59 51 60 35 61 36 62 44 63 37 64 38 65 42 66 45 67
REMARK SMILES IDX 39 68 40 69 43 70 41 71 67 72 68 73 76 74 69 75 70 76 74 77
REMARK SMILES IDX 77 78 71 79 72 80 75 81 73 82 52 83 53 84 61 85 54 86 55 87
REMARK SMILES IDX 59 88 62 89 56 90 57 91 60 92 58 93
REMARK H PARENT 3 14 13 15 82 46 50 57
REMARK Flexibility Score: inf
ROOT
ATOM      1  C   UNL A   1      32.065  32.205  27.252  1.00  0.00     0.274 C 
ENDROOT
BRANCH   1   2
ATOM      2  O   UNL A   1      32.909  31.187  26.685  1.00  0.00    -0.462 OA
BRANCH   2   3
ATOM      3  C   UNL A   1      33.644  30.444  27.551  1.00  0.00     0.312 C 
ATOM      4  O   UNL A   1      34.442  30.906  28.362  1.00  0.00    -0.252 OA
BRANCH   3   5
ATOM      5  C   UNL A   1      33.391  28.945  27.428  1.00  0.00     0.124 C 
ATOM      6  C   UNL A   1      31.884  27.374  26.284  1.00  0.00     0.107 C 
ATOM      7  C   UNL A   1      33.229  27.455  25.629  1.00  0.00    -0.006 C 
ATOM      8  C   UNL A   1      31.925  28.510  27.315  1.00  0.00     0.048 C 
ATOM      9  C   UNL A   1      34.039  28.335  26.226  1.00  0.00    -0.014 C 
BRANCH   6  10
ATOM     10  N   UNL A   1      30.893  27.574  25.262  1.00  0.00    -0.332 N 
ATOM     11  O   UNL A   1      30.584  25.371  24.767  1.00  0.00    -0.248 OA
ATOM     12  C   UNL A   1      30.320  26.553  24.568  1.00  0.00     0.319 C 
ATOM     13  N   UNL A   1      29.289  26.892  23.740  1.00  0.00    -0.303 N 
ATOM     14  H   UNL A   1      28.658  26.161  23.547  1.00  0.00     0.172 HD
ATOM     15  H   UNL A   1      30.615  28.495  25.053  1.00  0.00     0.165 HD
BRANCH  13  16
ATOM     16  C   UNL A   1      28.979  28.116  23.114  1.00  0.00     0.115 A 
ATOM     17  C   UNL A   1      29.895  28.876  22.376  1.00  0.00     0.152 A 
ATOM     18  C   UNL A   1      27.661  28.578  23.192  1.00  0.00     0.152 A 
ATOM     19  F   UNL A   1      31.154  28.454  22.193  1.00  0.00    -0.204 F 
ATOM     20  C   UNL A   1      29.524  30.075  21.774  1.00  0.00     0.081 A 
ATOM     21  C   UNL A   1      27.278  29.785  22.617  1.00  0.00     0.081 A 
ATOM     22  F   UNL A   1      26.749  27.870  23.876  1.00  0.00    -0.204 F 
ATOM     23  C   UNL A   1      28.218  30.524  21.912  1.00  0.00     0.129 A 
ATOM     24  F   UNL A   1      27.861  31.684  21.350  1.00  0.00    -0.207 F 
ENDBRANCH  13  16
ENDBRANCH   6  10
ENDBRANCH   3   5
ENDBRANCH   2   3
ENDBRANCH   1   2
BRANCH   1  25
ATOM     25  C   UNL A   1      32.797  33.549  27.286  1.00  0.00     0.275 C 
BRANCH  25  26
ATOM     26  O   UNL A   1      32.294  34.392  28.341  1.00  0.00    -0.458 OA
BRANCH  26  27
ATOM     27  C   UNL A   1      33.170  35.313  28.807  1.00  0.00     0.338 C 
ATOM     28  O   UNL A   1      33.074  36.525  28.751  1.00  0.00    -0.246 OA
BRANCH  27  29
ATOM     29  C   UNL A   1      34.259  34.639  29.528  1.00  0.00     0.060 A 
ATOM     30  C   UNL A   1      35.529  34.627  28.945  1.00  0.00     0.016 A 
ATOM     31  C   UNL A   1      34.014  33.947  30.713  1.00  0.00     0.016 A 
ATOM     32  C   UNL A   1      36.566  33.919  29.546  1.00  0.00     0.010 A 
ATOM     33  C   UNL A   1      35.057  33.236  31.317  1.00  0.00     0.010 A 
ATOM     34  C   UNL A   1      36.335  33.212  30.731  1.00  0.00    -0.014 A 
BRANCH  34  35
ATOM     35  C   UNL A   1      37.424  32.409  31.335  1.00  0.00     0.031 A 
ATOM     36  C   UNL A   1      37.917  32.736  32.712  1.00  0.00     0.074 A 
ATOM     37  C   UNL A   1      37.943  31.370  30.657  1.00  0.00     0.049 A 
ATOM     38  N   UNL A   1      38.923  32.226  33.374  1.00  0.00    -0.248 NA
ATOM     39  C   UNL A   1      37.175  33.773  33.447  1.00  0.00     0.031 C 
ATOM     40  C   UNL A   1      37.494  30.911  29.343  1.00  0.00     0.029 A 
ATOM     41  N   UNL A   1      38.962  30.511  30.983  1.00  0.00    -0.354 N 
ATOM     42  C   UNL A   1      38.944  32.883  34.596  1.00  0.00     0.074 A 
ATOM     43  C   UNL A   1      37.858  33.842  34.582  1.00  0.00     0.031 C 
ATOM     44  C   UNL A   1      38.226  29.846  28.979  1.00  0.00     0.029 A 
ATOM     45  C   UNL A   1      39.229  29.582  30.008  1.00  0.00     0.049 A 
ATOM     46  H   UNL A   1      39.454  30.555  31.835  1.00  0.00     0.167 HD
ATOM     47  C   UNL A   1      39.790  32.697  35.635  1.00  0.00     0.037 A 
ATOM     48  C   UNL A   1      40.193  28.644  29.941  1.00  0.00     0.037 A 
ATOM     49  C   UNL A   1      40.864  31.738  35.646  1.00  0.00     0.049 A 
ATOM     50  C   UNL A   1      41.180  28.522  31.070  1.00  0.00     0.074 A 
ATOM     51  C   UNL A   1      41.796  31.496  36.640  1.00  0.00     0.029 A 
ATOM     52  N   UNL A   1      41.142  30.855  34.613  1.00  0.00    -0.354 N 
ATOM     53  N   UNL A   1      41.228  29.183  32.200  1.00  0.00    -0.248 NA
ATOM     54  C   UNL A   1      42.257  27.536  30.907  1.00  0.00     0.031 C 
ATOM     55  C   UNL A   1      42.657  30.488  36.197  1.00  0.00     0.029 A 
ATOM     56  C   UNL A   1      42.239  30.076  34.942  1.00  0.00     0.049 A 
ATOM     57  H   UNL A   1      40.635  30.793  33.771  1.00  0.00     0.167 HD
ATOM     58  C   UNL A   1      42.323  28.685  32.890  1.00  0.00     0.074 A 
ATOM     59  C   UNL A   1      42.910  27.656  32.055  1.00  0.00     0.031 C 
ATOM     60  C   UNL A   1      42.802  29.050  34.103  1.00  0.00     0.037 A 
BRANCH  47  61
ATOM     61  C   UNL A   1      39.608  33.560  36.846  1.00  0.00     0.064 A 
ATOM     62  C   UNL A   1      38.765  33.149  37.891  1.00  0.00     0.173 A 
ATOM     63  C   UNL A   1      40.214  34.820  36.946  1.00  0.00     0.173 A 
ATOM     64  F   UNL A   1      38.158  31.953  37.840  1.00  0.00    -0.203 F 
ATOM     65  C   UNL A   1      38.528  33.975  38.985  1.00  0.00     0.198 A 
ATOM     66  C   UNL A   1      39.991  35.635  38.052  1.00  0.00     0.198 A 
ATOM     67  F   UNL A   1      41.037  35.251  35.978  1.00  0.00    -0.203 F 
ATOM     68  F   UNL A   1      37.699  33.573  39.959  1.00  0.00    -0.200 F 
ATOM     69  C   UNL A   1      39.142  35.215  39.067  1.00  0.00     0.200 A 
ATOM     70  F   UNL A   1      40.599  36.826  38.140  1.00  0.00    -0.200 F 
ATOM     71  F   UNL A   1      38.917  36.008  40.125  1.00  0.00    -0.200 F 
ENDBRANCH  47  61
BRANCH  48  72
ATOM     72  C   UNL A   1      40.276  27.756  28.755  1.00  0.00     0.064 A 
ATOM     73  C   UNL A   1      39.634  26.509  28.729  1.00  0.00     0.173 A 
ATOM     74  C   UNL A   1      41.015  28.134  27.625  1.00  0.00     0.173 A 
ATOM     75  F   UNL A   1      38.910  26.104  29.783  1.00  0.00    -0.203 F 
ATOM     76  C   UNL A   1      39.744  25.667  27.625  1.00  0.00     0.198 A 
ATOM     77  C   UNL A   1      41.104  27.300  26.513  1.00  0.00     0.198 A 
ATOM     78  F   UNL A   1      41.625  29.328  27.595  1.00  0.00    -0.203 F 
ATOM     79  F   UNL A   1      39.142  24.469  27.636  1.00  0.00    -0.200 F 
ATOM     80  C   UNL A   1      40.476  26.064  26.516  1.00  0.00     0.200 A 
ATOM     81  F   UNL A   1      41.791  27.699  25.433  1.00  0.00    -0.200 F 
ATOM     82  F   UNL A   1      40.570  25.259  25.450  1.00  0.00    -0.200 F 
ENDBRANCH  48  72
BRANCH  60  83
ATOM     83  C   UNL A   1      44.004  28.320  34.621  1.00  0.00     0.064 A 
ATOM     84  C   UNL A   1      43.852  27.146  35.372  1.00  0.00     0.173 A 
ATOM     85  C   UNL A   1      45.299  28.826  34.440  1.00  0.00     0.173 A 
ATOM     86  F   UNL A   1      42.631  26.627  35.577  1.00  0.00    -0.203 F 
ATOM     87  C   UNL A   1      44.954  26.510  35.936  1.00  0.00     0.198 A 
ATOM     88  C   UNL A   1      46.401  28.176  34.987  1.00  0.00     0.198 A 
ATOM     89  F   UNL A   1      45.493  29.939  33.718  1.00  0.00    -0.203 F 
ATOM     90  F   UNL A   1      44.784  25.404  36.674  1.00  0.00    -0.200 F 
ATOM     91  C   UNL A   1      46.228  27.024  35.742  1.00  0.00     0.200 A 
ATOM     92  F   UNL A   1      47.633  28.662  34.782  1.00  0.00    -0.200 F 
ATOM     93  F   UNL A   1      47.289  26.409  36.280  1.00  0.00    -0.200 F 
ENDBRANCH  60  83
ENDBRANCH  34  35
ENDBRANCH  27  29
ENDBRANCH  26  27
ENDBRANCH  25  26
ENDBRANCH   1  25
TORSDOF 13
ENDMDL
MODEL 3
REMARK VINA RESULT:     -12.0      2.443      4.014
REMARK SMILES O=C(Nc1c(F)cc(F)cc1F)N[C@H]1C=C[C@@H](C(=O)OCCOC(=O)c2ccc(-c3c4nc(c(-c5c(F)c(F)c(F)c(F)c5F)c5ccc([nH]5)c(-c5c(F)c(F)c(F)c(F)c5F)c5nc(c(-c6c(F)c(F)c(F)c(F)c6F)c6ccc3[nH]6)C=C5)C=C4)cc2)C1
REMARK SMILES IDX 21 1 20 2 18 3 19 4 17 5 14 6 15 7 89 8 16 9 13 10 1 11 2 12
REMARK SMILES IDX 3 13 4 16 5 17 11 18 6 19 7 20 10 21 12 22 8 23 9 24 22 25
REMARK SMILES IDX 23 26 24 27 25 28 26 29 27 30 88 31 28 32 87 33 29 34 30 35
REMARK SMILES IDX 31 36 81 37 32 38 86 39 80 40 82 41 33 42 85 43 79 44 78 45
REMARK SMILES IDX 34 47 66 48 46 49 65 50 47 51 50 52 64 53 83 54 48 55 49 56
REMARK SMILES IDX 63 58 84 59 51 60 35 61 36 62 44 63 37 64 38 65 42 66 45 67
REMARK SMILES IDX 39 68 40 69 43 70 41 71 67 72 68 73 76 74 69 75 70 76 74 77
REMARK SMILES IDX 77 78 71 79 72 80 75 81 73 82 52 83 53 84 61 85 54 86 55 87
REMARK SMILES IDX 59 88 62 89 56 90 57 91 60 92 58 93
REMARK H PARENT 3 14 13 15 82 46 50 57
REMARK Flexibility Score: inf
ROOT
ATOM      1  C   UNL A   1      31.721  28.790  25.908  1.00  0.00     0.274 C 
ENDROOT
BRANCH   1   2
ATOM      2  O   UNL A   1      31.760  29.050  24.493  1.00  0.00    -0.462 OA
BRANCH   2   3
ATOM      3  C   UNL A   1      30.566  29.179  23.859  1.00  0.00     0.312 C 
ATOM      4  O   UNL A   1      29.863  30.184  23.896  1.00  0.00    -0.252 OA
BRANCH   3   5
ATOM      5  C   UNL A   1      30.161  27.934  23.077  1.00  0.00     0.124 C 
ATOM      6  C   UNL A   1      30.972  25.664  22.589  1.00  0.00     0.107 C 
ATOM      7  C   UNL A   1      29.889  25.673  23.625  1.00  0.00    -0.006 C 
ATOM      8  C   UNL A   1      31.295  27.153  22.405  1.00  0.00     0.048 C 
ATOM      9  C   UNL A   1      29.471  26.908  23.919  1.00  0.00    -0.014 C 
BRANCH   6  10
ATOM     10  N   UNL A   1      32.073  24.909  23.122  1.00  0.00    -0.332 N 
ATOM     11  O   UNL A   1      33.272  24.800  21.187  1.00  0.00    -0.248 OA
ATOM     12  C   UNL A   1      33.143  24.522  22.376  1.00  0.00     0.319 C 
ATOM     13  N   UNL A   1      34.176  23.945  23.057  1.00  0.00    -0.303 N 
ATOM     14  H   UNL A   1      35.052  24.015  22.614  1.00  0.00     0.172 HD
ATOM     15  H   UNL A   1      32.052  24.659  24.074  1.00  0.00     0.165 HD
BRANCH  13  16
ATOM     16  C   UNL A   1      34.193  23.264  24.291  1.00  0.00     0.115 A 
ATOM     17  C   UNL A   1      33.744  21.950  24.471  1.00  0.00     0.152 A 
ATOM     18  C   UNL A   1      34.740  23.923  25.396  1.00  0.00     0.152 A 
ATOM     19  F   UNL A   1      33.282  21.231  23.438  1.00  0.00    -0.204 F 
ATOM     20  C   UNL A   1      33.796  21.330  25.715  1.00  0.00     0.081 A 
ATOM     21  C   UNL A   1      34.779  23.328  26.653  1.00  0.00     0.081 A 
ATOM     22  F   UNL A   1      35.197  25.178  25.262  1.00  0.00    -0.204 F 
ATOM     23  C   UNL A   1      34.303  22.032  26.799  1.00  0.00     0.129 A 
ATOM     24  F   UNL A   1      34.340  21.447  28.002  1.00  0.00    -0.207 F 
ENDBRANCH  13  16
ENDBRANCH   6  10
ENDBRANCH   3   5
ENDBRANCH   2   3
ENDBRANCH   1   2
BRANCH   1  25
ATOM     25  C   UNL A   1      31.863  30.095  26.696  1.00  0.00     0.275 C 
BRANCH  25  26
ATOM     26  O   UNL A   1      33.042  30.822  26.297  1.00  0.00    -0.458 OA
BRANCH  26  27
ATOM     27  C   UNL A   1      33.437  31.791  27.155  1.00  0.00     0.338 C 
ATOM     28  O   UNL A   1      32.834  32.803  27.461  1.00  0.00    -0.246 OA
BRANCH  27  29
ATOM     29  C   UNL A   1      34.700  31.400  27.796  1.00  0.00     0.060 A 
ATOM     30  C   UNL A   1      34.817  30.097  28.286  1.00  0.00     0.016 A 
ATOM     31  C   UNL A   1      35.720  32.330  27.999  1.00  0.00     0.016 A 
ATOM     32  C   UNL A   1      35.957  29.712  28.985  1.00  0.00     0.010 A 
ATOM     33  C   UNL A   1      36.866  31.943  28.701  1.00  0.00     0.010 A 
ATOM     34  C   UNL A   1      36.986  30.636  29.205  1.00  0.00    -0.014 A 
BRANCH  34  35
ATOM     35  C   UNL A   1      38.171  30.242  30.002  1.00  0.00     0.031 A 
ATOM     36  C   UNL A   1      39.203  29.332  29.406  1.00  0.00     0.074 A 
ATOM     37  C   UNL A   1      38.332  30.730  31.245  1.00  0.00     0.049 A 
ATOM     38  N   UNL A   1      40.252  28.790  29.968  1.00  0.00    -0.248 NA
ATOM     39  C   UNL A   1      39.036  28.990  27.984  1.00  0.00     0.031 C 
ATOM     40  C   UNL A   1      37.435  31.680  31.901  1.00  0.00     0.029 A 
ATOM     41  N   UNL A   1      39.311  30.493  32.177  1.00  0.00    -0.354 N 
ATOM     42  C   UNL A   1      40.864  28.036  28.977  1.00  0.00     0.074 A 
ATOM     43  C   UNL A   1      40.063  28.176  27.779  1.00  0.00     0.031 C 
ATOM     44  C   UNL A   1      37.911  31.955  33.126  1.00  0.00     0.029 A 
ATOM     45  C   UNL A   1      39.115  31.161  33.360  1.00  0.00     0.049 A 
ATOM     46  H   UNL A   1      40.082  29.902  32.012  1.00  0.00     0.167 HD
ATOM     47  C   UNL A   1      41.996  27.298  29.062  1.00  0.00     0.037 A 
ATOM     48  C   UNL A   1      39.812  31.113  34.511  1.00  0.00     0.037 A 
ATOM     49  C   UNL A   1      42.792  27.167  30.254  1.00  0.00     0.049 A 
ATOM     50  C   UNL A   1      41.012  30.212  34.607  1.00  0.00     0.074 A 
ATOM     51  C   UNL A   1      43.939  26.418  30.449  1.00  0.00     0.029 A 
ATOM     52  N   UNL A   1      42.527  27.812  31.454  1.00  0.00    -0.354 N 
ATOM     53  N   UNL A   1      41.555  29.459  33.683  1.00  0.00    -0.248 NA
ATOM     54  C   UNL A   1      41.686  30.140  35.912  1.00  0.00     0.031 C 
ATOM     55  C   UNL A   1      44.351  26.584  31.775  1.00  0.00     0.029 A 
ATOM     56  C   UNL A   1      43.482  27.467  32.396  1.00  0.00     0.049 A 
ATOM     57  H   UNL A   1      41.771  28.423  31.612  1.00  0.00     0.167 HD
ATOM     58  C   UNL A   1      42.641  28.838  34.284  1.00  0.00     0.074 A 
ATOM     59  C   UNL A   1      42.688  29.310  35.653  1.00  0.00     0.031 C 
ATOM     60  C   UNL A   1      43.518  27.955  33.749  1.00  0.00     0.037 A 
BRANCH  47  61
ATOM     61  C   UNL A   1      42.437  26.555  27.838  1.00  0.00     0.064 A 
ATOM     62  C   UNL A   1      41.976  25.253  27.594  1.00  0.00     0.173 A 
ATOM     63  C   UNL A   1      43.362  27.106  26.941  1.00  0.00     0.173 A 
ATOM     64  F   UNL A   1      41.092  24.680  28.426  1.00  0.00    -0.203 F 
ATOM     65  C   UNL A   1      42.437  24.525  26.501  1.00  0.00     0.198 A 
ATOM     66  C   UNL A   1      43.805  26.383  25.838  1.00  0.00     0.198 A 
ATOM     67  F   UNL A   1      43.823  28.353  27.127  1.00  0.00    -0.203 F 
ATOM     68  F   UNL A   1      42.003  23.272  26.301  1.00  0.00    -0.200 F 
ATOM     69  C   UNL A   1      43.349  25.090  25.623  1.00  0.00     0.200 A 
ATOM     70  F   UNL A   1      44.673  26.935  24.979  1.00  0.00    -0.200 F 
ATOM     71  F   UNL A   1      43.787  24.389  24.567  1.00  0.00    -0.200 F 
ENDBRANCH  47  61
BRANCH  48  72
ATOM     72  C   UNL A   1      39.381  31.937  35.668  1.00  0.00     0.064 A 
ATOM     73  C   UNL A   1      38.428  31.468  36.584  1.00  0.00     0.173 A 
ATOM     74  C   UNL A   1      39.908  33.220  35.872  1.00  0.00     0.173 A 
ATOM     75  F   UNL A   1      37.898  30.245  36.436  1.00  0.00    -0.203 F 
ATOM     76  C   UNL A   1      38.004  32.259  37.649  1.00  0.00     0.198 A 
ATOM     77  C   UNL A   1      39.500  34.000  36.952  1.00  0.00     0.198 A 
ATOM     78  F   UNL A   1      40.841  33.700  35.037  1.00  0.00    -0.203 F 
ATOM     79  F   UNL A   1      37.071  31.798  38.495  1.00  0.00    -0.200 F 
ATOM     80  C   UNL A   1      38.542  33.523  37.835  1.00  0.00     0.200 A 
ATOM     81  F   UNL A   1      40.042  35.211  37.142  1.00  0.00    -0.200 F 
ATOM     82  F   UNL A   1      38.144  34.279  38.866  1.00  0.00    -0.200 F 
ENDBRANCH  48  72
BRANCH  60  83
ATOM     83  C   UNL A   1      44.621  27.454  34.633  1.00  0.00     0.064 A 
ATOM     84  C   UNL A   1      44.387  26.403  35.532  1.00  0.00     0.173 A 
ATOM     85  C   UNL A   1      45.882  28.066  34.644  1.00  0.00     0.173 A 
ATOM     86  F   UNL A   1      43.193  25.792  35.563  1.00  0.00    -0.203 F 
ATOM     87  C   UNL A   1      45.375  25.991  36.422  1.00  0.00     0.198 A 
ATOM     88  C   UNL A   1      46.874  27.637  35.520  1.00  0.00     0.198 A 
ATOM     89  F   UNL A   1      46.154  29.066  33.793  1.00  0.00    -0.203 F 
ATOM     90  F   UNL A   1      45.122  25.004  37.292  1.00  0.00    -0.200 F 
ATOM     91  C   UNL A   1      46.618  26.607  36.414  1.00  0.00     0.200 A 
ATOM     92  F   UNL A   1      48.082  28.218  35.498  1.00  0.00    -0.200 F 
ATOM     93  F   UNL A   1      47.571  26.206  37.266  1.00  0.00    -0.200 F 
ENDBRANCH  60  83
ENDBRANCH  34  35
ENDBRANCH  27  29
ENDBRANCH  26  27
ENDBRANCH  25  26
ENDBRANCH   1  25
TORSDOF 13
ENDMDL
