MODEL 1
REMARK VINA RESULT:     -10.9      0.000      0.000
REMARK SMILES NC(=O)CC[C@H](C(=O)OCCOC(=O)c1ccc(-c2c3nc(c(-c4c(F)c(F)c(F)c(F)c4F)c4ccc([nH]4)c(-c4c(F)c(F)c(F)c(F)c4F)c4nc(c(-c5c(F)c(F)c(F)c(F)c5F)c5ccc2[nH]5)C=C4)C=C3)cc1)N1CCOC1=O
REMARK SMILES IDX 10 1 9 2 7 3 8 4 6 5 5 6 4 7 2 8 1 9 3 12 78 13 79 14 82 15
REMARK SMILES IDX 80 16 81 17 83 18 11 19 12 20 13 21 14 22 15 23 16 24 77 25
REMARK SMILES IDX 17 26 76 27 18 28 19 29 20 30 70 31 21 32 75 33 69 34 71 35
REMARK SMILES IDX 22 36 74 37 68 38 67 39 23 41 55 42 35 43 54 44 36 45 39 46
REMARK SMILES IDX 53 47 72 48 37 49 38 50 52 52 73 53 40 54 24 55 25 56 33 57
REMARK SMILES IDX 26 58 27 59 31 60 34 61 28 62 29 63 32 64 30 65 56 66 57 67
REMARK SMILES IDX 65 68 58 69 59 70 63 71 66 72 60 73 61 74 64 75 62 76 41 77
REMARK SMILES IDX 42 78 50 79 43 80 44 81 48 82 51 83 45 84 46 85 49 86 47 87
REMARK H PARENT 1 10 1 11 71 40 39 51
REMARK Flexibility Score: inf
ROOT
ATOM      1  C   UNL A   1      31.521  28.745  24.881  1.00  0.00     0.274 C 
ENDROOT
BRANCH   1   2
ATOM      2  O   UNL A   1      31.567  27.535  25.663  1.00  0.00    -0.461 OA
BRANCH   2   3
ATOM      3  C   UNL A   1      32.354  26.546  25.170  1.00  0.00     0.329 C 
ATOM      4  O   UNL A   1      33.518  26.709  24.815  1.00  0.00    -0.250 OA
BRANCH   3   5
ATOM      5  C   UNL A   1      31.607  25.221  24.930  1.00  0.00     0.199 C 
BRANCH   5   6
ATOM      6  C   UNL A   1      31.269  24.870  23.464  1.00  0.00     0.047 C 
BRANCH   6   7
ATOM      7  C   UNL A   1      32.403  24.603  22.480  1.00  0.00     0.102 C 
BRANCH   7   8
ATOM      8  C   UNL A   1      32.544  25.668  21.421  1.00  0.00     0.217 C 
ATOM      9  N   UNL A   1      31.760  26.765  21.595  1.00  0.00    -0.370 N 
ATOM     10  H   UNL A   1      31.796  27.503  20.945  1.00  0.00     0.159 HD
ATOM     11  H   UNL A   1      31.158  26.821  22.372  1.00  0.00     0.159 HD
ATOM     12  O   UNL A   1      33.277  25.563  20.446  1.00  0.00    -0.275 OA
ENDBRANCH   7   8
ENDBRANCH   6   7
ENDBRANCH   5   6
BRANCH   5  13
ATOM     13  N   UNL A   1      32.090  24.133  25.782  1.00  0.00    -0.291 N 
ATOM     14  C   UNL A   1      33.483  23.889  26.030  1.00  0.00     0.165 C 
ATOM     15  C   UNL A   1      31.361  23.695  26.872  1.00  0.00     0.410 C 
ATOM     16  C   UNL A   1      33.442  22.805  27.075  1.00  0.00     0.256 C 
ATOM     17  O   UNL A   1      32.156  22.936  27.685  1.00  0.00    -0.448 OA
ATOM     18  O   UNL A   1      30.203  23.973  27.122  1.00  0.00    -0.224 OA
ENDBRANCH   5  13
ENDBRANCH   3   5
ENDBRANCH   2   3
ENDBRANCH   1   2
BRANCH   1  19
ATOM     19  C   UNL A   1      31.736  29.991  25.744  1.00  0.00     0.275 C 
BRANCH  19  20
ATOM     20  O   UNL A   1      33.127  30.202  26.055  1.00  0.00    -0.458 OA
BRANCH  20  21
ATOM     21  C   UNL A   1      33.368  31.203  26.935  1.00  0.00     0.338 C 
ATOM     22  O   UNL A   1      32.617  32.113  27.241  1.00  0.00    -0.246 OA
BRANCH  21  23
ATOM     23  C   UNL A   1      34.640  30.961  27.630  1.00  0.00     0.060 A 
ATOM     24  C   UNL A   1      34.905  29.667  28.087  1.00  0.00     0.016 A 
ATOM     25  C   UNL A   1      35.521  32.001  27.909  1.00  0.00     0.016 A 
ATOM     26  C   UNL A   1      36.056  29.396  28.814  1.00  0.00     0.010 A 
ATOM     27  C   UNL A   1      36.688  31.728  28.630  1.00  0.00     0.010 A 
ATOM     28  C   UNL A   1      36.964  30.422  29.081  1.00  0.00    -0.014 A 
BRANCH  28  29
ATOM     29  C   UNL A   1      38.202  30.124  29.834  1.00  0.00     0.031 A 
ATOM     30  C   UNL A   1      39.220  29.185  29.265  1.00  0.00     0.074 A 
ATOM     31  C   UNL A   1      38.398  30.697  31.034  1.00  0.00     0.049 A 
ATOM     32  N   UNL A   1      40.289  28.683  29.826  1.00  0.00    -0.248 NA
ATOM     33  C   UNL A   1      38.998  28.745  27.880  1.00  0.00     0.031 C 
ATOM     34  C   UNL A   1      37.497  31.666  31.661  1.00  0.00     0.029 A 
ATOM     35  N   UNL A   1      39.405  30.534  31.950  1.00  0.00    -0.354 N 
ATOM     36  C   UNL A   1      40.854  27.845  28.875  1.00  0.00     0.074 A 
ATOM     37  C   UNL A   1      39.997  27.893  27.708  1.00  0.00     0.031 C 
ATOM     38  C   UNL A   1      37.981  31.996  32.866  1.00  0.00     0.029 A 
ATOM     39  C   UNL A   1      39.188  31.214  33.122  1.00  0.00     0.049 A 
ATOM     40  H   UNL A   1      40.205  29.984  31.783  1.00  0.00     0.167 HD
ATOM     41  C   UNL A   1      41.986  27.105  28.976  1.00  0.00     0.037 A 
ATOM     42  C   UNL A   1      39.852  31.170  34.291  1.00  0.00     0.037 A 
ATOM     43  C   UNL A   1      42.826  27.077  30.146  1.00  0.00     0.049 A 
ATOM     44  C   UNL A   1      41.061  30.285  34.408  1.00  0.00     0.074 A 
ATOM     45  C   UNL A   1      44.010  26.389  30.344  1.00  0.00     0.029 A 
ATOM     46  N   UNL A   1      42.560  27.760  31.326  1.00  0.00    -0.354 N 
ATOM     47  N   UNL A   1      41.600  29.500  33.507  1.00  0.00    -0.248 NA
ATOM     48  C   UNL A   1      41.752  30.275  35.704  1.00  0.00     0.031 C 
ATOM     49  C   UNL A   1      44.422  26.600  31.664  1.00  0.00     0.029 A 
ATOM     50  C   UNL A   1      43.535  27.474  32.271  1.00  0.00     0.049 A 
ATOM     51  H   UNL A   1      41.794  28.360  31.471  1.00  0.00     0.167 HD
ATOM     52  C   UNL A   1      42.696  28.909  34.119  1.00  0.00     0.074 A 
ATOM     53  C   UNL A   1      42.759  29.446  35.464  1.00  0.00     0.031 C 
ATOM     54  C   UNL A   1      43.570  28.004  33.613  1.00  0.00     0.037 A 
BRANCH  41  55
ATOM     55  C   UNL A   1      42.340  26.225  27.810  1.00  0.00     0.064 A 
ATOM     56  C   UNL A   1      41.757  24.963  27.620  1.00  0.00     0.173 A 
ATOM     57  C   UNL A   1      43.288  26.654  26.867  1.00  0.00     0.173 A 
ATOM     58  F   UNL A   1      40.853  24.498  28.495  1.00  0.00    -0.203 F 
ATOM     59  C   UNL A   1      42.143  24.146  26.560  1.00  0.00     0.198 A 
ATOM     60  C   UNL A   1      43.645  25.849  25.788  1.00  0.00     0.198 A 
ATOM     61  F   UNL A   1      43.874  27.854  26.994  1.00  0.00    -0.203 F 
ATOM     62  F   UNL A   1      41.624  22.916  26.439  1.00  0.00    -0.200 F 
ATOM     63  C   UNL A   1      43.084  24.591  25.643  1.00  0.00     0.200 A 
ATOM     64  F   UNL A   1      44.545  26.289  24.896  1.00  0.00    -0.200 F 
ATOM     65  F   UNL A   1      43.458  23.802  24.627  1.00  0.00    -0.200 F 
ENDBRANCH  41  55
BRANCH  42  66
ATOM     66  C   UNL A   1      39.346  31.956  35.445  1.00  0.00     0.064 A 
ATOM     67  C   UNL A   1      39.670  33.308  35.603  1.00  0.00     0.173 A 
ATOM     68  C   UNL A   1      38.488  31.374  36.393  1.00  0.00     0.173 A 
ATOM     69  F   UNL A   1      40.502  33.903  34.737  1.00  0.00    -0.203 F 
ATOM     70  C   UNL A   1      39.157  34.051  36.666  1.00  0.00     0.198 A 
ATOM     71  C   UNL A   1      37.952  32.125  37.437  1.00  0.00     0.198 A 
ATOM     72  F   UNL A   1      38.144  30.082  36.286  1.00  0.00    -0.203 F 
ATOM     73  F   UNL A   1      39.506  35.336  36.812  1.00  0.00    -0.200 F 
ATOM     74  C   UNL A   1      38.290  33.461  37.575  1.00  0.00     0.200 A 
ATOM     75  F   UNL A   1      37.099  31.555  38.300  1.00  0.00    -0.200 F 
ATOM     76  F   UNL A   1      37.782  34.182  38.584  1.00  0.00    -0.200 F 
ENDBRANCH  42  66
BRANCH  54  77
ATOM     77  C   UNL A   1      44.676  27.540  34.518  1.00  0.00     0.064 A 
ATOM     78  C   UNL A   1      44.546  26.389  35.309  1.00  0.00     0.173 A 
ATOM     79  C   UNL A   1      45.896  28.232  34.563  1.00  0.00     0.173 A 
ATOM     80  F   UNL A   1      43.393  25.702  35.315  1.00  0.00    -0.203 F 
ATOM     81  C   UNL A   1      45.588  25.960  36.126  1.00  0.00     0.198 A 
ATOM     82  C   UNL A   1      46.947  27.782  35.357  1.00  0.00     0.198 A 
ATOM     83  F   UNL A   1      46.076  29.338  33.825  1.00  0.00    -0.203 F 
ATOM     84  F   UNL A   1      45.423  24.885  36.910  1.00  0.00    -0.200 F 
ATOM     85  C   UNL A   1      46.790  26.651  36.143  1.00  0.00     0.200 A 
ATOM     86  F   UNL A   1      48.113  28.441  35.360  1.00  0.00    -0.200 F 
ATOM     87  F   UNL A   1      47.795  26.229  36.922  1.00  0.00    -0.200 F 
ENDBRANCH  54  77
ENDBRANCH  28  29
ENDBRANCH  21  23
ENDBRANCH  20  21
ENDBRANCH  19  20
ENDBRANCH   1  19
TORSDOF 15
ENDMDL
MODEL 2
REMARK VINA RESULT:     -10.8      4.407      9.700
REMARK SMILES NC(=O)CC[C@H](C(=O)OCCOC(=O)c1ccc(-c2c3nc(c(-c4c(F)c(F)c(F)c(F)c4F)c4ccc([nH]4)c(-c4c(F)c(F)c(F)c(F)c4F)c4nc(c(-c5c(F)c(F)c(F)c(F)c5F)c5ccc2[nH]5)C=C4)C=C3)cc1)N1CCOC1=O
REMARK SMILES IDX 10 1 9 2 7 3 8 4 6 5 5 6 4 7 2 8 1 9 3 12 78 13 79 14 82 15
REMARK SMILES IDX 80 16 81 17 83 18 11 19 12 20 13 21 14 22 15 23 16 24 77 25
REMARK SMILES IDX 17 26 76 27 18 28 19 29 20 30 70 31 21 32 75 33 69 34 71 35
REMARK SMILES IDX 22 36 74 37 68 38 67 39 23 41 55 42 35 43 54 44 36 45 39 46
REMARK SMILES IDX 53 47 72 48 37 49 38 50 52 52 73 53 40 54 24 55 25 56 33 57
REMARK SMILES IDX 26 58 27 59 31 60 34 61 28 62 29 63 32 64 30 65 56 66 57 67
REMARK SMILES IDX 65 68 58 69 59 70 63 71 66 72 60 73 61 74 64 75 62 76 41 77
REMARK SMILES IDX 42 78 50 79 43 80 44 81 48 82 51 83 45 84 46 85 49 86 47 87
REMARK H PARENT 1 10 1 11 71 40 39 51
REMARK Flexibility Score: inf
ROOT
ATOM      1  C   UNL A   1      35.115  21.108  24.882  1.00  0.00     0.274 C 
ENDROOT
BRANCH   1   2
ATOM      2  O   UNL A   1      34.934  22.536  24.794  1.00  0.00    -0.461 OA
BRANCH   2   3
ATOM      3  C   UNL A   1      34.845  23.040  23.538  1.00  0.00     0.329 C 
ATOM      4  O   UNL A   1      35.814  23.248  22.813  1.00  0.00    -0.250 OA
BRANCH   3   5
ATOM      5  C   UNL A   1      33.426  23.497  23.153  1.00  0.00     0.199 C 
BRANCH   5   6
ATOM      6  C   UNL A   1      32.253  22.637  23.677  1.00  0.00     0.047 C 
BRANCH   6   7
ATOM      7  C   UNL A   1      31.187  23.285  24.555  1.00  0.00     0.102 C 
BRANCH   7   8
ATOM      8  C   UNL A   1      31.165  22.750  25.965  1.00  0.00     0.217 C 
ATOM      9  N   UNL A   1      29.927  22.587  26.503  1.00  0.00    -0.370 N 
ATOM     10  H   UNL A   1      29.831  22.242  27.420  1.00  0.00     0.159 HD
ATOM     11  H   UNL A   1      29.127  22.814  25.976  1.00  0.00     0.159 HD
ATOM     12  O   UNL A   1      32.174  22.503  26.614  1.00  0.00    -0.275 OA
ENDBRANCH   7   8
ENDBRANCH   6   7
ENDBRANCH   5   6
BRANCH   5  13
ATOM     13  N   UNL A   1      33.262  24.951  23.205  1.00  0.00    -0.291 N 
ATOM     14  C   UNL A   1      33.687  25.750  24.320  1.00  0.00     0.165 C 
ATOM     15  C   UNL A   1      33.316  25.722  22.060  1.00  0.00     0.410 C 
ATOM     16  C   UNL A   1      33.463  27.153  23.820  1.00  0.00     0.256 C 
ATOM     17  O   UNL A   1      33.481  27.038  22.395  1.00  0.00    -0.448 OA
ATOM     18  O   UNL A   1      33.281  25.313  20.914  1.00  0.00    -0.224 OA
ENDBRANCH   5  13
ENDBRANCH   3   5
ENDBRANCH   2   3
ENDBRANCH   1   2
BRANCH   1  19
ATOM     19  C   UNL A   1      36.590  20.728  25.036  1.00  0.00     0.275 C 
BRANCH  19  20
ATOM     20  O   UNL A   1      37.337  21.732  25.751  1.00  0.00    -0.458 OA
BRANCH  20  21
ATOM     21  C   UNL A   1      38.622  21.401  26.019  1.00  0.00     0.338 C 
ATOM     22  O   UNL A   1      39.178  20.344  25.775  1.00  0.00    -0.246 OA
BRANCH  21  23
ATOM     23  C   UNL A   1      39.347  22.579  26.517  1.00  0.00     0.060 A 
ATOM     24  C   UNL A   1      39.004  23.830  26.000  1.00  0.00     0.016 A 
ATOM     25  C   UNL A   1      40.407  22.452  27.410  1.00  0.00     0.016 A 
ATOM     26  C   UNL A   1      39.703  24.968  26.377  1.00  0.00     0.010 A 
ATOM     27  C   UNL A   1      41.105  23.599  27.803  1.00  0.00     0.010 A 
ATOM     28  C   UNL A   1      40.753  24.863  27.293  1.00  0.00    -0.014 A 
BRANCH  28  29
ATOM     29  C   UNL A   1      41.480  26.081  27.713  1.00  0.00     0.031 A 
ATOM     30  C   UNL A   1      40.768  27.156  28.473  1.00  0.00     0.074 A 
ATOM     31  C   UNL A   1      42.779  26.215  27.397  1.00  0.00     0.049 A 
ATOM     32  N   UNL A   1      41.181  28.353  28.801  1.00  0.00    -0.248 NA
ATOM     33  C   UNL A   1      39.401  26.845  28.917  1.00  0.00     0.031 C 
ATOM     34  C   UNL A   1      43.584  25.209  26.704  1.00  0.00     0.029 A 
ATOM     35  N   UNL A   1      43.647  27.258  27.600  1.00  0.00    -0.354 N 
ATOM     36  C   UNL A   1      40.119  28.950  29.464  1.00  0.00     0.074 A 
ATOM     37  C   UNL A   1      39.035  27.989  29.475  1.00  0.00     0.031 C 
ATOM     38  C   UNL A   1      44.822  25.690  26.520  1.00  0.00     0.029 A 
ATOM     39  C   UNL A   1      44.877  27.060  27.024  1.00  0.00     0.049 A 
ATOM     40  H   UNL A   1      43.410  28.068  28.108  1.00  0.00     0.167 HD
ATOM     41  C   UNL A   1      40.061  30.189  30.010  1.00  0.00     0.037 A 
ATOM     42  C   UNL A   1      45.912  27.905  26.867  1.00  0.00     0.037 A 
ATOM     43  C   UNL A   1      41.155  31.127  29.992  1.00  0.00     0.049 A 
ATOM     44  C   UNL A   1      45.801  29.301  27.412  1.00  0.00     0.074 A 
ATOM     45  C   UNL A   1      41.215  32.395  30.542  1.00  0.00     0.029 A 
ATOM     46  N   UNL A   1      42.379  30.901  29.376  1.00  0.00    -0.354 N 
ATOM     47  N   UNL A   1      44.799  29.862  28.046  1.00  0.00    -0.248 NA
ATOM     48  C   UNL A   1      46.958  30.183  27.217  1.00  0.00     0.031 C 
ATOM     49  C   UNL A   1      42.448  32.962  30.200  1.00  0.00     0.029 A 
ATOM     50  C   UNL A   1      43.185  32.024  29.494  1.00  0.00     0.049 A 
ATOM     51  H   UNL A   1      42.638  30.067  28.922  1.00  0.00     0.167 HD
ATOM     52  C   UNL A   1      45.206  31.157  28.335  1.00  0.00     0.074 A 
ATOM     53  C   UNL A   1      46.556  31.290  27.826  1.00  0.00     0.031 C 
ATOM     54  C   UNL A   1      44.522  32.145  28.964  1.00  0.00     0.037 A 
BRANCH  41  55
ATOM     55  C   UNL A   1      38.753  30.615  30.618  1.00  0.00     0.064 A 
ATOM     56  C   UNL A   1      37.692  31.106  29.843  1.00  0.00     0.173 A 
ATOM     57  C   UNL A   1      38.564  30.534  32.007  1.00  0.00     0.173 A 
ATOM     58  F   UNL A   1      37.822  31.215  28.512  1.00  0.00    -0.203 F 
ATOM     59  C   UNL A   1      36.511  31.543  30.437  1.00  0.00     0.198 A 
ATOM     60  C   UNL A   1      37.368  30.938  32.594  1.00  0.00     0.198 A 
ATOM     61  F   UNL A   1      39.541  30.066  32.798  1.00  0.00    -0.203 F 
ATOM     62  F   UNL A   1      35.538  32.074  29.682  1.00  0.00    -0.200 F 
ATOM     63  C   UNL A   1      36.348  31.455  31.811  1.00  0.00     0.200 A 
ATOM     64  F   UNL A   1      37.209  30.838  33.922  1.00  0.00    -0.200 F 
ATOM     65  F   UNL A   1      35.213  31.881  32.383  1.00  0.00    -0.200 F 
ENDBRANCH  41  55
BRANCH  42  66
ATOM     66  C   UNL A   1      47.112  27.453  26.118  1.00  0.00     0.064 A 
ATOM     67  C   UNL A   1      47.194  27.587  24.727  1.00  0.00     0.173 A 
ATOM     68  C   UNL A   1      48.222  26.916  26.790  1.00  0.00     0.173 A 
ATOM     69  F   UNL A   1      46.152  28.074  24.038  1.00  0.00    -0.203 F 
ATOM     70  C   UNL A   1      48.340  27.199  24.034  1.00  0.00     0.198 A 
ATOM     71  C   UNL A   1      49.378  26.558  26.100  1.00  0.00     0.198 A 
ATOM     72  F   UNL A   1      48.195  26.769  28.123  1.00  0.00    -0.203 F 
ATOM     73  F   UNL A   1      48.384  27.310  22.699  1.00  0.00    -0.200 F 
ATOM     74  C   UNL A   1      49.435  26.696  24.723  1.00  0.00     0.200 A 
ATOM     75  F   UNL A   1      50.439  26.091  26.773  1.00  0.00    -0.200 F 
ATOM     76  F   UNL A   1      50.543  26.343  24.057  1.00  0.00    -0.200 F 
ENDBRANCH  42  66
BRANCH  54  77
ATOM     77  C   UNL A   1      45.228  33.459  29.142  1.00  0.00     0.064 A 
ATOM     78  C   UNL A   1      45.110  34.492  28.200  1.00  0.00     0.173 A 
ATOM     79  C   UNL A   1      45.998  33.704  30.290  1.00  0.00     0.173 A 
ATOM     80  F   UNL A   1      44.401  34.302  27.077  1.00  0.00    -0.203 F 
ATOM     81  C   UNL A   1      45.753  35.712  28.391  1.00  0.00     0.198 A 
ATOM     82  C   UNL A   1      46.612  34.936  30.493  1.00  0.00     0.198 A 
ATOM     83  F   UNL A   1      46.141  32.752  31.225  1.00  0.00    -0.203 F 
ATOM     84  F   UNL A   1      45.665  36.666  27.453  1.00  0.00    -0.200 F 
ATOM     85  C   UNL A   1      46.496  35.936  29.540  1.00  0.00     0.200 A 
ATOM     86  F   UNL A   1      47.316  35.157  31.611  1.00  0.00    -0.200 F 
ATOM     87  F   UNL A   1      47.104  37.116  29.726  1.00  0.00    -0.200 F 
ENDBRANCH  54  77
ENDBRANCH  28  29
ENDBRANCH  21  23
ENDBRANCH  20  21
ENDBRANCH  19  20
ENDBRANCH   1  19
TORSDOF 15
ENDMDL
MODEL 3
REMARK VINA RESULT:     -10.8      0.538      1.764
REMARK SMILES NC(=O)CC[C@H](C(=O)OCCOC(=O)c1ccc(-c2c3nc(c(-c4c(F)c(F)c(F)c(F)c4F)c4ccc([nH]4)c(-c4c(F)c(F)c(F)c(F)c4F)c4nc(c(-c5c(F)c(F)c(F)c(F)c5F)c5ccc2[nH]5)C=C4)C=C3)cc1)N1CCOC1=O
REMARK SMILES IDX 10 1 9 2 7 3 8 4 6 5 5 6 4 7 2 8 1 9 3 12 78 13 79 14 82 15
REMARK SMILES IDX 80 16 81 17 83 18 11 19 12 20 13 21 14 22 15 23 16 24 77 25
REMARK SMILES IDX 17 26 76 27 18 28 19 29 20 30 70 31 21 32 75 33 69 34 71 35
REMARK SMILES IDX 22 36 74 37 68 38 67 39 23 41 55 42 35 43 54 44 36 45 39 46
REMARK SMILES IDX 53 47 72 48 37 49 38 50 52 52 73 53 40 54 24 55 25 56 33 57
REMARK SMILES IDX 26 58 27 59 31 60 34 61 28 62 29 63 32 64 30 65 56 66 57 67
REMARK SMILES IDX 65 68 58 69 59 70 63 71 66 72 60 73 61 74 64 75 62 76 41 77
REMARK SMILES IDX 42 78 50 79 43 80 44 81 48 82 51 83 45 84 46 85 49 86 47 87
REMARK H PARENT 1 10 1 11 71 40 39 51
REMARK Flexibility Score: inf
ROOT
ATOM      1  C   UNL A   1      33.388  28.205  25.639  1.00  0.00     0.274 C 
ENDROOT
BRANCH   1   2
ATOM      2  O   UNL A   1      32.344  27.452  24.990  1.00  0.00    -0.461 OA
BRANCH   2   3
ATOM      3  C   UNL A   1      31.475  26.820  25.817  1.00  0.00     0.329 C 
ATOM      4  O   UNL A   1      31.185  27.219  26.942  1.00  0.00    -0.250 OA
BRANCH   3   5
ATOM      5  C   UNL A   1      31.002  25.452  25.291  1.00  0.00     0.199 C 
BRANCH   5   6
ATOM      6  C   UNL A   1      30.726  25.349  23.775  1.00  0.00     0.047 C 
BRANCH   6   7
ATOM      7  C   UNL A   1      31.799  24.767  22.859  1.00  0.00     0.102 C 
BRANCH   7   8
ATOM      8  C   UNL A   1      32.503  25.807  22.023  1.00  0.00     0.217 C 
ATOM      9  N   UNL A   1      31.871  27.008  21.939  1.00  0.00    -0.370 N 
ATOM     10  H   UNL A   1      32.268  27.737  21.411  1.00  0.00     0.159 HD
ATOM     11  H   UNL A   1      31.016  27.147  22.407  1.00  0.00     0.159 HD
ATOM     12  O   UNL A   1      33.552  25.601  21.424  1.00  0.00    -0.275 OA
ENDBRANCH   7   8
ENDBRANCH   6   7
ENDBRANCH   5   6
BRANCH   5  13
ATOM     13  N   UNL A   1      31.700  24.329  25.921  1.00  0.00    -0.291 N 
ATOM     14  C   UNL A   1      33.124  24.290  26.100  1.00  0.00     0.165 C 
ATOM     15  C   UNL A   1      31.106  23.584  26.921  1.00  0.00     0.410 C 
ATOM     16  C   UNL A   1      33.314  23.046  26.927  1.00  0.00     0.256 C 
ATOM     17  O   UNL A   1      32.053  22.840  27.569  1.00  0.00    -0.448 OA
ATOM     18  O   UNL A   1      29.930  23.607  27.235  1.00  0.00    -0.224 OA
ENDBRANCH   5  13
ENDBRANCH   3   5
ENDBRANCH   2   3
ENDBRANCH   1   2
BRANCH   1  19
ATOM     19  C   UNL A   1      33.078  29.704  25.666  1.00  0.00     0.275 C 
BRANCH  19  20
ATOM     20  O   UNL A   1      32.851  30.188  27.004  1.00  0.00    -0.458 OA
BRANCH  20  21
ATOM     21  C   UNL A   1      33.468  31.356  27.300  1.00  0.00     0.338 C 
ATOM     22  O   UNL A   1      33.007  32.480  27.195  1.00  0.00    -0.246 OA
BRANCH  21  23
ATOM     23  C   UNL A   1      34.761  31.088  27.944  1.00  0.00     0.060 A 
ATOM     24  C   UNL A   1      34.936  29.859  28.585  1.00  0.00     0.016 A 
ATOM     25  C   UNL A   1      35.757  32.058  27.998  1.00  0.00     0.016 A 
ATOM     26  C   UNL A   1      36.108  29.580  29.273  1.00  0.00     0.010 A 
ATOM     27  C   UNL A   1      36.946  31.775  28.679  1.00  0.00     0.010 A 
ATOM     28  C   UNL A   1      37.129  30.532  29.315  1.00  0.00    -0.014 A 
BRANCH  28  29
ATOM     29  C   UNL A   1      38.388  30.222  30.027  1.00  0.00     0.031 A 
ATOM     30  C   UNL A   1      39.369  29.259  29.434  1.00  0.00     0.074 A 
ATOM     31  C   UNL A   1      38.636  30.804  31.213  1.00  0.00     0.049 A 
ATOM     32  N   UNL A   1      40.449  28.745  29.962  1.00  0.00    -0.248 NA
ATOM     33  C   UNL A   1      39.091  28.807  28.062  1.00  0.00     0.031 C 
ATOM     34  C   UNL A   1      37.773  31.795  31.860  1.00  0.00     0.029 A 
ATOM     35  N   UNL A   1      39.672  30.635  32.095  1.00  0.00    -0.354 N 
ATOM     36  C   UNL A   1      40.967  27.888  29.002  1.00  0.00     0.074 A 
ATOM     37  C   UNL A   1      40.070  27.937  27.866  1.00  0.00     0.031 C 
ATOM     38  C   UNL A   1      38.305  32.130  33.044  1.00  0.00     0.029 A 
ATOM     39  C   UNL A   1      39.507  31.331  33.266  1.00  0.00     0.049 A 
ATOM     40  H   UNL A   1      40.456  30.069  31.907  1.00  0.00     0.167 HD
ATOM     41  C   UNL A   1      42.089  27.130  29.072  1.00  0.00     0.037 A 
ATOM     42  C   UNL A   1      40.212  31.289  34.411  1.00  0.00     0.037 A 
ATOM     43  C   UNL A   1      42.969  27.101  30.212  1.00  0.00     0.049 A 
ATOM     44  C   UNL A   1      41.410  30.385  34.496  1.00  0.00     0.074 A 
ATOM     45  C   UNL A   1      44.148  26.395  30.376  1.00  0.00     0.029 A 
ATOM     46  N   UNL A   1      42.757  27.801  31.393  1.00  0.00    -0.354 N 
ATOM     47  N   UNL A   1      41.903  29.581  33.585  1.00  0.00    -0.248 NA
ATOM     48  C   UNL A   1      42.145  30.378  35.767  1.00  0.00     0.031 C 
ATOM     49  C   UNL A   1      44.611  26.613  31.678  1.00  0.00     0.029 A 
ATOM     50  C   UNL A   1      43.759  27.509  32.306  1.00  0.00     0.049 A 
ATOM     51  H   UNL A   1      42.006  28.416  31.558  1.00  0.00     0.167 HD
ATOM     52  C   UNL A   1      43.010  28.979  34.166  1.00  0.00     0.074 A 
ATOM     53  C   UNL A   1      43.129  29.529  35.501  1.00  0.00     0.031 C 
ATOM     54  C   UNL A   1      43.851  28.053  33.639  1.00  0.00     0.037 A 
BRANCH  41  55
ATOM     55  C   UNL A   1      42.387  26.232  27.904  1.00  0.00     0.064 A 
ATOM     56  C   UNL A   1      43.317  26.577  26.912  1.00  0.00     0.173 A 
ATOM     57  C   UNL A   1      41.722  25.002  27.775  1.00  0.00     0.173 A 
ATOM     58  F   UNL A   1      43.975  27.745  26.979  1.00  0.00    -0.203 F 
ATOM     59  C   UNL A   1      43.535  25.750  25.813  1.00  0.00     0.198 A 
ATOM     60  C   UNL A   1      41.969  24.161  26.693  1.00  0.00     0.198 A 
ATOM     61  F   UNL A   1      40.827  24.616  28.696  1.00  0.00    -0.203 F 
ATOM     62  F   UNL A   1      44.377  26.134  24.842  1.00  0.00    -0.200 F 
ATOM     63  C   UNL A   1      42.865  24.541  25.706  1.00  0.00     0.200 A 
ATOM     64  F   UNL A   1      41.329  22.986  26.600  1.00  0.00    -0.200 F 
ATOM     65  F   UNL A   1      43.071  23.749  24.646  1.00  0.00    -0.200 F 
ENDBRANCH  41  55
BRANCH  42  66
ATOM     66  C   UNL A   1      39.759  32.095  35.573  1.00  0.00     0.064 A 
ATOM     67  C   UNL A   1      40.259  33.382  35.804  1.00  0.00     0.173 A 
ATOM     68  C   UNL A   1      38.780  31.606  36.454  1.00  0.00     0.173 A 
ATOM     69  F   UNL A   1      41.210  33.885  35.005  1.00  0.00    -0.203 F 
ATOM     70  C   UNL A   1      39.799  34.150  36.873  1.00  0.00     0.198 A 
ATOM     71  C   UNL A   1      38.300  32.386  37.503  1.00  0.00     0.198 A 
ATOM     72  F   UNL A   1      38.267  30.380  36.275  1.00  0.00    -0.203 F 
ATOM     73  F   UNL A   1      40.315  35.368  37.091  1.00  0.00    -0.200 F 
ATOM     74  C   UNL A   1      38.812  33.656  37.714  1.00  0.00     0.200 A 
ATOM     75  F   UNL A   1      37.333  31.911  38.300  1.00  0.00    -0.200 F 
ATOM     76  F   UNL A   1      38.357  34.404  38.729  1.00  0.00    -0.200 F 
ENDBRANCH  42  66
BRANCH  54  77
ATOM     77  C   UNL A   1      44.980  27.581  34.511  1.00  0.00     0.064 A 
ATOM     78  C   UNL A   1      46.208  28.259  34.556  1.00  0.00     0.173 A 
ATOM     79  C   UNL A   1      44.818  26.463  35.342  1.00  0.00     0.173 A 
ATOM     80  F   UNL A   1      46.420  29.324  33.768  1.00  0.00    -0.203 F 
ATOM     81  C   UNL A   1      47.237  27.823  35.386  1.00  0.00     0.198 A 
ATOM     82  C   UNL A   1      45.838  26.048  36.195  1.00  0.00     0.198 A 
ATOM     83  F   UNL A   1      43.663  25.780  35.341  1.00  0.00    -0.203 F 
ATOM     84  F   UNL A   1      48.418  28.457  35.376  1.00  0.00    -0.200 F 
ATOM     85  C   UNL A   1      47.049  26.723  36.210  1.00  0.00     0.200 A 
ATOM     86  F   UNL A   1      45.648  24.996  37.002  1.00  0.00    -0.200 F 
ATOM     87  F   UNL A   1      48.037  26.312  37.016  1.00  0.00    -0.200 F 
ENDBRANCH  54  77
ENDBRANCH  28  29
ENDBRANCH  21  23
ENDBRANCH  20  21
ENDBRANCH  19  20
ENDBRANCH   1  19
TORSDOF 15
ENDMDL
