MODEL 1
REMARK VINA RESULT:      -9.7      0.000      0.000
REMARK SMILES CC/C=C/C/C=C/C/C=C/C/C=C/CC/C=C/COCC(=O)OCCOC(=O)c1ccc(-c2c3nc(c(-c4c(F)c(F)c(F)c(F)c4F)c4ccc([nH]4)c(-c4c(F)c(F)c(F)c(F)c4F)c4nc(c(-c5c(F)c(F)c(F)c(F)c5F)c5ccc2[nH]5)C=C4)C=C3)cc1
REMARK SMILES IDX 18 1 17 2 16 3 15 4 14 5 13 6 12 7 11 8 10 9 9 10 8 11 7 12
REMARK SMILES IDX 6 13 5 14 4 15 3 16 2 17 1 18 19 19 20 20 21 21 22 22 23 23
REMARK SMILES IDX 24 24 25 25 26 26 27 27 28 28 29 29 30 30 91 31 31 32 90 33
REMARK SMILES IDX 32 34 33 35 34 36 84 37 35 38 89 39 83 40 85 41 36 42 88 43
REMARK SMILES IDX 82 44 81 45 37 47 69 48 49 49 68 50 50 51 53 52 67 53 86 54
REMARK SMILES IDX 51 55 52 56 66 58 87 59 54 60 38 61 39 62 47 63 40 64 41 65
REMARK SMILES IDX 45 66 48 67 42 68 43 69 46 70 44 71 70 72 71 73 79 74 72 75
REMARK SMILES IDX 73 76 77 77 80 78 74 79 75 80 78 81 76 82 55 83 56 84 64 85
REMARK SMILES IDX 57 86 58 87 62 88 65 89 59 90 60 91 63 92 61 93
REMARK H PARENT 85 46 53 57
REMARK Flexibility Score: inf
ROOT
ATOM      1  C   UNL A   1      42.099  22.703  27.151  1.00  0.00     0.188 C 
ENDROOT
BRANCH   1   2
ATOM      2  C   UNL A   1      40.604  22.755  26.973  1.00  0.00    -0.003 C 
ATOM      3  C   UNL A   1      39.983  23.923  26.769  1.00  0.00    -0.029 C 
BRANCH   3   4
ATOM      4  C   UNL A   1      38.522  24.254  26.937  1.00  0.00     0.031 C 
BRANCH   4   5
ATOM      5  C   UNL A   1      37.475  23.711  25.845  1.00  0.00     0.031 C 
BRANCH   5   6
ATOM      6  C   UNL A   1      35.990  24.178  25.654  1.00  0.00    -0.031 C 
ATOM      7  C   UNL A   1      35.176  24.098  24.562  1.00  0.00    -0.027 C 
BRANCH   7   8
ATOM      8  C   UNL A   1      33.753  24.610  24.299  1.00  0.00     0.054 C 
BRANCH   8   9
ATOM      9  C   UNL A   1      33.456  26.081  24.647  1.00  0.00    -0.027 C 
ATOM     10  C   UNL A   1      33.549  27.206  23.892  1.00  0.00    -0.027 C 
BRANCH  10  11
ATOM     11  C   UNL A   1      33.038  28.588  24.323  1.00  0.00     0.054 C 
BRANCH  11  12
ATOM     12  C   UNL A   1      31.639  28.952  23.847  1.00  0.00    -0.027 C 
ATOM     13  C   UNL A   1      30.680  28.055  23.523  1.00  0.00    -0.027 C 
BRANCH  13  14
ATOM     14  C   UNL A   1      29.253  28.376  23.124  1.00  0.00     0.054 C 
BRANCH  14  15
ATOM     15  C   UNL A   1      29.089  29.831  22.766  1.00  0.00    -0.027 C 
ATOM     16  C   UNL A   1      28.200  30.334  21.888  1.00  0.00    -0.031 C 
BRANCH  16  17
ATOM     17  C   UNL A   1      28.070  31.807  21.591  1.00  0.00     0.023 C 
ATOM     18  C   UNL A   1      28.778  32.668  22.628  1.00  0.00     0.008 C 
ENDBRANCH  16  17
ENDBRANCH  14  15
ENDBRANCH  13  14
ENDBRANCH  11  12
ENDBRANCH  10  11
ENDBRANCH   8   9
ENDBRANCH   7   8
ENDBRANCH   5   6
ENDBRANCH   4   5
ENDBRANCH   3   4
ENDBRANCH   1   2
BRANCH   1  19
ATOM     19  O   UNL A   1      42.593  21.391  26.863  1.00  0.00    -0.366 OA
BRANCH  19  20
ATOM     20  C   UNL A   1      41.743  20.316  27.235  1.00  0.00     0.283 C 
BRANCH  20  21
ATOM     21  C   UNL A   1      41.098  19.399  26.193  1.00  0.00     0.332 C 
ATOM     22  O   UNL A   1      39.973  19.582  25.749  1.00  0.00    -0.250 OA
BRANCH  21  23
ATOM     23  O   UNL A   1      41.967  18.448  25.753  1.00  0.00    -0.460 OA
BRANCH  23  24
ATOM     24  C   UNL A   1      43.008  18.065  26.678  1.00  0.00     0.274 C 
BRANCH  24  25
ATOM     25  C   UNL A   1      44.377  18.082  25.989  1.00  0.00     0.275 C 
BRANCH  25  26
ATOM     26  O   UNL A   1      44.208  18.352  24.581  1.00  0.00    -0.458 OA
BRANCH  26  27
ATOM     27  C   UNL A   1      45.203  19.009  23.929  1.00  0.00     0.338 C 
ATOM     28  O   UNL A   1      46.025  18.497  23.166  1.00  0.00    -0.246 OA
BRANCH  27  29
ATOM     29  C   UNL A   1      45.161  20.467  24.255  1.00  0.00     0.060 A 
ATOM     30  C   UNL A   1      45.817  20.913  25.381  1.00  0.00     0.016 A 
ATOM     31  C   UNL A   1      44.471  21.437  23.526  1.00  0.00     0.016 A 
ATOM     32  C   UNL A   1      45.811  22.275  25.754  1.00  0.00     0.010 A 
ATOM     33  C   UNL A   1      44.531  22.824  23.896  1.00  0.00     0.010 A 
ATOM     34  C   UNL A   1      45.246  23.289  25.025  1.00  0.00    -0.014 A 
BRANCH  34  35
ATOM     35  C   UNL A   1      45.347  24.744  25.480  1.00  0.00     0.031 A 
ATOM     36  C   UNL A   1      46.678  25.388  25.320  1.00  0.00     0.074 A 
ATOM     37  C   UNL A   1      44.406  25.697  25.756  1.00  0.00     0.049 A 
ATOM     38  N   UNL A   1      47.171  26.440  25.907  1.00  0.00    -0.248 NA
ATOM     39  C   UNL A   1      47.518  24.805  24.265  1.00  0.00     0.031 C 
ATOM     40  C   UNL A   1      43.023  25.744  25.346  1.00  0.00     0.029 A 
ATOM     41  N   UNL A   1      44.485  26.860  26.521  1.00  0.00    -0.354 N 
ATOM     42  C   UNL A   1      48.393  26.642  25.305  1.00  0.00     0.074 A 
ATOM     43  C   UNL A   1      48.589  25.574  24.345  1.00  0.00     0.031 C 
ATOM     44  C   UNL A   1      42.324  26.659  26.033  1.00  0.00     0.029 A 
ATOM     45  C   UNL A   1      43.246  27.364  26.892  1.00  0.00     0.049 A 
ATOM     46  H   UNL A   1      45.337  27.282  26.775  1.00  0.00     0.167 HD
ATOM     47  C   UNL A   1      49.261  27.652  25.514  1.00  0.00     0.037 A 
ATOM     48  C   UNL A   1      42.864  28.287  27.798  1.00  0.00     0.037 A 
ATOM     49  C   UNL A   1      49.046  28.766  26.393  1.00  0.00     0.049 A 
ATOM     50  C   UNL A   1      43.922  29.169  28.374  1.00  0.00     0.074 A 
ATOM     51  C   UNL A   1      49.949  29.746  26.760  1.00  0.00     0.029 A 
ATOM     52  N   UNL A   1      47.843  29.077  27.009  1.00  0.00    -0.354 N 
ATOM     53  N   UNL A   1      45.181  29.222  28.034  1.00  0.00    -0.248 NA
ATOM     54  C   UNL A   1      43.520  30.171  29.372  1.00  0.00     0.031 C 
ATOM     55  C   UNL A   1      49.308  30.628  27.635  1.00  0.00     0.029 A 
ATOM     56  C   UNL A   1      47.994  30.220  27.784  1.00  0.00     0.049 A 
ATOM     57  H   UNL A   1      47.008  28.566  26.913  1.00  0.00     0.167 HD
ATOM     58  C   UNL A   1      45.701  30.321  28.687  1.00  0.00     0.074 A 
ATOM     59  C   UNL A   1      44.632  30.885  29.486  1.00  0.00     0.031 C 
ATOM     60  C   UNL A   1      46.951  30.822  28.576  1.00  0.00     0.037 A 
BRANCH  47  61
ATOM     61  C   UNL A   1      50.575  27.495  24.839  1.00  0.00     0.064 A 
ATOM     62  C   UNL A   1      50.758  27.790  23.482  1.00  0.00     0.173 A 
ATOM     63  C   UNL A   1      51.641  26.943  25.561  1.00  0.00     0.173 A 
ATOM     64  F   UNL A   1      49.738  28.254  22.746  1.00  0.00    -0.203 F 
ATOM     65  C   UNL A   1      51.972  27.516  22.863  1.00  0.00     0.198 A 
ATOM     66  C   UNL A   1      52.859  26.697  24.945  1.00  0.00     0.198 A 
ATOM     67  F   UNL A   1      51.485  26.614  26.852  1.00  0.00    -0.203 F 
ATOM     68  F   UNL A   1      52.115  27.732  21.548  1.00  0.00    -0.200 F 
ATOM     69  C   UNL A   1      53.022  26.977  23.596  1.00  0.00     0.200 A 
ATOM     70  F   UNL A   1      53.867  26.168  25.651  1.00  0.00    -0.200 F 
ATOM     71  F   UNL A   1      54.187  26.704  22.995  1.00  0.00    -0.200 F 
ENDBRANCH  47  61
BRANCH  48  72
ATOM     72  C   UNL A   1      41.438  28.455  28.213  1.00  0.00     0.064 A 
ATOM     73  C   UNL A   1      40.934  27.906  29.401  1.00  0.00     0.173 A 
ATOM     74  C   UNL A   1      40.519  29.075  27.350  1.00  0.00     0.173 A 
ATOM     75  F   UNL A   1      41.758  27.268  30.245  1.00  0.00    -0.203 F 
ATOM     76  C   UNL A   1      39.569  27.947  29.698  1.00  0.00     0.198 A 
ATOM     77  C   UNL A   1      39.157  29.129  27.654  1.00  0.00     0.198 A 
ATOM     78  F   UNL A   1      40.935  29.594  26.186  1.00  0.00    -0.203 F 
ATOM     79  F   UNL A   1      39.109  27.360  30.811  1.00  0.00    -0.200 F 
ATOM     80  C   UNL A   1      38.681  28.556  28.824  1.00  0.00     0.200 A 
ATOM     81  F   UNL A   1      38.301  29.706  26.799  1.00  0.00    -0.200 F 
ATOM     82  F   UNL A   1      37.369  28.571  29.097  1.00  0.00    -0.200 F 
ENDBRANCH  48  72
BRANCH  60  83
ATOM     83  C   UNL A   1      47.245  32.100  29.294  1.00  0.00     0.064 A 
ATOM     84  C   UNL A   1      47.027  33.348  28.697  1.00  0.00     0.173 A 
ATOM     85  C   UNL A   1      47.722  32.073  30.613  1.00  0.00     0.173 A 
ATOM     86  F   UNL A   1      46.596  33.423  27.429  1.00  0.00    -0.203 F 
ATOM     87  C   UNL A   1      47.290  34.526  29.390  1.00  0.00     0.198 A 
ATOM     88  C   UNL A   1      47.957  33.252  31.313  1.00  0.00     0.198 A 
ATOM     89  F   UNL A   1      47.953  30.902  31.227  1.00  0.00    -0.203 F 
ATOM     90  F   UNL A   1      47.114  35.709  28.786  1.00  0.00    -0.200 F 
ATOM     91  C   UNL A   1      47.745  34.477  30.699  1.00  0.00     0.200 A 
ATOM     92  F   UNL A   1      48.388  33.203  32.581  1.00  0.00    -0.200 F 
ATOM     93  F   UNL A   1      47.986  35.613  31.369  1.00  0.00    -0.200 F 
ENDBRANCH  60  83
ENDBRANCH  34  35
ENDBRANCH  27  29
ENDBRANCH  26  27
ENDBRANCH  25  26
ENDBRANCH  24  25
ENDBRANCH  23  24
ENDBRANCH  21  23
ENDBRANCH  20  21
ENDBRANCH  19  20
ENDBRANCH   1  19
TORSDOF 24
ENDMDL
MODEL 2
REMARK VINA RESULT:      -9.5      1.393      2.302
REMARK SMILES CC/C=C/C/C=C/C/C=C/C/C=C/CC/C=C/COCC(=O)OCCOC(=O)c1ccc(-c2c3nc(c(-c4c(F)c(F)c(F)c(F)c4F)c4ccc([nH]4)c(-c4c(F)c(F)c(F)c(F)c4F)c4nc(c(-c5c(F)c(F)c(F)c(F)c5F)c5ccc2[nH]5)C=C4)C=C3)cc1
REMARK SMILES IDX 18 1 17 2 16 3 15 4 14 5 13 6 12 7 11 8 10 9 9 10 8 11 7 12
REMARK SMILES IDX 6 13 5 14 4 15 3 16 2 17 1 18 19 19 20 20 21 21 22 22 23 23
REMARK SMILES IDX 24 24 25 25 26 26 27 27 28 28 29 29 30 30 91 31 31 32 90 33
REMARK SMILES IDX 32 34 33 35 34 36 84 37 35 38 89 39 83 40 85 41 36 42 88 43
REMARK SMILES IDX 82 44 81 45 37 47 69 48 49 49 68 50 50 51 53 52 67 53 86 54
REMARK SMILES IDX 51 55 52 56 66 58 87 59 54 60 38 61 39 62 47 63 40 64 41 65
REMARK SMILES IDX 45 66 48 67 42 68 43 69 46 70 44 71 70 72 71 73 79 74 72 75
REMARK SMILES IDX 73 76 77 77 80 78 74 79 75 80 78 81 76 82 55 83 56 84 64 85
REMARK SMILES IDX 57 86 58 87 62 88 65 89 59 90 60 91 63 92 61 93
REMARK H PARENT 85 46 53 57
REMARK Flexibility Score: inf
ROOT
ATOM      1  C   UNL A   1      41.606  22.825  27.753  1.00  0.00     0.188 C 
ENDROOT
BRANCH   1   2
ATOM      2  C   UNL A   1      40.582  23.242  26.728  1.00  0.00    -0.003 C 
ATOM      3  C   UNL A   1      39.412  23.769  27.111  1.00  0.00    -0.029 C 
BRANCH   3   4
ATOM      4  C   UNL A   1      38.136  23.901  26.320  1.00  0.00     0.031 C 
BRANCH   4   5
ATOM      5  C   UNL A   1      37.398  22.565  25.813  1.00  0.00     0.031 C 
BRANCH   5   6
ATOM      6  C   UNL A   1      36.188  22.481  24.820  1.00  0.00    -0.031 C 
ATOM      7  C   UNL A   1      35.947  23.169  23.666  1.00  0.00    -0.027 C 
BRANCH   7   8
ATOM      8  C   UNL A   1      34.749  23.184  22.707  1.00  0.00     0.054 C 
BRANCH   8   9
ATOM      9  C   UNL A   1      33.712  24.309  22.890  1.00  0.00    -0.027 C 
ATOM     10  C   UNL A   1      32.527  24.531  22.264  1.00  0.00    -0.027 C 
BRANCH  10  11
ATOM     11  C   UNL A   1      31.507  25.599  22.686  1.00  0.00     0.054 C 
BRANCH  11  12
ATOM     12  C   UNL A   1      32.082  26.819  23.391  1.00  0.00    -0.027 C 
ATOM     13  C   UNL A   1      32.999  27.656  22.855  1.00  0.00    -0.027 C 
BRANCH  13  14
ATOM     14  C   UNL A   1      33.534  28.923  23.492  1.00  0.00     0.054 C 
BRANCH  14  15
ATOM     15  C   UNL A   1      33.289  28.945  24.979  1.00  0.00    -0.027 C 
ATOM     16  C   UNL A   1      32.445  29.768  25.631  1.00  0.00    -0.031 C 
BRANCH  16  17
ATOM     17  C   UNL A   1      32.228  29.722  27.122  1.00  0.00     0.023 C 
ATOM     18  C   UNL A   1      31.586  28.416  27.570  1.00  0.00     0.008 C 
ENDBRANCH  16  17
ENDBRANCH  14  15
ENDBRANCH  13  14
ENDBRANCH  11  12
ENDBRANCH  10  11
ENDBRANCH   8   9
ENDBRANCH   7   8
ENDBRANCH   5   6
ENDBRANCH   4   5
ENDBRANCH   3   4
ENDBRANCH   1   2
BRANCH   1  19
ATOM     19  O   UNL A   1      42.300  21.651  27.318  1.00  0.00    -0.366 OA
BRANCH  19  20
ATOM     20  C   UNL A   1      41.606  20.424  27.487  1.00  0.00     0.283 C 
BRANCH  20  21
ATOM     21  C   UNL A   1      40.997  19.671  26.302  1.00  0.00     0.332 C 
ATOM     22  O   UNL A   1      39.891  19.926  25.847  1.00  0.00    -0.250 OA
BRANCH  21  23
ATOM     23  O   UNL A   1      41.879  18.783  25.765  1.00  0.00    -0.460 OA
BRANCH  23  24
ATOM     24  C   UNL A   1      42.826  18.196  26.684  1.00  0.00     0.274 C 
BRANCH  24  25
ATOM     25  C   UNL A   1      44.220  18.124  26.052  1.00  0.00     0.275 C 
BRANCH  25  26
ATOM     26  O   UNL A   1      44.118  18.338  24.627  1.00  0.00    -0.458 OA
BRANCH  26  27
ATOM     27  C   UNL A   1      45.113  19.025  24.007  1.00  0.00     0.338 C 
ATOM     28  O   UNL A   1      45.972  18.539  23.269  1.00  0.00    -0.246 OA
BRANCH  27  29
ATOM     29  C   UNL A   1      45.019  20.480  24.336  1.00  0.00     0.060 A 
ATOM     30  C   UNL A   1      45.608  20.937  25.494  1.00  0.00     0.016 A 
ATOM     31  C   UNL A   1      44.343  21.436  23.577  1.00  0.00     0.016 A 
ATOM     32  C   UNL A   1      45.550  22.296  25.871  1.00  0.00     0.010 A 
ATOM     33  C   UNL A   1      44.351  22.823  23.954  1.00  0.00     0.010 A 
ATOM     34  C   UNL A   1      44.997  23.300  25.119  1.00  0.00    -0.014 A 
BRANCH  34  35
ATOM     35  C   UNL A   1      45.040  24.755  25.583  1.00  0.00     0.031 A 
ATOM     36  C   UNL A   1      46.359  25.434  25.483  1.00  0.00     0.074 A 
ATOM     37  C   UNL A   1      44.063  25.681  25.822  1.00  0.00     0.049 A 
ATOM     38  N   UNL A   1      46.799  26.496  26.095  1.00  0.00    -0.248 NA
ATOM     39  C   UNL A   1      47.259  24.878  24.463  1.00  0.00     0.031 C 
ATOM     40  C   UNL A   1      42.698  25.694  25.353  1.00  0.00     0.029 A 
ATOM     41  N   UNL A   1      44.079  26.842  26.594  1.00  0.00    -0.354 N 
ATOM     42  C   UNL A   1      48.039  26.732  25.547  1.00  0.00     0.074 A 
ATOM     43  C   UNL A   1      48.304  25.675  24.592  1.00  0.00     0.031 C 
ATOM     44  C   UNL A   1      41.946  26.587  26.013  1.00  0.00     0.029 A 
ATOM     45  C   UNL A   1      42.812  27.311  26.913  1.00  0.00     0.049 A 
ATOM     46  H   UNL A   1      44.908  27.285  26.886  1.00  0.00     0.167 HD
ATOM     47  C   UNL A   1      48.871  27.764  25.797  1.00  0.00     0.037 A 
ATOM     48  C   UNL A   1      42.367  28.219  27.806  1.00  0.00     0.037 A 
ATOM     49  C   UNL A   1      48.589  28.867  26.670  1.00  0.00     0.049 A 
ATOM     50  C   UNL A   1      43.375  29.126  28.430  1.00  0.00     0.074 A 
ATOM     51  C   UNL A   1      49.449  29.869  27.079  1.00  0.00     0.029 A 
ATOM     52  N   UNL A   1      47.353  29.144  27.235  1.00  0.00    -0.354 N 
ATOM     53  N   UNL A   1      44.646  29.214  28.145  1.00  0.00    -0.248 NA
ATOM     54  C   UNL A   1      42.904  30.113  29.413  1.00  0.00     0.031 C 
ATOM     55  C   UNL A   1      48.748  30.730  27.929  1.00  0.00     0.029 A 
ATOM     56  C   UNL A   1      47.440  30.287  28.020  1.00  0.00     0.049 A 
ATOM     57  H   UNL A   1      46.536  28.611  27.100  1.00  0.00     0.167 HD
ATOM     58  C   UNL A   1      45.108  30.323  28.824  1.00  0.00     0.074 A 
ATOM     59  C   UNL A   1      43.992  30.854  29.578  1.00  0.00     0.031 C 
ATOM     60  C   UNL A   1      46.349  30.857  28.768  1.00  0.00     0.037 A 
BRANCH  47  61
ATOM     61  C   UNL A   1      50.217  27.645  25.178  1.00  0.00     0.064 A 
ATOM     62  C   UNL A   1      51.356  27.318  25.923  1.00  0.00     0.173 A 
ATOM     63  C   UNL A   1      50.364  27.966  23.822  1.00  0.00     0.173 A 
ATOM     64  F   UNL A   1      51.259  27.074  27.239  1.00  0.00    -0.203 F 
ATOM     65  C   UNL A   1      52.612  27.335  25.327  1.00  0.00     0.198 A 
ATOM     66  C   UNL A   1      51.616  27.954  23.226  1.00  0.00     0.198 A 
ATOM     67  F   UNL A   1      49.296  28.321  23.092  1.00  0.00    -0.203 F 
ATOM     68  F   UNL A   1      53.704  27.093  26.065  1.00  0.00    -0.200 F 
ATOM     69  C   UNL A   1      52.739  27.646  23.979  1.00  0.00     0.200 A 
ATOM     70  F   UNL A   1      51.737  28.265  21.929  1.00  0.00    -0.200 F 
ATOM     71  F   UNL A   1      53.951  27.672  23.410  1.00  0.00    -0.200 F 
ENDBRANCH  47  61
BRANCH  48  72
ATOM     72  C   UNL A   1      40.921  28.348  28.160  1.00  0.00     0.064 A 
ATOM     73  C   UNL A   1      40.005  29.018  27.335  1.00  0.00     0.173 A 
ATOM     74  C   UNL A   1      40.456  27.901  29.408  1.00  0.00     0.173 A 
ATOM     75  F   UNL A   1      40.402  29.501  26.149  1.00  0.00    -0.203 F 
ATOM     76  C   UNL A   1      38.693  29.257  27.753  1.00  0.00     0.198 A 
ATOM     77  C   UNL A   1      39.140  28.128  29.818  1.00  0.00     0.198 A 
ATOM     78  F   UNL A   1      41.291  27.281  30.253  1.00  0.00    -0.203 F 
ATOM     79  F   UNL A   1      37.858  29.952  26.968  1.00  0.00    -0.200 F 
ATOM     80  C   UNL A   1      38.261  28.813  28.994  1.00  0.00     0.200 A 
ATOM     81  F   UNL A   1      38.732  27.710  31.025  1.00  0.00    -0.200 F 
ATOM     82  F   UNL A   1      37.011  29.067  29.403  1.00  0.00    -0.200 F 
ENDBRANCH  48  72
BRANCH  60  83
ATOM     83  C   UNL A   1      46.578  32.139  29.503  1.00  0.00     0.064 A 
ATOM     84  C   UNL A   1      46.353  33.384  28.902  1.00  0.00     0.173 A 
ATOM     85  C   UNL A   1      46.997  32.117  30.842  1.00  0.00     0.173 A 
ATOM     86  F   UNL A   1      45.975  33.454  27.616  1.00  0.00    -0.203 F 
ATOM     87  C   UNL A   1      46.555  34.564  29.610  1.00  0.00     0.198 A 
ATOM     88  C   UNL A   1      47.170  33.299  31.556  1.00  0.00     0.198 A 
ATOM     89  F   UNL A   1      47.231  30.950  31.461  1.00  0.00    -0.203 F 
ATOM     90  F   UNL A   1      46.374  35.745  29.003  1.00  0.00    -0.200 F 
ATOM     91  C   UNL A   1      46.954  34.521  30.938  1.00  0.00     0.200 A 
ATOM     92  F   UNL A   1      47.548  33.256  32.841  1.00  0.00    -0.200 F 
ATOM     93  F   UNL A   1      47.136  35.660  31.621  1.00  0.00    -0.200 F 
ENDBRANCH  60  83
ENDBRANCH  34  35
ENDBRANCH  27  29
ENDBRANCH  26  27
ENDBRANCH  25  26
ENDBRANCH  24  25
ENDBRANCH  23  24
ENDBRANCH  21  23
ENDBRANCH  20  21
ENDBRANCH  19  20
ENDBRANCH   1  19
TORSDOF 24
ENDMDL
MODEL 3
REMARK VINA RESULT:      -9.2      4.048      7.254
REMARK SMILES CC/C=C/C/C=C/C/C=C/C/C=C/CC/C=C/COCC(=O)OCCOC(=O)c1ccc(-c2c3nc(c(-c4c(F)c(F)c(F)c(F)c4F)c4ccc([nH]4)c(-c4c(F)c(F)c(F)c(F)c4F)c4nc(c(-c5c(F)c(F)c(F)c(F)c5F)c5ccc2[nH]5)C=C4)C=C3)cc1
REMARK SMILES IDX 18 1 17 2 16 3 15 4 14 5 13 6 12 7 11 8 10 9 9 10 8 11 7 12
REMARK SMILES IDX 6 13 5 14 4 15 3 16 2 17 1 18 19 19 20 20 21 21 22 22 23 23
REMARK SMILES IDX 24 24 25 25 26 26 27 27 28 28 29 29 30 30 91 31 31 32 90 33
REMARK SMILES IDX 32 34 33 35 34 36 84 37 35 38 89 39 83 40 85 41 36 42 88 43
REMARK SMILES IDX 82 44 81 45 37 47 69 48 49 49 68 50 50 51 53 52 67 53 86 54
REMARK SMILES IDX 51 55 52 56 66 58 87 59 54 60 38 61 39 62 47 63 40 64 41 65
REMARK SMILES IDX 45 66 48 67 42 68 43 69 46 70 44 71 70 72 71 73 79 74 72 75
REMARK SMILES IDX 73 76 77 77 80 78 74 79 75 80 78 81 76 82 55 83 56 84 64 85
REMARK SMILES IDX 57 86 58 87 62 88 65 89 59 90 60 91 63 92 61 93
REMARK H PARENT 85 46 53 57
REMARK Flexibility Score: inf
ROOT
ATOM      1  C   UNL A   1      32.895  24.421  22.365  1.00  0.00     0.188 C 
ENDROOT
BRANCH   1   2
ATOM      2  C   UNL A   1      32.688  25.876  22.031  1.00  0.00    -0.003 C 
ATOM      3  C   UNL A   1      33.650  26.774  22.278  1.00  0.00    -0.029 C 
BRANCH   3   4
ATOM      4  C   UNL A   1      33.533  28.273  22.379  1.00  0.00     0.031 C 
BRANCH   4   5
ATOM      5  C   UNL A   1      32.340  28.899  23.257  1.00  0.00     0.031 C 
BRANCH   5   6
ATOM      6  C   UNL A   1      31.744  28.313  24.584  1.00  0.00    -0.031 C 
ATOM      7  C   UNL A   1      32.332  27.548  25.550  1.00  0.00    -0.027 C 
BRANCH   7   8
ATOM      8  C   UNL A   1      31.776  26.885  26.817  1.00  0.00     0.054 C 
BRANCH   8   9
ATOM      9  C   UNL A   1      31.318  25.418  26.704  1.00  0.00    -0.027 C 
ATOM     10  C   UNL A   1      31.798  24.396  25.949  1.00  0.00    -0.027 C 
BRANCH  10  11
ATOM     11  C   UNL A   1      31.354  22.932  26.081  1.00  0.00     0.054 C 
BRANCH  11  12
ATOM     12  C   UNL A   1      31.579  22.060  24.854  1.00  0.00    -0.027 C 
ATOM     13  C   UNL A   1      32.308  20.921  24.844  1.00  0.00    -0.027 C 
BRANCH  13  14
ATOM     14  C   UNL A   1      32.488  19.985  23.666  1.00  0.00     0.054 C 
BRANCH  14  15
ATOM     15  C   UNL A   1      33.170  18.703  24.071  1.00  0.00    -0.027 C 
ATOM     16  C   UNL A   1      32.573  17.630  24.624  1.00  0.00    -0.031 C 
BRANCH  16  17
ATOM     17  C   UNL A   1      33.309  16.365  24.986  1.00  0.00     0.023 C 
ATOM     18  C   UNL A   1      32.430  15.386  25.751  1.00  0.00     0.008 C 
ENDBRANCH  16  17
ENDBRANCH  14  15
ENDBRANCH  13  14
ENDBRANCH  11  12
ENDBRANCH  10  11
ENDBRANCH   8   9
ENDBRANCH   7   8
ENDBRANCH   5   6
ENDBRANCH   4   5
ENDBRANCH   3   4
ENDBRANCH   1   2
BRANCH   1  19
ATOM     19  O   UNL A   1      34.291  24.106  22.386  1.00  0.00    -0.366 OA
BRANCH  19  20
ATOM     20  C   UNL A   1      34.778  23.541  23.594  1.00  0.00     0.283 C 
BRANCH  20  21
ATOM     21  C   UNL A   1      36.153  22.873  23.675  1.00  0.00     0.332 C 
ATOM     22  O   UNL A   1      36.967  22.909  22.764  1.00  0.00    -0.250 OA
BRANCH  21  23
ATOM     23  O   UNL A   1      36.384  22.349  24.911  1.00  0.00    -0.460 OA
BRANCH  23  24
ATOM     24  C   UNL A   1      36.650  20.931  24.958  1.00  0.00     0.274 C 
BRANCH  24  25
ATOM     25  C   UNL A   1      38.096  20.666  25.391  1.00  0.00     0.275 C 
BRANCH  25  26
ATOM     26  O   UNL A   1      38.768  21.921  25.631  1.00  0.00    -0.458 OA
BRANCH  26  27
ATOM     27  C   UNL A   1      39.629  21.999  26.679  1.00  0.00     0.338 C 
ATOM     28  O   UNL A   1      40.204  21.047  27.211  1.00  0.00    -0.246 OA
BRANCH  27  29
ATOM     29  C   UNL A   1      39.801  23.421  27.103  1.00  0.00     0.060 A 
ATOM     30  C   UNL A   1      40.824  23.735  27.971  1.00  0.00     0.016 A 
ATOM     31  C   UNL A   1      38.978  24.482  26.721  1.00  0.00     0.016 A 
ATOM     32  C   UNL A   1      41.038  25.057  28.420  1.00  0.00     0.010 A 
ATOM     33  C   UNL A   1      39.256  25.826  27.147  1.00  0.00     0.010 A 
ATOM     34  C   UNL A   1      40.336  26.156  27.999  1.00  0.00    -0.014 A 
BRANCH  34  35
ATOM     35  C   UNL A   1      40.685  27.558  28.496  1.00  0.00     0.031 A 
ATOM     36  C   UNL A   1      42.129  27.829  28.724  1.00  0.00     0.074 A 
ATOM     37  C   UNL A   1      39.987  28.733  28.521  1.00  0.00     0.049 A 
ATOM     38  N   UNL A   1      42.700  28.749  29.448  1.00  0.00    -0.248 NA
ATOM     39  C   UNL A   1      43.043  26.996  27.930  1.00  0.00     0.031 C 
ATOM     40  C   UNL A   1      38.830  29.112  27.746  1.00  0.00     0.029 A 
ATOM     41  N   UNL A   1      40.155  29.875  29.304  1.00  0.00    -0.354 N 
ATOM     42  C   UNL A   1      44.048  28.599  29.212  1.00  0.00     0.074 A 
ATOM     43  C   UNL A   1      44.213  27.469  28.320  1.00  0.00     0.031 C 
ATOM     44  C   UNL A   1      38.233  30.210  28.233  1.00  0.00     0.029 A 
ATOM     45  C   UNL A   1      39.038  30.698  29.329  1.00  0.00     0.049 A 
ATOM     46  H   UNL A   1      40.985  30.077  29.793  1.00  0.00     0.167 HD
ATOM     47  C   UNL A   1      45.059  29.362  29.675  1.00  0.00     0.037 A 
ATOM     48  C   UNL A   1      38.677  31.734  30.114  1.00  0.00     0.037 A 
ATOM     49  C   UNL A   1      44.910  30.538  30.483  1.00  0.00     0.049 A 
ATOM     50  C   UNL A   1      39.729  32.344  30.979  1.00  0.00     0.074 A 
ATOM     51  C   UNL A   1      45.902  31.272  31.107  1.00  0.00     0.029 A 
ATOM     52  N   UNL A   1      43.710  31.179  30.750  1.00  0.00    -0.354 N 
ATOM     53  N   UNL A   1      41.002  32.055  31.002  1.00  0.00    -0.248 NA
ATOM     54  C   UNL A   1      39.347  33.466  31.848  1.00  0.00     0.031 C 
ATOM     55  C   UNL A   1      45.300  32.334  31.790  1.00  0.00     0.029 A 
ATOM     56  C   UNL A   1      43.936  32.284  31.561  1.00  0.00     0.049 A 
ATOM     57  H   UNL A   1      42.829  30.895  30.415  1.00  0.00     0.167 HD
ATOM     58  C   UNL A   1      41.592  33.016  31.797  1.00  0.00     0.074 A 
ATOM     59  C   UNL A   1      40.532  33.875  32.281  1.00  0.00     0.031 C 
ATOM     60  C   UNL A   1      42.912  33.173  32.046  1.00  0.00     0.037 A 
BRANCH  47  61
ATOM     61  C   UNL A   1      46.419  28.839  29.386  1.00  0.00     0.064 A 
ATOM     62  C   UNL A   1      47.064  27.926  30.229  1.00  0.00     0.173 A 
ATOM     63  C   UNL A   1      47.116  29.351  28.283  1.00  0.00     0.173 A 
ATOM     64  F   UNL A   1      46.449  27.470  31.330  1.00  0.00    -0.203 F 
ATOM     65  C   UNL A   1      48.381  27.555  29.984  1.00  0.00     0.198 A 
ATOM     66  C   UNL A   1      48.421  28.957  28.028  1.00  0.00     0.198 A 
ATOM     67  F   UNL A   1      46.539  30.257  27.480  1.00  0.00    -0.203 F 
ATOM     68  F   UNL A   1      49.014  26.739  30.837  1.00  0.00    -0.200 F 
ATOM     69  C   UNL A   1      49.055  28.065  28.881  1.00  0.00     0.200 A 
ATOM     70  F   UNL A   1      49.072  29.458  26.970  1.00  0.00    -0.200 F 
ATOM     71  F   UNL A   1      50.327  27.715  28.654  1.00  0.00    -0.200 F 
ENDBRANCH  47  61
BRANCH  48  72
ATOM     72  C   UNL A   1      37.288  32.284  30.122  1.00  0.00     0.064 A 
ATOM     73  C   UNL A   1      36.844  33.214  29.170  1.00  0.00     0.173 A 
ATOM     74  C   UNL A   1      36.410  31.972  31.174  1.00  0.00     0.173 A 
ATOM     75  F   UNL A   1      37.654  33.580  28.166  1.00  0.00    -0.203 F 
ATOM     76  C   UNL A   1      35.594  33.827  29.282  1.00  0.00     0.198 A 
ATOM     77  C   UNL A   1      35.153  32.574  31.277  1.00  0.00     0.198 A 
ATOM     78  F   UNL A   1      36.787  31.112  32.131  1.00  0.00    -0.203 F 
ATOM     79  F   UNL A   1      35.223  34.756  28.391  1.00  0.00    -0.200 F 
ATOM     80  C   UNL A   1      34.750  33.508  30.336  1.00  0.00     0.200 A 
ATOM     81  F   UNL A   1      34.348  32.273  32.305  1.00  0.00    -0.200 F 
ATOM     82  F   UNL A   1      33.562  34.117  30.456  1.00  0.00    -0.200 F 
ENDBRANCH  48  72
BRANCH  60  83
ATOM     83  C   UNL A   1      43.321  34.368  32.846  1.00  0.00     0.064 A 
ATOM     84  C   UNL A   1      43.502  35.625  32.253  1.00  0.00     0.173 A 
ATOM     85  C   UNL A   1      43.503  34.260  34.233  1.00  0.00     0.173 A 
ATOM     86  F   UNL A   1      43.363  35.772  30.927  1.00  0.00    -0.203 F 
ATOM     87  C   UNL A   1      43.866  36.729  33.019  1.00  0.00     0.198 A 
ATOM     88  C   UNL A   1      43.839  35.371  34.999  1.00  0.00     0.198 A 
ATOM     89  F   UNL A   1      43.347  33.077  34.846  1.00  0.00    -0.203 F 
ATOM     90  F   UNL A   1      44.074  37.912  32.426  1.00  0.00    -0.200 F 
ATOM     91  C   UNL A   1      44.025  36.603  34.391  1.00  0.00     0.200 A 
ATOM     92  F   UNL A   1      43.983  35.250  36.326  1.00  0.00    -0.200 F 
ATOM     93  F   UNL A   1      44.363  37.671  35.128  1.00  0.00    -0.200 F 
ENDBRANCH  60  83
ENDBRANCH  34  35
ENDBRANCH  27  29
ENDBRANCH  26  27
ENDBRANCH  25  26
ENDBRANCH  24  25
ENDBRANCH  23  24
ENDBRANCH  21  23
ENDBRANCH  20  21
ENDBRANCH  19  20
ENDBRANCH   1  19
TORSDOF 24
ENDMDL
