MODEL 1
REMARK VINA RESULT:     -15.0      0.000      0.000
REMARK SMILES Cc1c(NC(=O)c2ccc(-c3cccc(Cl)c3)o2)cccc1C(=O)OCCOC(=O)c1ccc(-c2c3nc(c(-c4c(F)c(F)c(F)c(F)c4F)c4ccc([nH]4)c(-c4c(F)c(F)c(F)c(F)c4F)c4nc(c(-c5c(F)c(F)c(F)c(F)c5F)c5ccc2[nH]5)C=C4)C=C3)cc1
REMARK SMILES IDX 26 1 25 2 23 3 24 4 22 5 1 6 2 7 3 8 19 9 21 10 20 11 4 12
REMARK SMILES IDX 5 13 6 15 7 16 8 17 18 18 9 19 10 20 11 21 12 22 17 23 13 24
REMARK SMILES IDX 15 25 14 26 16 27 27 28 28 29 29 30 30 31 31 32 32 33 93 34
REMARK SMILES IDX 33 35 92 36 34 37 35 38 36 39 86 40 37 41 91 42 85 43 87 44
REMARK SMILES IDX 38 45 90 46 84 47 83 48 39 50 71 51 51 52 70 53 52 54 55 55
REMARK SMILES IDX 69 56 88 57 53 58 54 59 68 61 89 62 56 63 40 64 41 65 49 66
REMARK SMILES IDX 42 67 43 68 47 69 50 70 44 71 45 72 48 73 46 74 72 75 73 76
REMARK SMILES IDX 81 77 74 78 75 79 79 80 82 81 76 82 77 83 80 84 78 85 57 86
REMARK SMILES IDX 58 87 66 88 59 89 60 90 64 91 67 92 61 93 62 94 65 95 63 96
REMARK H PARENT 4 14 87 49 55 60
REMARK Flexibility Score: inf
ROOT
ATOM      1  C   UNL A   1      33.571  30.165  26.243  1.00  0.00     0.275 C 
ENDROOT
BRANCH   1   2
ATOM      2  O   UNL A   1      33.123  29.463  25.074  1.00  0.00    -0.458 OA
BRANCH   2   3
ATOM      3  C   UNL A   1      31.767  29.425  25.008  1.00  0.00     0.338 C 
ATOM      4  O   UNL A   1      31.027  30.380  25.202  1.00  0.00    -0.246 OA
BRANCH   3   5
ATOM      5  C   UNL A   1      31.197  28.104  24.670  1.00  0.00     0.065 A 
ATOM      6  C   UNL A   1      31.490  27.366  27.087  1.00  0.00     0.047 C 
ATOM      7  C   UNL A   1      30.890  27.201  25.712  1.00  0.00    -0.013 A 
ATOM      8  C   UNL A   1      30.065  26.097  25.419  1.00  0.00     0.045 A 
ATOM      9  C   UNL A   1      29.408  26.053  24.186  1.00  0.00     0.026 A 
ATOM     10  C   UNL A   1      30.749  27.865  23.366  1.00  0.00     0.016 A 
ATOM     11  C   UNL A   1      29.790  26.887  23.142  1.00  0.00     0.003 A 
BRANCH   8  12
ATOM     12  N   UNL A   1      29.936  25.075  26.382  1.00  0.00    -0.319 N 
ATOM     13  C   UNL A   1      30.449  23.794  26.444  1.00  0.00     0.291 C 
ATOM     14  H   UNL A   1      29.376  25.320  27.154  1.00  0.00     0.170 HD
ATOM     15  O   UNL A   1      30.085  23.090  27.388  1.00  0.00    -0.265 OA
BRANCH  13  16
ATOM     16  C   UNL A   1      31.413  23.350  25.465  1.00  0.00     0.192 A 
ATOM     17  C   UNL A   1      31.291  22.896  24.162  1.00  0.00     0.057 A 
ATOM     18  O   UNL A   1      32.723  23.291  25.847  1.00  0.00    -0.451 OA
ATOM     19  C   UNL A   1      32.580  22.474  23.761  1.00  0.00     0.052 A 
ATOM     20  C   UNL A   1      33.426  22.758  24.811  1.00  0.00     0.135 A 
BRANCH  20  21
ATOM     21  C   UNL A   1      34.857  22.637  25.010  1.00  0.00     0.019 A 
ATOM     22  C   UNL A   1      35.596  23.770  25.376  1.00  0.00     0.012 A 
ATOM     23  C   UNL A   1      35.514  21.410  24.852  1.00  0.00     0.032 A 
ATOM     24  C   UNL A   1      36.971  23.683  25.589  1.00  0.00     0.002 A 
ATOM     25  C   UNL A   1      36.892  21.332  25.052  1.00  0.00     0.041 A 
ATOM     26  C   UNL A   1      37.622  22.461  25.424  1.00  0.00     0.020 A 
ATOM     27  Cl  UNL A   1      37.704  19.830  24.835  1.00  0.00    -0.084 Cl
ENDBRANCH  20  21
ENDBRANCH  13  16
ENDBRANCH   8  12
ENDBRANCH   3   5
ENDBRANCH   2   3
ENDBRANCH   1   2
BRANCH   1  28
ATOM     28  C   UNL A   1      34.502  29.358  27.158  1.00  0.00     0.275 C 
BRANCH  28  29
ATOM     29  O   UNL A   1      35.149  29.951  28.319  1.00  0.00    -0.458 OA
BRANCH  29  30
ATOM     30  C   UNL A   1      36.328  30.607  28.301  1.00  0.00     0.338 C 
ATOM     31  O   UNL A   1      36.430  31.800  28.034  1.00  0.00    -0.246 OA
BRANCH  30  32
ATOM     32  C   UNL A   1      37.512  29.770  28.553  1.00  0.00     0.060 A 
ATOM     33  C   UNL A   1      37.522  28.916  29.670  1.00  0.00     0.016 A 
ATOM     34  C   UNL A   1      38.529  29.726  27.607  1.00  0.00     0.016 A 
ATOM     35  C   UNL A   1      38.476  27.916  29.775  1.00  0.00     0.010 A 
ATOM     36  C   UNL A   1      39.385  28.662  27.624  1.00  0.00     0.010 A 
ATOM     37  C   UNL A   1      39.390  27.803  28.735  1.00  0.00    -0.014 A 
BRANCH  37  38
ATOM     38  C   UNL A   1      40.648  27.104  28.874  1.00  0.00     0.031 A 
ATOM     39  C   UNL A   1      40.766  25.678  28.553  1.00  0.00     0.074 A 
ATOM     40  C   UNL A   1      41.632  28.002  29.117  1.00  0.00     0.049 A 
ATOM     41  N   UNL A   1      41.763  24.954  28.906  1.00  0.00    -0.248 NA
ATOM     42  C   UNL A   1      39.748  24.904  27.848  1.00  0.00     0.031 C 
ATOM     43  C   UNL A   1      43.073  27.937  29.009  1.00  0.00     0.029 A 
ATOM     44  N   UNL A   1      41.401  29.282  29.671  1.00  0.00    -0.354 N 
ATOM     45  C   UNL A   1      41.705  23.774  28.187  1.00  0.00     0.074 A 
ATOM     46  C   UNL A   1      40.362  23.725  27.676  1.00  0.00     0.031 C 
ATOM     47  C   UNL A   1      43.596  28.921  29.773  1.00  0.00     0.029 A 
ATOM     48  C   UNL A   1      42.491  29.554  30.493  1.00  0.00     0.049 A 
ATOM     49  H   UNL A   1      40.625  29.864  29.509  1.00  0.00     0.167 HD
ATOM     50  C   UNL A   1      42.879  23.106  27.988  1.00  0.00     0.037 A 
ATOM     51  C   UNL A   1      42.270  29.498  31.841  1.00  0.00     0.037 A 
ATOM     52  C   UNL A   1      43.931  23.795  28.738  1.00  0.00     0.049 A 
ATOM     53  C   UNL A   1      43.008  28.311  32.407  1.00  0.00     0.074 A 
ATOM     54  C   UNL A   1      44.834  24.776  28.357  1.00  0.00     0.029 A 
ATOM     55  N   UNL A   1      43.846  23.846  30.126  1.00  0.00    -0.354 N 
ATOM     56  N   UNL A   1      43.139  27.160  31.798  1.00  0.00    -0.248 NA
ATOM     57  C   UNL A   1      43.780  28.409  33.636  1.00  0.00     0.031 C 
ATOM     58  C   UNL A   1      45.206  25.491  29.529  1.00  0.00     0.029 A 
ATOM     59  C   UNL A   1      44.531  24.945  30.612  1.00  0.00     0.049 A 
ATOM     60  H   UNL A   1      43.367  23.191  30.683  1.00  0.00     0.167 HD
ATOM     61  C   UNL A   1      44.075  26.418  32.469  1.00  0.00     0.074 A 
ATOM     62  C   UNL A   1      44.424  27.232  33.623  1.00  0.00     0.031 C 
ATOM     63  C   UNL A   1      44.569  25.219  32.038  1.00  0.00     0.037 A 
BRANCH  50  64
ATOM     64  C   UNL A   1      43.192  22.053  26.939  1.00  0.00     0.064 A 
ATOM     65  C   UNL A   1      42.484  20.824  26.950  1.00  0.00     0.173 A 
ATOM     66  C   UNL A   1      44.188  22.133  25.946  1.00  0.00     0.173 A 
ATOM     67  F   UNL A   1      41.468  20.610  27.796  1.00  0.00    -0.203 F 
ATOM     68  C   UNL A   1      42.791  19.759  26.096  1.00  0.00     0.198 A 
ATOM     69  C   UNL A   1      44.496  21.063  25.092  1.00  0.00     0.198 A 
ATOM     70  F   UNL A   1      44.894  23.248  25.738  1.00  0.00    -0.203 F 
ATOM     71  F   UNL A   1      42.096  18.615  26.186  1.00  0.00    -0.200 F 
ATOM     72  C   UNL A   1      43.806  19.874  25.174  1.00  0.00     0.200 A 
ATOM     73  F   UNL A   1      45.478  21.198  24.187  1.00  0.00    -0.200 F 
ATOM     74  F   UNL A   1      44.107  18.852  24.362  1.00  0.00    -0.200 F 
ENDBRANCH  50  64
BRANCH  51  75
ATOM     75  C   UNL A   1      40.915  29.998  32.268  1.00  0.00     0.064 A 
ATOM     76  C   UNL A   1      40.560  31.334  31.951  1.00  0.00     0.173 A 
ATOM     77  C   UNL A   1      39.878  29.175  32.723  1.00  0.00     0.173 A 
ATOM     78  F   UNL A   1      41.502  32.192  31.524  1.00  0.00    -0.203 F 
ATOM     79  C   UNL A   1      39.239  31.781  31.972  1.00  0.00     0.198 A 
ATOM     80  C   UNL A   1      38.552  29.636  32.772  1.00  0.00     0.198 A 
ATOM     81  F   UNL A   1      40.115  27.897  33.051  1.00  0.00    -0.203 F 
ATOM     82  F   UNL A   1      38.942  33.017  31.541  1.00  0.00    -0.200 F 
ATOM     83  C   UNL A   1      38.231  30.926  32.371  1.00  0.00     0.200 A 
ATOM     84  F   UNL A   1      37.563  28.798  33.122  1.00  0.00    -0.200 F 
ATOM     85  F   UNL A   1      36.951  31.321  32.320  1.00  0.00    -0.200 F 
ENDBRANCH  51  75
BRANCH  63  86
ATOM     86  C   UNL A   1      45.243  24.218  32.942  1.00  0.00     0.064 A 
ATOM     87  C   UNL A   1      46.532  24.411  33.466  1.00  0.00     0.173 A 
ATOM     88  C   UNL A   1      44.533  23.108  33.458  1.00  0.00     0.173 A 
ATOM     89  F   UNL A   1      47.249  25.507  33.183  1.00  0.00    -0.203 F 
ATOM     90  C   UNL A   1      47.108  23.507  34.354  1.00  0.00     0.198 A 
ATOM     91  C   UNL A   1      45.079  22.259  34.415  1.00  0.00     0.198 A 
ATOM     92  F   UNL A   1      43.275  22.833  33.083  1.00  0.00    -0.203 F 
ATOM     93  F   UNL A   1      48.370  23.695  34.761  1.00  0.00    -0.200 F 
ATOM     94  C   UNL A   1      46.378  22.439  34.839  1.00  0.00     0.200 A 
ATOM     95  F   UNL A   1      44.329  21.278  34.936  1.00  0.00    -0.200 F 
ATOM     96  F   UNL A   1      46.917  21.602  35.733  1.00  0.00    -0.200 F 
ENDBRANCH  63  86
ENDBRANCH  37  38
ENDBRANCH  30  32
ENDBRANCH  29  30
ENDBRANCH  28  29
ENDBRANCH   1  28
TORSDOF 14
ENDMDL
MODEL 2
REMARK VINA RESULT:     -14.9      0.534      1.655
REMARK SMILES Cc1c(NC(=O)c2ccc(-c3cccc(Cl)c3)o2)cccc1C(=O)OCCOC(=O)c1ccc(-c2c3nc(c(-c4c(F)c(F)c(F)c(F)c4F)c4ccc([nH]4)c(-c4c(F)c(F)c(F)c(F)c4F)c4nc(c(-c5c(F)c(F)c(F)c(F)c5F)c5ccc2[nH]5)C=C4)C=C3)cc1
REMARK SMILES IDX 26 1 25 2 23 3 24 4 22 5 1 6 2 7 3 8 19 9 21 10 20 11 4 12
REMARK SMILES IDX 5 13 6 15 7 16 8 17 18 18 9 19 10 20 11 21 12 22 17 23 13 24
REMARK SMILES IDX 15 25 14 26 16 27 27 28 28 29 29 30 30 31 31 32 32 33 93 34
REMARK SMILES IDX 33 35 92 36 34 37 35 38 36 39 86 40 37 41 91 42 85 43 87 44
REMARK SMILES IDX 38 45 90 46 84 47 83 48 39 50 71 51 51 52 70 53 52 54 55 55
REMARK SMILES IDX 69 56 88 57 53 58 54 59 68 61 89 62 56 63 40 64 41 65 49 66
REMARK SMILES IDX 42 67 43 68 47 69 50 70 44 71 45 72 48 73 46 74 72 75 73 76
REMARK SMILES IDX 81 77 74 78 75 79 79 80 82 81 76 82 77 83 80 84 78 85 57 86
REMARK SMILES IDX 58 87 66 88 59 89 60 90 64 91 67 92 61 93 62 94 65 95 63 96
REMARK H PARENT 4 14 87 49 55 60
REMARK Flexibility Score: inf
ROOT
ATOM      1  C   UNL A   1      32.793  30.833  26.314  1.00  0.00     0.275 C 
ENDROOT
BRANCH   1   2
ATOM      2  O   UNL A   1      31.785  29.860  25.997  1.00  0.00    -0.458 OA
BRANCH   2   3
ATOM      3  C   UNL A   1      32.134  29.122  24.912  1.00  0.00     0.338 C 
ATOM      4  O   UNL A   1      33.084  29.358  24.177  1.00  0.00    -0.246 OA
BRANCH   3   5
ATOM      5  C   UNL A   1      31.267  27.955  24.647  1.00  0.00     0.065 A 
ATOM      6  C   UNL A   1      31.980  26.931  26.863  1.00  0.00     0.047 C 
ATOM      7  C   UNL A   1      31.053  27.011  25.675  1.00  0.00    -0.013 A 
ATOM      8  C   UNL A   1      29.993  26.093  25.530  1.00  0.00     0.045 A 
ATOM      9  C   UNL A   1      29.067  26.287  24.501  1.00  0.00     0.026 A 
ATOM     10  C   UNL A   1      30.488  27.930  23.485  1.00  0.00     0.016 A 
ATOM     11  C   UNL A   1      29.340  27.152  23.448  1.00  0.00     0.003 A 
BRANCH   8  12
ATOM     12  N   UNL A   1      29.909  25.010  26.430  1.00  0.00    -0.319 N 
ATOM     13  C   UNL A   1      30.463  23.745  26.408  1.00  0.00     0.291 C 
ATOM     14  H   UNL A   1      29.352  25.190  27.222  1.00  0.00     0.170 HD
ATOM     15  O   UNL A   1      30.133  22.974  27.311  1.00  0.00    -0.265 OA
BRANCH  13  16
ATOM     16  C   UNL A   1      31.426  23.393  25.394  1.00  0.00     0.192 A 
ATOM     17  C   UNL A   1      31.311  23.105  24.044  1.00  0.00     0.057 A 
ATOM     18  O   UNL A   1      32.729  23.246  25.780  1.00  0.00    -0.451 OA
ATOM     19  C   UNL A   1      32.592  22.693  23.608  1.00  0.00     0.052 A 
ATOM     20  C   UNL A   1      33.430  22.820  24.695  1.00  0.00     0.135 A 
BRANCH  20  21
ATOM     21  C   UNL A   1      34.854  22.631  24.894  1.00  0.00     0.019 A 
ATOM     22  C   UNL A   1      35.662  23.742  25.165  1.00  0.00     0.012 A 
ATOM     23  C   UNL A   1      35.436  21.358  24.828  1.00  0.00     0.032 A 
ATOM     24  C   UNL A   1      37.032  23.590  25.376  1.00  0.00     0.002 A 
ATOM     25  C   UNL A   1      36.809  21.214  25.025  1.00  0.00     0.041 A 
ATOM     26  C   UNL A   1      37.608  22.323  25.303  1.00  0.00     0.020 A 
ATOM     27  Cl  UNL A   1      37.529  19.653  24.921  1.00  0.00    -0.084 Cl
ENDBRANCH  20  21
ENDBRANCH  13  16
ENDBRANCH   8  12
ENDBRANCH   3   5
ENDBRANCH   2   3
ENDBRANCH   1   2
BRANCH   1  28
ATOM     28  C   UNL A   1      33.686  30.466  27.507  1.00  0.00     0.275 C 
BRANCH  28  29
ATOM     29  O   UNL A   1      35.088  30.114  27.343  1.00  0.00    -0.458 OA
BRANCH  29  30
ATOM     30  C   UNL A   1      36.126  30.788  27.881  1.00  0.00     0.338 C 
ATOM     31  O   UNL A   1      36.125  32.003  28.050  1.00  0.00    -0.246 OA
BRANCH  30  32
ATOM     32  C   UNL A   1      37.309  29.968  28.190  1.00  0.00     0.060 A 
ATOM     33  C   UNL A   1      37.300  29.158  29.340  1.00  0.00     0.016 A 
ATOM     34  C   UNL A   1      38.346  29.892  27.268  1.00  0.00     0.016 A 
ATOM     35  C   UNL A   1      38.256  28.169  29.504  1.00  0.00     0.010 A 
ATOM     36  C   UNL A   1      39.206  28.834  27.344  1.00  0.00     0.010 A 
ATOM     37  C   UNL A   1      39.192  28.019  28.488  1.00  0.00    -0.014 A 
BRANCH  37  38
ATOM     38  C   UNL A   1      40.450  27.334  28.680  1.00  0.00     0.031 A 
ATOM     39  C   UNL A   1      40.584  25.899  28.410  1.00  0.00     0.074 A 
ATOM     40  C   UNL A   1      41.423  28.245  28.917  1.00  0.00     0.049 A 
ATOM     41  N   UNL A   1      41.576  25.193  28.810  1.00  0.00    -0.248 NA
ATOM     42  C   UNL A   1      39.588  25.096  27.707  1.00  0.00     0.031 C 
ATOM     43  C   UNL A   1      42.867  28.186  28.846  1.00  0.00     0.029 A 
ATOM     44  N   UNL A   1      41.171  29.541  29.423  1.00  0.00    -0.354 N 
ATOM     45  C   UNL A   1      41.542  23.990  28.129  1.00  0.00     0.074 A 
ATOM     46  C   UNL A   1      40.212  23.916  27.588  1.00  0.00     0.031 C 
ATOM     47  C   UNL A   1      43.365  29.198  29.590  1.00  0.00     0.029 A 
ATOM     48  C   UNL A   1      42.239  29.847  30.262  1.00  0.00     0.049 A 
ATOM     49  H   UNL A   1      40.396  30.113  29.224  1.00  0.00     0.167 HD
ATOM     50  C   UNL A   1      42.725  23.323  27.981  1.00  0.00     0.037 A 
ATOM     51  C   UNL A   1      41.986  29.834  31.605  1.00  0.00     0.037 A 
ATOM     52  C   UNL A   1      43.754  24.043  28.732  1.00  0.00     0.049 A 
ATOM     53  C   UNL A   1      42.717  28.671  32.227  1.00  0.00     0.074 A 
ATOM     54  C   UNL A   1      44.660  25.016  28.341  1.00  0.00     0.029 A 
ATOM     55  N   UNL A   1      43.635  24.139  30.115  1.00  0.00    -0.354 N 
ATOM     56  N   UNL A   1      42.869  27.501  31.660  1.00  0.00    -0.248 NA
ATOM     57  C   UNL A   1      43.459  28.814  33.470  1.00  0.00     0.031 C 
ATOM     58  C   UNL A   1      45.000  25.772  29.498  1.00  0.00     0.029 A 
ATOM     59  C   UNL A   1      44.302  25.257  30.582  1.00  0.00     0.049 A 
ATOM     60  H   UNL A   1      43.146  23.499  30.682  1.00  0.00     0.167 HD
ATOM     61  C   UNL A   1      43.793  26.788  32.377  1.00  0.00     0.074 A 
ATOM     62  C   UNL A   1      44.109  27.642  33.512  1.00  0.00     0.031 C 
ATOM     63  C   UNL A   1      44.304  25.578  31.998  1.00  0.00     0.037 A 
BRANCH  50  64
ATOM     64  C   UNL A   1      43.069  22.238  26.974  1.00  0.00     0.064 A 
ATOM     65  C   UNL A   1      42.392  20.993  27.031  1.00  0.00     0.173 A 
ATOM     66  C   UNL A   1      44.067  22.305  25.983  1.00  0.00     0.173 A 
ATOM     67  F   UNL A   1      41.378  20.787  27.882  1.00  0.00    -0.203 F 
ATOM     68  C   UNL A   1      42.730  19.904  26.221  1.00  0.00     0.198 A 
ATOM     69  C   UNL A   1      44.405  21.211  25.172  1.00  0.00     0.198 A 
ATOM     70  F   UNL A   1      44.744  23.428  25.733  1.00  0.00    -0.203 F 
ATOM     71  F   UNL A   1      42.064  18.747  26.353  1.00  0.00    -0.200 F 
ATOM     72  C   UNL A   1      43.745  20.008  25.298  1.00  0.00     0.200 A 
ATOM     73  F   UNL A   1      45.387  21.336  24.266  1.00  0.00    -0.200 F 
ATOM     74  F   UNL A   1      44.076  18.963  24.528  1.00  0.00    -0.200 F 
ENDBRANCH  50  64
BRANCH  51  75
ATOM     75  C   UNL A   1      40.619  30.339  31.983  1.00  0.00     0.064 A 
ATOM     76  C   UNL A   1      39.634  29.395  32.368  1.00  0.00     0.173 A 
ATOM     77  C   UNL A   1      40.318  31.683  32.236  1.00  0.00     0.173 A 
ATOM     78  F   UNL A   1      39.840  28.086  32.144  1.00  0.00    -0.203 F 
ATOM     79  C   UNL A   1      38.482  29.759  33.066  1.00  0.00     0.198 A 
ATOM     80  C   UNL A   1      39.142  32.050  32.912  1.00  0.00     0.198 A 
ATOM     81  F   UNL A   1      41.185  32.651  31.904  1.00  0.00    -0.203 F 
ATOM     82  F   UNL A   1      37.645  28.813  33.519  1.00  0.00    -0.200 F 
ATOM     83  C   UNL A   1      38.243  31.088  33.350  1.00  0.00     0.200 A 
ATOM     84  F   UNL A   1      38.923  33.338  33.224  1.00  0.00    -0.200 F 
ATOM     85  F   UNL A   1      37.179  31.441  34.087  1.00  0.00    -0.200 F 
ENDBRANCH  51  75
BRANCH  63  86
ATOM     86  C   UNL A   1      44.962  24.613  32.951  1.00  0.00     0.064 A 
ATOM     87  C   UNL A   1      44.348  23.424  33.377  1.00  0.00     0.173 A 
ATOM     88  C   UNL A   1      46.318  24.770  33.325  1.00  0.00     0.173 A 
ATOM     89  F   UNL A   1      43.122  23.077  32.962  1.00  0.00    -0.203 F 
ATOM     90  C   UNL A   1      45.002  22.514  34.203  1.00  0.00     0.198 A 
ATOM     91  C   UNL A   1      46.995  23.812  34.073  1.00  0.00     0.198 A 
ATOM     92  F   UNL A   1      47.041  25.833  32.945  1.00  0.00    -0.203 F 
ATOM     93  F   UNL A   1      44.343  21.435  34.646  1.00  0.00    -0.200 F 
ATOM     94  C   UNL A   1      46.328  22.700  34.540  1.00  0.00     0.200 A 
ATOM     95  F   UNL A   1      48.303  23.967  34.321  1.00  0.00    -0.200 F 
ATOM     96  F   UNL A   1      46.968  21.796  35.290  1.00  0.00    -0.200 F 
ENDBRANCH  63  86
ENDBRANCH  37  38
ENDBRANCH  30  32
ENDBRANCH  29  30
ENDBRANCH  28  29
ENDBRANCH   1  28
TORSDOF 14
ENDMDL
MODEL 3
REMARK VINA RESULT:     -14.4      4.037     10.295
REMARK SMILES Cc1c(NC(=O)c2ccc(-c3cccc(Cl)c3)o2)cccc1C(=O)OCCOC(=O)c1ccc(-c2c3nc(c(-c4c(F)c(F)c(F)c(F)c4F)c4ccc([nH]4)c(-c4c(F)c(F)c(F)c(F)c4F)c4nc(c(-c5c(F)c(F)c(F)c(F)c5F)c5ccc2[nH]5)C=C4)C=C3)cc1
REMARK SMILES IDX 26 1 25 2 23 3 24 4 22 5 1 6 2 7 3 8 19 9 21 10 20 11 4 12
REMARK SMILES IDX 5 13 6 15 7 16 8 17 18 18 9 19 10 20 11 21 12 22 17 23 13 24
REMARK SMILES IDX 15 25 14 26 16 27 27 28 28 29 29 30 30 31 31 32 32 33 93 34
REMARK SMILES IDX 33 35 92 36 34 37 35 38 36 39 86 40 37 41 91 42 85 43 87 44
REMARK SMILES IDX 38 45 90 46 84 47 83 48 39 50 71 51 51 52 70 53 52 54 55 55
REMARK SMILES IDX 69 56 88 57 53 58 54 59 68 61 89 62 56 63 40 64 41 65 49 66
REMARK SMILES IDX 42 67 43 68 47 69 50 70 44 71 45 72 48 73 46 74 72 75 73 76
REMARK SMILES IDX 81 77 74 78 75 79 79 80 82 81 76 82 77 83 80 84 78 85 57 86
REMARK SMILES IDX 58 87 66 88 59 89 60 90 64 91 67 92 61 93 62 94 65 95 63 96
REMARK H PARENT 4 14 87 49 55 60
REMARK Flexibility Score: inf
ROOT
ATOM      1  C   UNL A   1      37.532  21.501  25.766  1.00  0.00     0.275 C 
ENDROOT
BRANCH   1   2
ATOM      2  O   UNL A   1      36.152  21.798  26.028  1.00  0.00    -0.458 OA
BRANCH   2   3
ATOM      3  C   UNL A   1      35.329  21.074  25.226  1.00  0.00     0.338 C 
ATOM      4  O   UNL A   1      35.488  19.895  24.938  1.00  0.00    -0.246 OA
BRANCH   3   5
ATOM      5  C   UNL A   1      34.168  21.816  24.693  1.00  0.00     0.065 A 
ATOM      6  C   UNL A   1      35.708  23.071  23.105  1.00  0.00     0.047 C 
ATOM      7  C   UNL A   1      34.336  22.623  23.546  1.00  0.00    -0.013 A 
ATOM      8  C   UNL A   1      33.184  23.063  22.863  1.00  0.00     0.045 A 
ATOM      9  C   UNL A   1      31.945  22.513  23.204  1.00  0.00     0.026 A 
ATOM     10  C   UNL A   1      32.887  21.522  25.174  1.00  0.00     0.016 A 
ATOM     11  C   UNL A   1      31.780  21.801  24.386  1.00  0.00     0.003 A 
BRANCH   8  12
ATOM     12  N   UNL A   1      33.327  24.045  21.861  1.00  0.00    -0.319 N 
ATOM     13  C   UNL A   1      32.789  25.310  21.725  1.00  0.00     0.291 C 
ATOM     14  H   UNL A   1      33.920  23.780  21.121  1.00  0.00     0.170 HD
ATOM     15  O   UNL A   1      33.034  25.912  20.677  1.00  0.00    -0.265 OA
BRANCH  13  16
ATOM     16  C   UNL A   1      32.030  25.896  22.803  1.00  0.00     0.192 A 
ATOM     17  C   UNL A   1      30.711  25.766  23.205  1.00  0.00     0.057 A 
ATOM     18  O   UNL A   1      32.660  26.812  23.597  1.00  0.00    -0.451 OA
ATOM     19  C   UNL A   1      30.514  26.702  24.247  1.00  0.00     0.052 A 
ATOM     20  C   UNL A   1      31.736  27.299  24.470  1.00  0.00     0.135 A 
BRANCH  20  21
ATOM     21  C   UNL A   1      32.220  28.274  25.428  1.00  0.00     0.019 A 
ATOM     22  C   UNL A   1      33.306  27.947  26.250  1.00  0.00     0.012 A 
ATOM     23  C   UNL A   1      31.628  29.538  25.543  1.00  0.00     0.032 A 
ATOM     24  C   UNL A   1      33.803  28.869  27.171  1.00  0.00     0.002 A 
ATOM     25  C   UNL A   1      32.119  30.451  26.475  1.00  0.00     0.041 A 
ATOM     26  C   UNL A   1      33.206  30.123  27.286  1.00  0.00     0.020 A 
ATOM     27  Cl  UNL A   1      31.378  31.997  26.633  1.00  0.00    -0.084 Cl
ENDBRANCH  20  21
ENDBRANCH  13  16
ENDBRANCH   8  12
ENDBRANCH   3   5
ENDBRANCH   2   3
ENDBRANCH   1   2
BRANCH   1  28
ATOM     28  C   UNL A   1      38.442  22.732  25.655  1.00  0.00     0.275 C 
BRANCH  28  29
ATOM     29  O   UNL A   1      38.816  23.524  26.816  1.00  0.00    -0.458 OA
BRANCH  29  30
ATOM     30  C   UNL A   1      40.048  24.023  27.052  1.00  0.00     0.338 C 
ATOM     31  O   UNL A   1      41.076  23.367  26.922  1.00  0.00    -0.246 OA
BRANCH  30  32
ATOM     32  C   UNL A   1      40.074  25.407  27.555  1.00  0.00     0.060 A 
ATOM     33  C   UNL A   1      40.403  26.450  26.672  1.00  0.00     0.016 A 
ATOM     34  C   UNL A   1      39.631  25.672  28.845  1.00  0.00     0.016 A 
ATOM     35  C   UNL A   1      40.156  27.767  27.025  1.00  0.00     0.010 A 
ATOM     36  C   UNL A   1      39.251  26.947  29.151  1.00  0.00     0.010 A 
ATOM     37  C   UNL A   1      39.570  27.990  28.265  1.00  0.00    -0.014 A 
BRANCH  37  38
ATOM     38  C   UNL A   1      39.616  29.272  28.932  1.00  0.00     0.031 A 
ATOM     39  C   UNL A   1      38.568  30.276  28.723  1.00  0.00     0.074 A 
ATOM     40  C   UNL A   1      40.602  29.257  29.859  1.00  0.00     0.049 A 
ATOM     41  N   UNL A   1      38.689  31.506  29.063  1.00  0.00    -0.248 NA
ATOM     42  C   UNL A   1      37.294  30.012  28.060  1.00  0.00     0.031 C 
ATOM     43  C   UNL A   1      40.884  30.087  31.010  1.00  0.00     0.029 A 
ATOM     44  N   UNL A   1      41.711  28.382  29.806  1.00  0.00    -0.354 N 
ATOM     45  C   UNL A   1      37.433  32.083  29.015  1.00  0.00     0.074 A 
ATOM     46  C   UNL A   1      36.642  31.169  28.237  1.00  0.00     0.031 C 
ATOM     47  C   UNL A   1      42.188  29.934  31.329  1.00  0.00     0.029 A 
ATOM     48  C   UNL A   1      42.799  29.099  30.295  1.00  0.00     0.049 A 
ATOM     49  H   UNL A   1      41.714  27.451  29.486  1.00  0.00     0.167 HD
ATOM     50  C   UNL A   1      37.217  33.173  29.809  1.00  0.00     0.037 A 
ATOM     51  C   UNL A   1      43.729  29.502  29.377  1.00  0.00     0.037 A 
ATOM     52  C   UNL A   1      38.484  33.534  30.447  1.00  0.00     0.049 A 
ATOM     53  C   UNL A   1      43.667  31.004  29.249  1.00  0.00     0.074 A 
ATOM     54  C   UNL A   1      39.022  33.187  31.676  1.00  0.00     0.029 A 
ATOM     55  N   UNL A   1      39.544  33.951  29.648  1.00  0.00    -0.354 N 
ATOM     56  N   UNL A   1      42.565  31.707  29.297  1.00  0.00    -0.248 NA
ATOM     57  C   UNL A   1      44.874  31.815  29.215  1.00  0.00     0.031 C 
ATOM     58  C   UNL A   1      40.436  33.295  31.568  1.00  0.00     0.029 A 
ATOM     59  C   UNL A   1      40.751  33.706  30.280  1.00  0.00     0.049 A 
ATOM     60  H   UNL A   1      39.450  34.363  28.759  1.00  0.00     0.167 HD
ATOM     61  C   UNL A   1      42.899  33.031  29.413  1.00  0.00     0.074 A 
ATOM     62  C   UNL A   1      44.352  33.046  29.330  1.00  0.00     0.031 C 
ATOM     63  C   UNL A   1      42.005  34.041  29.630  1.00  0.00     0.037 A 
BRANCH  50  64
ATOM     64  C   UNL A   1      35.888  33.749  30.269  1.00  0.00     0.064 A 
ATOM     65  C   UNL A   1      35.017  34.340  29.319  1.00  0.00     0.173 A 
ATOM     66  C   UNL A   1      35.423  33.820  31.597  1.00  0.00     0.173 A 
ATOM     67  F   UNL A   1      35.287  34.306  28.007  1.00  0.00    -0.203 F 
ATOM     68  C   UNL A   1      33.833  34.996  29.673  1.00  0.00     0.198 A 
ATOM     69  C   UNL A   1      34.236  34.479  31.951  1.00  0.00     0.198 A 
ATOM     70  F   UNL A   1      36.074  33.240  32.608  1.00  0.00    -0.203 F 
ATOM     71  F   UNL A   1      33.075  35.558  28.720  1.00  0.00    -0.200 F 
ATOM     72  C   UNL A   1      33.447  35.076  30.992  1.00  0.00     0.200 A 
ATOM     73  F   UNL A   1      33.867  34.534  33.240  1.00  0.00    -0.200 F 
ATOM     74  F   UNL A   1      32.319  35.712  31.334  1.00  0.00    -0.200 F 
ENDBRANCH  50  64
BRANCH  51  75
ATOM     75  C   UNL A   1      43.970  28.516  28.265  1.00  0.00     0.064 A 
ATOM     76  C   UNL A   1      44.448  27.225  28.602  1.00  0.00     0.173 A 
ATOM     77  C   UNL A   1      43.514  28.683  26.951  1.00  0.00     0.173 A 
ATOM     78  F   UNL A   1      44.919  26.988  29.838  1.00  0.00    -0.203 F 
ATOM     79  C   UNL A   1      44.365  26.144  27.723  1.00  0.00     0.198 A 
ATOM     80  C   UNL A   1      43.459  27.599  26.058  1.00  0.00     0.198 A 
ATOM     81  F   UNL A   1      43.046  29.869  26.537  1.00  0.00    -0.203 F 
ATOM     82  F   UNL A   1      44.714  24.916  28.136  1.00  0.00    -0.200 F 
ATOM     83  C   UNL A   1      43.857  26.330  26.453  1.00  0.00     0.200 A 
ATOM     84  F   UNL A   1      42.931  27.766  24.835  1.00  0.00    -0.200 F 
ATOM     85  F   UNL A   1      43.700  25.284  25.629  1.00  0.00    -0.200 F 
ENDBRANCH  51  75
BRANCH  63  86
ATOM     86  C   UNL A   1      42.293  35.491  29.331  1.00  0.00     0.064 A 
ATOM     87  C   UNL A   1      43.154  36.275  30.116  1.00  0.00     0.173 A 
ATOM     88  C   UNL A   1      41.844  36.089  28.129  1.00  0.00     0.173 A 
ATOM     89  F   UNL A   1      43.774  35.775  31.194  1.00  0.00    -0.203 F 
ATOM     90  C   UNL A   1      43.458  37.592  29.782  1.00  0.00     0.198 A 
ATOM     91  C   UNL A   1      42.226  37.374  27.755  1.00  0.00     0.198 A 
ATOM     92  F   UNL A   1      41.057  35.437  27.261  1.00  0.00    -0.203 F 
ATOM     93  F   UNL A   1      44.220  38.321  30.607  1.00  0.00    -0.200 F 
ATOM     94  C   UNL A   1      43.006  38.136  28.596  1.00  0.00     0.200 A 
ATOM     95  F   UNL A   1      41.848  37.856  26.563  1.00  0.00    -0.200 F 
ATOM     96  F   UNL A   1      43.345  39.385  28.254  1.00  0.00    -0.200 F 
ENDBRANCH  63  86
ENDBRANCH  37  38
ENDBRANCH  30  32
ENDBRANCH  29  30
ENDBRANCH  28  29
ENDBRANCH   1  28
TORSDOF 14
ENDMDL
