MODEL 1
REMARK VINA RESULT:     -11.5      0.000      0.000
REMARK SMILES Cc1oc(CSc2ccncc2N)cc1C(=O)OCCOC(=O)c1ccc(-c2c3nc(c(-c4c(F)c(F)c(F)c(F)c4F)c4ccc([nH]4)c(-c4c(F)c(F)c(F)c(F)c4F)c4nc(c(-c5c(F)c(F)c(F)c(F)c5F)c5ccc2[nH]5)C=C4)C=C3)cc1
REMARK SMILES IDX 19 1 18 2 16 3 17 4 15 5 1 6 2 7 3 8 4 9 14 10 5 11 6 12
REMARK SMILES IDX 7 13 8 14 12 15 9 16 11 17 10 18 13 19 20 22 21 23 22 24
REMARK SMILES IDX 23 25 24 26 25 27 86 28 26 29 85 30 27 31 28 32 29 33 79 34
REMARK SMILES IDX 30 35 84 36 78 37 80 38 31 39 83 40 77 41 76 42 32 44 64 45
REMARK SMILES IDX 44 46 63 47 45 48 48 49 62 50 81 51 46 52 47 53 61 55 82 56
REMARK SMILES IDX 49 57 33 58 34 59 42 60 35 61 36 62 40 63 43 64 37 65 38 66
REMARK SMILES IDX 41 67 39 68 65 69 66 70 74 71 67 72 68 73 72 74 75 75 69 76
REMARK SMILES IDX 70 77 73 78 71 79 50 80 51 81 59 82 52 83 53 84 57 85 60 86
REMARK SMILES IDX 54 87 55 88 58 89 56 90
REMARK H PARENT 13 20 13 21 80 43 48 54
REMARK Flexibility Score: inf
ROOT
ATOM      1  C   UNL A   1      42.355  20.651  25.967  1.00  0.00     0.275 C 
ENDROOT
BRANCH   1   2
ATOM      2  O   UNL A   1      41.101  21.238  25.569  1.00  0.00    -0.458 OA
BRANCH   2   3
ATOM      3  C   UNL A   1      40.198  21.450  26.569  1.00  0.00     0.341 C 
ATOM      4  O   UNL A   1      40.465  21.408  27.761  1.00  0.00    -0.246 OA
BRANCH   3   5
ATOM      5  C   UNL A   1      38.888  21.862  26.089  1.00  0.00     0.101 A 
ATOM      6  C   UNL A   1      38.742  24.464  26.512  1.00  0.00     0.088 C 
ATOM      7  C   UNL A   1      38.294  23.112  26.114  1.00  0.00     0.115 A 
ATOM      8  O   UNL A   1      37.026  23.050  25.600  1.00  0.00    -0.465 OA
ATOM      9  C   UNL A   1      36.794  21.756  25.245  1.00  0.00     0.115 A 
ATOM     10  C   UNL A   1      37.932  21.012  25.458  1.00  0.00     0.062 A 
BRANCH   9  11
ATOM     11  C   UNL A   1      35.497  21.392  24.625  1.00  0.00     0.150 C 
BRANCH  11  12
ATOM     12  S   UNL A   1      34.444  22.721  23.971  1.00  0.00    -0.116 SA
BRANCH  12  13
ATOM     13  C   UNL A   1      33.207  23.114  25.213  1.00  0.00     0.034 A 
ATOM     14  C   UNL A   1      33.145  24.483  25.525  1.00  0.00     0.037 A 
ATOM     15  C   UNL A   1      32.290  22.254  25.830  1.00  0.00     0.064 A 
ATOM     16  C   UNL A   1      32.243  24.933  26.474  1.00  0.00     0.112 A 
ATOM     17  C   UNL A   1      31.489  22.808  26.837  1.00  0.00     0.137 A 
ATOM     18  N   UNL A   1      31.424  24.119  27.160  1.00  0.00    -0.262 NA
BRANCH  15  19
ATOM     19  N   UNL A   1      32.152  20.906  25.509  1.00  0.00    -0.397 N 
ATOM     20  H   UNL A   1      32.892  20.426  25.069  1.00  0.00     0.156 HD
ATOM     21  H   UNL A   1      31.316  20.432  25.720  1.00  0.00     0.156 HD
ENDBRANCH  15  19
ENDBRANCH  12  13
ENDBRANCH  11  12
ENDBRANCH   9  11
ENDBRANCH   3   5
ENDBRANCH   2   3
ENDBRANCH   1   2
BRANCH   1  22
ATOM     22  C   UNL A   1      43.514  21.588  25.627  1.00  0.00     0.275 C 
BRANCH  22  23
ATOM     23  O   UNL A   1      43.024  22.715  24.875  1.00  0.00    -0.458 OA
BRANCH  23  24
ATOM     24  C   UNL A   1      43.754  23.850  24.965  1.00  0.00     0.338 C 
ATOM     25  O   UNL A   1      44.785  24.125  24.378  1.00  0.00    -0.246 OA
BRANCH  24  26
ATOM     26  C   UNL A   1      43.114  24.772  25.917  1.00  0.00     0.060 A 
ATOM     27  C   UNL A   1      43.373  26.136  25.831  1.00  0.00     0.016 A 
ATOM     28  C   UNL A   1      42.364  24.267  26.979  1.00  0.00     0.016 A 
ATOM     29  C   UNL A   1      42.954  26.992  26.849  1.00  0.00     0.010 A 
ATOM     30  C   UNL A   1      41.878  25.141  27.960  1.00  0.00     0.010 A 
ATOM     31  C   UNL A   1      42.206  26.509  27.932  1.00  0.00    -0.014 A 
BRANCH  31  32
ATOM     32  C   UNL A   1      41.825  27.416  29.055  1.00  0.00     0.031 A 
ATOM     33  C   UNL A   1      42.666  27.480  30.307  1.00  0.00     0.074 A 
ATOM     34  C   UNL A   1      40.746  28.218  28.950  1.00  0.00     0.049 A 
ATOM     35  N   UNL A   1      42.419  28.087  31.443  1.00  0.00    -0.248 NA
ATOM     36  C   UNL A   1      43.950  26.763  30.282  1.00  0.00     0.031 C 
ATOM     37  C   UNL A   1      39.863  28.304  27.787  1.00  0.00     0.029 A 
ATOM     38  N   UNL A   1      40.214  29.126  29.835  1.00  0.00    -0.354 N 
ATOM     39  C   UNL A   1      43.480  27.769  32.284  1.00  0.00     0.074 A 
ATOM     40  C   UNL A   1      44.380  26.927  31.526  1.00  0.00     0.031 C 
ATOM     41  C   UNL A   1      38.933  29.245  28.008  1.00  0.00     0.029 A 
ATOM     42  C   UNL A   1      39.093  29.763  29.362  1.00  0.00     0.049 A 
ATOM     43  H   UNL A   1      40.600  29.303  30.723  1.00  0.00     0.167 HD
ATOM     44  C   UNL A   1      43.681  28.143  33.571  1.00  0.00     0.037 A 
ATOM     45  C   UNL A   1      38.258  30.636  29.958  1.00  0.00     0.037 A 
ATOM     46  C   UNL A   1      42.822  29.035  34.307  1.00  0.00     0.049 A 
ATOM     47  C   UNL A   1      38.498  31.028  31.389  1.00  0.00     0.074 A 
ATOM     48  C   UNL A   1      42.956  29.482  35.610  1.00  0.00     0.029 A 
ATOM     49  N   UNL A   1      41.681  29.632  33.795  1.00  0.00    -0.354 N 
ATOM     50  N   UNL A   1      39.465  30.665  32.193  1.00  0.00    -0.248 NA
ATOM     51  C   UNL A   1      37.514  31.933  31.999  1.00  0.00     0.031 C 
ATOM     52  C   UNL A   1      41.880  30.330  35.898  1.00  0.00     0.029 A 
ATOM     53  C   UNL A   1      41.097  30.438  34.760  1.00  0.00     0.049 A 
ATOM     54  H   UNL A   1      41.335  29.503  32.883  1.00  0.00     0.167 HD
ATOM     55  C   UNL A   1      39.211  31.297  33.402  1.00  0.00     0.074 A 
ATOM     56  C   UNL A   1      38.011  32.087  33.218  1.00  0.00     0.031 C 
ATOM     57  C   UNL A   1      39.904  31.219  34.564  1.00  0.00     0.037 A 
BRANCH  44  58
ATOM     58  C   UNL A   1      44.865  27.561  34.288  1.00  0.00     0.064 A 
ATOM     59  C   UNL A   1      44.798  26.337  34.966  1.00  0.00     0.173 A 
ATOM     60  C   UNL A   1      46.103  28.222  34.247  1.00  0.00     0.173 A 
ATOM     61  F   UNL A   1      43.635  25.672  35.041  1.00  0.00    -0.203 F 
ATOM     62  C   UNL A   1      45.921  25.803  35.594  1.00  0.00     0.198 A 
ATOM     63  C   UNL A   1      47.231  27.673  34.854  1.00  0.00     0.198 A 
ATOM     64  F   UNL A   1      46.224  29.394  33.604  1.00  0.00    -0.203 F 
ATOM     65  F   UNL A   1      45.826  24.647  36.265  1.00  0.00    -0.200 F 
ATOM     66  C   UNL A   1      47.138  26.468  35.531  1.00  0.00     0.200 A 
ATOM     67  F   UNL A   1      48.408  28.310  34.779  1.00  0.00    -0.200 F 
ATOM     68  F   UNL A   1      48.220  25.946  36.124  1.00  0.00    -0.200 F 
ENDBRANCH  44  58
BRANCH  45  69
ATOM     69  C   UNL A   1      37.089  31.165  29.209  1.00  0.00     0.064 A 
ATOM     70  C   UNL A   1      35.973  30.358  28.951  1.00  0.00     0.173 A 
ATOM     71  C   UNL A   1      37.058  32.491  28.750  1.00  0.00     0.173 A 
ATOM     72  F   UNL A   1      35.968  29.077  29.346  1.00  0.00    -0.203 F 
ATOM     73  C   UNL A   1      34.871  30.857  28.258  1.00  0.00     0.198 A 
ATOM     74  C   UNL A   1      35.945  32.996  28.085  1.00  0.00     0.198 A 
ATOM     75  F   UNL A   1      38.103  33.302  28.971  1.00  0.00    -0.203 F 
ATOM     76  F   UNL A   1      33.831  30.055  27.994  1.00  0.00    -0.200 F 
ATOM     77  C   UNL A   1      34.854  32.177  27.834  1.00  0.00     0.200 A 
ATOM     78  F   UNL A   1      35.926  34.277  27.692  1.00  0.00    -0.200 F 
ATOM     79  F   UNL A   1      33.788  32.660  27.182  1.00  0.00    -0.200 F 
ENDBRANCH  45  69
BRANCH  57  80
ATOM     80  C   UNL A   1      39.392  32.025  35.720  1.00  0.00     0.064 A 
ATOM     81  C   UNL A   1      39.801  33.351  35.924  1.00  0.00     0.173 A 
ATOM     82  C   UNL A   1      38.463  31.475  36.614  1.00  0.00     0.173 A 
ATOM     83  F   UNL A   1      40.700  33.913  35.103  1.00  0.00    -0.203 F 
ATOM     84  C   UNL A   1      39.315  34.091  36.999  1.00  0.00     0.198 A 
ATOM     85  C   UNL A   1      37.962  32.225  37.676  1.00  0.00     0.198 A 
ATOM     86  F   UNL A   1      38.039  30.212  36.459  1.00  0.00    -0.203 F 
ATOM     87  F   UNL A   1      39.752  35.341  37.201  1.00  0.00    -0.200 F 
ATOM     88  C   UNL A   1      38.393  33.529  37.870  1.00  0.00     0.200 A 
ATOM     89  F   UNL A   1      37.066  31.685  38.512  1.00  0.00    -0.200 F 
ATOM     90  F   UNL A   1      37.925  34.243  38.904  1.00  0.00    -0.200 F 
ENDBRANCH  57  80
ENDBRANCH  31  32
ENDBRANCH  24  26
ENDBRANCH  23  24
ENDBRANCH  22  23
ENDBRANCH   1  22
TORSDOF 15
ENDMDL
MODEL 2
REMARK VINA RESULT:     -11.3      3.207      8.099
REMARK SMILES Cc1oc(CSc2ccncc2N)cc1C(=O)OCCOC(=O)c1ccc(-c2c3nc(c(-c4c(F)c(F)c(F)c(F)c4F)c4ccc([nH]4)c(-c4c(F)c(F)c(F)c(F)c4F)c4nc(c(-c5c(F)c(F)c(F)c(F)c5F)c5ccc2[nH]5)C=C4)C=C3)cc1
REMARK SMILES IDX 19 1 18 2 16 3 17 4 15 5 1 6 2 7 3 8 4 9 14 10 5 11 6 12
REMARK SMILES IDX 7 13 8 14 12 15 9 16 11 17 10 18 13 19 20 22 21 23 22 24
REMARK SMILES IDX 23 25 24 26 25 27 86 28 26 29 85 30 27 31 28 32 29 33 79 34
REMARK SMILES IDX 30 35 84 36 78 37 80 38 31 39 83 40 77 41 76 42 32 44 64 45
REMARK SMILES IDX 44 46 63 47 45 48 48 49 62 50 81 51 46 52 47 53 61 55 82 56
REMARK SMILES IDX 49 57 33 58 34 59 42 60 35 61 36 62 40 63 43 64 37 65 38 66
REMARK SMILES IDX 41 67 39 68 65 69 66 70 74 71 67 72 68 73 72 74 75 75 69 76
REMARK SMILES IDX 70 77 73 78 71 79 50 80 51 81 59 82 52 83 53 84 57 85 60 86
REMARK SMILES IDX 54 87 55 88 58 89 56 90
REMARK H PARENT 13 20 13 21 80 43 48 54
REMARK Flexibility Score: inf
ROOT
ATOM      1  C   UNL A   1      31.703  28.777  27.363  1.00  0.00     0.275 C 
ENDROOT
BRANCH   1   2
ATOM      2  O   UNL A   1      32.504  27.603  27.124  1.00  0.00    -0.458 OA
BRANCH   2   3
ATOM      3  C   UNL A   1      31.848  26.530  26.598  1.00  0.00     0.341 C 
ATOM      4  O   UNL A   1      30.649  26.325  26.720  1.00  0.00    -0.246 OA
BRANCH   3   5
ATOM      5  C   UNL A   1      32.689  25.693  25.756  1.00  0.00     0.101 A 
ATOM      6  C   UNL A   1      33.276  27.151  23.634  1.00  0.00     0.088 C 
ATOM      7  C   UNL A   1      33.235  25.963  24.512  1.00  0.00     0.115 A 
ATOM      8  O   UNL A   1      33.926  24.875  24.048  1.00  0.00    -0.465 OA
ATOM      9  C   UNL A   1      33.826  23.896  24.989  1.00  0.00     0.115 A 
ATOM     10  C   UNL A   1      33.141  24.380  26.081  1.00  0.00     0.062 A 
BRANCH   9  11
ATOM     11  C   UNL A   1      34.510  22.600  24.768  1.00  0.00     0.150 C 
BRANCH  11  12
ATOM     12  S   UNL A   1      36.064  22.588  23.827  1.00  0.00    -0.116 SA
BRANCH  12  13
ATOM     13  C   UNL A   1      37.424  22.504  24.999  1.00  0.00     0.034 A 
ATOM     14  C   UNL A   1      37.689  23.729  25.634  1.00  0.00     0.037 A 
ATOM     15  C   UNL A   1      38.173  21.385  25.383  1.00  0.00     0.064 A 
ATOM     16  C   UNL A   1      38.717  23.818  26.558  1.00  0.00     0.112 A 
ATOM     17  C   UNL A   1      39.244  21.616  26.258  1.00  0.00     0.137 A 
ATOM     18  N   UNL A   1      39.522  22.789  26.869  1.00  0.00    -0.262 NA
BRANCH  15  19
ATOM     19  N   UNL A   1      37.922  20.090  24.936  1.00  0.00    -0.397 N 
ATOM     20  H   UNL A   1      37.030  19.852  24.593  1.00  0.00     0.156 HD
ATOM     21  H   UNL A   1      38.635  19.412  24.964  1.00  0.00     0.156 HD
ENDBRANCH  15  19
ENDBRANCH  12  13
ENDBRANCH  11  12
ENDBRANCH   9  11
ENDBRANCH   3   5
ENDBRANCH   2   3
ENDBRANCH   1   2
BRANCH   1  22
ATOM     22  C   UNL A   1      31.826  29.753  26.193  1.00  0.00     0.275 C 
BRANCH  22  23
ATOM     23  O   UNL A   1      33.175  30.252  26.116  1.00  0.00    -0.458 OA
BRANCH  23  24
ATOM     24  C   UNL A   1      33.505  31.210  27.012  1.00  0.00     0.338 C 
ATOM     25  O   UNL A   1      32.854  32.186  27.337  1.00  0.00    -0.246 OA
BRANCH  24  26
ATOM     26  C   UNL A   1      34.829  30.914  27.582  1.00  0.00     0.060 A 
ATOM     27  C   UNL A   1      35.189  29.593  27.833  1.00  0.00     0.016 A 
ATOM     28  C   UNL A   1      35.658  31.956  27.996  1.00  0.00     0.016 A 
ATOM     29  C   UNL A   1      36.338  29.310  28.569  1.00  0.00     0.010 A 
ATOM     30  C   UNL A   1      36.853  31.665  28.667  1.00  0.00     0.010 A 
ATOM     31  C   UNL A   1      37.185  30.340  29.003  1.00  0.00    -0.014 A 
BRANCH  31  32
ATOM     32  C   UNL A   1      38.373  30.035  29.854  1.00  0.00     0.031 A 
ATOM     33  C   UNL A   1      39.507  29.197  29.315  1.00  0.00     0.074 A 
ATOM     34  C   UNL A   1      38.467  30.535  31.104  1.00  0.00     0.049 A 
ATOM     35  N   UNL A   1      40.545  28.701  29.944  1.00  0.00    -0.248 NA
ATOM     36  C   UNL A   1      39.467  28.868  27.881  1.00  0.00     0.031 C 
ATOM     37  C   UNL A   1      37.476  31.398  31.748  1.00  0.00     0.029 A 
ATOM     38  N   UNL A   1      39.451  30.398  32.053  1.00  0.00    -0.354 N 
ATOM     39  C   UNL A   1      41.239  27.950  29.002  1.00  0.00     0.074 A 
ATOM     40  C   UNL A   1      40.514  28.065  27.755  1.00  0.00     0.031 C 
ATOM     41  C   UNL A   1      37.923  31.753  32.961  1.00  0.00     0.029 A 
ATOM     42  C   UNL A   1      39.185  31.069  33.222  1.00  0.00     0.049 A 
ATOM     43  H   UNL A   1      40.269  29.870  31.910  1.00  0.00     0.167 HD
ATOM     44  C   UNL A   1      42.375  27.228  29.164  1.00  0.00     0.037 A 
ATOM     45  C   UNL A   1      39.855  31.103  34.390  1.00  0.00     0.037 A 
ATOM     46  C   UNL A   1      43.136  27.166  30.385  1.00  0.00     0.049 A 
ATOM     47  C   UNL A   1      41.106  30.287  34.548  1.00  0.00     0.074 A 
ATOM     48  C   UNL A   1      44.308  26.473  30.638  1.00  0.00     0.029 A 
ATOM     49  N   UNL A   1      42.811  27.838  31.553  1.00  0.00    -0.354 N 
ATOM     50  N   UNL A   1      41.712  29.527  33.671  1.00  0.00    -0.248 NA
ATOM     51  C   UNL A   1      41.753  30.317  35.868  1.00  0.00     0.031 C 
ATOM     52  C   UNL A   1      44.678  26.704  31.968  1.00  0.00     0.029 A 
ATOM     53  C   UNL A   1      43.756  27.571  32.531  1.00  0.00     0.049 A 
ATOM     54  H   UNL A   1      42.025  28.419  31.671  1.00  0.00     0.167 HD
ATOM     55  C   UNL A   1      42.811  28.990  34.328  1.00  0.00     0.074 A 
ATOM     56  C   UNL A   1      42.802  29.533  35.671  1.00  0.00     0.031 C 
ATOM     57  C   UNL A   1      43.736  28.116  33.863  1.00  0.00     0.037 A 
BRANCH  44  58
ATOM     58  C   UNL A   1      42.855  26.412  27.999  1.00  0.00     0.064 A 
ATOM     59  C   UNL A   1      42.448  25.086  27.799  1.00  0.00     0.173 A 
ATOM     60  C   UNL A   1      43.696  26.993  27.036  1.00  0.00     0.173 A 
ATOM     61  F   UNL A   1      41.652  24.484  28.696  1.00  0.00    -0.203 F 
ATOM     62  C   UNL A   1      42.881  24.363  26.690  1.00  0.00     0.198 A 
ATOM     63  C   UNL A   1      44.107  26.276  25.914  1.00  0.00     0.198 A 
ATOM     64  F   UNL A   1      44.108  28.263  27.175  1.00  0.00    -0.203 F 
ATOM     65  F   UNL A   1      42.506  23.086  26.536  1.00  0.00    -0.200 F 
ATOM     66  C   UNL A   1      43.703  24.961  25.745  1.00  0.00     0.200 A 
ATOM     67  F   UNL A   1      44.889  26.860  24.996  1.00  0.00    -0.200 F 
ATOM     68  F   UNL A   1      44.108  24.268  24.672  1.00  0.00    -0.200 F 
ENDBRANCH  44  58
BRANCH  45  69
ATOM     69  C   UNL A   1      39.324  31.910  35.519  1.00  0.00     0.064 A 
ATOM     70  C   UNL A   1      39.680  33.256  35.672  1.00  0.00     0.173 A 
ATOM     71  C   UNL A   1      38.439  31.357  36.458  1.00  0.00     0.173 A 
ATOM     72  F   UNL A   1      40.543  33.822  34.816  1.00  0.00    -0.203 F 
ATOM     73  C   UNL A   1      39.174  34.018  36.724  1.00  0.00     0.198 A 
ATOM     74  C   UNL A   1      37.911  32.127  37.490  1.00  0.00     0.198 A 
ATOM     75  F   UNL A   1      38.070  30.072  36.355  1.00  0.00    -0.203 F 
ATOM     76  F   UNL A   1      39.557  35.294  36.869  1.00  0.00    -0.200 F 
ATOM     77  C   UNL A   1      38.283  33.455  37.626  1.00  0.00     0.200 A 
ATOM     78  F   UNL A   1      37.038  31.583  38.349  1.00  0.00    -0.200 F 
ATOM     79  F   UNL A   1      37.785  34.193  38.628  1.00  0.00    -0.200 F 
ENDBRANCH  45  69
BRANCH  57  80
ATOM     80  C   UNL A   1      44.827  27.710  34.807  1.00  0.00     0.064 A 
ATOM     81  C   UNL A   1      46.006  28.460  34.928  1.00  0.00     0.173 A 
ATOM     82  C   UNL A   1      44.680  26.575  35.618  1.00  0.00     0.173 A 
ATOM     83  F   UNL A   1      46.197  29.544  34.161  1.00  0.00    -0.203 F 
ATOM     84  C   UNL A   1      47.010  28.075  35.812  1.00  0.00     0.198 A 
ATOM     85  C   UNL A   1      45.677  26.205  36.517  1.00  0.00     0.198 A 
ATOM     86  F   UNL A   1      43.569  25.827  35.540  1.00  0.00    -0.203 F 
ATOM     87  F   UNL A   1      48.147  28.781  35.881  1.00  0.00    -0.200 F 
ATOM     88  C   UNL A   1      46.843  26.951  36.609  1.00  0.00     0.200 A 
ATOM     89  F   UNL A   1      45.511  25.124  37.291  1.00  0.00    -0.200 F 
ATOM     90  F   UNL A   1      47.810  26.581  37.460  1.00  0.00    -0.200 F 
ENDBRANCH  57  80
ENDBRANCH  31  32
ENDBRANCH  24  26
ENDBRANCH  23  24
ENDBRANCH  22  23
ENDBRANCH   1  22
TORSDOF 15
ENDMDL
MODEL 3
REMARK VINA RESULT:     -11.3      3.338      8.236
REMARK SMILES Cc1oc(CSc2ccncc2N)cc1C(=O)OCCOC(=O)c1ccc(-c2c3nc(c(-c4c(F)c(F)c(F)c(F)c4F)c4ccc([nH]4)c(-c4c(F)c(F)c(F)c(F)c4F)c4nc(c(-c5c(F)c(F)c(F)c(F)c5F)c5ccc2[nH]5)C=C4)C=C3)cc1
REMARK SMILES IDX 19 1 18 2 16 3 17 4 15 5 1 6 2 7 3 8 4 9 14 10 5 11 6 12
REMARK SMILES IDX 7 13 8 14 12 15 9 16 11 17 10 18 13 19 20 22 21 23 22 24
REMARK SMILES IDX 23 25 24 26 25 27 86 28 26 29 85 30 27 31 28 32 29 33 79 34
REMARK SMILES IDX 30 35 84 36 78 37 80 38 31 39 83 40 77 41 76 42 32 44 64 45
REMARK SMILES IDX 44 46 63 47 45 48 48 49 62 50 81 51 46 52 47 53 61 55 82 56
REMARK SMILES IDX 49 57 33 58 34 59 42 60 35 61 36 62 40 63 43 64 37 65 38 66
REMARK SMILES IDX 41 67 39 68 65 69 66 70 74 71 67 72 68 73 72 74 75 75 69 76
REMARK SMILES IDX 70 77 73 78 71 79 50 80 51 81 59 82 52 83 53 84 57 85 60 86
REMARK SMILES IDX 54 87 55 88 58 89 56 90
REMARK H PARENT 13 20 13 21 80 43 48 54
REMARK Flexibility Score: inf
ROOT
ATOM      1  C   UNL A   1      31.375  28.945  25.037  1.00  0.00     0.275 C 
ENDROOT
BRANCH   1   2
ATOM      2  O   UNL A   1      31.087  29.400  23.700  1.00  0.00    -0.458 OA
BRANCH   2   3
ATOM      3  C   UNL A   1      30.784  28.430  22.791  1.00  0.00     0.341 C 
ATOM      4  O   UNL A   1      29.854  28.490  22.000  1.00  0.00    -0.246 OA
BRANCH   3   5
ATOM      5  C   UNL A   1      31.754  27.347  22.754  1.00  0.00     0.101 A 
ATOM      6  C   UNL A   1      34.106  28.486  22.375  1.00  0.00     0.088 C 
ATOM      7  C   UNL A   1      33.121  27.396  22.541  1.00  0.00     0.115 A 
ATOM      8  O   UNL A   1      33.650  26.132  22.539  1.00  0.00    -0.465 OA
ATOM      9  C   UNL A   1      32.626  25.261  22.748  1.00  0.00     0.115 A 
ATOM     10  C   UNL A   1      31.462  25.966  22.958  1.00  0.00     0.062 A 
BRANCH   9  11
ATOM     11  C   UNL A   1      32.909  23.808  22.826  1.00  0.00     0.150 C 
BRANCH  11  12
ATOM     12  S   UNL A   1      34.338  23.253  23.802  1.00  0.00    -0.116 SA
BRANCH  12  13
ATOM     13  C   UNL A   1      33.772  22.915  25.473  1.00  0.00     0.034 A 
ATOM     14  C   UNL A   1      32.422  23.244  25.683  1.00  0.00     0.037 A 
ATOM     15  C   UNL A   1      34.478  22.323  26.528  1.00  0.00     0.064 A 
ATOM     16  C   UNL A   1      31.849  23.045  26.928  1.00  0.00     0.112 A 
ATOM     17  C   UNL A   1      33.823  22.257  27.765  1.00  0.00     0.137 A 
ATOM     18  N   UNL A   1      32.529  22.579  27.988  1.00  0.00    -0.262 NA
BRANCH  15  19
ATOM     19  N   UNL A   1      35.774  21.825  26.413  1.00  0.00    -0.397 N 
ATOM     20  H   UNL A   1      36.375  22.174  25.715  1.00  0.00     0.156 HD
ATOM     21  H   UNL A   1      36.089  21.124  27.028  1.00  0.00     0.156 HD
ENDBRANCH  15  19
ENDBRANCH  12  13
ENDBRANCH  11  12
ENDBRANCH   9  11
ENDBRANCH   3   5
ENDBRANCH   2   3
ENDBRANCH   1   2
BRANCH   1  22
ATOM     22  C   UNL A   1      31.599  30.136  25.969  1.00  0.00     0.275 C 
BRANCH  22  23
ATOM     23  O   UNL A   1      33.012  30.366  26.132  1.00  0.00    -0.458 OA
BRANCH  23  24
ATOM     24  C   UNL A   1      33.358  31.292  27.055  1.00  0.00     0.338 C 
ATOM     25  O   UNL A   1      32.719  32.263  27.417  1.00  0.00    -0.246 OA
BRANCH  24  26
ATOM     26  C   UNL A   1      34.684  30.967  27.604  1.00  0.00     0.060 A 
ATOM     27  C   UNL A   1      35.010  29.640  27.871  1.00  0.00     0.016 A 
ATOM     28  C   UNL A   1      35.552  31.990  27.982  1.00  0.00     0.016 A 
ATOM     29  C   UNL A   1      36.165  29.336  28.588  1.00  0.00     0.010 A 
ATOM     30  C   UNL A   1      36.751  31.676  28.634  1.00  0.00     0.010 A 
ATOM     31  C   UNL A   1      37.051  30.347  28.988  1.00  0.00    -0.014 A 
BRANCH  31  32
ATOM     32  C   UNL A   1      38.247  30.022  29.820  1.00  0.00     0.031 A 
ATOM     33  C   UNL A   1      39.353  29.156  29.266  1.00  0.00     0.074 A 
ATOM     34  C   UNL A   1      38.373  30.526  31.065  1.00  0.00     0.049 A 
ATOM     35  N   UNL A   1      40.391  28.642  29.880  1.00  0.00    -0.248 NA
ATOM     36  C   UNL A   1      39.281  28.821  27.835  1.00  0.00     0.031 C 
ATOM     37  C   UNL A   1      37.412  31.413  31.721  1.00  0.00     0.029 A 
ATOM     38  N   UNL A   1      39.370  30.373  31.997  1.00  0.00    -0.354 N 
ATOM     39  C   UNL A   1      41.053  27.872  28.930  1.00  0.00     0.074 A 
ATOM     40  C   UNL A   1      40.309  27.995  27.695  1.00  0.00     0.031 C 
ATOM     41  C   UNL A   1      37.887  31.765  32.924  1.00  0.00     0.029 A 
ATOM     42  C   UNL A   1      39.138  31.056  33.167  1.00  0.00     0.049 A 
ATOM     43  H   UNL A   1      40.174  29.827  31.843  1.00  0.00     0.167 HD
ATOM     44  C   UNL A   1      42.176  27.127  29.077  1.00  0.00     0.037 A 
ATOM     45  C   UNL A   1      39.828  31.081  34.324  1.00  0.00     0.037 A 
ATOM     46  C   UNL A   1      42.956  27.054  30.286  1.00  0.00     0.049 A 
ATOM     47  C   UNL A   1      41.065  30.240  34.465  1.00  0.00     0.074 A 
ATOM     48  C   UNL A   1      44.117  26.338  30.522  1.00  0.00     0.029 A 
ATOM     49  N   UNL A   1      42.666  27.740  31.455  1.00  0.00    -0.354 N 
ATOM     50  N   UNL A   1      41.640  29.463  33.582  1.00  0.00    -0.248 NA
ATOM     51  C   UNL A   1      41.735  30.263  35.773  1.00  0.00     0.031 C 
ATOM     52  C   UNL A   1      44.516  26.568  31.844  1.00  0.00     0.029 A 
ATOM     53  C   UNL A   1      43.622  27.457  32.418  1.00  0.00     0.049 A 
ATOM     54  H   UNL A   1      41.895  28.338  31.583  1.00  0.00     0.167 HD
ATOM     55  C   UNL A   1      42.738  28.906  34.223  1.00  0.00     0.074 A 
ATOM     56  C   UNL A   1      42.764  29.455  35.562  1.00  0.00     0.031 C 
ATOM     57  C   UNL A   1      43.636  28.010  33.747  1.00  0.00     0.037 A 
BRANCH  44  58
ATOM     58  C   UNL A   1      42.618  26.294  27.908  1.00  0.00     0.064 A 
ATOM     59  C   UNL A   1      43.538  26.767  26.963  1.00  0.00     0.173 A 
ATOM     60  C   UNL A   1      42.149  24.978  27.767  1.00  0.00     0.173 A 
ATOM     61  F   UNL A   1      44.009  28.021  27.049  1.00  0.00    -0.203 F 
ATOM     62  C   UNL A   1      43.959  25.961  25.907  1.00  0.00     0.198 A 
ATOM     63  C   UNL A   1      42.591  24.166  26.725  1.00  0.00     0.198 A 
ATOM     64  F   UNL A   1      41.274  24.474  28.651  1.00  0.00    -0.203 F 
ATOM     65  F   UNL A   1      44.813  26.444  24.996  1.00  0.00    -0.200 F 
ATOM     66  C   UNL A   1      43.491  24.659  25.794  1.00  0.00     0.200 A 
ATOM     67  F   UNL A   1      42.148  22.905  26.627  1.00  0.00    -0.200 F 
ATOM     68  F   UNL A   1      43.906  23.881  24.785  1.00  0.00    -0.200 F 
ENDBRANCH  44  58
BRANCH  45  69
ATOM     69  C   UNL A   1      39.335  31.906  35.457  1.00  0.00     0.064 A 
ATOM     70  C   UNL A   1      38.480  31.363  36.424  1.00  0.00     0.173 A 
ATOM     71  C   UNL A   1      39.719  33.248  35.603  1.00  0.00     0.173 A 
ATOM     72  F   UNL A   1      38.064  30.093  36.313  1.00  0.00    -0.203 F 
ATOM     73  C   UNL A   1      38.025  32.132  37.494  1.00  0.00     0.198 A 
ATOM     74  C   UNL A   1      39.289  34.006  36.688  1.00  0.00     0.198 A 
ATOM     75  F   UNL A   1      40.534  33.814  34.701  1.00  0.00    -0.203 F 
ATOM     76  F   UNL A   1      37.181  31.599  38.388  1.00  0.00    -0.200 F 
ATOM     77  C   UNL A   1      38.437  33.449  37.630  1.00  0.00     0.200 A 
ATOM     78  F   UNL A   1      39.702  35.273  36.823  1.00  0.00    -0.200 F 
ATOM     79  F   UNL A   1      38.012  34.183  38.667  1.00  0.00    -0.200 F 
ENDBRANCH  45  69
BRANCH  57  80
ATOM     80  C   UNL A   1      44.734  27.586  34.675  1.00  0.00     0.064 A 
ATOM     81  C   UNL A   1      45.935  28.304  34.763  1.00  0.00     0.173 A 
ATOM     82  C   UNL A   1      44.573  26.466  35.503  1.00  0.00     0.173 A 
ATOM     83  F   UNL A   1      46.141  29.373  33.978  1.00  0.00    -0.203 F 
ATOM     84  C   UNL A   1      46.946  27.903  35.632  1.00  0.00     0.198 A 
ATOM     85  C   UNL A   1      45.577  26.079  36.387  1.00  0.00     0.198 A 
ATOM     86  F   UNL A   1      43.440  25.748  35.457  1.00  0.00    -0.203 F 
ATOM     87  F   UNL A   1      48.103  28.578  35.669  1.00  0.00    -0.200 F 
ATOM     88  C   UNL A   1      46.764  26.794  36.446  1.00  0.00     0.200 A 
ATOM     89  F   UNL A   1      45.397  25.013  37.178  1.00  0.00    -0.200 F 
ATOM     90  F   UNL A   1      47.738  26.408  37.283  1.00  0.00    -0.200 F 
ENDBRANCH  57  80
ENDBRANCH  31  32
ENDBRANCH  24  26
ENDBRANCH  23  24
ENDBRANCH  22  23
ENDBRANCH   1  22
TORSDOF 15
ENDMDL
