MODEL 1
REMARK VINA RESULT:     -11.0      0.000      0.000
REMARK SMILES C[NH2+][C@]1(C(=O)OCCOC(=O)c2ccc(-c3c4nc(c(-c5c(F)c(F)c(F)c(F)c5F)c5ccc([nH]5)c(-c5c(F)c(F)c(F)c(F)c5F)c5nc(c(-c6c(F)c(F)c(F)c(F)c6F)c6ccc3[nH]6)C=C5)C=C4)cc2)CCC[C@@H]1CCn1nc(C)c(Cl)c1C
REMARK SMILES IDX 7 1 6 2 4 3 5 4 3 5 75 6 78 7 76 8 77 9 2 10 1 11 79 14
REMARK SMILES IDX 80 15 81 16 82 17 87 18 83 19 85 20 88 21 84 22 86 23 8 24
REMARK SMILES IDX 9 25 10 26 11 27 12 28 13 29 74 30 14 31 73 32 15 33 16 34
REMARK SMILES IDX 17 35 67 36 18 37 72 38 66 39 68 40 19 41 71 42 65 43 64 44
REMARK SMILES IDX 20 46 52 47 32 48 51 49 33 50 36 51 50 52 69 53 34 54 35 55
REMARK SMILES IDX 49 57 70 58 37 59 21 60 22 61 30 62 23 63 24 64 28 65 31 66
REMARK SMILES IDX 25 67 26 68 29 69 27 70 53 71 54 72 62 73 55 74 56 75 60 76
REMARK SMILES IDX 63 77 57 78 58 79 61 80 59 81 38 82 39 83 47 84 40 85 41 86
REMARK SMILES IDX 45 87 48 88 42 89 43 90 46 91 44 92
REMARK H PARENT 2 12 2 13 68 45 36 56
REMARK Flexibility Score: inf
ROOT
ATOM      1  C   UNL A   1      31.774  28.813  27.188  1.00  0.00     0.274 C 
ENDROOT
BRANCH   1   2
ATOM      2  O   UNL A   1      32.436  27.630  26.713  1.00  0.00    -0.457 OA
BRANCH   2   3
ATOM      3  C   UNL A   1      31.629  26.632  26.265  1.00  0.00     0.368 C 
ATOM      4  O   UNL A   1      30.643  26.232  26.876  1.00  0.00    -0.245 OA
BRANCH   3   5
ATOM      5  C   UNL A   1      32.089  26.055  24.894  1.00  0.00     0.197 C 
ATOM      6  C   UNL A   1      32.253  27.148  23.807  1.00  0.00     0.081 C 
ATOM      7  C   UNL A   1      33.563  25.587  24.992  1.00  0.00     0.064 C 
ATOM      8  C   UNL A   1      33.223  26.577  22.778  1.00  0.00     0.008 C 
ATOM      9  C   UNL A   1      34.072  25.559  23.538  1.00  0.00     0.011 C 
BRANCH   5  10
ATOM     10  N   UNL A   1      31.182  25.007  24.342  1.00  0.00    -0.334 N 
ATOM     11  C   UNL A   1      29.982  25.470  23.657  1.00  0.00     0.331 C 
ATOM     12  H   UNL A   1      31.721  24.451  23.678  1.00  0.00     0.347 HD
ATOM     13  H   UNL A   1      30.843  24.493  25.155  1.00  0.00     0.347 HD
ENDBRANCH   5  10
BRANCH   7  14
ATOM     14  C   UNL A   1      33.796  24.267  25.748  1.00  0.00     0.034 C 
BRANCH  14  15
ATOM     15  C   UNL A   1      34.528  23.189  24.943  1.00  0.00     0.145 C 
BRANCH  15  16
ATOM     16  N   UNL A   1      35.898  22.978  25.384  1.00  0.00    -0.268 N 
ATOM     17  N   UNL A   1      36.607  24.045  25.806  1.00  0.00    -0.176 NA
ATOM     18  C   UNL A   1      36.623  21.809  25.392  1.00  0.00     0.054 A 
ATOM     19  C   UNL A   1      37.835  23.562  26.035  1.00  0.00     0.078 A 
ATOM     20  C   UNL A   1      37.895  22.175  25.778  1.00  0.00     0.084 A 
ATOM     21  C   UNL A   1      36.102  20.477  24.999  1.00  0.00     0.068 C 
ATOM     22  C   UNL A   1      38.910  24.473  26.503  1.00  0.00     0.070 C 
ATOM     23  Cl  UNL A   1      39.256  21.172  25.916  1.00  0.00    -0.080 Cl
ENDBRANCH  15  16
ENDBRANCH  14  15
ENDBRANCH   7  14
ENDBRANCH   3   5
ENDBRANCH   2   3
ENDBRANCH   1   2
BRANCH   1  24
ATOM     24  C   UNL A   1      31.973  29.952  26.187  1.00  0.00     0.275 C 
BRANCH  24  25
ATOM     25  O   UNL A   1      33.330  30.434  26.188  1.00  0.00    -0.458 OA
BRANCH  25  26
ATOM     26  C   UNL A   1      33.594  31.431  27.072  1.00  0.00     0.338 C 
ATOM     27  O   UNL A   1      32.911  32.420  27.291  1.00  0.00    -0.246 OA
BRANCH  26  28
ATOM     28  C   UNL A   1      34.821  31.111  27.831  1.00  0.00     0.060 A 
ATOM     29  C   UNL A   1      34.944  29.836  28.388  1.00  0.00     0.016 A 
ATOM     30  C   UNL A   1      35.844  32.049  28.002  1.00  0.00     0.016 A 
ATOM     31  C   UNL A   1      36.117  29.462  29.041  1.00  0.00     0.010 A 
ATOM     32  C   UNL A   1      36.998  31.694  28.709  1.00  0.00     0.010 A 
ATOM     33  C   UNL A   1      37.144  30.394  29.219  1.00  0.00    -0.014 A 
BRANCH  33  34
ATOM     34  C   UNL A   1      38.304  30.030  30.063  1.00  0.00     0.031 A 
ATOM     35  C   UNL A   1      39.329  29.093  29.500  1.00  0.00     0.074 A 
ATOM     36  C   UNL A   1      38.465  30.566  31.286  1.00  0.00     0.049 A 
ATOM     37  N   UNL A   1      40.428  28.638  30.042  1.00  0.00    -0.248 NA
ATOM     38  C   UNL A   1      39.088  28.615  28.129  1.00  0.00     0.031 C 
ATOM     39  C   UNL A   1      37.574  31.547  31.902  1.00  0.00     0.029 A 
ATOM     40  N   UNL A   1      39.441  30.360  32.229  1.00  0.00    -0.354 N 
ATOM     41  C   UNL A   1      41.018  27.836  29.075  1.00  0.00     0.074 A 
ATOM     42  C   UNL A   1      40.147  27.848  27.920  1.00  0.00     0.031 C 
ATOM     43  C   UNL A   1      38.037  31.847  33.128  1.00  0.00     0.029 A 
ATOM     44  C   UNL A   1      39.236  31.055  33.395  1.00  0.00     0.049 A 
ATOM     45  H   UNL A   1      40.215  29.768  32.082  1.00  0.00     0.167 HD
ATOM     46  C   UNL A   1      42.181  27.148  29.148  1.00  0.00     0.037 A 
ATOM     47  C   UNL A   1      39.929  31.028  34.551  1.00  0.00     0.037 A 
ATOM     48  C   UNL A   1      43.012  27.095  30.321  1.00  0.00     0.049 A 
ATOM     49  C   UNL A   1      41.153  30.148  34.650  1.00  0.00     0.074 A 
ATOM     50  C   UNL A   1      44.188  26.393  30.515  1.00  0.00     0.029 A 
ATOM     51  N   UNL A   1      42.738  27.757  31.510  1.00  0.00    -0.354 N 
ATOM     52  N   UNL A   1      41.714  29.401  33.730  1.00  0.00    -0.248 NA
ATOM     53  C   UNL A   1      41.839  30.108  35.950  1.00  0.00     0.031 C 
ATOM     54  C   UNL A   1      44.590  26.578  31.841  1.00  0.00     0.029 A 
ATOM     55  C   UNL A   1      43.705  27.453  32.454  1.00  0.00     0.049 A 
ATOM     56  H   UNL A   1      41.970  28.354  31.660  1.00  0.00     0.167 HD
ATOM     57  C   UNL A   1      42.832  28.830  34.326  1.00  0.00     0.074 A 
ATOM     58  C   UNL A   1      42.878  29.329  35.685  1.00  0.00     0.031 C 
ATOM     59  C   UNL A   1      43.739  27.970  33.799  1.00  0.00     0.037 A 
BRANCH  46  60
ATOM     60  C   UNL A   1      42.577  26.348  27.943  1.00  0.00     0.064 A 
ATOM     61  C   UNL A   1      42.211  25.001  27.796  1.00  0.00     0.173 A 
ATOM     62  C   UNL A   1      43.342  26.935  26.924  1.00  0.00     0.173 A 
ATOM     63  F   UNL A   1      41.498  24.386  28.752  1.00  0.00    -0.203 F 
ATOM     64  C   UNL A   1      42.622  24.265  26.688  1.00  0.00     0.198 A 
ATOM     65  C   UNL A   1      43.724  26.205  25.803  1.00  0.00     0.198 A 
ATOM     66  F   UNL A   1      43.719  28.219  27.016  1.00  0.00    -0.203 F 
ATOM     67  F   UNL A   1      42.309  22.964  26.595  1.00  0.00    -0.200 F 
ATOM     68  C   UNL A   1      43.373  24.868  25.690  1.00  0.00     0.200 A 
ATOM     69  F   UNL A   1      44.442  26.793  24.836  1.00  0.00    -0.200 F 
ATOM     70  F   UNL A   1      43.769  24.158  24.625  1.00  0.00    -0.200 F 
ENDBRANCH  46  60
BRANCH  47  71
ATOM     71  C   UNL A   1      39.476  31.829  35.723  1.00  0.00     0.064 A 
ATOM     72  C   UNL A   1      38.484  31.352  36.593  1.00  0.00     0.173 A 
ATOM     73  C   UNL A   1      39.991  33.111  35.969  1.00  0.00     0.173 A 
ATOM     74  F   UNL A   1      37.935  30.146  36.387  1.00  0.00    -0.203 F 
ATOM     75  C   UNL A   1      38.008  32.136  37.645  1.00  0.00     0.198 A 
ATOM     76  C   UNL A   1      39.538  33.880  37.040  1.00  0.00     0.198 A 
ATOM     77  F   UNL A   1      40.934  33.622  35.164  1.00  0.00    -0.203 F 
ATOM     78  F   UNL A   1      37.017  31.680  38.421  1.00  0.00    -0.200 F 
ATOM     79  C   UNL A   1      38.539  33.397  37.870  1.00  0.00     0.200 A 
ATOM     80  F   UNL A   1      40.061  35.094  37.258  1.00  0.00    -0.200 F 
ATOM     81  F   UNL A   1      38.078  34.151  38.877  1.00  0.00    -0.200 F 
ENDBRANCH  47  71
BRANCH  59  82
ATOM     82  C   UNL A   1      44.887  27.549  34.673  1.00  0.00     0.064 A 
ATOM     83  C   UNL A   1      44.831  26.391  35.463  1.00  0.00     0.173 A 
ATOM     84  C   UNL A   1      46.082  28.285  34.674  1.00  0.00     0.173 A 
ATOM     85  F   UNL A   1      43.708  25.657  35.509  1.00  0.00    -0.203 F 
ATOM     86  C   UNL A   1      45.918  26.001  36.241  1.00  0.00     0.198 A 
ATOM     87  C   UNL A   1      47.179  27.872  35.426  1.00  0.00     0.198 A 
ATOM     88  F   UNL A   1      46.194  29.395  33.929  1.00  0.00    -0.203 F 
ATOM     89  F   UNL A   1      45.825  24.919  37.027  1.00  0.00    -0.200 F 
ATOM     90  C   UNL A   1      47.094  26.736  36.214  1.00  0.00     0.200 A 
ATOM     91  F   UNL A   1      48.320  28.574  35.382  1.00  0.00    -0.200 F 
ATOM     92  F   UNL A   1      48.144  26.352  36.953  1.00  0.00    -0.200 F 
ENDBRANCH  59  82
ENDBRANCH  33  34
ENDBRANCH  26  28
ENDBRANCH  25  26
ENDBRANCH  24  25
ENDBRANCH   1  24
TORSDOF 15
ENDMDL
MODEL 2
REMARK VINA RESULT:     -10.8      2.755      8.506
REMARK SMILES C[NH2+][C@]1(C(=O)OCCOC(=O)c2ccc(-c3c4nc(c(-c5c(F)c(F)c(F)c(F)c5F)c5ccc([nH]5)c(-c5c(F)c(F)c(F)c(F)c5F)c5nc(c(-c6c(F)c(F)c(F)c(F)c6F)c6ccc3[nH]6)C=C5)C=C4)cc2)CCC[C@@H]1CCn1nc(C)c(Cl)c1C
REMARK SMILES IDX 7 1 6 2 4 3 5 4 3 5 75 6 78 7 76 8 77 9 2 10 1 11 79 14
REMARK SMILES IDX 80 15 81 16 82 17 87 18 83 19 85 20 88 21 84 22 86 23 8 24
REMARK SMILES IDX 9 25 10 26 11 27 12 28 13 29 74 30 14 31 73 32 15 33 16 34
REMARK SMILES IDX 17 35 67 36 18 37 72 38 66 39 68 40 19 41 71 42 65 43 64 44
REMARK SMILES IDX 20 46 52 47 32 48 51 49 33 50 36 51 50 52 69 53 34 54 35 55
REMARK SMILES IDX 49 57 70 58 37 59 21 60 22 61 30 62 23 63 24 64 28 65 31 66
REMARK SMILES IDX 25 67 26 68 29 69 27 70 53 71 54 72 62 73 55 74 56 75 60 76
REMARK SMILES IDX 63 77 57 78 58 79 61 80 59 81 38 82 39 83 47 84 40 85 41 86
REMARK SMILES IDX 45 87 48 88 42 89 43 90 46 91 44 92
REMARK H PARENT 2 12 2 13 68 45 36 56
REMARK Flexibility Score: inf
ROOT
ATOM      1  C   UNL A   1      31.884  32.523  27.148  1.00  0.00     0.274 C 
ENDROOT
BRANCH   1   2
ATOM      2  O   UNL A   1      32.314  31.153  27.179  1.00  0.00    -0.457 OA
BRANCH   2   3
ATOM      3  C   UNL A   1      31.914  30.378  26.137  1.00  0.00     0.368 C 
ATOM      4  O   UNL A   1      31.028  30.701  25.352  1.00  0.00    -0.245 OA
BRANCH   3   5
ATOM      5  C   UNL A   1      32.703  29.038  26.046  1.00  0.00     0.197 C 
ATOM      6  C   UNL A   1      32.435  28.101  27.252  1.00  0.00     0.081 C 
ATOM      7  C   UNL A   1      32.110  28.157  24.917  1.00  0.00     0.064 C 
ATOM      8  C   UNL A   1      32.756  26.690  26.769  1.00  0.00     0.008 C 
ATOM      9  C   UNL A   1      32.554  26.721  25.255  1.00  0.00     0.011 C 
BRANCH   5  10
ATOM     10  N   UNL A   1      34.180  29.210  25.933  1.00  0.00    -0.334 N 
ATOM     11  C   UNL A   1      34.926  29.322  27.181  1.00  0.00     0.331 C 
ATOM     12  H   UNL A   1      34.547  28.405  25.426  1.00  0.00     0.347 HD
ATOM     13  H   UNL A   1      34.309  30.107  25.465  1.00  0.00     0.347 HD
ENDBRANCH   5  10
BRANCH   7  14
ATOM     14  C   UNL A   1      32.461  28.586  23.482  1.00  0.00     0.034 C 
BRANCH  14  15
ATOM     15  C   UNL A   1      31.600  27.938  22.393  1.00  0.00     0.145 C 
BRANCH  15  16
ATOM     16  N   UNL A   1      30.217  28.387  22.415  1.00  0.00    -0.268 N 
ATOM     17  N   UNL A   1      29.901  29.519  21.754  1.00  0.00    -0.176 NA
ATOM     18  C   UNL A   1      29.147  27.829  23.076  1.00  0.00     0.054 A 
ATOM     19  C   UNL A   1      28.610  29.727  22.045  1.00  0.00     0.078 A 
ATOM     20  C   UNL A   1      28.102  28.705  22.877  1.00  0.00     0.084 A 
ATOM     21  C   UNL A   1      29.192  26.576  23.869  1.00  0.00     0.068 C 
ATOM     22  C   UNL A   1      27.912  30.916  21.495  1.00  0.00     0.070 C 
ATOM     23  Cl  UNL A   1      26.529  28.588  23.502  1.00  0.00    -0.080 Cl
ENDBRANCH  15  16
ENDBRANCH  14  15
ENDBRANCH   7  14
ENDBRANCH   3   5
ENDBRANCH   2   3
ENDBRANCH   1   2
BRANCH   1  24
ATOM     24  C   UNL A   1      32.990  33.422  27.704  1.00  0.00     0.275 C 
BRANCH  24  25
ATOM     25  O   UNL A   1      32.504  34.746  28.001  1.00  0.00    -0.458 OA
BRANCH  25  26
ATOM     26  C   UNL A   1      33.117  35.371  29.041  1.00  0.00     0.338 C 
ATOM     27  O   UNL A   1      32.769  36.409  29.582  1.00  0.00    -0.246 OA
BRANCH  26  28
ATOM     28  C   UNL A   1      34.257  34.556  29.510  1.00  0.00     0.060 A 
ATOM     29  C   UNL A   1      34.043  33.657  30.558  1.00  0.00     0.016 A 
ATOM     30  C   UNL A   1      35.527  34.671  28.937  1.00  0.00     0.016 A 
ATOM     31  C   UNL A   1      35.066  32.809  30.979  1.00  0.00     0.010 A 
ATOM     32  C   UNL A   1      36.570  33.862  29.399  1.00  0.00     0.010 A 
ATOM     33  C   UNL A   1      36.340  32.918  30.412  1.00  0.00    -0.014 A 
BRANCH  33  34
ATOM     34  C   UNL A   1      37.452  32.132  30.992  1.00  0.00     0.031 A 
ATOM     35  C   UNL A   1      37.890  32.442  32.391  1.00  0.00     0.074 A 
ATOM     36  C   UNL A   1      38.024  31.129  30.302  1.00  0.00     0.049 A 
ATOM     37  N   UNL A   1      38.829  31.888  33.112  1.00  0.00    -0.248 NA
ATOM     38  C   UNL A   1      37.155  33.517  33.077  1.00  0.00     0.031 C 
ATOM     39  C   UNL A   1      37.626  30.689  28.967  1.00  0.00     0.029 A 
ATOM     40  N   UNL A   1      39.062  30.296  30.635  1.00  0.00    -0.354 N 
ATOM     41  C   UNL A   1      38.788  32.532  34.340  1.00  0.00     0.074 A 
ATOM     42  C   UNL A   1      37.746  33.533  34.263  1.00  0.00     0.031 C 
ATOM     43  C   UNL A   1      38.423  29.674  28.587  1.00  0.00     0.029 A 
ATOM     44  C   UNL A   1      39.406  29.417  29.637  1.00  0.00     0.049 A 
ATOM     45  H   UNL A   1      39.519  30.327  31.507  1.00  0.00     0.167 HD
ATOM     46  C   UNL A   1      39.555  32.310  35.432  1.00  0.00     0.037 A 
ATOM     47  C   UNL A   1      40.417  28.528  29.578  1.00  0.00     0.037 A 
ATOM     48  C   UNL A   1      40.626  31.352  35.482  1.00  0.00     0.049 A 
ATOM     49  C   UNL A   1      41.342  28.391  30.765  1.00  0.00     0.074 A 
ATOM     50  C   UNL A   1      41.492  31.079  36.524  1.00  0.00     0.029 A 
ATOM     51  N   UNL A   1      40.992  30.526  34.428  1.00  0.00    -0.354 N 
ATOM     52  N   UNL A   1      41.292  28.994  31.929  1.00  0.00    -0.248 NA
ATOM     53  C   UNL A   1      42.464  27.452  30.628  1.00  0.00     0.031 C 
ATOM     54  C   UNL A   1      42.423  30.134  36.079  1.00  0.00     0.029 A 
ATOM     55  C   UNL A   1      42.093  29.765  34.784  1.00  0.00     0.049 A 
ATOM     56  H   UNL A   1      40.536  30.487  33.556  1.00  0.00     0.167 HD
ATOM     57  C   UNL A   1      42.350  28.485  32.673  1.00  0.00     0.074 A 
ATOM     58  C   UNL A   1      43.018  27.513  31.832  1.00  0.00     0.031 C 
ATOM     59  C   UNL A   1      42.737  28.793  33.935  1.00  0.00     0.037 A 
BRANCH  46  60
ATOM     60  C   UNL A   1      39.295  33.170  36.634  1.00  0.00     0.064 A 
ATOM     61  C   UNL A   1      39.925  34.412  36.805  1.00  0.00     0.173 A 
ATOM     62  C   UNL A   1      38.410  32.740  37.634  1.00  0.00     0.173 A 
ATOM     63  F   UNL A   1      40.798  34.859  35.889  1.00  0.00    -0.203 F 
ATOM     64  C   UNL A   1      39.701  35.176  37.947  1.00  0.00     0.198 A 
ATOM     65  C   UNL A   1      38.164  33.521  38.758  1.00  0.00     0.198 A 
ATOM     66  F   UNL A   1      37.782  31.559  37.519  1.00  0.00    -0.203 F 
ATOM     67  F   UNL A   1      40.357  36.333  38.117  1.00  0.00    -0.200 F 
ATOM     68  C   UNL A   1      38.817  34.734  38.920  1.00  0.00     0.200 A 
ATOM     69  F   UNL A   1      37.302  33.095  39.692  1.00  0.00    -0.200 F 
ATOM     70  F   UNL A   1      38.603  35.470  40.018  1.00  0.00    -0.200 F 
ENDBRANCH  46  60
BRANCH  47  71
ATOM     71  C   UNL A   1      40.639  27.716  28.349  1.00  0.00     0.064 A 
ATOM     72  C   UNL A   1      40.080  26.437  28.208  1.00  0.00     0.173 A 
ATOM     73  C   UNL A   1      41.458  28.183  27.309  1.00  0.00     0.173 A 
ATOM     74  F   UNL A   1      39.314  25.930  29.185  1.00  0.00    -0.203 F 
ATOM     75  C   UNL A   1      40.351  25.650  27.089  1.00  0.00     0.198 A 
ATOM     76  C   UNL A   1      41.701  27.408  26.176  1.00  0.00     0.198 A 
ATOM     77  F   UNL A   1      42.027  29.394  27.393  1.00  0.00    -0.203 F 
ATOM     78  F   UNL A   1      39.853  24.409  27.011  1.00  0.00    -0.200 F 
ATOM     79  C   UNL A   1      41.158  26.137  26.072  1.00  0.00     0.200 A 
ATOM     80  F   UNL A   1      42.474  27.888  25.192  1.00  0.00    -0.200 F 
ATOM     81  F   UNL A   1      41.421  25.378  25.000  1.00  0.00    -0.200 F 
ENDBRANCH  47  71
BRANCH  59  82
ATOM     82  C   UNL A   1      43.905  28.041  34.508  1.00  0.00     0.064 A 
ATOM     83  C   UNL A   1      43.747  26.809  35.159  1.00  0.00     0.173 A 
ATOM     84  C   UNL A   1      45.210  28.536  34.351  1.00  0.00     0.173 A 
ATOM     85  F   UNL A   1      42.521  26.296  35.348  1.00  0.00    -0.203 F 
ATOM     86  C   UNL A   1      44.847  26.113  35.654  1.00  0.00     0.198 A 
ATOM     87  C   UNL A   1      46.310  27.820  34.815  1.00  0.00     0.198 A 
ATOM     88  F   UNL A   1      45.420  29.704  33.727  1.00  0.00    -0.203 F 
ATOM     89  F   UNL A   1      44.668  24.962  36.317  1.00  0.00    -0.200 F 
ATOM     90  C   UNL A   1      46.128  26.615  35.473  1.00  0.00     0.200 A 
ATOM     91  F   UNL A   1      47.547  28.298  34.621  1.00  0.00    -0.200 F 
ATOM     92  F   UNL A   1      47.186  25.937  35.938  1.00  0.00    -0.200 F 
ENDBRANCH  59  82
ENDBRANCH  33  34
ENDBRANCH  26  28
ENDBRANCH  25  26
ENDBRANCH  24  25
ENDBRANCH   1  24
TORSDOF 15
ENDMDL
MODEL 3
REMARK VINA RESULT:     -10.8      2.427      7.673
REMARK SMILES C[NH2+][C@]1(C(=O)OCCOC(=O)c2ccc(-c3c4nc(c(-c5c(F)c(F)c(F)c(F)c5F)c5ccc([nH]5)c(-c5c(F)c(F)c(F)c(F)c5F)c5nc(c(-c6c(F)c(F)c(F)c(F)c6F)c6ccc3[nH]6)C=C5)C=C4)cc2)CCC[C@@H]1CCn1nc(C)c(Cl)c1C
REMARK SMILES IDX 7 1 6 2 4 3 5 4 3 5 75 6 78 7 76 8 77 9 2 10 1 11 79 14
REMARK SMILES IDX 80 15 81 16 82 17 87 18 83 19 85 20 88 21 84 22 86 23 8 24
REMARK SMILES IDX 9 25 10 26 11 27 12 28 13 29 74 30 14 31 73 32 15 33 16 34
REMARK SMILES IDX 17 35 67 36 18 37 72 38 66 39 68 40 19 41 71 42 65 43 64 44
REMARK SMILES IDX 20 46 52 47 32 48 51 49 33 50 36 51 50 52 69 53 34 54 35 55
REMARK SMILES IDX 49 57 70 58 37 59 21 60 22 61 30 62 23 63 24 64 28 65 31 66
REMARK SMILES IDX 25 67 26 68 29 69 27 70 53 71 54 72 62 73 55 74 56 75 60 76
REMARK SMILES IDX 63 77 57 78 58 79 61 80 59 81 38 82 39 83 47 84 40 85 41 86
REMARK SMILES IDX 45 87 48 88 42 89 43 90 46 91 44 92
REMARK H PARENT 2 12 2 13 68 45 36 56
REMARK Flexibility Score: inf
ROOT
ATOM      1  C   UNL A   1      32.694  29.677  25.263  1.00  0.00     0.274 C 
ENDROOT
BRANCH   1   2
ATOM      2  O   UNL A   1      32.703  28.248  25.113  1.00  0.00    -0.457 OA
BRANCH   2   3
ATOM      3  C   UNL A   1      33.260  27.770  23.969  1.00  0.00     0.368 C 
ATOM      4  O   UNL A   1      34.006  28.430  23.251  1.00  0.00    -0.245 OA
BRANCH   3   5
ATOM      5  C   UNL A   1      32.851  26.298  23.669  1.00  0.00     0.197 C 
ATOM      6  C   UNL A   1      32.623  26.034  22.159  1.00  0.00     0.081 C 
ATOM      7  C   UNL A   1      34.063  25.361  23.900  1.00  0.00     0.064 C 
ATOM      8  C   UNL A   1      32.820  24.534  21.959  1.00  0.00     0.008 C 
ATOM      9  C   UNL A   1      33.747  24.090  23.089  1.00  0.00     0.011 C 
BRANCH   5  10
ATOM     10  N   UNL A   1      31.625  25.850  24.392  1.00  0.00    -0.334 N 
ATOM     11  C   UNL A   1      30.345  26.293  23.853  1.00  0.00     0.331 C 
ATOM     12  H   UNL A   1      31.623  24.831  24.393  1.00  0.00     0.347 HD
ATOM     13  H   UNL A   1      31.688  26.280  25.315  1.00  0.00     0.347 HD
ENDBRANCH   5  10
BRANCH   7  14
ATOM     14  C   UNL A   1      34.418  25.077  25.370  1.00  0.00     0.034 C 
BRANCH  14  15
ATOM     15  C   UNL A   1      34.162  23.636  25.822  1.00  0.00     0.145 C 
BRANCH  15  16
ATOM     16  N   UNL A   1      35.349  22.796  25.755  1.00  0.00    -0.268 N 
ATOM     17  N   UNL A   1      36.531  23.328  26.129  1.00  0.00    -0.176 NA
ATOM     18  C   UNL A   1      35.455  21.501  25.304  1.00  0.00     0.054 A 
ATOM     19  C   UNL A   1      37.428  22.371  25.856  1.00  0.00     0.078 A 
ATOM     20  C   UNL A   1      36.804  21.220  25.329  1.00  0.00     0.084 A 
ATOM     21  C   UNL A   1      34.322  20.659  24.846  1.00  0.00     0.068 C 
ATOM     22  C   UNL A   1      38.868  22.613  26.126  1.00  0.00     0.070 C 
ATOM     23  Cl  UNL A   1      37.565  19.788  24.828  1.00  0.00    -0.080 Cl
ENDBRANCH  15  16
ENDBRANCH  14  15
ENDBRANCH   7  14
ENDBRANCH   3   5
ENDBRANCH   2   3
ENDBRANCH   1   2
BRANCH   1  24
ATOM     24  C   UNL A   1      32.455  30.040  26.729  1.00  0.00     0.275 C 
BRANCH  24  25
ATOM     25  O   UNL A   1      33.587  29.704  27.555  1.00  0.00    -0.458 OA
BRANCH  25  26
ATOM     26  C   UNL A   1      34.410  30.739  27.863  1.00  0.00     0.338 C 
ATOM     27  O   UNL A   1      34.109  31.921  27.940  1.00  0.00    -0.246 OA
BRANCH  26  28
ATOM     28  C   UNL A   1      35.756  30.225  28.192  1.00  0.00     0.060 A 
ATOM     29  C   UNL A   1      35.972  29.701  29.469  1.00  0.00     0.016 A 
ATOM     30  C   UNL A   1      36.801  30.257  27.265  1.00  0.00     0.016 A 
ATOM     31  C   UNL A   1      37.199  29.129  29.799  1.00  0.00     0.010 A 
ATOM     32  C   UNL A   1      38.052  29.737  27.614  1.00  0.00     0.010 A 
ATOM     33  C   UNL A   1      38.252  29.158  28.878  1.00  0.00    -0.014 A 
BRANCH  33  34
ATOM     34  C   UNL A   1      39.593  28.704  29.307  1.00  0.00     0.031 A 
ATOM     35  C   UNL A   1      40.350  29.548  30.287  1.00  0.00     0.074 A 
ATOM     36  C   UNL A   1      40.101  27.538  28.871  1.00  0.00     0.049 A 
ATOM     37  N   UNL A   1      41.531  29.354  30.815  1.00  0.00    -0.248 NA
ATOM     38  C   UNL A   1      39.676  30.772  30.747  1.00  0.00     0.031 C 
ATOM     39  C   UNL A   1      39.421  26.600  27.981  1.00  0.00     0.029 A 
ATOM     40  N   UNL A   1      41.312  26.942  29.125  1.00  0.00    -0.354 N 
ATOM     41  C   UNL A   1      41.733  30.419  31.680  1.00  0.00     0.074 A 
ATOM     42  C   UNL A   1      40.565  31.268  31.594  1.00  0.00     0.031 C 
ATOM     43  C   UNL A   1      40.231  25.552  27.749  1.00  0.00     0.029 A 
ATOM     44  C   UNL A   1      41.497  25.761  28.448  1.00  0.00     0.049 A 
ATOM     45  H   UNL A   1      41.984  27.326  29.734  1.00  0.00     0.167 HD
ATOM     46  C   UNL A   1      42.802  30.668  32.472  1.00  0.00     0.037 A 
ATOM     47  C   UNL A   1      42.581  24.962  28.384  1.00  0.00     0.037 A 
ATOM     48  C   UNL A   1      43.984  29.850  32.509  1.00  0.00     0.049 A 
ATOM     49  C   UNL A   1      43.811  25.333  29.179  1.00  0.00     0.074 A 
ATOM     50  C   UNL A   1      45.140  30.036  33.244  1.00  0.00     0.029 A 
ATOM     51  N   UNL A   1      44.166  28.697  31.757  1.00  0.00    -0.354 N 
ATOM     52  N   UNL A   1      43.994  26.335  30.005  1.00  0.00    -0.248 NA
ATOM     53  C   UNL A   1      44.986  24.461  29.030  1.00  0.00     0.031 C 
ATOM     54  C   UNL A   1      46.047  29.033  32.888  1.00  0.00     0.029 A 
ATOM     55  C   UNL A   1      45.431  28.179  31.986  1.00  0.00     0.049 A 
ATOM     56  H   UNL A   1      43.496  28.306  31.152  1.00  0.00     0.167 HD
ATOM     57  C   UNL A   1      45.287  26.197  30.498  1.00  0.00     0.074 A 
ATOM     58  C   UNL A   1      45.838  25.005  29.888  1.00  0.00     0.031 C 
ATOM     59  C   UNL A   1      45.957  26.984  31.376  1.00  0.00     0.037 A 
BRANCH  46  60
ATOM     60  C   UNL A   1      42.756  31.913  33.309  1.00  0.00     0.064 A 
ATOM     61  C   UNL A   1      43.216  33.147  32.824  1.00  0.00     0.173 A 
ATOM     62  C   UNL A   1      42.252  31.867  34.617  1.00  0.00     0.173 A 
ATOM     63  F   UNL A   1      43.727  33.239  31.587  1.00  0.00    -0.203 F 
ATOM     64  C   UNL A   1      43.200  34.282  33.631  1.00  0.00     0.198 A 
ATOM     65  C   UNL A   1      42.210  33.011  35.409  1.00  0.00     0.198 A 
ATOM     66  F   UNL A   1      41.801  30.712  35.129  1.00  0.00    -0.203 F 
ATOM     67  F   UNL A   1      43.698  35.438  33.168  1.00  0.00    -0.200 F 
ATOM     68  C   UNL A   1      42.693  34.215  34.920  1.00  0.00     0.200 A 
ATOM     69  F   UNL A   1      41.710  32.945  36.651  1.00  0.00    -0.200 F 
ATOM     70  F   UNL A   1      42.681  35.308  35.694  1.00  0.00    -0.200 F 
ENDBRANCH  46  60
BRANCH  47  71
ATOM     71  C   UNL A   1      42.576  23.749  27.519  1.00  0.00     0.064 A 
ATOM     72  C   UNL A   1      42.210  22.493  28.025  1.00  0.00     0.173 A 
ATOM     73  C   UNL A   1      42.986  23.813  26.178  1.00  0.00     0.173 A 
ATOM     74  F   UNL A   1      41.840  22.370  29.308  1.00  0.00    -0.203 F 
ATOM     75  C   UNL A   1      42.279  21.347  27.233  1.00  0.00     0.198 A 
ATOM     76  C   UNL A   1      43.022  22.672  25.378  1.00  0.00     0.198 A 
ATOM     77  F   UNL A   1      43.356  24.985  25.643  1.00  0.00    -0.203 F 
ATOM     78  F   UNL A   1      41.983  20.153  27.761  1.00  0.00    -0.200 F 
ATOM     79  C   UNL A   1      42.681  21.438  25.909  1.00  0.00     0.200 A 
ATOM     80  F   UNL A   1      43.402  22.768  24.097  1.00  0.00    -0.200 F 
ATOM     81  F   UNL A   1      42.750  20.337  25.150  1.00  0.00    -0.200 F 
ENDBRANCH  47  71
BRANCH  59  82
ATOM     82  C   UNL A   1      47.345  26.561  31.769  1.00  0.00     0.064 A 
ATOM     83  C   UNL A   1      47.579  25.702  32.853  1.00  0.00     0.173 A 
ATOM     84  C   UNL A   1      48.452  26.977  31.013  1.00  0.00     0.173 A 
ATOM     85  F   UNL A   1      46.558  25.284  33.617  1.00  0.00    -0.203 F 
ATOM     86  C   UNL A   1      48.870  25.297  33.181  1.00  0.00     0.198 A 
ATOM     87  C   UNL A   1      49.738  26.541  31.321  1.00  0.00     0.198 A 
ATOM     88  F   UNL A   1      48.285  27.790  29.959  1.00  0.00    -0.203 F 
ATOM     89  F   UNL A   1      49.075  24.515  34.250  1.00  0.00    -0.200 F 
ATOM     90  C   UNL A   1      49.947  25.708  32.409  1.00  0.00     0.200 A 
ATOM     91  F   UNL A   1      50.773  26.925  30.562  1.00  0.00    -0.200 F 
ATOM     92  F   UNL A   1      51.187  25.306  32.717  1.00  0.00    -0.200 F 
ENDBRANCH  59  82
ENDBRANCH  33  34
ENDBRANCH  26  28
ENDBRANCH  25  26
ENDBRANCH  24  25
ENDBRANCH   1  24
TORSDOF 15
ENDMDL
