MODEL 1
REMARK VINA RESULT:     -12.7      0.000      0.000
REMARK SMILES O=C(COc1ccccc1/C=C1/SC(=O)N(c2ccc(F)cc2)C1=O)OCCOC(=O)c1ccc(-c2c3nc(c(-c4c(F)c(F)c(F)c(F)c4F)c4ccc([nH]4)c(-c4c(F)c(F)c(F)c(F)c4F)c4nc(c(-c5c(F)c(F)c(F)c(F)c5F)c5ccc2[nH]5)C=C4)C=C3)cc1
REMARK SMILES IDX 27 1 26 2 2 3 1 4 3 5 4 6 5 7 6 8 10 9 7 10 9 11 8 12 11 13
REMARK SMILES IDX 12 14 13 15 24 16 14 17 16 18 25 19 15 20 17 21 18 22 23 23
REMARK SMILES IDX 19 24 22 25 20 26 21 27 28 28 29 29 30 30 31 31 32 32 33 33
REMARK SMILES IDX 94 34 34 35 93 36 35 37 36 38 37 39 87 40 38 41 92 42 86 43
REMARK SMILES IDX 88 44 39 45 91 46 85 47 84 48 40 50 72 51 52 52 71 53 53 54
REMARK SMILES IDX 56 55 70 56 89 57 54 58 55 59 69 61 90 62 57 63 41 64 42 65
REMARK SMILES IDX 50 66 43 67 44 68 48 69 51 70 45 71 46 72 49 73 47 74 73 75
REMARK SMILES IDX 74 76 82 77 75 78 76 79 80 80 83 81 77 82 78 83 81 84 79 85
REMARK SMILES IDX 58 86 59 87 67 88 60 89 61 90 65 91 68 92 62 93 63 94 66 95
REMARK SMILES IDX 64 96
REMARK H PARENT 88 49 56 60
REMARK Flexibility Score: inf
ROOT
ATOM      1  C   UNL A   1      35.659  21.130  25.068  1.00  0.00     0.274 C 
ENDROOT
BRANCH   1   2
ATOM      2  O   UNL A   1      35.266  21.435  26.425  1.00  0.00    -0.460 OA
BRANCH   2   3
ATOM      3  C   UNL A   1      34.010  21.773  26.805  1.00  0.00     0.344 C 
ATOM      4  O   UNL A   1      33.830  22.568  27.726  1.00  0.00    -0.248 OA
BRANCH   3   5
ATOM      5  C   UNL A   1      32.844  21.212  26.017  1.00  0.00     0.352 C 
BRANCH   5   6
ATOM      6  O   UNL A   1      31.991  22.261  25.562  1.00  0.00    -0.481 OA
BRANCH   6   7
ATOM      7  C   UNL A   1      32.409  22.739  24.343  1.00  0.00     0.127 A 
ATOM      8  C   UNL A   1      32.440  21.829  23.283  1.00  0.00     0.047 A 
ATOM      9  C   UNL A   1      32.850  24.067  24.171  1.00  0.00     0.018 A 
ATOM     10  C   UNL A   1      32.864  22.248  22.025  1.00  0.00     0.004 A 
ATOM     11  C   UNL A   1      33.253  24.475  22.895  1.00  0.00     0.012 A 
ATOM     12  C   UNL A   1      33.261  23.570  21.829  1.00  0.00     0.001 A 
BRANCH   9  13
ATOM     13  C   UNL A   1      32.874  25.055  25.262  1.00  0.00     0.033 C 
ATOM     14  C   UNL A   1      32.097  26.145  25.337  1.00  0.00     0.084 C 
ATOM     15  S   UNL A   1      32.372  27.438  26.437  1.00  0.00    -0.022 SA
ATOM     16  C   UNL A   1      31.005  26.521  24.398  1.00  0.00     0.272 C 
ATOM     17  C   UNL A   1      31.532  28.580  25.387  1.00  0.00     0.298 C 
ATOM     18  N   UNL A   1      30.815  27.897  24.425  1.00  0.00    -0.236 N 
ATOM     19  O   UNL A   1      30.416  25.695  23.713  1.00  0.00    -0.268 OA
ATOM     20  O   UNL A   1      31.620  29.785  25.567  1.00  0.00    -0.260 OA
BRANCH  18  21
ATOM     21  C   UNL A   1      29.979  28.548  23.465  1.00  0.00     0.053 A 
ATOM     22  C   UNL A   1      30.542  29.320  22.433  1.00  0.00     0.030 A 
ATOM     23  C   UNL A   1      28.577  28.492  23.551  1.00  0.00     0.030 A 
ATOM     24  C   UNL A   1      29.742  30.051  21.553  1.00  0.00     0.041 A 
ATOM     25  C   UNL A   1      27.775  29.251  22.691  1.00  0.00     0.041 A 
ATOM     26  C   UNL A   1      28.365  30.028  21.703  1.00  0.00     0.123 A 
ATOM     27  F   UNL A   1      27.598  30.763  20.889  1.00  0.00    -0.207 F 
ENDBRANCH  18  21
ENDBRANCH   9  13
ENDBRANCH   6   7
ENDBRANCH   5   6
ENDBRANCH   3   5
ENDBRANCH   2   3
ENDBRANCH   1   2
BRANCH   1  28
ATOM     28  C   UNL A   1      37.135  20.743  25.026  1.00  0.00     0.275 C 
BRANCH  28  29
ATOM     29  O   UNL A   1      37.898  21.830  25.565  1.00  0.00    -0.458 OA
BRANCH  29  30
ATOM     30  C   UNL A   1      39.083  21.489  26.127  1.00  0.00     0.338 C 
ATOM     31  O   UNL A   1      39.669  20.426  26.039  1.00  0.00    -0.246 OA
BRANCH  30  32
ATOM     32  C   UNL A   1      39.664  22.722  26.689  1.00  0.00     0.060 A 
ATOM     33  C   UNL A   1      39.093  23.953  26.339  1.00  0.00     0.016 A 
ATOM     34  C   UNL A   1      40.734  22.661  27.589  1.00  0.00     0.016 A 
ATOM     35  C   UNL A   1      39.615  25.133  26.861  1.00  0.00     0.010 A 
ATOM     36  C   UNL A   1      41.264  23.839  28.100  1.00  0.00     0.010 A 
ATOM     37  C   UNL A   1      40.732  25.077  27.703  1.00  0.00    -0.014 A 
BRANCH  37  38
ATOM     38  C   UNL A   1      41.529  26.294  27.949  1.00  0.00     0.031 A 
ATOM     39  C   UNL A   1      40.857  27.417  28.684  1.00  0.00     0.074 A 
ATOM     40  C   UNL A   1      42.786  26.409  27.496  1.00  0.00     0.049 A 
ATOM     41  N   UNL A   1      41.296  28.616  28.958  1.00  0.00    -0.248 NA
ATOM     42  C   UNL A   1      39.488  27.151  29.162  1.00  0.00     0.031 C 
ATOM     43  C   UNL A   1      43.531  25.370  26.790  1.00  0.00     0.029 A 
ATOM     44  N   UNL A   1      43.650  27.470  27.553  1.00  0.00    -0.354 N 
ATOM     45  C   UNL A   1      40.260  29.246  29.634  1.00  0.00     0.074 A 
ATOM     46  C   UNL A   1      39.156  28.315  29.694  1.00  0.00     0.031 C 
ATOM     47  C   UNL A   1      44.744  25.852  26.464  1.00  0.00     0.029 A 
ATOM     48  C   UNL A   1      44.844  27.238  26.920  1.00  0.00     0.049 A 
ATOM     49  H   UNL A   1      43.435  28.318  28.005  1.00  0.00     0.167 HD
ATOM     50  C   UNL A   1      40.237  30.488  30.168  1.00  0.00     0.037 A 
ATOM     51  C   UNL A   1      45.887  28.067  26.725  1.00  0.00     0.037 A 
ATOM     52  C   UNL A   1      41.336  31.410  30.084  1.00  0.00     0.049 A 
ATOM     53  C   UNL A   1      45.817  29.470  27.276  1.00  0.00     0.074 A 
ATOM     54  C   UNL A   1      41.433  32.690  30.595  1.00  0.00     0.029 A 
ATOM     55  N   UNL A   1      42.531  31.144  29.430  1.00  0.00    -0.354 N 
ATOM     56  N   UNL A   1      44.854  30.049  27.951  1.00  0.00    -0.248 NA
ATOM     57  C   UNL A   1      46.985  30.330  27.039  1.00  0.00     0.031 C 
ATOM     58  C   UNL A   1      42.669  33.218  30.206  1.00  0.00     0.029 A 
ATOM     59  C   UNL A   1      43.364  32.246  29.503  1.00  0.00     0.049 A 
ATOM     60  H   UNL A   1      42.753  30.296  28.981  1.00  0.00     0.167 HD
ATOM     61  C   UNL A   1      45.310  31.326  28.253  1.00  0.00     0.074 A 
ATOM     62  C   UNL A   1      46.640  31.434  27.690  1.00  0.00     0.031 C 
ATOM     63  C   UNL A   1      44.690  32.318  28.941  1.00  0.00     0.037 A 
BRANCH  50  64
ATOM     64  C   UNL A   1      38.970  30.913  30.849  1.00  0.00     0.064 A 
ATOM     65  C   UNL A   1      38.794  30.774  32.235  1.00  0.00     0.173 A 
ATOM     66  C   UNL A   1      37.906  31.441  30.103  1.00  0.00     0.173 A 
ATOM     67  F   UNL A   1      39.772  30.251  32.990  1.00  0.00    -0.203 F 
ATOM     68  C   UNL A   1      37.586  31.107  32.842  1.00  0.00     0.198 A 
ATOM     69  C   UNL A   1      36.711  31.804  30.717  1.00  0.00     0.198 A 
ATOM     70  F   UNL A   1      38.020  31.591  28.775  1.00  0.00    -0.203 F 
ATOM     71  F   UNL A   1      37.417  30.899  34.156  1.00  0.00    -0.200 F 
ATOM     72  C   UNL A   1      36.547  31.625  32.084  1.00  0.00     0.200 A 
ATOM     73  F   UNL A   1      35.709  32.311  29.986  1.00  0.00    -0.200 F 
ATOM     74  F   UNL A   1      35.383  31.941  32.667  1.00  0.00    -0.200 F 
ENDBRANCH  50  64
BRANCH  51  75
ATOM     75  C   UNL A   1      47.091  27.587  26.000  1.00  0.00     0.064 A 
ATOM     76  C   UNL A   1      48.185  27.054  26.695  1.00  0.00     0.173 A 
ATOM     77  C   UNL A   1      47.175  27.649  24.601  1.00  0.00     0.173 A 
ATOM     78  F   UNL A   1      48.160  26.994  28.035  1.00  0.00    -0.203 F 
ATOM     79  C   UNL A   1      49.322  26.613  26.021  1.00  0.00     0.198 A 
ATOM     80  C   UNL A   1      48.303  27.185  23.927  1.00  0.00     0.198 A 
ATOM     81  F   UNL A   1      46.155  28.150  23.887  1.00  0.00    -0.203 F 
ATOM     82  F   UNL A   1      50.368  26.143  26.715  1.00  0.00    -0.200 F 
ATOM     83  C   UNL A   1      49.378  26.673  24.637  1.00  0.00     0.200 A 
ATOM     84  F   UNL A   1      48.348  27.234  22.587  1.00  0.00    -0.200 F 
ATOM     85  F   UNL A   1      50.469  26.244  23.989  1.00  0.00    -0.200 F 
ENDBRANCH  51  75
BRANCH  63  86
ATOM     86  C   UNL A   1      45.461  33.587  29.162  1.00  0.00     0.064 A 
ATOM     87  C   UNL A   1      45.378  34.668  28.274  1.00  0.00     0.173 A 
ATOM     88  C   UNL A   1      46.252  33.739  30.312  1.00  0.00     0.173 A 
ATOM     89  F   UNL A   1      44.644  34.568  27.155  1.00  0.00    -0.203 F 
ATOM     90  C   UNL A   1      46.078  35.846  28.516  1.00  0.00     0.198 A 
ATOM     91  C   UNL A   1      46.926  34.929  30.567  1.00  0.00     0.198 A 
ATOM     92  F   UNL A   1      46.357  32.737  31.198  1.00  0.00    -0.203 F 
ATOM     93  F   UNL A   1      46.021  36.852  27.631  1.00  0.00    -0.200 F 
ATOM     94  C   UNL A   1      46.844  35.979  29.665  1.00  0.00     0.200 A 
ATOM     95  F   UNL A   1      47.652  35.061  31.685  1.00  0.00    -0.200 F 
ATOM     96  F   UNL A   1      47.510  37.119  29.900  1.00  0.00    -0.200 F 
ENDBRANCH  63  86
ENDBRANCH  37  38
ENDBRANCH  30  32
ENDBRANCH  29  30
ENDBRANCH  28  29
ENDBRANCH   1  28
TORSDOF 15
ENDMDL
MODEL 2
REMARK VINA RESULT:     -12.4      1.764      7.555
REMARK SMILES O=C(COc1ccccc1/C=C1/SC(=O)N(c2ccc(F)cc2)C1=O)OCCOC(=O)c1ccc(-c2c3nc(c(-c4c(F)c(F)c(F)c(F)c4F)c4ccc([nH]4)c(-c4c(F)c(F)c(F)c(F)c4F)c4nc(c(-c5c(F)c(F)c(F)c(F)c5F)c5ccc2[nH]5)C=C4)C=C3)cc1
REMARK SMILES IDX 27 1 26 2 2 3 1 4 3 5 4 6 5 7 6 8 10 9 7 10 9 11 8 12 11 13
REMARK SMILES IDX 12 14 13 15 24 16 14 17 16 18 25 19 15 20 17 21 18 22 23 23
REMARK SMILES IDX 19 24 22 25 20 26 21 27 28 28 29 29 30 30 31 31 32 32 33 33
REMARK SMILES IDX 94 34 34 35 93 36 35 37 36 38 37 39 87 40 38 41 92 42 86 43
REMARK SMILES IDX 88 44 39 45 91 46 85 47 84 48 40 50 72 51 52 52 71 53 53 54
REMARK SMILES IDX 56 55 70 56 89 57 54 58 55 59 69 61 90 62 57 63 41 64 42 65
REMARK SMILES IDX 50 66 43 67 44 68 48 69 51 70 45 71 46 72 49 73 47 74 73 75
REMARK SMILES IDX 74 76 82 77 75 78 76 79 80 80 83 81 77 82 78 83 81 84 79 85
REMARK SMILES IDX 58 86 59 87 67 88 60 89 61 90 65 91 68 92 62 93 63 94 66 95
REMARK SMILES IDX 64 96
REMARK H PARENT 88 49 56 60
REMARK Flexibility Score: inf
ROOT
ATOM      1  C   UNL A   1      37.940  19.748  24.957  1.00  0.00     0.274 C 
ENDROOT
BRANCH   1   2
ATOM      2  O   UNL A   1      37.841  21.186  24.866  1.00  0.00    -0.460 OA
BRANCH   2   3
ATOM      3  C   UNL A   1      36.837  21.852  24.244  1.00  0.00     0.344 C 
ATOM      4  O   UNL A   1      37.076  22.588  23.288  1.00  0.00    -0.248 OA
BRANCH   3   5
ATOM      5  C   UNL A   1      35.415  21.602  24.703  1.00  0.00     0.352 C 
BRANCH   5   6
ATOM      6  O   UNL A   1      34.611  22.764  24.513  1.00  0.00    -0.481 OA
BRANCH   6   7
ATOM      7  C   UNL A   1      33.653  22.864  25.493  1.00  0.00     0.127 A 
ATOM      8  C   UNL A   1      33.883  22.158  26.677  1.00  0.00     0.047 A 
ATOM      9  C   UNL A   1      32.460  23.589  25.302  1.00  0.00     0.018 A 
ATOM     10  C   UNL A   1      32.947  22.210  27.706  1.00  0.00     0.004 A 
ATOM     11  C   UNL A   1      31.539  23.645  26.355  1.00  0.00     0.012 A 
ATOM     12  C   UNL A   1      31.781  22.959  27.548  1.00  0.00     0.001 A 
BRANCH   9  13
ATOM     13  C   UNL A   1      32.150  24.318  24.062  1.00  0.00     0.033 C 
ATOM     14  C   UNL A   1      32.352  25.628  23.862  1.00  0.00     0.084 C 
ATOM     15  S   UNL A   1      31.685  26.506  22.542  1.00  0.00    -0.022 SA
ATOM     16  C   UNL A   1      33.010  26.576  24.802  1.00  0.00     0.272 C 
ATOM     17  C   UNL A   1      31.759  28.020  23.444  1.00  0.00     0.298 C 
ATOM     18  N   UNL A   1      32.560  27.868  24.558  1.00  0.00    -0.236 N 
ATOM     19  O   UNL A   1      33.802  26.207  25.658  1.00  0.00    -0.268 OA
ATOM     20  O   UNL A   1      31.164  29.015  23.057  1.00  0.00    -0.260 OA
BRANCH  18  21
ATOM     21  C   UNL A   1      32.865  28.940  25.454  1.00  0.00     0.053 A 
ATOM     22  C   UNL A   1      34.134  29.033  26.052  1.00  0.00     0.030 A 
ATOM     23  C   UNL A   1      31.899  29.896  25.814  1.00  0.00     0.030 A 
ATOM     24  C   UNL A   1      34.416  30.007  27.011  1.00  0.00     0.041 A 
ATOM     25  C   UNL A   1      32.169  30.852  26.801  1.00  0.00     0.041 A 
ATOM     26  C   UNL A   1      33.423  30.895  27.394  1.00  0.00     0.123 A 
ATOM     27  F   UNL A   1      33.677  31.801  28.346  1.00  0.00    -0.207 F 
ENDBRANCH  18  21
ENDBRANCH   9  13
ENDBRANCH   6   7
ENDBRANCH   5   6
ENDBRANCH   3   5
ENDBRANCH   2   3
ENDBRANCH   1   2
BRANCH   1  28
ATOM     28  C   UNL A   1      39.202  19.357  25.721  1.00  0.00     0.275 C 
BRANCH  28  29
ATOM     29  O   UNL A   1      40.017  20.527  25.865  1.00  0.00    -0.458 OA
BRANCH  29  30
ATOM     30  C   UNL A   1      40.819  20.547  26.957  1.00  0.00     0.338 C 
ATOM     31  O   UNL A   1      41.446  19.621  27.437  1.00  0.00    -0.246 OA
BRANCH  30  32
ATOM     32  C   UNL A   1      40.987  21.961  27.342  1.00  0.00     0.060 A 
ATOM     33  C   UNL A   1      40.200  22.928  26.702  1.00  0.00     0.016 A 
ATOM     34  C   UNL A   1      41.879  22.323  28.356  1.00  0.00     0.016 A 
ATOM     35  C   UNL A   1      40.330  24.269  27.050  1.00  0.00     0.010 A 
ATOM     36  C   UNL A   1      42.019  23.663  28.696  1.00  0.00     0.010 A 
ATOM     37  C   UNL A   1      41.276  24.641  28.013  1.00  0.00    -0.014 A 
BRANCH  37  38
ATOM     38  C   UNL A   1      41.705  26.048  28.119  1.00  0.00     0.031 A 
ATOM     39  C   UNL A   1      43.049  26.399  27.550  1.00  0.00     0.074 A 
ATOM     40  C   UNL A   1      40.947  26.965  28.738  1.00  0.00     0.049 A 
ATOM     41  N   UNL A   1      43.698  27.532  27.581  1.00  0.00    -0.248 NA
ATOM     42  C   UNL A   1      43.767  25.311  26.863  1.00  0.00     0.031 C 
ATOM     43  C   UNL A   1      39.622  26.727  29.305  1.00  0.00     0.029 A 
ATOM     44  N   UNL A   1      41.201  28.285  29.004  1.00  0.00    -0.354 N 
ATOM     45  C   UNL A   1      44.897  27.291  26.924  1.00  0.00     0.074 A 
ATOM     46  C   UNL A   1      44.906  25.898  26.541  1.00  0.00     0.031 C 
ATOM     47  C   UNL A   1      39.182  27.866  29.868  1.00  0.00     0.029 A 
ATOM     48  C   UNL A   1      40.205  28.900  29.720  1.00  0.00     0.049 A 
ATOM     49  H   UNL A   1      42.019  28.747  28.710  1.00  0.00     0.167 HD
ATOM     50  C   UNL A   1      45.897  28.160  26.654  1.00  0.00     0.037 A 
ATOM     51  C   UNL A   1      40.148  30.154  30.205  1.00  0.00     0.037 A 
ATOM     52  C   UNL A   1      45.883  29.539  27.059  1.00  0.00     0.049 A 
ATOM     53  C   UNL A   1      41.301  31.091  29.946  1.00  0.00     0.074 A 
ATOM     54  C   UNL A   1      46.833  30.517  26.834  1.00  0.00     0.029 A 
ATOM     55  N   UNL A   1      44.859  30.129  27.788  1.00  0.00    -0.354 N 
ATOM     56  N   UNL A   1      42.416  30.873  29.289  1.00  0.00    -0.248 NA
ATOM     57  C   UNL A   1      41.185  32.449  30.494  1.00  0.00     0.031 C 
ATOM     58  C   UNL A   1      46.407  31.688  27.471  1.00  0.00     0.029 A 
ATOM     59  C   UNL A   1      45.165  31.454  28.043  1.00  0.00     0.049 A 
ATOM     60  H   UNL A   1      44.038  29.672  28.079  1.00  0.00     0.167 HD
ATOM     61  C   UNL A   1      43.115  32.073  29.310  1.00  0.00     0.074 A 
ATOM     62  C   UNL A   1      42.295  33.016  30.043  1.00  0.00     0.031 C 
ATOM     63  C   UNL A   1      44.322  32.372  28.767  1.00  0.00     0.037 A 
BRANCH  50  64
ATOM     64  C   UNL A   1      47.090  27.620  25.923  1.00  0.00     0.064 A 
ATOM     65  C   UNL A   1      48.189  27.074  26.605  1.00  0.00     0.173 A 
ATOM     66  C   UNL A   1      47.149  27.674  24.523  1.00  0.00     0.173 A 
ATOM     67  F   UNL A   1      48.194  27.022  27.946  1.00  0.00    -0.203 F 
ATOM     68  C   UNL A   1      49.319  26.642  25.916  1.00  0.00     0.198 A 
ATOM     69  C   UNL A   1      48.267  27.212  23.834  1.00  0.00     0.198 A 
ATOM     70  F   UNL A   1      46.128  28.190  23.822  1.00  0.00    -0.203 F 
ATOM     71  F   UNL A   1      50.384  26.190  26.592  1.00  0.00    -0.200 F 
ATOM     72  C   UNL A   1      49.356  26.707  24.531  1.00  0.00     0.200 A 
ATOM     73  F   UNL A   1      48.299  27.268  22.496  1.00  0.00    -0.200 F 
ATOM     74  F   UNL A   1      50.445  26.296  23.868  1.00  0.00    -0.200 F 
ENDBRANCH  50  64
BRANCH  51  75
ATOM     75  C   UNL A   1      38.951  30.602  30.961  1.00  0.00     0.064 A 
ATOM     76  C   UNL A   1      37.839  31.137  30.296  1.00  0.00     0.173 A 
ATOM     77  C   UNL A   1      38.891  30.507  32.359  1.00  0.00     0.173 A 
ATOM     78  F   UNL A   1      37.858  31.269  28.961  1.00  0.00    -0.203 F 
ATOM     79  C   UNL A   1      36.717  31.571  31.000  1.00  0.00     0.198 A 
ATOM     80  C   UNL A   1      37.759  30.918  33.060  1.00  0.00     0.198 A 
ATOM     81  F   UNL A   1      39.927  30.002  33.044  1.00  0.00    -0.203 F 
ATOM     82  F   UNL A   1      35.684  32.113  30.341  1.00  0.00    -0.200 F 
ATOM     83  C   UNL A   1      36.676  31.456  32.381  1.00  0.00     0.200 A 
ATOM     84  F   UNL A   1      37.717  30.795  34.395  1.00  0.00    -0.200 F 
ATOM     85  F   UNL A   1      35.595  31.868  33.057  1.00  0.00    -0.200 F 
ENDBRANCH  51  75
BRANCH  63  86
ATOM     86  C   UNL A   1      44.806  33.787  28.904  1.00  0.00     0.064 A 
ATOM     87  C   UNL A   1      44.466  34.778  27.973  1.00  0.00     0.173 A 
ATOM     88  C   UNL A   1      45.578  34.163  30.014  1.00  0.00     0.173 A 
ATOM     89  F   UNL A   1      43.740  34.466  26.889  1.00  0.00    -0.203 F 
ATOM     90  C   UNL A   1      44.901  36.090  28.137  1.00  0.00     0.198 A 
ATOM     91  C   UNL A   1      45.985  35.482  30.190  1.00  0.00     0.198 A 
ATOM     92  F   UNL A   1      45.923  33.253  30.938  1.00  0.00    -0.203 F 
ATOM     93  F   UNL A   1      44.602  37.013  27.212  1.00  0.00    -0.200 F 
ATOM     94  C   UNL A   1      45.652  36.442  29.248  1.00  0.00     0.200 A 
ATOM     95  F   UNL A   1      46.697  35.823  31.273  1.00  0.00    -0.200 F 
ATOM     96  F   UNL A   1      46.062  37.709  29.408  1.00  0.00    -0.200 F 
ENDBRANCH  63  86
ENDBRANCH  37  38
ENDBRANCH  30  32
ENDBRANCH  29  30
ENDBRANCH  28  29
ENDBRANCH   1  28
TORSDOF 15
ENDMDL
MODEL 3
REMARK VINA RESULT:     -12.4      1.988      7.567
REMARK SMILES O=C(COc1ccccc1/C=C1/SC(=O)N(c2ccc(F)cc2)C1=O)OCCOC(=O)c1ccc(-c2c3nc(c(-c4c(F)c(F)c(F)c(F)c4F)c4ccc([nH]4)c(-c4c(F)c(F)c(F)c(F)c4F)c4nc(c(-c5c(F)c(F)c(F)c(F)c5F)c5ccc2[nH]5)C=C4)C=C3)cc1
REMARK SMILES IDX 27 1 26 2 2 3 1 4 3 5 4 6 5 7 6 8 10 9 7 10 9 11 8 12 11 13
REMARK SMILES IDX 12 14 13 15 24 16 14 17 16 18 25 19 15 20 17 21 18 22 23 23
REMARK SMILES IDX 19 24 22 25 20 26 21 27 28 28 29 29 30 30 31 31 32 32 33 33
REMARK SMILES IDX 94 34 34 35 93 36 35 37 36 38 37 39 87 40 38 41 92 42 86 43
REMARK SMILES IDX 88 44 39 45 91 46 85 47 84 48 40 50 72 51 52 52 71 53 53 54
REMARK SMILES IDX 56 55 70 56 89 57 54 58 55 59 69 61 90 62 57 63 41 64 42 65
REMARK SMILES IDX 50 66 43 67 44 68 48 69 51 70 45 71 46 72 49 73 47 74 73 75
REMARK SMILES IDX 74 76 82 77 75 78 76 79 80 80 83 81 77 82 78 83 81 84 79 85
REMARK SMILES IDX 58 86 59 87 67 88 60 89 61 90 65 91 68 92 62 93 63 94 66 95
REMARK SMILES IDX 64 96
REMARK H PARENT 88 49 56 60
REMARK Flexibility Score: inf
ROOT
ATOM      1  C   UNL A   1      36.031  20.938  25.586  1.00  0.00     0.274 C 
ENDROOT
BRANCH   1   2
ATOM      2  O   UNL A   1      35.023  20.743  24.570  1.00  0.00    -0.460 OA
BRANCH   2   3
ATOM      3  C   UNL A   1      33.888  20.020  24.738  1.00  0.00     0.344 C 
ATOM      4  O   UNL A   1      33.915  18.793  24.669  1.00  0.00    -0.248 OA
BRANCH   3   5
ATOM      5  C   UNL A   1      32.613  20.757  25.091  1.00  0.00     0.352 C 
BRANCH   5   6
ATOM      6  O   UNL A   1      32.660  22.103  24.622  1.00  0.00    -0.481 OA
BRANCH   6   7
ATOM      7  C   UNL A   1      31.688  22.867  25.223  1.00  0.00     0.127 A 
ATOM      8  C   UNL A   1      30.957  22.266  26.250  1.00  0.00     0.047 A 
ATOM      9  C   UNL A   1      31.390  24.174  24.790  1.00  0.00     0.018 A 
ATOM     10  C   UNL A   1      29.950  22.982  26.893  1.00  0.00     0.004 A 
ATOM     11  C   UNL A   1      30.389  24.886  25.461  1.00  0.00     0.012 A 
ATOM     12  C   UNL A   1      29.673  24.292  26.505  1.00  0.00     0.001 A 
BRANCH   9  13
ATOM     13  C   UNL A   1      32.103  24.840  23.688  1.00  0.00     0.033 C 
ATOM     14  C   UNL A   1      32.871  25.932  23.811  1.00  0.00     0.084 C 
ATOM     15  S   UNL A   1      33.417  26.870  22.477  1.00  0.00    -0.022 SA
ATOM     16  C   UNL A   1      33.232  26.624  25.079  1.00  0.00     0.272 C 
ATOM     17  C   UNL A   1      33.580  28.307  23.485  1.00  0.00     0.298 C 
ATOM     18  N   UNL A   1      33.527  27.957  24.820  1.00  0.00    -0.236 N 
ATOM     19  O   UNL A   1      33.226  26.053  26.161  1.00  0.00    -0.268 OA
ATOM     20  O   UNL A   1      33.726  29.414  22.989  1.00  0.00    -0.260 OA
BRANCH  18  21
ATOM     21  C   UNL A   1      33.694  28.898  25.882  1.00  0.00     0.053 A 
ATOM     22  C   UNL A   1      32.699  29.854  26.153  1.00  0.00     0.030 A 
ATOM     23  C   UNL A   1      34.872  28.943  26.648  1.00  0.00     0.030 A 
ATOM     24  C   UNL A   1      32.890  30.850  27.113  1.00  0.00     0.041 A 
ATOM     25  C   UNL A   1      35.079  29.961  27.587  1.00  0.00     0.041 A 
ATOM     26  C   UNL A   1      34.089  30.909  27.807  1.00  0.00     0.123 A 
ATOM     27  F   UNL A   1      34.292  31.889  28.695  1.00  0.00    -0.207 F 
ENDBRANCH  18  21
ENDBRANCH   9  13
ENDBRANCH   6   7
ENDBRANCH   5   6
ENDBRANCH   3   5
ENDBRANCH   2   3
ENDBRANCH   1   2
BRANCH   1  28
ATOM     28  C   UNL A   1      37.414  20.631  25.018  1.00  0.00     0.275 C 
BRANCH  28  29
ATOM     29  O   UNL A   1      38.265  21.754  25.283  1.00  0.00    -0.458 OA
BRANCH  29  30
ATOM     30  C   UNL A   1      39.298  21.517  26.127  1.00  0.00     0.338 C 
ATOM     31  O   UNL A   1      39.919  20.481  26.269  1.00  0.00    -0.246 OA
BRANCH  30  32
ATOM     32  C   UNL A   1      39.698  22.818  26.693  1.00  0.00     0.060 A 
ATOM     33  C   UNL A   1      38.975  23.961  26.325  1.00  0.00     0.016 A 
ATOM     34  C   UNL A   1      40.748  22.903  27.613  1.00  0.00     0.016 A 
ATOM     35  C   UNL A   1      39.325  25.201  26.850  1.00  0.00     0.010 A 
ATOM     36  C   UNL A   1      41.107  24.143  28.128  1.00  0.00     0.010 A 
ATOM     37  C   UNL A   1      40.422  25.298  27.714  1.00  0.00    -0.014 A 
BRANCH  37  38
ATOM     38  C   UNL A   1      41.045  26.611  27.969  1.00  0.00     0.031 A 
ATOM     39  C   UNL A   1      42.473  26.787  27.541  1.00  0.00     0.074 A 
ATOM     40  C   UNL A   1      40.379  27.590  28.598  1.00  0.00     0.049 A 
ATOM     41  N   UNL A   1      43.278  27.800  27.718  1.00  0.00    -0.248 NA
ATOM     42  C   UNL A   1      43.080  25.650  26.827  1.00  0.00     0.031 C 
ATOM     43  C   UNL A   1      38.987  27.523  29.036  1.00  0.00     0.029 A 
ATOM     44  N   UNL A   1      40.801  28.832  28.992  1.00  0.00    -0.354 N 
ATOM     45  C   UNL A   1      44.483  27.421  27.142  1.00  0.00     0.074 A 
ATOM     46  C   UNL A   1      44.320  26.073  26.647  1.00  0.00     0.031 C 
ATOM     47  C   UNL A   1      38.671  28.675  29.653  1.00  0.00     0.029 A 
ATOM     48  C   UNL A   1      39.846  29.544  29.673  1.00  0.00     0.049 A 
ATOM     49  H   UNL A   1      41.702  29.181  28.803  1.00  0.00     0.167 HD
ATOM     50  C   UNL A   1      45.623  28.140  27.026  1.00  0.00     0.037 A 
ATOM     51  C   UNL A   1      39.932  30.755  30.253  1.00  0.00     0.037 A 
ATOM     52  C   UNL A   1      45.777  29.473  27.539  1.00  0.00     0.049 A 
ATOM     53  C   UNL A   1      41.232  31.517  30.166  1.00  0.00     0.074 A 
ATOM     54  C   UNL A   1      46.879  30.305  27.473  1.00  0.00     0.029 A 
ATOM     55  N   UNL A   1      44.790  30.164  28.230  1.00  0.00    -0.354 N 
ATOM     56  N   UNL A   1      42.357  31.174  29.585  1.00  0.00    -0.248 NA
ATOM     57  C   UNL A   1      41.269  32.835  30.813  1.00  0.00     0.031 C 
ATOM     58  C   UNL A   1      46.575  31.480  28.168  1.00  0.00     0.029 A 
ATOM     59  C   UNL A   1      45.265  31.404  28.616  1.00  0.00     0.049 A 
ATOM     60  H   UNL A   1      43.886  29.822  28.416  1.00  0.00     0.167 HD
ATOM     61  C   UNL A   1      43.222  32.246  29.761  1.00  0.00     0.074 A 
ATOM     62  C   UNL A   1      42.489  33.253  30.501  1.00  0.00     0.031 C 
ATOM     63  C   UNL A   1      44.505  32.390  29.344  1.00  0.00     0.037 A 
BRANCH  50  64
ATOM     64  C   UNL A   1      46.784  27.473  26.351  1.00  0.00     0.064 A 
ATOM     65  C   UNL A   1      47.744  26.750  27.078  1.00  0.00     0.173 A 
ATOM     66  C   UNL A   1      46.956  27.579  24.963  1.00  0.00     0.173 A 
ATOM     67  F   UNL A   1      47.639  26.639  28.411  1.00  0.00    -0.203 F 
ATOM     68  C   UNL A   1      48.854  26.196  26.446  1.00  0.00     0.198 A 
ATOM     69  C   UNL A   1      48.050  26.997  24.330  1.00  0.00     0.198 A 
ATOM     70  F   UNL A   1      46.070  28.262  24.222  1.00  0.00    -0.203 F 
ATOM     71  F   UNL A   1      49.794  25.571  27.169  1.00  0.00    -0.200 F 
ATOM     72  C   UNL A   1      49.004  26.316  25.072  1.00  0.00     0.200 A 
ATOM     73  F   UNL A   1      48.191  27.107  23.002  1.00  0.00    -0.200 F 
ATOM     74  F   UNL A   1      50.076  25.788  24.465  1.00  0.00    -0.200 F 
ENDBRANCH  50  64
BRANCH  51  75
ATOM     75  C   UNL A   1      38.751  31.332  30.945  1.00  0.00     0.064 A 
ATOM     76  C   UNL A   1      38.520  31.080  32.304  1.00  0.00     0.173 A 
ATOM     77  C   UNL A   1      37.831  32.144  30.267  1.00  0.00     0.173 A 
ATOM     78  F   UNL A   1      39.360  30.290  32.990  1.00  0.00    -0.203 F 
ATOM     79  C   UNL A   1      37.407  31.608  32.957  1.00  0.00     0.198 A 
ATOM     80  C   UNL A   1      36.732  32.692  30.926  1.00  0.00     0.198 A 
ATOM     81  F   UNL A   1      38.006  32.417  28.965  1.00  0.00    -0.203 F 
ATOM     82  F   UNL A   1      37.191  31.319  34.247  1.00  0.00    -0.200 F 
ATOM     83  C   UNL A   1      36.517  32.418  32.268  1.00  0.00     0.200 A 
ATOM     84  F   UNL A   1      35.880  33.485  30.261  1.00  0.00    -0.200 F 
ATOM     85  F   UNL A   1      35.450  32.930  32.897  1.00  0.00    -0.200 F 
ENDBRANCH  51  75
BRANCH  63  86
ATOM     86  C   UNL A   1      45.180  33.699  29.635  1.00  0.00     0.064 A 
ATOM     87  C   UNL A   1      45.936  33.899  30.798  1.00  0.00     0.173 A 
ATOM     88  C   UNL A   1      45.112  34.750  28.705  1.00  0.00     0.173 A 
ATOM     89  F   UNL A   1      46.022  32.930  31.723  1.00  0.00    -0.203 F 
ATOM     90  C   UNL A   1      46.579  35.111  31.033  1.00  0.00     0.198 A 
ATOM     91  C   UNL A   1      45.781  35.949  28.929  1.00  0.00     0.198 A 
ATOM     92  F   UNL A   1      44.409  34.605  27.572  1.00  0.00    -0.203 F 
ATOM     93  F   UNL A   1      47.259  35.298  32.173  1.00  0.00    -0.200 F 
ATOM     94  C   UNL A   1      46.507  36.131  30.095  1.00  0.00     0.200 A 
ATOM     95  F   UNL A   1      45.724  36.926  28.014  1.00  0.00    -0.200 F 
ATOM     96  F   UNL A   1      47.135  37.294  30.319  1.00  0.00    -0.200 F 
ENDBRANCH  63  86
ENDBRANCH  37  38
ENDBRANCH  30  32
ENDBRANCH  29  30
ENDBRANCH  28  29
ENDBRANCH   1  28
TORSDOF 15
ENDMDL
