MODEL 1
REMARK VINA RESULT:     -11.3      0.000      0.000
REMARK SMILES C[C@H]1CN(CCC(=O)OCCOC(=O)c2ccc(-c3c4nc(c(-c5c(F)c(F)c(F)c(F)c5F)c5ccc([nH]5)c(-c5c(F)c(F)c(F)c(F)c5F)c5nc(c(-c6c(F)c(F)c(F)c(F)c6F)c6ccc3[nH]6)C=C5)C=C4)cc2)S(=O)(=O)C1
REMARK SMILES IDX 10 1 9 2 7 3 8 4 6 5 5 6 4 7 1 8 2 9 3 10 81 11 78 12 79 13
REMARK SMILES IDX 80 14 11 15 12 16 13 17 14 18 15 19 16 20 77 21 17 22 76 23
REMARK SMILES IDX 18 24 19 25 20 26 70 27 21 28 75 29 69 30 71 31 22 32 74 33
REMARK SMILES IDX 68 34 67 35 23 37 55 38 35 39 54 40 36 41 39 42 53 43 72 44
REMARK SMILES IDX 37 45 38 46 52 48 73 49 40 50 24 51 25 52 33 53 26 54 27 55
REMARK SMILES IDX 31 56 34 57 28 58 29 59 32 60 30 61 56 62 57 63 65 64 58 65
REMARK SMILES IDX 59 66 63 67 66 68 60 69 61 70 64 71 62 72 41 73 42 74 50 75
REMARK SMILES IDX 43 76 44 77 48 78 51 79 45 80 46 81 49 82 47 83
REMARK H PARENT 71 36 39 47
REMARK Flexibility Score: inf
ROOT
ATOM      1  C   UNL A   1      31.714  29.545  24.388  1.00  0.00     0.274 C 
ENDROOT
BRANCH   1   2
ATOM      2  O   UNL A   1      30.467  28.851  24.190  1.00  0.00    -0.462 OA
BRANCH   2   3
ATOM      3  C   UNL A   1      30.355  28.044  23.115  1.00  0.00     0.307 C 
ATOM      4  O   UNL A   1      29.939  28.390  22.016  1.00  0.00    -0.252 OA
BRANCH   3   5
ATOM      5  C   UNL A   1      30.731  26.613  23.419  1.00  0.00     0.139 C 
BRANCH   5   6
ATOM      6  C   UNL A   1      29.915  25.923  24.505  1.00  0.00     0.114 C 
BRANCH   6   7
ATOM      7  N   UNL A   1      30.643  25.538  25.729  1.00  0.00    -0.201 NA
ATOM      8  C   UNL A   1      33.744  26.673  25.084  1.00  0.00     0.010 C 
ATOM      9  C   UNL A   1      32.978  25.947  26.190  1.00  0.00     0.017 C 
ATOM     10  C   UNL A   1      31.543  26.484  26.394  1.00  0.00     0.106 C 
ATOM     11  C   UNL A   1      32.918  24.428  25.933  1.00  0.00     0.158 C 
ATOM     12  S   UNL A   1      31.201  23.959  25.992  1.00  0.00     0.214 S 
ATOM     13  O   UNL A   1      30.902  23.618  27.366  1.00  0.00    -0.212 OA
ATOM     14  O   UNL A   1      30.873  23.089  24.891  1.00  0.00    -0.212 OA
ENDBRANCH   6   7
ENDBRANCH   5   6
ENDBRANCH   3   5
ENDBRANCH   2   3
ENDBRANCH   1   2
BRANCH   1  15
ATOM     15  C   UNL A   1      31.784  30.150  25.790  1.00  0.00     0.275 C 
BRANCH  15  16
ATOM     16  O   UNL A   1      33.148  30.209  26.241  1.00  0.00    -0.458 OA
BRANCH  16  17
ATOM     17  C   UNL A   1      33.457  31.260  27.032  1.00  0.00     0.338 C 
ATOM     18  O   UNL A   1      32.789  32.242  27.294  1.00  0.00    -0.246 OA
BRANCH  17  19
ATOM     19  C   UNL A   1      34.721  30.969  27.705  1.00  0.00     0.060 A 
ATOM     20  C   UNL A   1      35.595  32.030  27.954  1.00  0.00     0.016 A 
ATOM     21  C   UNL A   1      35.052  29.665  28.056  1.00  0.00     0.016 A 
ATOM     22  C   UNL A   1      36.799  31.805  28.597  1.00  0.00     0.010 A 
ATOM     23  C   UNL A   1      36.260  29.436  28.710  1.00  0.00     0.010 A 
ATOM     24  C   UNL A   1      37.124  30.508  28.995  1.00  0.00    -0.014 A 
BRANCH  24  25
ATOM     25  C   UNL A   1      38.372  30.262  29.740  1.00  0.00     0.031 A 
ATOM     26  C   UNL A   1      39.382  29.315  29.184  1.00  0.00     0.074 A 
ATOM     27  C   UNL A   1      38.538  30.857  30.932  1.00  0.00     0.049 A 
ATOM     28  N   UNL A   1      40.431  28.796  29.762  1.00  0.00    -0.248 NA
ATOM     29  C   UNL A   1      39.174  28.883  27.794  1.00  0.00     0.031 C 
ATOM     30  C   UNL A   1      37.617  31.830  31.523  1.00  0.00     0.029 A 
ATOM     31  N   UNL A   1      39.519  30.706  31.875  1.00  0.00    -0.354 N 
ATOM     32  C   UNL A   1      40.989  27.945  28.820  1.00  0.00     0.074 A 
ATOM     33  C   UNL A   1      40.161  28.014  27.634  1.00  0.00     0.031 C 
ATOM     34  C   UNL A   1      38.059  32.164  32.744  1.00  0.00     0.029 A 
ATOM     35  C   UNL A   1      39.251  31.379  33.042  1.00  0.00     0.049 A 
ATOM     36  H   UNL A   1      40.332  30.170  31.733  1.00  0.00     0.167 HD
ATOM     37  C   UNL A   1      42.091  27.170  28.954  1.00  0.00     0.037 A 
ATOM     38  C   UNL A   1      39.864  31.314  34.237  1.00  0.00     0.037 A 
ATOM     39  C   UNL A   1      42.891  27.132  30.152  1.00  0.00     0.049 A 
ATOM     40  C   UNL A   1      41.048  30.401  34.383  1.00  0.00     0.074 A 
ATOM     41  C   UNL A   1      44.056  26.429  30.392  1.00  0.00     0.029 A 
ATOM     42  N   UNL A   1      42.590  27.823  31.319  1.00  0.00    -0.354 N 
ATOM     43  N   UNL A   1      41.594  29.611  33.489  1.00  0.00    -0.248 NA
ATOM     44  C   UNL A   1      41.694  30.358  35.699  1.00  0.00     0.031 C 
ATOM     45  C   UNL A   1      44.426  26.645  31.724  1.00  0.00     0.029 A 
ATOM     46  C   UNL A   1      43.523  27.528  32.300  1.00  0.00     0.049 A 
ATOM     47  H   UNL A   1      41.825  28.433  31.434  1.00  0.00     0.167 HD
ATOM     48  C   UNL A   1      42.648  28.977  34.129  1.00  0.00     0.074 A 
ATOM     49  C   UNL A   1      42.679  29.496  35.484  1.00  0.00     0.031 C 
ATOM     50  C   UNL A   1      43.511  28.049  33.645  1.00  0.00     0.037 A 
BRANCH  37  51
ATOM     51  C   UNL A   1      42.448  26.271  27.808  1.00  0.00     0.064 A 
ATOM     52  C   UNL A   1      43.393  26.634  26.837  1.00  0.00     0.173 A 
ATOM     53  C   UNL A   1      41.821  25.021  27.673  1.00  0.00     0.173 A 
ATOM     54  F   UNL A   1      44.010  27.822  26.908  1.00  0.00    -0.203 F 
ATOM     55  C   UNL A   1      43.669  25.799  25.756  1.00  0.00     0.198 A 
ATOM     56  C   UNL A   1      42.121  24.176  26.609  1.00  0.00     0.198 A 
ATOM     57  F   UNL A   1      40.908  24.622  28.573  1.00  0.00    -0.203 F 
ATOM     58  F   UNL A   1      44.531  26.195  24.808  1.00  0.00    -0.200 F 
ATOM     59  C   UNL A   1      43.037  24.570  25.645  1.00  0.00     0.200 A 
ATOM     60  F   UNL A   1      41.516  22.985  26.510  1.00  0.00    -0.200 F 
ATOM     61  F   UNL A   1      43.301  23.770  24.603  1.00  0.00    -0.200 F 
ENDBRANCH  37  51
BRANCH  38  62
ATOM     62  C   UNL A   1      39.323  32.095  35.377  1.00  0.00     0.064 A 
ATOM     63  C   UNL A   1      38.493  31.497  36.333  1.00  0.00     0.173 A 
ATOM     64  C   UNL A   1      39.671  33.442  35.566  1.00  0.00     0.173 A 
ATOM     65  F   UNL A   1      38.117  30.219  36.187  1.00  0.00    -0.203 F 
ATOM     66  C   UNL A   1      38.032  32.217  37.435  1.00  0.00     0.198 A 
ATOM     67  C   UNL A   1      39.234  34.151  36.681  1.00  0.00     0.198 A 
ATOM     68  F   UNL A   1      40.467  34.060  34.680  1.00  0.00    -0.203 F 
ATOM     69  F   UNL A   1      37.220  31.628  38.324  1.00  0.00    -0.200 F 
ATOM     70  C   UNL A   1      38.411  33.539  37.614  1.00  0.00     0.200 A 
ATOM     71  F   UNL A   1      39.618  35.423  36.859  1.00  0.00    -0.200 F 
ATOM     72  F   UNL A   1      37.985  34.222  38.685  1.00  0.00    -0.200 F 
ENDBRANCH  38  62
BRANCH  50  73
ATOM     73  C   UNL A   1      44.554  27.535  34.592  1.00  0.00     0.064 A 
ATOM     74  C   UNL A   1      45.772  28.208  34.769  1.00  0.00     0.173 A 
ATOM     75  C   UNL A   1      44.309  26.395  35.370  1.00  0.00     0.173 A 
ATOM     76  F   UNL A   1      46.059  29.292  34.032  1.00  0.00    -0.203 F 
ATOM     77  C   UNL A   1      46.715  27.746  35.682  1.00  0.00     0.198 A 
ATOM     78  C   UNL A   1      45.242  25.954  36.305  1.00  0.00     0.198 A 
ATOM     79  F   UNL A   1      43.157  25.720  35.239  1.00  0.00    -0.203 F 
ATOM     80  F   UNL A   1      47.889  28.380  35.808  1.00  0.00    -0.200 F 
ATOM     81  C   UNL A   1      46.445  26.627  36.457  1.00  0.00     0.200 A 
ATOM     82  F   UNL A   1      44.974  24.882  37.061  1.00  0.00    -0.200 F 
ATOM     83  F   UNL A   1      47.348  26.193  37.347  1.00  0.00    -0.200 F 
ENDBRANCH  50  73
ENDBRANCH  24  25
ENDBRANCH  17  19
ENDBRANCH  16  17
ENDBRANCH  15  16
ENDBRANCH   1  15
TORSDOF 13
ENDMDL
MODEL 2
REMARK VINA RESULT:     -11.0      1.145      2.273
REMARK SMILES C[C@H]1CN(CCC(=O)OCCOC(=O)c2ccc(-c3c4nc(c(-c5c(F)c(F)c(F)c(F)c5F)c5ccc([nH]5)c(-c5c(F)c(F)c(F)c(F)c5F)c5nc(c(-c6c(F)c(F)c(F)c(F)c6F)c6ccc3[nH]6)C=C5)C=C4)cc2)S(=O)(=O)C1
REMARK SMILES IDX 10 1 9 2 7 3 8 4 6 5 5 6 4 7 1 8 2 9 3 10 81 11 78 12 79 13
REMARK SMILES IDX 80 14 11 15 12 16 13 17 14 18 15 19 16 20 77 21 17 22 76 23
REMARK SMILES IDX 18 24 19 25 20 26 70 27 21 28 75 29 69 30 71 31 22 32 74 33
REMARK SMILES IDX 68 34 67 35 23 37 55 38 35 39 54 40 36 41 39 42 53 43 72 44
REMARK SMILES IDX 37 45 38 46 52 48 73 49 40 50 24 51 25 52 33 53 26 54 27 55
REMARK SMILES IDX 31 56 34 57 28 58 29 59 32 60 30 61 56 62 57 63 65 64 58 65
REMARK SMILES IDX 59 66 63 67 66 68 60 69 61 70 64 71 62 72 41 73 42 74 50 75
REMARK SMILES IDX 43 76 44 77 48 78 51 79 45 80 46 81 49 82 47 83
REMARK H PARENT 71 36 39 47
REMARK Flexibility Score: inf
ROOT
ATOM      1  C   UNL A   1      31.769  28.570  26.350  1.00  0.00     0.274 C 
ENDROOT
BRANCH   1   2
ATOM      2  O   UNL A   1      31.177  27.794  25.291  1.00  0.00    -0.462 OA
BRANCH   2   3
ATOM      3  C   UNL A   1      30.653  26.591  25.604  1.00  0.00     0.307 C 
ATOM      4  O   UNL A   1      30.595  26.122  26.735  1.00  0.00    -0.252 OA
BRANCH   3   5
ATOM      5  C   UNL A   1      30.198  25.820  24.389  1.00  0.00     0.139 C 
BRANCH   5   6
ATOM      6  C   UNL A   1      31.132  25.853  23.186  1.00  0.00     0.114 C 
BRANCH   6   7
ATOM      7  N   UNL A   1      31.930  24.638  22.940  1.00  0.00    -0.201 NA
ATOM      8  C   UNL A   1      33.407  24.157  25.926  1.00  0.00     0.010 C 
ATOM      9  C   UNL A   1      33.351  23.516  24.539  1.00  0.00     0.017 C 
ATOM     10  C   UNL A   1      31.940  23.539  23.910  1.00  0.00     0.106 C 
ATOM     11  C   UNL A   1      34.348  24.181  23.569  1.00  0.00     0.158 C 
ATOM     12  S   UNL A   1      33.421  24.681  22.133  1.00  0.00     0.214 S 
ATOM     13  O   UNL A   1      33.443  23.570  21.206  1.00  0.00    -0.212 OA
ATOM     14  O   UNL A   1      33.774  26.022  21.741  1.00  0.00    -0.212 OA
ENDBRANCH   6   7
ENDBRANCH   5   6
ENDBRANCH   3   5
ENDBRANCH   2   3
ENDBRANCH   1   2
BRANCH   1  15
ATOM     15  C   UNL A   1      31.997  30.015  25.904  1.00  0.00     0.275 C 
BRANCH  15  16
ATOM     16  O   UNL A   1      33.369  30.392  26.115  1.00  0.00    -0.458 OA
BRANCH  16  17
ATOM     17  C   UNL A   1      33.580  31.305  27.088  1.00  0.00     0.338 C 
ATOM     18  O   UNL A   1      32.836  32.177  27.495  1.00  0.00    -0.246 OA
BRANCH  17  19
ATOM     19  C   UNL A   1      34.847  30.987  27.744  1.00  0.00     0.060 A 
ATOM     20  C   UNL A   1      35.768  32.019  27.933  1.00  0.00     0.016 A 
ATOM     21  C   UNL A   1      35.133  29.684  28.137  1.00  0.00     0.016 A 
ATOM     22  C   UNL A   1      36.977  31.769  28.558  1.00  0.00     0.010 A 
ATOM     23  C   UNL A   1      36.346  29.430  28.773  1.00  0.00     0.010 A 
ATOM     24  C   UNL A   1      37.260  30.475  28.998  1.00  0.00    -0.014 A 
BRANCH  24  25
ATOM     25  C   UNL A   1      38.513  30.206  29.724  1.00  0.00     0.031 A 
ATOM     26  C   UNL A   1      39.497  29.242  29.153  1.00  0.00     0.074 A 
ATOM     27  C   UNL A   1      38.707  30.796  30.915  1.00  0.00     0.049 A 
ATOM     28  N   UNL A   1      40.545  28.703  29.714  1.00  0.00    -0.248 NA
ATOM     29  C   UNL A   1      39.262  28.816  27.765  1.00  0.00     0.031 C 
ATOM     30  C   UNL A   1      37.812  31.784  31.520  1.00  0.00     0.029 A 
ATOM     31  N   UNL A   1      39.699  30.626  31.844  1.00  0.00    -0.354 N 
ATOM     32  C   UNL A   1      41.075  27.843  28.763  1.00  0.00     0.074 A 
ATOM     33  C   UNL A   1      40.231  27.930  27.590  1.00  0.00     0.031 C 
ATOM     34  C   UNL A   1      38.278  32.108  32.735  1.00  0.00     0.029 A 
ATOM     35  C   UNL A   1      39.460  31.302  33.015  1.00  0.00     0.049 A 
ATOM     36  H   UNL A   1      40.500  30.076  31.688  1.00  0.00     0.167 HD
ATOM     37  C   UNL A   1      42.164  27.049  28.881  1.00  0.00     0.037 A 
ATOM     38  C   UNL A   1      40.090  31.224  34.200  1.00  0.00     0.037 A 
ATOM     39  C   UNL A   1      42.980  26.995  30.066  1.00  0.00     0.049 A 
ATOM     40  C   UNL A   1      41.258  30.289  34.328  1.00  0.00     0.074 A 
ATOM     41  C   UNL A   1      44.136  26.270  30.289  1.00  0.00     0.029 A 
ATOM     42  N   UNL A   1      42.709  27.689  31.239  1.00  0.00    -0.354 N 
ATOM     43  N   UNL A   1      41.777  29.491  33.426  1.00  0.00    -0.248 NA
ATOM     44  C   UNL A   1      41.923  30.233  35.635  1.00  0.00     0.031 C 
ATOM     45  C   UNL A   1      44.529  26.478  31.615  1.00  0.00     0.029 A 
ATOM     46  C   UNL A   1      43.651  27.376  32.206  1.00  0.00     0.049 A 
ATOM     47  H   UNL A   1      41.957  28.313  31.366  1.00  0.00     0.167 HD
ATOM     48  C   UNL A   1      42.829  28.838  34.049  1.00  0.00     0.074 A 
ATOM     49  C   UNL A   1      42.889  29.354  35.404  1.00  0.00     0.031 C 
ATOM     50  C   UNL A   1      43.667  27.895  33.552  1.00  0.00     0.037 A 
BRANCH  37  51
ATOM     51  C   UNL A   1      42.488  26.145  27.728  1.00  0.00     0.064 A 
ATOM     52  C   UNL A   1      41.867  24.898  27.557  1.00  0.00     0.173 A 
ATOM     53  C   UNL A   1      43.448  26.532  26.779  1.00  0.00     0.173 A 
ATOM     54  F   UNL A   1      40.955  24.472  28.442  1.00  0.00    -0.203 F 
ATOM     55  C   UNL A   1      42.222  24.059  26.504  1.00  0.00     0.198 A 
ATOM     56  C   UNL A   1      43.778  25.704  25.711  1.00  0.00     0.198 A 
ATOM     57  F   UNL A   1      44.073  27.715  26.892  1.00  0.00    -0.203 F 
ATOM     58  F   UNL A   1      41.660  22.846  26.397  1.00  0.00    -0.200 F 
ATOM     59  C   UNL A   1      43.174  24.463  25.580  1.00  0.00     0.200 A 
ATOM     60  F   UNL A   1      44.690  26.102  24.813  1.00  0.00    -0.200 F 
ATOM     61  F   UNL A   1      43.517  23.652  24.569  1.00  0.00    -0.200 F 
ENDBRANCH  37  51
BRANCH  38  62
ATOM     62  C   UNL A   1      39.579  32.013  35.350  1.00  0.00     0.064 A 
ATOM     63  C   UNL A   1      39.940  33.354  35.524  1.00  0.00     0.173 A 
ATOM     64  C   UNL A   1      38.671  31.456  36.266  1.00  0.00     0.173 A 
ATOM     65  F   UNL A   1      40.818  33.924  34.688  1.00  0.00    -0.203 F 
ATOM     66  C   UNL A   1      39.414  34.109  36.572  1.00  0.00     0.198 A 
ATOM     67  C   UNL A   1      38.124  32.219  37.294  1.00  0.00     0.198 A 
ATOM     68  F   UNL A   1      38.289  30.176  36.140  1.00  0.00    -0.203 F 
ATOM     69  F   UNL A   1      39.795  35.384  36.731  1.00  0.00    -0.200 F 
ATOM     70  C   UNL A   1      38.499  33.545  37.449  1.00  0.00     0.200 A 
ATOM     71  F   UNL A   1      37.226  31.675  38.127  1.00  0.00    -0.200 F 
ATOM     72  F   UNL A   1      37.978  34.279  38.441  1.00  0.00    -0.200 F 
ENDBRANCH  38  62
BRANCH  50  73
ATOM     73  C   UNL A   1      44.715  27.361  34.483  1.00  0.00     0.064 A 
ATOM     74  C   UNL A   1      45.954  28.002  34.629  1.00  0.00     0.173 A 
ATOM     75  C   UNL A   1      44.455  26.235  35.276  1.00  0.00     0.173 A 
ATOM     76  F   UNL A   1      46.256  29.070  33.877  1.00  0.00    -0.203 F 
ATOM     77  C   UNL A   1      46.902  27.522  35.528  1.00  0.00     0.198 A 
ATOM     78  C   UNL A   1      45.393  25.777  36.196  1.00  0.00     0.198 A 
ATOM     79  F   UNL A   1      43.282  25.591  35.174  1.00  0.00    -0.203 F 
ATOM     80  F   UNL A   1      48.095  28.125  35.625  1.00  0.00    -0.200 F 
ATOM     81  C   UNL A   1      46.617  26.418  36.318  1.00  0.00     0.200 A 
ATOM     82  F   UNL A   1      45.111  24.719  36.968  1.00  0.00    -0.200 F 
ATOM     83  F   UNL A   1      47.525  25.967  37.194  1.00  0.00    -0.200 F 
ENDBRANCH  50  73
ENDBRANCH  24  25
ENDBRANCH  17  19
ENDBRANCH  16  17
ENDBRANCH  15  16
ENDBRANCH   1  15
TORSDOF 13
ENDMDL
MODEL 3
REMARK VINA RESULT:     -11.0      0.854      2.066
REMARK SMILES C[C@H]1CN(CCC(=O)OCCOC(=O)c2ccc(-c3c4nc(c(-c5c(F)c(F)c(F)c(F)c5F)c5ccc([nH]5)c(-c5c(F)c(F)c(F)c(F)c5F)c5nc(c(-c6c(F)c(F)c(F)c(F)c6F)c6ccc3[nH]6)C=C5)C=C4)cc2)S(=O)(=O)C1
REMARK SMILES IDX 10 1 9 2 7 3 8 4 6 5 5 6 4 7 1 8 2 9 3 10 81 11 78 12 79 13
REMARK SMILES IDX 80 14 11 15 12 16 13 17 14 18 15 19 16 20 77 21 17 22 76 23
REMARK SMILES IDX 18 24 19 25 20 26 70 27 21 28 75 29 69 30 71 31 22 32 74 33
REMARK SMILES IDX 68 34 67 35 23 37 55 38 35 39 54 40 36 41 39 42 53 43 72 44
REMARK SMILES IDX 37 45 38 46 52 48 73 49 40 50 24 51 25 52 33 53 26 54 27 55
REMARK SMILES IDX 31 56 34 57 28 58 29 59 32 60 30 61 56 62 57 63 65 64 58 65
REMARK SMILES IDX 59 66 63 67 66 68 60 69 61 70 64 71 62 72 41 73 42 74 50 75
REMARK SMILES IDX 43 76 44 77 48 78 51 79 45 80 46 81 49 82 47 83
REMARK H PARENT 71 36 39 47
REMARK Flexibility Score: inf
ROOT
ATOM      1  C   UNL A   1      31.657  29.259  24.934  1.00  0.00     0.274 C 
ENDROOT
BRANCH   1   2
ATOM      2  O   UNL A   1      32.600  28.174  25.030  1.00  0.00    -0.462 OA
BRANCH   2   3
ATOM      3  C   UNL A   1      32.451  27.129  24.191  1.00  0.00     0.307 C 
ATOM      4  O   UNL A   1      31.503  26.967  23.430  1.00  0.00    -0.252 OA
BRANCH   3   5
ATOM      5  C   UNL A   1      33.554  26.107  24.331  1.00  0.00     0.139 C 
BRANCH   5   6
ATOM      6  C   UNL A   1      33.770  25.543  25.729  1.00  0.00     0.114 C 
BRANCH   6   7
ATOM      7  N   UNL A   1      33.093  24.270  26.036  1.00  0.00    -0.201 NA
ATOM      8  C   UNL A   1      32.311  23.138  22.964  1.00  0.00     0.010 C 
ATOM      9  C   UNL A   1      32.167  22.723  24.429  1.00  0.00     0.017 C 
ATOM     10  C   UNL A   1      33.411  23.052  25.284  1.00  0.00     0.106 C 
ATOM     11  C   UNL A   1      30.923  23.363  25.077  1.00  0.00     0.158 C 
ATOM     12  S   UNL A   1      31.477  24.203  26.547  1.00  0.00     0.214 S 
ATOM     13  O   UNL A   1      31.406  23.249  27.632  1.00  0.00    -0.212 OA
ATOM     14  O   UNL A   1      30.893  25.516  26.632  1.00  0.00    -0.212 OA
ENDBRANCH   6   7
ENDBRANCH   5   6
ENDBRANCH   3   5
ENDBRANCH   2   3
ENDBRANCH   1   2
BRANCH   1  15
ATOM     15  C   UNL A   1      31.838  30.242  26.090  1.00  0.00     0.275 C 
BRANCH  15  16
ATOM     16  O   UNL A   1      33.222  30.605  26.227  1.00  0.00    -0.458 OA
BRANCH  16  17
ATOM     17  C   UNL A   1      33.486  31.569  27.136  1.00  0.00     0.338 C 
ATOM     18  O   UNL A   1      32.790  32.502  27.487  1.00  0.00    -0.246 OA
BRANCH  17  19
ATOM     19  C   UNL A   1      34.741  31.232  27.806  1.00  0.00     0.060 A 
ATOM     20  C   UNL A   1      35.711  32.229  27.929  1.00  0.00     0.016 A 
ATOM     21  C   UNL A   1      34.967  29.943  28.278  1.00  0.00     0.016 A 
ATOM     22  C   UNL A   1      36.910  31.960  28.565  1.00  0.00     0.010 A 
ATOM     23  C   UNL A   1      36.170  29.672  28.925  1.00  0.00     0.010 A 
ATOM     24  C   UNL A   1      37.133  30.684  29.082  1.00  0.00    -0.014 A 
BRANCH  24  25
ATOM     25  C   UNL A   1      38.377  30.401  29.820  1.00  0.00     0.031 A 
ATOM     26  C   UNL A   1      39.368  29.445  29.245  1.00  0.00     0.074 A 
ATOM     27  C   UNL A   1      38.557  30.970  31.023  1.00  0.00     0.049 A 
ATOM     28  N   UNL A   1      40.408  28.896  29.811  1.00  0.00    -0.248 NA
ATOM     29  C   UNL A   1      39.150  29.044  27.847  1.00  0.00     0.031 C 
ATOM     30  C   UNL A   1      37.655  31.949  31.634  1.00  0.00     0.029 A 
ATOM     31  N   UNL A   1      39.536  30.783  31.962  1.00  0.00    -0.354 N 
ATOM     32  C   UNL A   1      40.949  28.052  28.852  1.00  0.00     0.074 A 
ATOM     33  C   UNL A   1      40.120  28.160  27.670  1.00  0.00     0.031 C 
ATOM     34  C   UNL A   1      38.105  32.252  32.860  1.00  0.00     0.029 A 
ATOM     35  C   UNL A   1      39.283  31.439  33.141  1.00  0.00     0.049 A 
ATOM     36  H   UNL A   1      40.339  30.234  31.807  1.00  0.00     0.167 HD
ATOM     37  C   UNL A   1      42.036  27.255  28.970  1.00  0.00     0.037 A 
ATOM     38  C   UNL A   1      39.896  31.340  34.333  1.00  0.00     0.037 A 
ATOM     39  C   UNL A   1      42.836  27.179  30.165  1.00  0.00     0.049 A 
ATOM     40  C   UNL A   1      41.062  30.402  34.460  1.00  0.00     0.074 A 
ATOM     41  C   UNL A   1      43.989  26.449  30.390  1.00  0.00     0.029 A 
ATOM     42  N   UNL A   1      42.550  27.853  31.346  1.00  0.00    -0.354 N 
ATOM     43  N   UNL A   1      41.592  29.618  33.551  1.00  0.00    -0.248 NA
ATOM     44  C   UNL A   1      41.710  30.322  35.774  1.00  0.00     0.031 C 
ATOM     45  C   UNL A   1      44.364  26.634  31.725  1.00  0.00     0.029 A 
ATOM     46  C   UNL A   1      43.479  27.522  32.319  1.00  0.00     0.049 A 
ATOM     47  H   UNL A   1      41.798  28.475  31.473  1.00  0.00     0.167 HD
ATOM     48  C   UNL A   1      42.635  28.953  34.177  1.00  0.00     0.074 A 
ATOM     49  C   UNL A   1      42.678  29.446  35.540  1.00  0.00     0.031 C 
ATOM     50  C   UNL A   1      43.479  28.018  33.674  1.00  0.00     0.037 A 
BRANCH  37  51
ATOM     51  C   UNL A   1      42.373  26.370  27.806  1.00  0.00     0.064 A 
ATOM     52  C   UNL A   1      41.782  25.111  27.626  1.00  0.00     0.173 A 
ATOM     53  C   UNL A   1      43.318  26.790  26.855  1.00  0.00     0.173 A 
ATOM     54  F   UNL A   1      40.885  24.654  28.513  1.00  0.00    -0.203 F 
ATOM     55  C   UNL A   1      42.150  24.290  26.562  1.00  0.00     0.198 A 
ATOM     56  C   UNL A   1      43.661  25.980  25.776  1.00  0.00     0.198 A 
ATOM     57  F   UNL A   1      43.915  27.986  26.977  1.00  0.00    -0.203 F 
ATOM     58  F   UNL A   1      41.616  23.066  26.447  1.00  0.00    -0.200 F 
ATOM     59  C   UNL A   1      43.086  24.726  25.636  1.00  0.00     0.200 A 
ATOM     60  F   UNL A   1      44.558  26.409  24.877  1.00  0.00    -0.200 F 
ATOM     61  F   UNL A   1      43.441  23.934  24.615  1.00  0.00    -0.200 F 
ENDBRANCH  37  51
BRANCH  38  62
ATOM     62  C   UNL A   1      39.371  32.109  35.489  1.00  0.00     0.064 A 
ATOM     63  C   UNL A   1      38.497  31.522  36.411  1.00  0.00     0.173 A 
ATOM     64  C   UNL A   1      39.780  33.432  35.728  1.00  0.00     0.173 A 
ATOM     65  F   UNL A   1      38.062  30.269  36.216  1.00  0.00    -0.203 F 
ATOM     66  C   UNL A   1      38.050  32.228  37.527  1.00  0.00     0.198 A 
ATOM     67  C   UNL A   1      39.357  34.125  36.858  1.00  0.00     0.198 A 
ATOM     68  F   UNL A   1      40.622  34.038  34.877  1.00  0.00    -0.203 F 
ATOM     69  F   UNL A   1      37.194  31.651  38.382  1.00  0.00    -0.200 F 
ATOM     70  C   UNL A   1      38.488  33.524  37.756  1.00  0.00     0.200 A 
ATOM     71  F   UNL A   1      39.798  35.370  37.084  1.00  0.00    -0.200 F 
ATOM     72  F   UNL A   1      38.075  34.192  38.841  1.00  0.00    -0.200 F 
ENDBRANCH  38  62
BRANCH  50  73
ATOM     73  C   UNL A   1      44.514  27.467  34.609  1.00  0.00     0.064 A 
ATOM     74  C   UNL A   1      44.286  26.290  35.337  1.00  0.00     0.173 A 
ATOM     75  C   UNL A   1      45.764  28.090  34.733  1.00  0.00     0.173 A 
ATOM     76  F   UNL A   1      43.098  25.671  35.266  1.00  0.00    -0.203 F 
ATOM     77  C   UNL A   1      45.271  25.765  36.168  1.00  0.00     0.198 A 
ATOM     78  C   UNL A   1      46.757  27.544  35.541  1.00  0.00     0.198 A 
ATOM     79  F   UNL A   1      46.030  29.216  34.054  1.00  0.00    -0.203 F 
ATOM     80  F   UNL A   1      45.019  24.661  36.885  1.00  0.00    -0.200 F 
ATOM     81  C   UNL A   1      46.508  26.385  36.261  1.00  0.00     0.200 A 
ATOM     82  F   UNL A   1      47.956  28.137  35.619  1.00  0.00    -0.200 F 
ATOM     83  F   UNL A   1      47.460  25.869  37.050  1.00  0.00    -0.200 F 
ENDBRANCH  50  73
ENDBRANCH  24  25
ENDBRANCH  17  19
ENDBRANCH  16  17
ENDBRANCH  15  16
ENDBRANCH   1  15
TORSDOF 13
ENDMDL
