MODEL 1
REMARK VINA RESULT:     -12.8      0.000      0.000
REMARK SMILES O=C(OCCOC(=O)[C@H]1C[C@](O)(c2ccccc2Cl)[C@@H](c2ccccc2Cl)O1)c1ccc(-c2c3nc(c(-c4c(F)c(F)c(F)c(F)c4F)c4ccc([nH]4)c(-c4c(F)c(F)c(F)c(F)c4F)c4nc(c(-c5c(F)c(F)c(F)c(F)c5F)c5ccc2[nH]5)C=C4)C=C3)cc1
REMARK SMILES IDX 4 1 3 2 2 3 1 4 29 5 30 6 91 7 31 8 90 9 32 10 33 11 34 12
REMARK SMILES IDX 84 13 35 14 89 15 83 16 85 17 36 18 88 19 82 20 81 21 37 23
REMARK SMILES IDX 69 24 49 25 68 26 50 27 53 28 67 29 86 30 51 31 52 32 66 34
REMARK SMILES IDX 87 35 54 36 38 37 39 38 47 39 40 40 41 41 45 42 48 43 42 44
REMARK SMILES IDX 43 45 46 46 44 47 70 48 71 49 79 50 72 51 73 52 77 53 80 54
REMARK SMILES IDX 74 55 75 56 78 57 76 58 55 59 56 60 64 61 57 62 58 63 62 64
REMARK SMILES IDX 65 65 59 66 60 67 63 68 61 69 5 70 6 71 7 72 8 73 9 74 10 75
REMARK SMILES IDX 28 76 11 77 20 78 13 79 14 80 18 81 15 82 17 83 19 84 16 85
REMARK SMILES IDX 12 86 21 88 22 89 26 90 23 91 25 92 27 93 24 94
REMARK H PARENT 85 22 53 33 12 87
REMARK Flexibility Score: inf
ROOT
ATOM      1  C   UNL A   1      31.866  33.105  26.621  1.00  0.00     0.275 C 
ENDROOT
BRANCH   1   2
ATOM      2  O   UNL A   1      32.312  33.594  27.882  1.00  0.00    -0.458 OA
BRANCH   2   3
ATOM      3  C   UNL A   1      33.524  34.115  28.174  1.00  0.00     0.338 C 
ATOM      4  O   UNL A   1      33.602  35.327  28.312  1.00  0.00    -0.246 OA
BRANCH   3   5
ATOM      5  C   UNL A   1      34.767  33.284  28.411  1.00  0.00     0.060 A 
ATOM      6  C   UNL A   1      36.123  33.615  28.237  1.00  0.00     0.016 A 
ATOM      7  C   UNL A   1      34.501  32.018  28.936  1.00  0.00     0.016 A 
ATOM      8  C   UNL A   1      37.178  32.791  28.731  1.00  0.00     0.010 A 
ATOM      9  C   UNL A   1      35.536  31.203  29.399  1.00  0.00     0.010 A 
ATOM     10  C   UNL A   1      36.894  31.603  29.398  1.00  0.00    -0.014 A 
BRANCH  10  11
ATOM     11  C   UNL A   1      37.867  30.691  30.113  1.00  0.00     0.031 A 
ATOM     12  C   UNL A   1      38.283  31.153  31.478  1.00  0.00     0.074 A 
ATOM     13  C   UNL A   1      38.555  29.652  29.562  1.00  0.00     0.049 A 
ATOM     14  N   UNL A   1      39.307  30.794  32.202  1.00  0.00    -0.248 NA
ATOM     15  C   UNL A   1      37.436  32.195  32.093  1.00  0.00     0.031 C 
ATOM     16  C   UNL A   1      38.240  28.939  28.330  1.00  0.00     0.029 A 
ATOM     17  N   UNL A   1      39.755  29.060  29.938  1.00  0.00    -0.354 N 
ATOM     18  C   UNL A   1      39.180  31.519  33.370  1.00  0.00     0.074 A 
ATOM     19  C   UNL A   1      38.138  32.498  33.169  1.00  0.00     0.031 C 
ATOM     20  C   UNL A   1      39.284  28.175  27.950  1.00  0.00     0.029 A 
ATOM     21  C   UNL A   1      40.325  28.251  28.962  1.00  0.00     0.049 A 
ATOM     22  H   UNL A   1      40.166  29.201  30.822  1.00  0.00     0.167 HD
ATOM     23  C   UNL A   1      39.769  31.291  34.563  1.00  0.00     0.037 A 
ATOM     24  C   UNL A   1      41.522  27.619  28.900  1.00  0.00     0.037 A 
ATOM     25  C   UNL A   1      40.770  30.294  34.776  1.00  0.00     0.049 A 
ATOM     26  C   UNL A   1      42.360  27.592  30.152  1.00  0.00     0.074 A 
ATOM     27  C   UNL A   1      41.354  29.897  35.962  1.00  0.00     0.029 A 
ATOM     28  N   UNL A   1      41.352  29.545  33.764  1.00  0.00    -0.354 N 
ATOM     29  N   UNL A   1      42.125  28.165  31.306  1.00  0.00    -0.248 NA
ATOM     30  C   UNL A   1      43.567  26.751  30.134  1.00  0.00     0.031 C 
ATOM     31  C   UNL A   1      42.341  28.953  35.659  1.00  0.00     0.029 A 
ATOM     32  C   UNL A   1      42.334  28.728  34.291  1.00  0.00     0.049 A 
ATOM     33  H   UNL A   1      41.102  29.589  32.812  1.00  0.00     0.167 HD
ATOM     34  C   UNL A   1      43.073  27.656  32.180  1.00  0.00     0.074 A 
ATOM     35  C   UNL A   1      43.934  26.785  31.407  1.00  0.00     0.031 C 
ATOM     36  C   UNL A   1      43.173  27.848  33.518  1.00  0.00     0.037 A 
BRANCH  23  37
ATOM     37  C   UNL A   1      39.253  32.103  35.707  1.00  0.00     0.064 A 
ATOM     38  C   UNL A   1      39.777  33.380  35.978  1.00  0.00     0.173 A 
ATOM     39  C   UNL A   1      38.308  31.573  36.589  1.00  0.00     0.173 A 
ATOM     40  F   UNL A   1      40.713  33.912  35.176  1.00  0.00    -0.203 F 
ATOM     41  C   UNL A   1      39.415  34.070  37.129  1.00  0.00     0.198 A 
ATOM     42  C   UNL A   1      37.921  32.283  37.722  1.00  0.00     0.198 A 
ATOM     43  F   UNL A   1      37.791  30.353  36.375  1.00  0.00    -0.203 F 
ATOM     44  F   UNL A   1      40.001  35.239  37.419  1.00  0.00    -0.200 F 
ATOM     45  C   UNL A   1      38.486  33.520  37.999  1.00  0.00     0.200 A 
ATOM     46  F   UNL A   1      37.025  31.754  38.566  1.00  0.00    -0.200 F 
ATOM     47  F   UNL A   1      38.154  34.174  39.120  1.00  0.00    -0.200 F 
ENDBRANCH  23  37
BRANCH  24  48
ATOM     48  C   UNL A   1      42.005  26.859  27.696  1.00  0.00     0.064 A 
ATOM     49  C   UNL A   1      41.715  25.502  27.502  1.00  0.00     0.173 A 
ATOM     50  C   UNL A   1      42.927  27.426  26.803  1.00  0.00     0.173 A 
ATOM     51  F   UNL A   1      40.934  24.859  28.381  1.00  0.00    -0.203 F 
ATOM     52  C   UNL A   1      42.308  24.765  26.467  1.00  0.00     0.198 A 
ATOM     53  C   UNL A   1      43.487  26.710  25.741  1.00  0.00     0.198 A 
ATOM     54  F   UNL A   1      43.387  28.654  27.032  1.00  0.00    -0.203 F 
ATOM     55  F   UNL A   1      42.079  23.448  26.370  1.00  0.00    -0.200 F 
ATOM     56  C   UNL A   1      43.181  25.372  25.578  1.00  0.00     0.200 A 
ATOM     57  F   UNL A   1      44.372  27.302  24.926  1.00  0.00    -0.200 F 
ATOM     58  F   UNL A   1      43.771  24.659  24.607  1.00  0.00    -0.200 F 
ENDBRANCH  24  48
BRANCH  36  59
ATOM     59  C   UNL A   1      44.191  27.044  34.262  1.00  0.00     0.064 A 
ATOM     60  C   UNL A   1      45.488  27.519  34.491  1.00  0.00     0.173 A 
ATOM     61  C   UNL A   1      43.824  25.812  34.828  1.00  0.00     0.173 A 
ATOM     62  F   UNL A   1      45.888  28.679  33.951  1.00  0.00    -0.203 F 
ATOM     63  C   UNL A   1      46.385  26.785  35.262  1.00  0.00     0.198 A 
ATOM     64  C   UNL A   1      44.713  25.099  35.624  1.00  0.00     0.198 A 
ATOM     65  F   UNL A   1      42.592  25.318  34.634  1.00  0.00    -0.203 F 
ATOM     66  F   UNL A   1      47.631  27.242  35.448  1.00  0.00    -0.200 F 
ATOM     67  C   UNL A   1      45.993  25.585  35.840  1.00  0.00     0.200 A 
ATOM     68  F   UNL A   1      44.325  23.951  36.195  1.00  0.00    -0.200 F 
ATOM     69  F   UNL A   1      46.850  24.897  36.606  1.00  0.00    -0.200 F 
ENDBRANCH  36  59
ENDBRANCH  10  11
ENDBRANCH   3   5
ENDBRANCH   2   3
ENDBRANCH   1   2
BRANCH   1  70
ATOM     70  C   UNL A   1      31.438  31.633  26.590  1.00  0.00     0.274 C 
BRANCH  70  71
ATOM     71  O   UNL A   1      32.310  30.739  25.861  1.00  0.00    -0.460 OA
BRANCH  71  72
ATOM     72  C   UNL A   1      32.599  29.574  26.516  1.00  0.00     0.335 C 
ATOM     73  O   UNL A   1      32.614  29.483  27.743  1.00  0.00    -0.249 OA
BRANCH  72  74
ATOM     74  C   UNL A   1      33.053  28.390  25.631  1.00  0.00     0.232 C 
ATOM     75  C   UNL A   1      32.854  26.966  26.102  1.00  0.00     0.087 C 
ATOM     76  O   UNL A   1      32.531  28.497  24.303  1.00  0.00    -0.355 OA
ATOM     77  C   UNL A   1      31.707  26.431  25.257  1.00  0.00     0.124 C 
ATOM     78  C   UNL A   1      31.561  27.454  24.060  1.00  0.00     0.187 C 
BRANCH  77  79
ATOM     79  C   UNL A   1      31.856  24.909  25.027  1.00  0.00     0.005 A 
ATOM     80  C   UNL A   1      31.089  24.033  25.831  1.00  0.00     0.008 A 
ATOM     81  C   UNL A   1      32.740  24.255  24.165  1.00  0.00     0.047 A 
ATOM     82  C   UNL A   1      31.020  22.645  25.675  1.00  0.00     0.001 A 
ATOM     83  C   UNL A   1      32.743  22.844  24.055  1.00  0.00     0.021 A 
ATOM     84  Cl  UNL A   1      33.937  25.079  23.239  1.00  0.00    -0.084 Cl
ATOM     85  C   UNL A   1      31.842  22.043  24.753  1.00  0.00     0.002 A 
ENDBRANCH  77  79
BRANCH  77  86
ATOM     86  O   UNL A   1      30.595  26.628  26.120  1.00  0.00    -0.382 OA
ATOM     87  H   UNL A   1      30.873  26.496  27.040  1.00  0.00     0.212 HD
ENDBRANCH  77  86
BRANCH  78  88
ATOM     88  C   UNL A   1      30.245  28.209  23.764  1.00  0.00     0.003 A 
ATOM     89  C   UNL A   1      30.208  29.618  23.685  1.00  0.00     0.008 A 
ATOM     90  C   UNL A   1      29.036  27.556  23.448  1.00  0.00     0.046 A 
ATOM     91  C   UNL A   1      29.064  30.346  23.338  1.00  0.00     0.000 A 
ATOM     92  C   UNL A   1      27.878  28.284  23.104  1.00  0.00     0.021 A 
ATOM     93  Cl  UNL A   1      28.872  25.834  23.474  1.00  0.00    -0.084 Cl
ATOM     94  C   UNL A   1      27.891  29.675  23.045  1.00  0.00     0.002 A 
ENDBRANCH  78  88
ENDBRANCH  72  74
ENDBRANCH  71  72
ENDBRANCH  70  71
ENDBRANCH   1  70
TORSDOF 14
ENDMDL
MODEL 2
REMARK VINA RESULT:     -12.5      3.371      8.628
REMARK SMILES O=C(OCCOC(=O)[C@H]1C[C@](O)(c2ccccc2Cl)[C@@H](c2ccccc2Cl)O1)c1ccc(-c2c3nc(c(-c4c(F)c(F)c(F)c(F)c4F)c4ccc([nH]4)c(-c4c(F)c(F)c(F)c(F)c4F)c4nc(c(-c5c(F)c(F)c(F)c(F)c5F)c5ccc2[nH]5)C=C4)C=C3)cc1
REMARK SMILES IDX 4 1 3 2 2 3 1 4 29 5 30 6 91 7 31 8 90 9 32 10 33 11 34 12
REMARK SMILES IDX 84 13 35 14 89 15 83 16 85 17 36 18 88 19 82 20 81 21 37 23
REMARK SMILES IDX 69 24 49 25 68 26 50 27 53 28 67 29 86 30 51 31 52 32 66 34
REMARK SMILES IDX 87 35 54 36 38 37 39 38 47 39 40 40 41 41 45 42 48 43 42 44
REMARK SMILES IDX 43 45 46 46 44 47 70 48 71 49 79 50 72 51 73 52 77 53 80 54
REMARK SMILES IDX 74 55 75 56 78 57 76 58 55 59 56 60 64 61 57 62 58 63 62 64
REMARK SMILES IDX 65 65 59 66 60 67 63 68 61 69 5 70 6 71 7 72 8 73 9 74 10 75
REMARK SMILES IDX 28 76 11 77 20 78 13 79 14 80 18 81 15 82 17 83 19 84 16 85
REMARK SMILES IDX 12 86 21 88 22 89 26 90 23 91 25 92 27 93 24 94
REMARK H PARENT 85 22 53 33 12 87
REMARK Flexibility Score: inf
ROOT
ATOM      1  C   UNL A   1      36.154  22.657  25.453  1.00  0.00     0.275 C 
ENDROOT
BRANCH   1   2
ATOM      2  O   UNL A   1      37.348  23.429  25.365  1.00  0.00    -0.458 OA
BRANCH   2   3
ATOM      3  C   UNL A   1      38.490  23.250  26.064  1.00  0.00     0.338 C 
ATOM      4  O   UNL A   1      38.895  22.105  26.204  1.00  0.00    -0.246 OA
BRANCH   3   5
ATOM      5  C   UNL A   1      39.331  24.381  26.616  1.00  0.00     0.060 A 
ATOM      6  C   UNL A   1      40.354  25.128  26.006  1.00  0.00     0.016 A 
ATOM      7  C   UNL A   1      38.978  24.759  27.913  1.00  0.00     0.016 A 
ATOM      8  C   UNL A   1      40.883  26.317  26.592  1.00  0.00     0.010 A 
ATOM      9  C   UNL A   1      39.513  25.910  28.494  1.00  0.00     0.010 A 
ATOM     10  C   UNL A   1      40.407  26.773  27.817  1.00  0.00    -0.014 A 
BRANCH  10  11
ATOM     11  C   UNL A   1      40.739  28.078  28.509  1.00  0.00     0.031 A 
ATOM     12  C   UNL A   1      41.987  28.053  29.342  1.00  0.00     0.074 A 
ATOM     13  C   UNL A   1      39.921  29.160  28.631  1.00  0.00     0.049 A 
ATOM     14  N   UNL A   1      42.373  28.866  30.285  1.00  0.00    -0.248 NA
ATOM     15  C   UNL A   1      42.910  26.928  29.090  1.00  0.00     0.031 C 
ATOM     16  C   UNL A   1      38.748  29.475  27.824  1.00  0.00     0.029 A 
ATOM     17  N   UNL A   1      39.903  30.179  29.576  1.00  0.00    -0.354 N 
ATOM     18  C   UNL A   1      43.603  28.380  30.683  1.00  0.00     0.074 A 
ATOM     19  C   UNL A   1      43.787  27.090  30.062  1.00  0.00     0.031 C 
ATOM     20  C   UNL A   1      38.028  30.455  28.407  1.00  0.00     0.029 A 
ATOM     21  C   UNL A   1      38.731  30.927  29.587  1.00  0.00     0.049 A 
ATOM     22  H   UNL A   1      40.656  30.357  30.184  1.00  0.00     0.167 HD
ATOM     23  C   UNL A   1      44.567  29.016  31.381  1.00  0.00     0.037 A 
ATOM     24  C   UNL A   1      38.289  31.898  30.424  1.00  0.00     0.037 A 
ATOM     25  C   UNL A   1      44.403  30.312  31.962  1.00  0.00     0.049 A 
ATOM     26  C   UNL A   1      39.266  32.444  31.433  1.00  0.00     0.074 A 
ATOM     27  C   UNL A   1      45.344  31.102  32.591  1.00  0.00     0.029 A 
ATOM     28  N   UNL A   1      43.200  31.002  31.999  1.00  0.00    -0.354 N 
ATOM     29  N   UNL A   1      40.494  32.060  31.674  1.00  0.00    -0.248 NA
ATOM     30  C   UNL A   1      38.841  33.620  32.210  1.00  0.00     0.031 C 
ATOM     31  C   UNL A   1      44.693  32.244  33.070  1.00  0.00     0.029 A 
ATOM     32  C   UNL A   1      43.360  32.185  32.695  1.00  0.00     0.049 A 
ATOM     33  H   UNL A   1      42.358  30.695  31.590  1.00  0.00     0.167 HD
ATOM     34  C   UNL A   1      41.028  33.015  32.526  1.00  0.00     0.074 A 
ATOM     35  C   UNL A   1      39.969  33.956  32.821  1.00  0.00     0.031 C 
ATOM     36  C   UNL A   1      42.305  33.128  32.967  1.00  0.00     0.037 A 
BRANCH  23  37
ATOM     37  C   UNL A   1      45.885  28.316  31.454  1.00  0.00     0.064 A 
ATOM     38  C   UNL A   1      46.203  27.492  32.549  1.00  0.00     0.173 A 
ATOM     39  C   UNL A   1      46.867  28.540  30.485  1.00  0.00     0.173 A 
ATOM     40  F   UNL A   1      45.302  27.280  33.521  1.00  0.00    -0.203 F 
ATOM     41  C   UNL A   1      47.482  26.968  32.700  1.00  0.00     0.198 A 
ATOM     42  C   UNL A   1      48.135  27.983  30.621  1.00  0.00     0.198 A 
ATOM     43  F   UNL A   1      46.610  29.328  29.430  1.00  0.00    -0.203 F 
ATOM     44  F   UNL A   1      47.792  26.271  33.800  1.00  0.00    -0.200 F 
ATOM     45  C   UNL A   1      48.446  27.214  31.734  1.00  0.00     0.200 A 
ATOM     46  F   UNL A   1      49.069  28.219  29.691  1.00  0.00    -0.200 F 
ATOM     47  F   UNL A   1      49.684  26.728  31.889  1.00  0.00    -0.200 F 
ENDBRANCH  23  37
BRANCH  24  48
ATOM     48  C   UNL A   1      36.927  32.528  30.328  1.00  0.00     0.064 A 
ATOM     49  C   UNL A   1      36.612  33.481  29.350  1.00  0.00     0.173 A 
ATOM     50  C   UNL A   1      35.965  32.330  31.328  1.00  0.00     0.173 A 
ATOM     51  F   UNL A   1      37.526  33.811  28.427  1.00  0.00    -0.203 F 
ATOM     52  C   UNL A   1      35.398  34.183  29.374  1.00  0.00     0.198 A 
ATOM     53  C   UNL A   1      34.734  32.992  31.333  1.00  0.00     0.198 A 
ATOM     54  F   UNL A   1      36.268  31.578  32.385  1.00  0.00    -0.203 F 
ATOM     55  F   UNL A   1      35.170  35.152  28.477  1.00  0.00    -0.200 F 
ATOM     56  C   UNL A   1      34.453  33.927  30.355  1.00  0.00     0.200 A 
ATOM     57  F   UNL A   1      33.857  32.770  32.323  1.00  0.00    -0.200 F 
ATOM     58  F   UNL A   1      33.306  34.619  30.394  1.00  0.00    -0.200 F 
ENDBRANCH  24  48
BRANCH  36  59
ATOM     59  C   UNL A   1      42.665  34.354  33.744  1.00  0.00     0.064 A 
ATOM     60  C   UNL A   1      42.929  35.578  33.118  1.00  0.00     0.173 A 
ATOM     61  C   UNL A   1      42.656  34.314  35.148  1.00  0.00     0.173 A 
ATOM     62  F   UNL A   1      42.970  35.657  31.780  1.00  0.00    -0.203 F 
ATOM     63  C   UNL A   1      43.175  36.722  33.871  1.00  0.00     0.198 A 
ATOM     64  C   UNL A   1      42.870  35.466  35.896  1.00  0.00     0.198 A 
ATOM     65  F   UNL A   1      42.408  33.163  35.791  1.00  0.00    -0.203 F 
ATOM     66  F   UNL A   1      43.455  37.878  33.255  1.00  0.00    -0.200 F 
ATOM     67  C   UNL A   1      43.130  36.668  35.258  1.00  0.00     0.200 A 
ATOM     68  F   UNL A   1      42.807  35.414  37.233  1.00  0.00    -0.200 F 
ATOM     69  F   UNL A   1      43.339  37.778  35.979  1.00  0.00    -0.200 F 
ENDBRANCH  36  59
ENDBRANCH  10  11
ENDBRANCH   3   5
ENDBRANCH   2   3
ENDBRANCH   1   2
BRANCH   1  70
ATOM     70  C   UNL A   1      34.878  23.342  24.951  1.00  0.00     0.274 C 
BRANCH  70  71
ATOM     71  O   UNL A   1      35.001  24.747  24.633  1.00  0.00    -0.460 OA
BRANCH  71  72
ATOM     72  C   UNL A   1      33.925  25.506  25.000  1.00  0.00     0.335 C 
ATOM     73  O   UNL A   1      33.381  25.405  26.099  1.00  0.00    -0.249 OA
BRANCH  72  74
ATOM     74  C   UNL A   1      33.323  26.411  23.901  1.00  0.00     0.232 C 
ATOM     75  C   UNL A   1      31.823  26.496  23.720  1.00  0.00     0.087 C 
ATOM     76  O   UNL A   1      33.838  27.745  23.980  1.00  0.00    -0.355 OA
ATOM     77  C   UNL A   1      31.439  27.861  24.273  1.00  0.00     0.124 C 
ATOM     78  C   UNL A   1      32.798  28.661  24.386  1.00  0.00     0.187 C 
BRANCH  77  79
ATOM     79  C   UNL A   1      30.207  28.429  23.529  1.00  0.00     0.005 A 
ATOM     80  C   UNL A   1      30.300  29.727  22.975  1.00  0.00     0.008 A 
ATOM     81  C   UNL A   1      28.941  27.850  23.403  1.00  0.00     0.047 A 
ATOM     82  C   UNL A   1      29.326  30.337  22.178  1.00  0.00     0.001 A 
ATOM     83  C   UNL A   1      27.914  28.493  22.670  1.00  0.00     0.021 A 
ATOM     84  Cl  UNL A   1      28.496  26.377  24.177  1.00  0.00    -0.084 Cl
ATOM     85  C   UNL A   1      28.123  29.697  22.002  1.00  0.00     0.002 A 
ENDBRANCH  77  79
BRANCH  77  86
ATOM     86  O   UNL A   1      31.029  27.533  25.593  1.00  0.00    -0.382 OA
ATOM     87  H   UNL A   1      30.149  27.126  25.567  1.00  0.00     0.212 HD
ENDBRANCH  77  86
BRANCH  78  88
ATOM     88  C   UNL A   1      33.306  29.258  25.719  1.00  0.00     0.003 A 
ATOM     89  C   UNL A   1      34.471  28.768  26.346  1.00  0.00     0.008 A 
ATOM     90  C   UNL A   1      32.718  30.382  26.333  1.00  0.00     0.046 A 
ATOM     91  C   UNL A   1      35.020  29.325  27.507  1.00  0.00     0.000 A 
ATOM     92  C   UNL A   1      33.262  30.945  27.507  1.00  0.00     0.021 A 
ATOM     93  Cl  UNL A   1      31.291  31.143  25.717  1.00  0.00    -0.084 Cl
ATOM     94  C   UNL A   1      34.413  30.421  28.091  1.00  0.00     0.002 A 
ENDBRANCH  78  88
ENDBRANCH  72  74
ENDBRANCH  71  72
ENDBRANCH  70  71
ENDBRANCH   1  70
TORSDOF 14
ENDMDL
MODEL 3
REMARK VINA RESULT:     -12.5      5.492     10.880
REMARK SMILES O=C(OCCOC(=O)[C@H]1C[C@](O)(c2ccccc2Cl)[C@@H](c2ccccc2Cl)O1)c1ccc(-c2c3nc(c(-c4c(F)c(F)c(F)c(F)c4F)c4ccc([nH]4)c(-c4c(F)c(F)c(F)c(F)c4F)c4nc(c(-c5c(F)c(F)c(F)c(F)c5F)c5ccc2[nH]5)C=C4)C=C3)cc1
REMARK SMILES IDX 4 1 3 2 2 3 1 4 29 5 30 6 91 7 31 8 90 9 32 10 33 11 34 12
REMARK SMILES IDX 84 13 35 14 89 15 83 16 85 17 36 18 88 19 82 20 81 21 37 23
REMARK SMILES IDX 69 24 49 25 68 26 50 27 53 28 67 29 86 30 51 31 52 32 66 34
REMARK SMILES IDX 87 35 54 36 38 37 39 38 47 39 40 40 41 41 45 42 48 43 42 44
REMARK SMILES IDX 43 45 46 46 44 47 70 48 71 49 79 50 72 51 73 52 77 53 80 54
REMARK SMILES IDX 74 55 75 56 78 57 76 58 55 59 56 60 64 61 57 62 58 63 62 64
REMARK SMILES IDX 65 65 59 66 60 67 63 68 61 69 5 70 6 71 7 72 8 73 9 74 10 75
REMARK SMILES IDX 28 76 11 77 20 78 13 79 14 80 18 81 15 82 17 83 19 84 16 85
REMARK SMILES IDX 12 86 21 88 22 89 26 90 23 91 25 92 27 93 24 94
REMARK H PARENT 85 22 53 33 12 87
REMARK Flexibility Score: inf
ROOT
ATOM      1  C   UNL A   1      39.684  19.605  26.114  1.00  0.00     0.275 C 
ENDROOT
BRANCH   1   2
ATOM      2  O   UNL A   1      40.879  18.942  25.715  1.00  0.00    -0.458 OA
BRANCH   2   3
ATOM      3  C   UNL A   1      42.130  19.168  26.173  1.00  0.00     0.338 C 
ATOM      4  O   UNL A   1      42.760  18.212  26.600  1.00  0.00    -0.246 OA
BRANCH   3   5
ATOM      5  C   UNL A   1      42.819  20.516  26.119  1.00  0.00     0.060 A 
ATOM      6  C   UNL A   1      43.539  21.122  25.074  1.00  0.00     0.016 A 
ATOM      7  C   UNL A   1      42.653  21.275  27.278  1.00  0.00     0.016 A 
ATOM      8  C   UNL A   1      43.923  22.496  25.111  1.00  0.00     0.010 A 
ATOM      9  C   UNL A   1      43.050  22.613  27.321  1.00  0.00     0.010 A 
ATOM     10  C   UNL A   1      43.609  23.289  26.210  1.00  0.00    -0.014 A 
BRANCH  10  11
ATOM     11  C   UNL A   1      43.802  24.783  26.355  1.00  0.00     0.031 A 
ATOM     12  C   UNL A   1      45.230  25.229  26.473  1.00  0.00     0.074 A 
ATOM     13  C   UNL A   1      42.830  25.702  26.615  1.00  0.00     0.049 A 
ATOM     14  N   UNL A   1      45.715  26.356  26.915  1.00  0.00    -0.248 NA
ATOM     15  C   UNL A   1      46.250  24.243  26.064  1.00  0.00     0.031 C 
ATOM     16  C   UNL A   1      41.394  25.547  26.420  1.00  0.00     0.029 A 
ATOM     17  N   UNL A   1      42.907  26.958  27.205  1.00  0.00    -0.354 N 
ATOM     18  C   UNL A   1      47.083  26.226  26.772  1.00  0.00     0.074 A 
ATOM     19  C   UNL A   1      47.361  24.850  26.436  1.00  0.00     0.031 C 
ATOM     20  C   UNL A   1      40.726  26.538  27.046  1.00  0.00     0.029 A 
ATOM     21  C   UNL A   1      41.682  27.474  27.612  1.00  0.00     0.049 A 
ATOM     22  H   UNL A   1      43.757  27.441  27.325  1.00  0.00     0.167 HD
ATOM     23  C   UNL A   1      48.018  27.199  26.766  1.00  0.00     0.037 A 
ATOM     24  C   UNL A   1      41.362  28.583  28.323  1.00  0.00     0.037 A 
ATOM     25  C   UNL A   1      47.738  28.571  27.057  1.00  0.00     0.049 A 
ATOM     26  C   UNL A   1      42.463  29.575  28.597  1.00  0.00     0.074 A 
ATOM     27  C   UNL A   1      48.580  29.661  26.970  1.00  0.00     0.029 A 
ATOM     28  N   UNL A   1      46.513  29.036  27.513  1.00  0.00    -0.354 N 
ATOM     29  N   UNL A   1      43.735  29.489  28.299  1.00  0.00    -0.248 NA
ATOM     30  C   UNL A   1      42.074  30.858  29.205  1.00  0.00     0.031 C 
ATOM     31  C   UNL A   1      47.884  30.779  27.441  1.00  0.00     0.029 A 
ATOM     32  C   UNL A   1      46.594  30.392  27.771  1.00  0.00     0.049 A 
ATOM     33  H   UNL A   1      45.707  28.484  27.635  1.00  0.00     0.167 HD
ATOM     34  C   UNL A   1      44.269  30.742  28.561  1.00  0.00     0.074 A 
ATOM     35  C   UNL A   1      43.202  31.549  29.113  1.00  0.00     0.031 C 
ATOM     36  C   UNL A   1      45.521  31.193  28.301  1.00  0.00     0.037 A 
BRANCH  23  37
ATOM     37  C   UNL A   1      49.390  26.778  26.351  1.00  0.00     0.064 A 
ATOM     38  C   UNL A   1      50.344  26.387  27.308  1.00  0.00     0.173 A 
ATOM     39  C   UNL A   1      49.786  26.855  25.013  1.00  0.00     0.173 A 
ATOM     40  F   UNL A   1      50.016  26.334  28.609  1.00  0.00    -0.203 F 
ATOM     41  C   UNL A   1      51.663  26.149  26.944  1.00  0.00     0.198 A 
ATOM     42  C   UNL A   1      51.100  26.580  24.648  1.00  0.00     0.198 A 
ATOM     43  F   UNL A   1      48.912  27.236  24.070  1.00  0.00    -0.203 F 
ATOM     44  F   UNL A   1      52.577  25.876  27.885  1.00  0.00    -0.200 F 
ATOM     45  C   UNL A   1      52.040  26.244  25.613  1.00  0.00     0.200 A 
ATOM     46  F   UNL A   1      51.468  26.674  23.363  1.00  0.00    -0.200 F 
ATOM     47  F   UNL A   1      53.316  26.037  25.264  1.00  0.00    -0.200 F 
ENDBRANCH  23  37
BRANCH  24  48
ATOM     48  C   UNL A   1      39.963  28.924  28.755  1.00  0.00     0.064 A 
ATOM     49  C   UNL A   1      39.468  28.586  30.022  1.00  0.00     0.173 A 
ATOM     50  C   UNL A   1      39.026  29.431  27.843  1.00  0.00     0.173 A 
ATOM     51  F   UNL A   1      40.274  27.988  30.910  1.00  0.00    -0.203 F 
ATOM     52  C   UNL A   1      38.116  28.757  30.351  1.00  0.00     0.198 A 
ATOM     53  C   UNL A   1      37.687  29.648  28.178  1.00  0.00     0.198 A 
ATOM     54  F   UNL A   1      39.382  29.605  26.571  1.00  0.00    -0.203 F 
ATOM     55  F   UNL A   1      37.661  28.335  31.539  1.00  0.00    -0.200 F 
ATOM     56  C   UNL A   1      37.229  29.303  29.436  1.00  0.00     0.200 A 
ATOM     57  F   UNL A   1      36.834  30.126  27.261  1.00  0.00    -0.200 F 
ATOM     58  F   UNL A   1      35.931  29.439  29.742  1.00  0.00    -0.200 F 
ENDBRANCH  24  48
BRANCH  36  59
ATOM     59  C   UNL A   1      45.796  32.646  28.524  1.00  0.00     0.064 A 
ATOM     60  C   UNL A   1      46.368  33.118  29.711  1.00  0.00     0.173 A 
ATOM     61  C   UNL A   1      45.560  33.564  27.489  1.00  0.00     0.173 A 
ATOM     62  F   UNL A   1      46.589  32.280  30.735  1.00  0.00    -0.203 F 
ATOM     63  C   UNL A   1      46.693  34.464  29.855  1.00  0.00     0.198 A 
ATOM     64  C   UNL A   1      45.917  34.901  27.624  1.00  0.00     0.198 A 
ATOM     65  F   UNL A   1      45.012  33.156  26.333  1.00  0.00    -0.203 F 
ATOM     66  F   UNL A   1      47.214  34.903  31.009  1.00  0.00    -0.200 F 
ATOM     67  C   UNL A   1      46.482  35.350  28.808  1.00  0.00     0.200 A 
ATOM     68  F   UNL A   1      45.728  35.749  26.605  1.00  0.00    -0.200 F 
ATOM     69  F   UNL A   1      46.824  36.639  28.939  1.00  0.00    -0.200 F 
ENDBRANCH  36  59
ENDBRANCH  10  11
ENDBRANCH   3   5
ENDBRANCH   2   3
ENDBRANCH   1   2
BRANCH   1  70
ATOM     70  C   UNL A   1      39.592  21.091  25.749  1.00  0.00     0.274 C 
BRANCH  70  71
ATOM     71  O   UNL A   1      38.420  21.787  26.233  1.00  0.00    -0.460 OA
BRANCH  71  72
ATOM     72  C   UNL A   1      37.410  21.896  25.319  1.00  0.00     0.335 C 
ATOM     73  O   UNL A   1      37.408  21.287  24.250  1.00  0.00    -0.249 OA
BRANCH  72  74
ATOM     74  C   UNL A   1      36.319  22.947  25.630  1.00  0.00     0.232 C 
ATOM     75  C   UNL A   1      36.021  24.051  24.641  1.00  0.00     0.087 C 
ATOM     76  O   UNL A   1      35.081  22.327  25.993  1.00  0.00    -0.355 OA
ATOM     77  C   UNL A   1      34.685  23.669  24.019  1.00  0.00     0.124 C 
ATOM     78  C   UNL A   1      34.087  22.558  24.972  1.00  0.00     0.187 C 
BRANCH  77  79
ATOM     79  C   UNL A   1      33.884  24.930  23.616  1.00  0.00     0.005 A 
ATOM     80  C   UNL A   1      33.677  25.179  22.239  1.00  0.00     0.008 A 
ATOM     81  C   UNL A   1      33.396  25.937  24.453  1.00  0.00     0.047 A 
ATOM     82  C   UNL A   1      32.882  26.203  21.714  1.00  0.00     0.001 A 
ATOM     83  C   UNL A   1      32.660  27.028  23.930  1.00  0.00     0.021 A 
ATOM     84  Cl  UNL A   1      33.707  25.990  26.147  1.00  0.00    -0.084 Cl
ATOM     85  C   UNL A   1      32.344  27.128  22.577  1.00  0.00     0.002 A 
ENDBRANCH  77  79
BRANCH  77  86
ATOM     86  O   UNL A   1      35.098  23.023  22.822  1.00  0.00    -0.382 OA
ATOM     87  H   UNL A   1      35.742  23.581  22.359  1.00  0.00     0.212 HD
ENDBRANCH  77  86
BRANCH  78  88
ATOM     88  C   UNL A   1      33.709  21.145  24.471  1.00  0.00     0.003 A 
ATOM     89  C   UNL A   1      34.346  19.992  24.978  1.00  0.00     0.008 A 
ATOM     90  C   UNL A   1      32.649  20.903  23.574  1.00  0.00     0.046 A 
ATOM     91  C   UNL A   1      33.986  18.687  24.622  1.00  0.00     0.000 A 
ATOM     92  C   UNL A   1      32.285  19.591  23.205  1.00  0.00     0.021 A 
ATOM     93  Cl  UNL A   1      31.732  22.178  22.848  1.00  0.00    -0.084 Cl
ATOM     94  C   UNL A   1      32.948  18.484  23.730  1.00  0.00     0.002 A 
ENDBRANCH  78  88
ENDBRANCH  72  74
ENDBRANCH  71  72
ENDBRANCH  70  71
ENDBRANCH   1  70
TORSDOF 14
ENDMDL
