MODEL 1
REMARK VINA RESULT:     -11.2      0.000      0.000
REMARK SMILES C[NH2+][C@]1(C(=O)OCCOC(=O)c2ccc(-c3c4nc(c(-c5c(F)c(F)c(F)c(F)c5F)c5ccc([nH]5)c(-c5c(F)c(F)c(F)c(F)c5F)c5nc(c(-c6c(F)c(F)c(F)c(F)c6F)c6ccc3[nH]6)C=C5)C=C4)cc2)CCC[C@@H](Sc2nncs2)C1
REMARK SMILES IDX 7 1 6 2 4 3 5 4 3 5 75 6 85 7 76 8 78 9 77 10 2 11 1 12
REMARK SMILES IDX 79 15 80 16 81 17 84 18 82 19 83 20 8 21 9 22 10 23 11 24
REMARK SMILES IDX 12 25 13 26 74 27 14 28 73 29 15 30 16 31 17 32 67 33 18 34
REMARK SMILES IDX 72 35 66 36 68 37 19 38 71 39 65 40 64 41 20 43 52 44 32 45
REMARK SMILES IDX 51 46 33 47 36 48 50 49 69 50 34 51 35 52 49 54 70 55 37 56
REMARK SMILES IDX 21 57 22 58 30 59 23 60 24 61 28 62 31 63 25 64 26 65 29 66
REMARK SMILES IDX 27 67 53 68 54 69 62 70 55 71 56 72 60 73 63 74 57 75 58 76
REMARK SMILES IDX 61 77 59 78 38 79 39 80 47 81 40 82 41 83 45 84 48 85 42 86
REMARK SMILES IDX 43 87 46 88 44 89
REMARK H PARENT 2 13 2 14 68 42 36 53
REMARK Flexibility Score: inf
ROOT
ATOM      1  C   UNL A   1      31.738  28.553  27.214  1.00  0.00     0.274 C 
ENDROOT
BRANCH   1   2
ATOM      2  O   UNL A   1      32.421  27.446  26.592  1.00  0.00    -0.457 OA
BRANCH   2   3
ATOM      3  C   UNL A   1      31.693  26.312  26.377  1.00  0.00     0.368 C 
ATOM      4  O   UNL A   1      30.580  26.119  26.856  1.00  0.00    -0.245 OA
BRANCH   3   5
ATOM      5  C   UNL A   1      32.468  25.264  25.502  1.00  0.00     0.195 C 
ATOM      6  C   UNL A   1      33.866  25.806  25.083  1.00  0.00     0.081 C 
ATOM      7  C   UNL A   1      32.669  24.017  26.392  1.00  0.00     0.096 C 
ATOM      8  C   UNL A   1      34.774  24.751  24.444  1.00  0.00     0.008 C 
ATOM      9  C   UNL A   1      33.554  22.954  25.734  1.00  0.00     0.061 C 
ATOM     10  C   UNL A   1      34.922  23.520  25.339  1.00  0.00     0.015 C 
BRANCH   5  11
ATOM     11  N   UNL A   1      31.709  25.002  24.241  1.00  0.00    -0.335 N 
ATOM     12  C   UNL A   1      31.426  26.158  23.400  1.00  0.00     0.331 C 
ATOM     13  H   UNL A   1      32.250  24.340  23.685  1.00  0.00     0.347 HD
ATOM     14  H   UNL A   1      30.797  24.657  24.542  1.00  0.00     0.347 HD
ENDBRANCH   5  11
BRANCH   9  15
ATOM     15  S   UNL A   1      33.698  21.422  26.724  1.00  0.00    -0.090 SA
BRANCH  15  16
ATOM     16  C   UNL A   1      33.127  20.190  25.628  1.00  0.00     0.174 A 
ATOM     17  N   UNL A   1      32.526  19.095  26.040  1.00  0.00    -0.132 NA
ATOM     18  S   UNL A   1      33.267  20.316  23.924  1.00  0.00    -0.094 S 
ATOM     19  N   UNL A   1      32.175  18.263  24.996  1.00  0.00    -0.146 NA
ATOM     20  C   UNL A   1      32.499  18.786  23.833  1.00  0.00     0.203 A 
ENDBRANCH  15  16
ENDBRANCH   9  15
ENDBRANCH   3   5
ENDBRANCH   2   3
ENDBRANCH   1   2
BRANCH   1  21
ATOM     21  C   UNL A   1      31.805  29.783  26.315  1.00  0.00     0.275 C 
BRANCH  21  22
ATOM     22  O   UNL A   1      33.170  30.226  26.237  1.00  0.00    -0.458 OA
BRANCH  22  23
ATOM     23  C   UNL A   1      33.511  31.258  27.041  1.00  0.00     0.338 C 
ATOM     24  O   UNL A   1      32.889  32.283  27.251  1.00  0.00    -0.246 OA
BRANCH  23  25
ATOM     25  C   UNL A   1      34.803  30.950  27.671  1.00  0.00     0.060 A 
ATOM     26  C   UNL A   1      35.096  29.631  28.009  1.00  0.00     0.016 A 
ATOM     27  C   UNL A   1      35.682  31.975  28.012  1.00  0.00     0.016 A 
ATOM     28  C   UNL A   1      36.242  29.330  28.738  1.00  0.00     0.010 A 
ATOM     29  C   UNL A   1      36.869  31.665  28.684  1.00  0.00     0.010 A 
ATOM     30  C   UNL A   1      37.146  30.342  29.079  1.00  0.00    -0.014 A 
BRANCH  30  31
ATOM     31  C   UNL A   1      38.340  30.029  29.907  1.00  0.00     0.031 A 
ATOM     32  C   UNL A   1      39.427  29.158  29.344  1.00  0.00     0.074 A 
ATOM     33  C   UNL A   1      38.472  30.547  31.143  1.00  0.00     0.049 A 
ATOM     34  N   UNL A   1      40.460  28.625  29.948  1.00  0.00    -0.248 NA
ATOM     35  C   UNL A   1      39.337  28.839  27.911  1.00  0.00     0.031 C 
ATOM     36  C   UNL A   1      37.529  31.462  31.784  1.00  0.00     0.029 A 
ATOM     37  N   UNL A   1      39.464  30.379  32.079  1.00  0.00    -0.354 N 
ATOM     38  C   UNL A   1      41.109  27.866  28.984  1.00  0.00     0.074 A 
ATOM     39  C   UNL A   1      40.361  28.010  27.753  1.00  0.00     0.031 C 
ATOM     40  C   UNL A   1      37.998  31.796  32.997  1.00  0.00     0.029 A 
ATOM     41  C   UNL A   1      39.235  31.062  33.248  1.00  0.00     0.049 A 
ATOM     42  H   UNL A   1      40.261  29.822  31.927  1.00  0.00     0.167 HD
ATOM     43  C   UNL A   1      42.225  27.111  29.118  1.00  0.00     0.037 A 
ATOM     44  C   UNL A   1      39.923  31.066  34.405  1.00  0.00     0.037 A 
ATOM     45  C   UNL A   1      42.996  27.008  30.328  1.00  0.00     0.049 A 
ATOM     46  C   UNL A   1      41.146  30.202  34.538  1.00  0.00     0.074 A 
ATOM     47  C   UNL A   1      44.136  26.260  30.567  1.00  0.00     0.029 A 
ATOM     48  N   UNL A   1      42.715  27.695  31.500  1.00  0.00    -0.354 N 
ATOM     49  N   UNL A   1      41.707  29.421  33.648  1.00  0.00    -0.248 NA
ATOM     50  C   UNL A   1      41.818  30.202  35.845  1.00  0.00     0.031 C 
ATOM     51  C   UNL A   1      44.533  26.478  31.893  1.00  0.00     0.029 A 
ATOM     52  C   UNL A   1      43.658  27.386  32.467  1.00  0.00     0.049 A 
ATOM     53  H   UNL A   1      41.958  28.311  31.626  1.00  0.00     0.167 HD
ATOM     54  C   UNL A   1      42.795  28.838  34.283  1.00  0.00     0.074 A 
ATOM     55  C   UNL A   1      42.831  29.375  35.628  1.00  0.00     0.031 C 
ATOM     56  C   UNL A   1      43.677  27.931  33.799  1.00  0.00     0.037 A 
BRANCH  43  57
ATOM     57  C   UNL A   1      42.657  26.304  27.932  1.00  0.00     0.064 A 
ATOM     58  C   UNL A   1      42.166  25.013  27.696  1.00  0.00     0.173 A 
ATOM     59  C   UNL A   1      43.562  26.847  27.004  1.00  0.00     0.173 A 
ATOM     60  F   UNL A   1      41.315  24.446  28.562  1.00  0.00    -0.203 F 
ATOM     61  C   UNL A   1      42.580  24.284  26.584  1.00  0.00     0.198 A 
ATOM     62  C   UNL A   1      43.956  26.124  25.882  1.00  0.00     0.198 A 
ATOM     63  F   UNL A   1      44.058  28.079  27.186  1.00  0.00    -0.203 F 
ATOM     64  F   UNL A   1      42.129  23.036  26.396  1.00  0.00    -0.200 F 
ATOM     65  C   UNL A   1      43.469  24.842  25.676  1.00  0.00     0.200 A 
ATOM     66  F   UNL A   1      44.808  26.666  25.002  1.00  0.00    -0.200 F 
ATOM     67  F   UNL A   1      43.864  24.139  24.604  1.00  0.00    -0.200 F 
ENDBRANCH  43  57
BRANCH  44  68
ATOM     68  C   UNL A   1      39.444  31.888  35.546  1.00  0.00     0.064 A 
ATOM     69  C   UNL A   1      39.898  33.201  35.729  1.00  0.00     0.173 A 
ATOM     70  C   UNL A   1      38.520  31.381  36.470  1.00  0.00     0.173 A 
ATOM     71  F   UNL A   1      40.805  33.719  34.887  1.00  0.00    -0.203 F 
ATOM     72  C   UNL A   1      39.450  33.973  36.799  1.00  0.00     0.198 A 
ATOM     73  C   UNL A   1      38.051  32.162  37.523  1.00  0.00     0.198 A 
ATOM     74  F   UNL A   1      38.060  30.127  36.340  1.00  0.00    -0.203 F 
ATOM     75  F   UNL A   1      39.927  35.213  36.973  1.00  0.00    -0.200 F 
ATOM     76  C   UNL A   1      38.521  33.456  37.690  1.00  0.00     0.200 A 
ATOM     77  F   UNL A   1      37.147  31.661  38.376  1.00  0.00    -0.200 F 
ATOM     78  F   UNL A   1      38.083  34.203  38.713  1.00  0.00    -0.200 F 
ENDBRANCH  44  68
BRANCH  56  79
ATOM     79  C   UNL A   1      44.761  27.473  34.725  1.00  0.00     0.064 A 
ATOM     80  C   UNL A   1      45.973  28.169  34.827  1.00  0.00     0.173 A 
ATOM     81  C   UNL A   1      44.572  26.348  35.542  1.00  0.00     0.173 A 
ATOM     82  F   UNL A   1      46.204  29.240  34.053  1.00  0.00    -0.203 F 
ATOM     83  C   UNL A   1      46.967  27.745  35.705  1.00  0.00     0.198 A 
ATOM     84  C   UNL A   1      45.560  25.940  36.432  1.00  0.00     0.198 A 
ATOM     85  F   UNL A   1      43.427  25.653  35.481  1.00  0.00    -0.203 F 
ATOM     86  F   UNL A   1      48.133  28.404  35.763  1.00  0.00    -0.200 F 
ATOM     87  C   UNL A   1      46.758  26.635  36.509  1.00  0.00     0.200 A 
ATOM     88  F   UNL A   1      45.355  24.872  37.215  1.00  0.00    -0.200 F 
ATOM     89  F   UNL A   1      47.715  26.230  37.356  1.00  0.00    -0.200 F 
ENDBRANCH  56  79
ENDBRANCH  30  31
ENDBRANCH  23  25
ENDBRANCH  22  23
ENDBRANCH  21  22
ENDBRANCH   1  21
TORSDOF 14
ENDMDL
MODEL 2
REMARK VINA RESULT:     -11.2      4.688      9.830
REMARK SMILES C[NH2+][C@]1(C(=O)OCCOC(=O)c2ccc(-c3c4nc(c(-c5c(F)c(F)c(F)c(F)c5F)c5ccc([nH]5)c(-c5c(F)c(F)c(F)c(F)c5F)c5nc(c(-c6c(F)c(F)c(F)c(F)c6F)c6ccc3[nH]6)C=C5)C=C4)cc2)CCC[C@@H](Sc2nncs2)C1
REMARK SMILES IDX 7 1 6 2 4 3 5 4 3 5 75 6 85 7 76 8 78 9 77 10 2 11 1 12
REMARK SMILES IDX 79 15 80 16 81 17 84 18 82 19 83 20 8 21 9 22 10 23 11 24
REMARK SMILES IDX 12 25 13 26 74 27 14 28 73 29 15 30 16 31 17 32 67 33 18 34
REMARK SMILES IDX 72 35 66 36 68 37 19 38 71 39 65 40 64 41 20 43 52 44 32 45
REMARK SMILES IDX 51 46 33 47 36 48 50 49 69 50 34 51 35 52 49 54 70 55 37 56
REMARK SMILES IDX 21 57 22 58 30 59 23 60 24 61 28 62 31 63 25 64 26 65 29 66
REMARK SMILES IDX 27 67 53 68 54 69 62 70 55 71 56 72 60 73 63 74 57 75 58 76
REMARK SMILES IDX 61 77 59 78 38 79 39 80 47 81 40 82 41 83 45 84 48 85 42 86
REMARK SMILES IDX 43 87 46 88 44 89
REMARK H PARENT 2 13 2 14 68 42 36 53
REMARK Flexibility Score: inf
ROOT
ATOM      1  C   UNL A   1      34.876  21.533  24.615  1.00  0.00     0.274 C 
ENDROOT
BRANCH   1   2
ATOM      2  O   UNL A   1      35.138  22.885  24.186  1.00  0.00    -0.457 OA
BRANCH   2   3
ATOM      3  C   UNL A   1      34.186  23.485  23.416  1.00  0.00     0.368 C 
ATOM      4  O   UNL A   1      33.974  23.189  22.244  1.00  0.00    -0.245 OA
BRANCH   3   5
ATOM      5  C   UNL A   1      33.439  24.635  24.182  1.00  0.00     0.195 C 
ATOM      6  C   UNL A   1      34.213  25.050  25.467  1.00  0.00     0.081 C 
ATOM      7  C   UNL A   1      33.397  25.843  23.219  1.00  0.00     0.096 C 
ATOM      8  C   UNL A   1      33.681  26.325  26.126  1.00  0.00     0.008 C 
ATOM      9  C   UNL A   1      32.837  27.107  23.878  1.00  0.00     0.061 C 
ATOM     10  C   UNL A   1      33.624  27.489  25.136  1.00  0.00     0.015 C 
BRANCH   5  11
ATOM     11  N   UNL A   1      32.093  24.155  24.621  1.00  0.00    -0.335 N 
ATOM     12  C   UNL A   1      32.043  23.426  25.882  1.00  0.00     0.331 C 
ATOM     13  H   UNL A   1      31.487  24.970  24.711  1.00  0.00     0.347 HD
ATOM     14  H   UNL A   1      31.800  23.484  23.911  1.00  0.00     0.347 HD
ENDBRANCH   5  11
BRANCH   9  15
ATOM     15  S   UNL A   1      32.666  28.511  22.716  1.00  0.00    -0.090 SA
BRANCH  15  16
ATOM     16  C   UNL A   1      30.938  28.724  22.608  1.00  0.00     0.174 A 
ATOM     17  N   UNL A   1      30.379  29.607  21.809  1.00  0.00    -0.132 NA
ATOM     18  S   UNL A   1      29.821  27.782  23.505  1.00  0.00    -0.094 S 
ATOM     19  N   UNL A   1      29.002  29.604  21.903  1.00  0.00    -0.146 NA
ATOM     20  C   UNL A   1      28.579  28.691  22.750  1.00  0.00     0.203 A 
ENDBRANCH  15  16
ENDBRANCH   9  15
ENDBRANCH   3   5
ENDBRANCH   2   3
ENDBRANCH   1   2
BRANCH   1  21
ATOM     21  C   UNL A   1      36.175  20.855  25.036  1.00  0.00     0.275 C 
BRANCH  21  22
ATOM     22  O   UNL A   1      36.982  21.804  25.753  1.00  0.00    -0.458 OA
BRANCH  22  23
ATOM     23  C   UNL A   1      38.297  21.511  25.861  1.00  0.00     0.338 C 
ATOM     24  O   UNL A   1      38.863  20.477  25.555  1.00  0.00    -0.246 OA
BRANCH  23  25
ATOM     25  C   UNL A   1      38.991  22.681  26.418  1.00  0.00     0.060 A 
ATOM     26  C   UNL A   1      38.507  23.956  26.133  1.00  0.00     0.016 A 
ATOM     27  C   UNL A   1      40.169  22.521  27.143  1.00  0.00     0.016 A 
ATOM     28  C   UNL A   1      39.225  25.083  26.521  1.00  0.00     0.010 A 
ATOM     29  C   UNL A   1      40.855  23.654  27.594  1.00  0.00     0.010 A 
ATOM     30  C   UNL A   1      40.404  24.946  27.262  1.00  0.00    -0.014 A 
BRANCH  30  31
ATOM     31  C   UNL A   1      41.200  26.146  27.626  1.00  0.00     0.031 A 
ATOM     32  C   UNL A   1      40.582  27.218  28.479  1.00  0.00     0.074 A 
ATOM     33  C   UNL A   1      42.481  26.267  27.228  1.00  0.00     0.049 A 
ATOM     34  N   UNL A   1      41.033  28.412  28.768  1.00  0.00    -0.248 NA
ATOM     35  C   UNL A   1      39.278  26.905  29.083  1.00  0.00     0.031 C 
ATOM     36  C   UNL A   1      43.227  25.273  26.458  1.00  0.00     0.029 A 
ATOM     37  N   UNL A   1      43.386  27.282  27.426  1.00  0.00    -0.354 N 
ATOM     38  C   UNL A   1      40.047  29.012  29.539  1.00  0.00     0.074 A 
ATOM     39  C   UNL A   1      38.975  28.050  29.681  1.00  0.00     0.031 C 
ATOM     40  C   UNL A   1      44.481  25.713  26.270  1.00  0.00     0.029 A 
ATOM     41  C   UNL A   1      44.606  27.051  26.841  1.00  0.00     0.049 A 
ATOM     42  H   UNL A   1      43.178  28.098  27.937  1.00  0.00     0.167 HD
ATOM     43  C   UNL A   1      40.036  30.255  30.074  1.00  0.00     0.037 A 
ATOM     44  C   UNL A   1      45.690  27.843  26.743  1.00  0.00     0.037 A 
ATOM     45  C   UNL A   1      41.122  31.193  29.975  1.00  0.00     0.049 A 
ATOM     46  C   UNL A   1      45.646  29.229  27.324  1.00  0.00     0.074 A 
ATOM     47  C   UNL A   1      41.202  32.482  30.473  1.00  0.00     0.029 A 
ATOM     48  N   UNL A   1      42.333  30.930  29.350  1.00  0.00    -0.354 N 
ATOM     49  N   UNL A   1      44.678  29.819  27.980  1.00  0.00    -0.248 NA
ATOM     50  C   UNL A   1      46.838  30.067  27.130  1.00  0.00     0.031 C 
ATOM     51  C   UNL A   1      42.454  33.007  30.130  1.00  0.00     0.029 A 
ATOM     52  C   UNL A   1      43.164  32.033  29.447  1.00  0.00     0.049 A 
ATOM     53  H   UNL A   1      42.565  30.084  28.903  1.00  0.00     0.167 HD
ATOM     54  C   UNL A   1      45.139  31.093  28.278  1.00  0.00     0.074 A 
ATOM     55  C   UNL A   1      46.487  31.183  27.753  1.00  0.00     0.031 C 
ATOM     56  C   UNL A   1      44.501  32.102  28.918  1.00  0.00     0.037 A 
BRANCH  43  57
ATOM     57  C   UNL A   1      38.789  30.689  30.784  1.00  0.00     0.064 A 
ATOM     58  C   UNL A   1      38.674  30.632  32.180  1.00  0.00     0.173 A 
ATOM     59  C   UNL A   1      37.701  31.190  30.051  1.00  0.00     0.173 A 
ATOM     60  F   UNL A   1      39.679  30.145  32.920  1.00  0.00    -0.203 F 
ATOM     61  C   UNL A   1      37.506  31.045  32.816  1.00  0.00     0.198 A 
ATOM     62  C   UNL A   1      36.544  31.622  30.693  1.00  0.00     0.198 A 
ATOM     63  F   UNL A   1      37.764  31.265  28.713  1.00  0.00    -0.203 F 
ATOM     64  F   UNL A   1      37.401  30.947  34.149  1.00  0.00    -0.200 F 
ATOM     65  C   UNL A   1      36.445  31.544  32.073  1.00  0.00     0.200 A 
ATOM     66  F   UNL A   1      35.524  32.111  29.975  1.00  0.00    -0.200 F 
ATOM     67  F   UNL A   1      35.323  31.943  32.690  1.00  0.00    -0.200 F 
ENDBRANCH  43  57
BRANCH  44  68
ATOM     68  C   UNL A   1      46.898  27.356  26.027  1.00  0.00     0.064 A 
ATOM     69  C   UNL A   1      47.913  26.673  26.709  1.00  0.00     0.173 A 
ATOM     70  C   UNL A   1      47.056  27.557  24.649  1.00  0.00     0.173 A 
ATOM     71  F   UNL A   1      47.819  26.483  28.034  1.00  0.00    -0.203 F 
ATOM     72  C   UNL A   1      49.046  26.216  26.039  1.00  0.00     0.198 A 
ATOM     73  C   UNL A   1      48.176  27.076  23.975  1.00  0.00     0.198 A 
ATOM     74  F   UNL A   1      46.113  28.211  23.953  1.00  0.00    -0.203 F 
ATOM     75  F   UNL A   1      50.020  25.597  26.720  1.00  0.00    -0.200 F 
ATOM     76  C   UNL A   1      49.173  26.410  24.672  1.00  0.00     0.200 A 
ATOM     77  F   UNL A   1      48.289  27.259  22.652  1.00  0.00    -0.200 F 
ATOM     78  F   UNL A   1      50.258  25.962  24.027  1.00  0.00    -0.200 F 
ENDBRANCH  44  68
BRANCH  56  79
ATOM     79  C   UNL A   1      45.257  33.383  29.096  1.00  0.00     0.064 A 
ATOM     80  C   UNL A   1      46.082  33.593  30.209  1.00  0.00     0.173 A 
ATOM     81  C   UNL A   1      45.181  34.395  28.128  1.00  0.00     0.173 A 
ATOM     82  F   UNL A   1      46.173  32.658  31.168  1.00  0.00    -0.203 F 
ATOM     83  C   UNL A   1      46.795  34.779  30.355  1.00  0.00     0.198 A 
ATOM     84  C   UNL A   1      45.911  35.572  28.268  1.00  0.00     0.198 A 
ATOM     85  F   UNL A   1      44.406  34.238  27.044  1.00  0.00    -0.203 F 
ATOM     86  F   UNL A   1      47.552  34.975  31.444  1.00  0.00    -0.200 F 
ATOM     87  C   UNL A   1      46.712  35.765  29.383  1.00  0.00     0.200 A 
ATOM     88  F   UNL A   1      45.836  36.521  27.325  1.00  0.00    -0.200 F 
ATOM     89  F   UNL A   1      47.401  36.907  29.525  1.00  0.00    -0.200 F 
ENDBRANCH  56  79
ENDBRANCH  30  31
ENDBRANCH  23  25
ENDBRANCH  22  23
ENDBRANCH  21  22
ENDBRANCH   1  21
TORSDOF 14
ENDMDL
MODEL 3
REMARK VINA RESULT:     -11.1      0.878      1.907
REMARK SMILES C[NH2+][C@]1(C(=O)OCCOC(=O)c2ccc(-c3c4nc(c(-c5c(F)c(F)c(F)c(F)c5F)c5ccc([nH]5)c(-c5c(F)c(F)c(F)c(F)c5F)c5nc(c(-c6c(F)c(F)c(F)c(F)c6F)c6ccc3[nH]6)C=C5)C=C4)cc2)CCC[C@@H](Sc2nncs2)C1
REMARK SMILES IDX 7 1 6 2 4 3 5 4 3 5 75 6 85 7 76 8 78 9 77 10 2 11 1 12
REMARK SMILES IDX 79 15 80 16 81 17 84 18 82 19 83 20 8 21 9 22 10 23 11 24
REMARK SMILES IDX 12 25 13 26 74 27 14 28 73 29 15 30 16 31 17 32 67 33 18 34
REMARK SMILES IDX 72 35 66 36 68 37 19 38 71 39 65 40 64 41 20 43 52 44 32 45
REMARK SMILES IDX 51 46 33 47 36 48 50 49 69 50 34 51 35 52 49 54 70 55 37 56
REMARK SMILES IDX 21 57 22 58 30 59 23 60 24 61 28 62 31 63 25 64 26 65 29 66
REMARK SMILES IDX 27 67 53 68 54 69 62 70 55 71 56 72 60 73 63 74 57 75 58 76
REMARK SMILES IDX 61 77 59 78 38 79 39 80 47 81 40 82 41 83 45 84 48 85 42 86
REMARK SMILES IDX 43 87 46 88 44 89
REMARK H PARENT 2 13 2 14 68 42 36 53
REMARK Flexibility Score: inf
ROOT
ATOM      1  C   UNL A   1      31.231  29.682  24.658  1.00  0.00     0.274 C 
ENDROOT
BRANCH   1   2
ATOM      2  O   UNL A   1      31.925  28.652  23.926  1.00  0.00    -0.457 OA
BRANCH   2   3
ATOM      3  C   UNL A   1      31.322  27.431  23.853  1.00  0.00     0.368 C 
ATOM      4  O   UNL A   1      30.117  27.278  23.677  1.00  0.00    -0.245 OA
BRANCH   3   5
ATOM      5  C   UNL A   1      32.334  26.252  24.080  1.00  0.00     0.195 C 
ATOM      6  C   UNL A   1      33.484  26.677  25.040  1.00  0.00     0.081 C 
ATOM      7  C   UNL A   1      31.532  25.112  24.746  1.00  0.00     0.096 C 
ATOM      8  C   UNL A   1      34.365  25.513  25.504  1.00  0.00     0.008 C 
ATOM      9  C   UNL A   1      32.416  23.940  25.182  1.00  0.00     0.061 C 
ATOM     10  C   UNL A   1      33.534  24.392  26.128  1.00  0.00     0.015 C 
BRANCH   5  11
ATOM     11  N   UNL A   1      32.969  25.876  22.781  1.00  0.00    -0.335 N 
ATOM     12  C   UNL A   1      32.082  25.775  21.628  1.00  0.00     0.331 C 
ATOM     13  H   UNL A   1      33.676  26.579  22.566  1.00  0.00     0.347 HD
ATOM     14  H   UNL A   1      33.336  24.935  22.921  1.00  0.00     0.347 HD
ENDBRANCH   5  11
BRANCH   9  15
ATOM     15  S   UNL A   1      31.464  22.531  25.859  1.00  0.00    -0.090 SA
BRANCH  15  16
ATOM     16  C   UNL A   1      31.918  21.210  24.813  1.00  0.00     0.174 A 
ATOM     17  N   UNL A   1      32.061  19.977  25.246  1.00  0.00    -0.132 NA
ATOM     18  S   UNL A   1      32.184  21.399  23.130  1.00  0.00    -0.094 S 
ATOM     19  N   UNL A   1      32.436  19.107  24.242  1.00  0.00    -0.146 NA
ATOM     20  C   UNL A   1      32.529  19.721  23.083  1.00  0.00     0.203 A 
ENDBRANCH  15  16
ENDBRANCH   9  15
ENDBRANCH   3   5
ENDBRANCH   2   3
ENDBRANCH   1   2
BRANCH   1  21
ATOM     21  C   UNL A   1      31.750  29.748  26.091  1.00  0.00     0.275 C 
BRANCH  21  22
ATOM     22  O   UNL A   1      33.090  30.266  26.074  1.00  0.00    -0.458 OA
BRANCH  22  23
ATOM     23  C   UNL A   1      33.364  31.245  26.965  1.00  0.00     0.338 C 
ATOM     24  O   UNL A   1      32.682  32.211  27.252  1.00  0.00    -0.246 OA
BRANCH  23  25
ATOM     25  C   UNL A   1      34.667  30.960  27.584  1.00  0.00     0.060 A 
ATOM     26  C   UNL A   1      34.957  29.658  27.986  1.00  0.00     0.016 A 
ATOM     27  C   UNL A   1      35.561  31.994  27.851  1.00  0.00     0.016 A 
ATOM     28  C   UNL A   1      36.117  29.387  28.706  1.00  0.00     0.010 A 
ATOM     29  C   UNL A   1      36.760  31.710  28.514  1.00  0.00     0.010 A 
ATOM     30  C   UNL A   1      37.035  30.408  28.972  1.00  0.00    -0.014 A 
BRANCH  30  31
ATOM     31  C   UNL A   1      38.244  30.130  29.791  1.00  0.00     0.031 A 
ATOM     32  C   UNL A   1      39.347  29.283  29.223  1.00  0.00     0.074 A 
ATOM     33  C   UNL A   1      38.375  30.658  31.023  1.00  0.00     0.049 A 
ATOM     34  N   UNL A   1      40.398  28.779  29.820  1.00  0.00    -0.248 NA
ATOM     35  C   UNL A   1      39.252  28.952  27.793  1.00  0.00     0.031 C 
ATOM     36  C   UNL A   1      37.416  31.553  31.668  1.00  0.00     0.029 A 
ATOM     37  N   UNL A   1      39.379  30.521  31.951  1.00  0.00    -0.354 N 
ATOM     38  C   UNL A   1      41.057  28.030  28.855  1.00  0.00     0.074 A 
ATOM     39  C   UNL A   1      40.294  28.149  27.630  1.00  0.00     0.031 C 
ATOM     40  C   UNL A   1      37.887  31.906  32.874  1.00  0.00     0.029 A 
ATOM     41  C   UNL A   1      39.144  31.204  33.118  1.00  0.00     0.049 A 
ATOM     42  H   UNL A   1      40.188  29.983  31.794  1.00  0.00     0.167 HD
ATOM     43  C   UNL A   1      42.193  27.304  28.982  1.00  0.00     0.037 A 
ATOM     44  C   UNL A   1      39.843  31.232  34.268  1.00  0.00     0.037 A 
ATOM     45  C   UNL A   1      42.977  27.227  30.185  1.00  0.00     0.049 A 
ATOM     46  C   UNL A   1      41.088  30.399  34.394  1.00  0.00     0.074 A 
ATOM     47  C   UNL A   1      44.138  26.509  30.418  1.00  0.00     0.029 A 
ATOM     48  N   UNL A   1      42.690  27.914  31.356  1.00  0.00    -0.354 N 
ATOM     49  N   UNL A   1      41.660  29.628  33.503  1.00  0.00    -0.248 NA
ATOM     50  C   UNL A   1      41.772  30.424  35.695  1.00  0.00     0.031 C 
ATOM     51  C   UNL A   1      44.541  26.744  31.738  1.00  0.00     0.029 A 
ATOM     52  C   UNL A   1      43.649  27.634  32.315  1.00  0.00     0.049 A 
ATOM     53  H   UNL A   1      41.919  28.511  31.485  1.00  0.00     0.167 HD
ATOM     54  C   UNL A   1      42.767  29.075  34.131  1.00  0.00     0.074 A 
ATOM     55  C   UNL A   1      42.803  29.621  35.473  1.00  0.00     0.031 C 
ATOM     56  C   UNL A   1      43.667  28.187  33.644  1.00  0.00     0.037 A 
BRANCH  43  57
ATOM     57  C   UNL A   1      42.633  26.501  27.796  1.00  0.00     0.064 A 
ATOM     58  C   UNL A   1      42.141  25.211  27.551  1.00  0.00     0.173 A 
ATOM     59  C   UNL A   1      43.547  27.045  26.880  1.00  0.00     0.173 A 
ATOM     60  F   UNL A   1      41.281  24.644  28.407  1.00  0.00    -0.203 F 
ATOM     61  C   UNL A   1      42.564  24.486  26.439  1.00  0.00     0.198 A 
ATOM     62  C   UNL A   1      43.950  26.326  25.758  1.00  0.00     0.198 A 
ATOM     63  F   UNL A   1      44.045  28.275  27.071  1.00  0.00    -0.203 F 
ATOM     64  F   UNL A   1      42.111  23.240  26.242  1.00  0.00    -0.200 F 
ATOM     65  C   UNL A   1      43.462  25.046  25.542  1.00  0.00     0.200 A 
ATOM     66  F   UNL A   1      44.812  26.870  24.888  1.00  0.00    -0.200 F 
ATOM     67  F   UNL A   1      43.864  24.346  24.471  1.00  0.00    -0.200 F 
ENDBRANCH  43  57
BRANCH  44  68
ATOM     68  C   UNL A   1      39.355  32.049  35.409  1.00  0.00     0.064 A 
ATOM     69  C   UNL A   1      38.495  31.504  36.370  1.00  0.00     0.173 A 
ATOM     70  C   UNL A   1      39.744  33.388  35.563  1.00  0.00     0.173 A 
ATOM     71  F   UNL A   1      38.072  30.236  36.248  1.00  0.00    -0.203 F 
ATOM     72  C   UNL A   1      38.036  32.269  37.441  1.00  0.00     0.198 A 
ATOM     73  C   UNL A   1      39.307  34.145  36.647  1.00  0.00     0.198 A 
ATOM     74  F   UNL A   1      40.561  33.957  34.664  1.00  0.00    -0.203 F 
ATOM     75  F   UNL A   1      37.186  31.735  38.328  1.00  0.00    -0.200 F 
ATOM     76  C   UNL A   1      38.449  33.586  37.583  1.00  0.00     0.200 A 
ATOM     77  F   UNL A   1      39.716  35.413  36.784  1.00  0.00    -0.200 F 
ATOM     78  F   UNL A   1      38.015  34.318  38.618  1.00  0.00    -0.200 F 
ENDBRANCH  44  68
BRANCH  56  79
ATOM     79  C   UNL A   1      44.771  27.762  34.562  1.00  0.00     0.064 A 
ATOM     80  C   UNL A   1      44.645  26.628  35.376  1.00  0.00     0.173 A 
ATOM     81  C   UNL A   1      45.978  28.475  34.603  1.00  0.00     0.173 A 
ATOM     82  F   UNL A   1      43.502  25.924  35.382  1.00  0.00    -0.203 F 
ATOM     83  C   UNL A   1      45.685  26.230  36.212  1.00  0.00     0.198 A 
ATOM     84  C   UNL A   1      47.022  28.063  35.426  1.00  0.00     0.198 A 
ATOM     85  F   UNL A   1      46.145  29.565  33.840  1.00  0.00    -0.203 F 
ATOM     86  F   UNL A   1      45.531  25.163  37.009  1.00  0.00    -0.200 F 
ATOM     87  C   UNL A   1      46.873  26.945  36.233  1.00  0.00     0.200 A 
ATOM     88  F   UNL A   1      48.173  28.750  35.441  1.00  0.00    -0.200 F 
ATOM     89  F   UNL A   1      47.874  26.560  37.037  1.00  0.00    -0.200 F 
ENDBRANCH  56  79
ENDBRANCH  30  31
ENDBRANCH  23  25
ENDBRANCH  22  23
ENDBRANCH  21  22
ENDBRANCH   1  21
TORSDOF 14
ENDMDL
