MODEL 1
REMARK VINA RESULT:     -12.2      0.000      0.000
REMARK SMILES C[NH2+][C@@H](C)c1ccc(SCc2ccc(C(=O)OCCOC(=O)c3ccc(-c4c5nc(c(-c6c(F)c(F)c(F)c(F)c6F)c6ccc([nH]6)c(-c6c(F)c(F)c(F)c(F)c6F)c6nc(c(-c7c(F)c(F)c(F)c(F)c7F)c7ccc4[nH]7)C=C6)C=C5)cc3)cc2)cc1
REMARK SMILES IDX 17 1 15 2 16 3 14 4 11 5 12 6 87 7 13 8 86 9 10 10 9 11 8 12
REMARK SMILES IDX 5 13 6 14 89 15 7 16 88 17 3 18 4 19 2 20 1 21 18 24 19 25
REMARK SMILES IDX 20 26 21 27 22 28 23 29 24 30 85 31 25 32 84 33 26 34 27 35
REMARK SMILES IDX 28 36 78 37 29 38 83 39 77 40 79 41 30 42 82 43 76 44 75 45
REMARK SMILES IDX 31 47 63 48 43 49 62 50 44 51 47 52 61 53 80 54 45 55 46 56
REMARK SMILES IDX 60 58 81 59 48 60 32 61 33 62 41 63 34 64 35 65 39 66 42 67
REMARK SMILES IDX 36 68 37 69 40 70 38 71 64 72 65 73 73 74 66 75 67 76 71 77
REMARK SMILES IDX 74 78 68 79 69 80 72 81 70 82 49 83 50 84 58 85 51 86 52 87
REMARK SMILES IDX 56 88 59 89 53 90 54 91 57 92 55 93
REMARK H PARENT 2 22 2 23 79 46 47 57
REMARK Flexibility Score: inf
ROOT
ATOM      1  O   UNL A   1      33.501  30.680  26.514  1.00  0.00    -0.458 OA
ENDROOT
BRANCH   1   2
ATOM      2  C   UNL A   1      33.951  29.576  27.160  1.00  0.00     0.338 C 
ATOM      3  O   UNL A   1      34.806  29.535  28.032  1.00  0.00    -0.246 OA
BRANCH   2   4
ATOM      4  C   UNL A   1      33.175  28.384  26.748  1.00  0.00     0.060 A 
ATOM      5  C   UNL A   1      31.783  26.072  25.923  1.00  0.00    -0.038 A 
ATOM      6  C   UNL A   1      33.106  26.302  25.511  1.00  0.00     0.005 A 
ATOM      7  C   UNL A   1      31.159  27.047  26.719  1.00  0.00     0.005 A 
ATOM      8  C   UNL A   1      33.786  27.455  25.900  1.00  0.00     0.016 A 
ATOM      9  C   UNL A   1      31.855  28.182  27.153  1.00  0.00     0.016 A 
BRANCH   5  10
ATOM     10  C   UNL A   1      31.116  24.806  25.426  1.00  0.00     0.110 C 
BRANCH  10  11
ATOM     11  S   UNL A   1      30.593  24.714  23.690  1.00  0.00    -0.121 SA
BRANCH  11  12
ATOM     12  C   UNL A   1      29.923  26.335  23.348  1.00  0.00     0.008 A 
ATOM     13  C   UNL A   1      29.073  28.971  22.737  1.00  0.00     0.009 A 
ATOM     14  C   UNL A   1      30.351  28.527  22.375  1.00  0.00     0.011 A 
ATOM     15  C   UNL A   1      28.235  28.077  23.424  1.00  0.00     0.011 A 
ATOM     16  C   UNL A   1      30.764  27.224  22.668  1.00  0.00     0.015 A 
ATOM     17  C   UNL A   1      28.648  26.771  23.714  1.00  0.00     0.015 A 
BRANCH  13  18
ATOM     18  C   UNL A   1      28.583  30.388  22.454  1.00  0.00     0.210 C 
ATOM     19  C   UNL A   1      27.642  30.923  23.544  1.00  0.00     0.081 C 
BRANCH  18  20
ATOM     20  N   UNL A   1      27.982  30.421  21.115  1.00  0.00    -0.343 N 
ATOM     21  C   UNL A   1      27.920  31.752  20.534  1.00  0.00     0.331 C 
ATOM     22  H   UNL A   1      28.535  29.826  20.499  1.00  0.00     0.346 HD
ATOM     23  H   UNL A   1      27.020  30.094  21.213  1.00  0.00     0.346 HD
ENDBRANCH  18  20
ENDBRANCH  13  18
ENDBRANCH  11  12
ENDBRANCH  10  11
ENDBRANCH   5  10
ENDBRANCH   2   4
ENDBRANCH   1   2
BRANCH   1  24
ATOM     24  C   UNL A   1      32.656  31.556  27.289  1.00  0.00     0.275 C 
BRANCH  24  25
ATOM     25  C   UNL A   1      33.451  32.759  27.800  1.00  0.00     0.275 C 
BRANCH  25  26
ATOM     26  O   UNL A   1      32.585  33.904  27.868  1.00  0.00    -0.458 OA
BRANCH  26  27
ATOM     27  C   UNL A   1      32.987  34.899  28.692  1.00  0.00     0.338 C 
ATOM     28  O   UNL A   1      32.479  35.999  28.819  1.00  0.00    -0.246 OA
BRANCH  27  29
ATOM     29  C   UNL A   1      34.185  34.464  29.443  1.00  0.00     0.060 A 
ATOM     30  C   UNL A   1      35.462  34.628  28.906  1.00  0.00     0.016 A 
ATOM     31  C   UNL A   1      34.029  33.811  30.666  1.00  0.00     0.016 A 
ATOM     32  C   UNL A   1      36.576  34.087  29.548  1.00  0.00     0.010 A 
ATOM     33  C   UNL A   1      35.156  33.340  31.351  1.00  0.00     0.010 A 
ATOM     34  C   UNL A   1      36.441  33.440  30.785  1.00  0.00    -0.014 A 
BRANCH  34  35
ATOM     35  C   UNL A   1      37.616  32.815  31.460  1.00  0.00     0.031 A 
ATOM     36  C   UNL A   1      38.372  31.703  30.778  1.00  0.00     0.074 A 
ATOM     37  C   UNL A   1      38.025  33.232  32.676  1.00  0.00     0.049 A 
ATOM     38  N   UNL A   1      39.281  30.894  31.264  1.00  0.00    -0.248 NA
ATOM     39  C   UNL A   1      38.051  31.460  29.364  1.00  0.00     0.031 C 
ATOM     40  C   UNL A   1      37.429  34.322  33.446  1.00  0.00     0.029 A 
ATOM     41  N   UNL A   1      39.050  32.783  33.476  1.00  0.00    -0.354 N 
ATOM     42  C   UNL A   1      39.582  30.004  30.241  1.00  0.00     0.074 A 
ATOM     43  C   UNL A   1      38.769  30.378  29.102  1.00  0.00     0.031 C 
ATOM     44  C   UNL A   1      38.123  34.489  34.583  1.00  0.00     0.029 A 
ATOM     45  C   UNL A   1      39.158  33.463  34.664  1.00  0.00     0.049 A 
ATOM     46  H   UNL A   1      39.649  32.045  33.220  1.00  0.00     0.167 HD
ATOM     47  C   UNL A   1      40.453  28.967  30.251  1.00  0.00     0.037 A 
ATOM     48  C   UNL A   1      39.971  33.263  35.720  1.00  0.00     0.037 A 
ATOM     49  C   UNL A   1      41.320  28.638  31.352  1.00  0.00     0.049 A 
ATOM     50  C   UNL A   1      40.937  32.111  35.707  1.00  0.00     0.074 A 
ATOM     51  C   UNL A   1      42.251  27.616  31.445  1.00  0.00     0.029 A 
ATOM     52  N   UNL A   1      41.382  29.344  32.543  1.00  0.00    -0.354 N 
ATOM     53  N   UNL A   1      41.156  31.227  34.765  1.00  0.00    -0.248 NA
ATOM     54  C   UNL A   1      41.749  31.913  36.917  1.00  0.00     0.031 C 
ATOM     55  C   UNL A   1      42.862  27.692  32.701  1.00  0.00     0.029 A 
ATOM     56  C   UNL A   1      42.334  28.779  33.377  1.00  0.00     0.049 A 
ATOM     57  H   UNL A   1      40.833  30.131  32.764  1.00  0.00     0.167 HD
ATOM     58  C   UNL A   1      42.125  30.369  35.266  1.00  0.00     0.074 A 
ATOM     59  C   UNL A   1      42.473  30.853  36.586  1.00  0.00     0.031 C 
ATOM     60  C   UNL A   1      42.668  29.271  34.689  1.00  0.00     0.037 A 
BRANCH  47  61
ATOM     61  C   UNL A   1      40.492  28.082  29.040  1.00  0.00     0.064 A 
ATOM     62  C   UNL A   1      39.696  26.934  28.933  1.00  0.00     0.173 A 
ATOM     63  C   UNL A   1      41.317  28.414  27.955  1.00  0.00     0.173 A 
ATOM     64  F   UNL A   1      38.903  26.566  29.951  1.00  0.00    -0.203 F 
ATOM     65  C   UNL A   1      39.738  26.138  27.790  1.00  0.00     0.198 A 
ATOM     66  C   UNL A   1      41.340  27.632  26.804  1.00  0.00     0.198 A 
ATOM     67  F   UNL A   1      42.095  29.507  28.006  1.00  0.00    -0.203 F 
ATOM     68  F   UNL A   1      38.998  25.024  27.723  1.00  0.00    -0.200 F 
ATOM     69  C   UNL A   1      40.554  26.492  26.725  1.00  0.00     0.200 A 
ATOM     70  F   UNL A   1      42.120  27.980  25.772  1.00  0.00    -0.200 F 
ATOM     71  F   UNL A   1      40.588  25.728  25.624  1.00  0.00    -0.200 F 
ENDBRANCH  47  61
BRANCH  48  72
ATOM     72  C   UNL A   1      39.881  34.161  36.900  1.00  0.00     0.064 A 
ATOM     73  C   UNL A   1      40.632  35.342  36.963  1.00  0.00     0.173 A 
ATOM     74  C   UNL A   1      39.036  33.864  37.979  1.00  0.00     0.173 A 
ATOM     75  F   UNL A   1      41.476  35.653  35.968  1.00  0.00    -0.203 F 
ATOM     76  C   UNL A   1      40.542  36.193  38.063  1.00  0.00     0.198 A 
ATOM     77  C   UNL A   1      38.928  34.728  39.066  1.00  0.00     0.198 A 
ATOM     78  F   UNL A   1      38.302  32.742  37.968  1.00  0.00    -0.203 F 
ATOM     79  F   UNL A   1      41.296  37.300  38.114  1.00  0.00    -0.200 F 
ATOM     80  C   UNL A   1      39.684  35.890  39.109  1.00  0.00     0.200 A 
ATOM     81  F   UNL A   1      38.089  34.437  40.070  1.00  0.00    -0.200 F 
ATOM     82  F   UNL A   1      39.590  36.714  40.161  1.00  0.00    -0.200 F 
ENDBRANCH  48  72
BRANCH  60  83
ATOM     83  C   UNL A   1      43.702  28.525  35.475  1.00  0.00     0.064 A 
ATOM     84  C   UNL A   1      43.340  27.545  36.409  1.00  0.00     0.173 A 
ATOM     85  C   UNL A   1      45.068  28.772  35.272  1.00  0.00     0.173 A 
ATOM     86  F   UNL A   1      42.045  27.286  36.648  1.00  0.00    -0.203 F 
ATOM     87  C   UNL A   1      44.309  26.850  37.127  1.00  0.00     0.198 A 
ATOM     88  C   UNL A   1      46.034  28.061  35.977  1.00  0.00     0.198 A 
ATOM     89  F   UNL A   1      45.463  29.699  34.386  1.00  0.00    -0.203 F 
ATOM     90  F   UNL A   1      43.941  25.942  38.041  1.00  0.00    -0.200 F 
ATOM     91  C   UNL A   1      45.654  27.105  36.907  1.00  0.00     0.200 A 
ATOM     92  F   UNL A   1      47.334  28.303  35.760  1.00  0.00    -0.200 F 
ATOM     93  F   UNL A   1      46.586  26.434  37.598  1.00  0.00    -0.200 F 
ENDBRANCH  60  83
ENDBRANCH  34  35
ENDBRANCH  27  29
ENDBRANCH  26  27
ENDBRANCH  25  26
ENDBRANCH  24  25
ENDBRANCH   1  24
TORSDOF 16
ENDMDL
MODEL 2
REMARK VINA RESULT:     -12.1      7.339     11.685
REMARK SMILES C[NH2+][C@@H](C)c1ccc(SCc2ccc(C(=O)OCCOC(=O)c3ccc(-c4c5nc(c(-c6c(F)c(F)c(F)c(F)c6F)c6ccc([nH]6)c(-c6c(F)c(F)c(F)c(F)c6F)c6nc(c(-c7c(F)c(F)c(F)c(F)c7F)c7ccc4[nH]7)C=C6)C=C5)cc3)cc2)cc1
REMARK SMILES IDX 17 1 15 2 16 3 14 4 11 5 12 6 87 7 13 8 86 9 10 10 9 11 8 12
REMARK SMILES IDX 5 13 6 14 89 15 7 16 88 17 3 18 4 19 2 20 1 21 18 24 19 25
REMARK SMILES IDX 20 26 21 27 22 28 23 29 24 30 85 31 25 32 84 33 26 34 27 35
REMARK SMILES IDX 28 36 78 37 29 38 83 39 77 40 79 41 30 42 82 43 76 44 75 45
REMARK SMILES IDX 31 47 63 48 43 49 62 50 44 51 47 52 61 53 80 54 45 55 46 56
REMARK SMILES IDX 60 58 81 59 48 60 32 61 33 62 41 63 34 64 35 65 39 66 42 67
REMARK SMILES IDX 36 68 37 69 40 70 38 71 64 72 65 73 73 74 66 75 67 76 71 77
REMARK SMILES IDX 74 78 68 79 69 80 72 81 70 82 49 83 50 84 58 85 51 86 52 87
REMARK SMILES IDX 56 88 59 89 53 90 54 91 57 92 55 93
REMARK H PARENT 2 22 2 23 79 46 47 57
REMARK Flexibility Score: inf
ROOT
ATOM      1  O   UNL A   1      41.824  20.200  25.725  1.00  0.00    -0.458 OA
ENDROOT
BRANCH   1   2
ATOM      2  C   UNL A   1      41.669  21.153  26.678  1.00  0.00     0.338 C 
ATOM      3  O   UNL A   1      42.491  21.493  27.514  1.00  0.00    -0.246 OA
BRANCH   2   4
ATOM      4  C   UNL A   1      40.370  21.842  26.511  1.00  0.00     0.060 A 
ATOM      5  C   UNL A   1      37.854  23.069  26.153  1.00  0.00    -0.038 A 
ATOM      6  C   UNL A   1      38.131  21.814  25.586  1.00  0.00     0.005 A 
ATOM      7  C   UNL A   1      38.879  23.715  26.864  1.00  0.00     0.005 A 
ATOM      8  C   UNL A   1      39.381  21.219  25.745  1.00  0.00     0.016 A 
ATOM      9  C   UNL A   1      40.119  23.097  27.068  1.00  0.00     0.016 A 
BRANCH   5  10
ATOM     10  C   UNL A   1      36.478  23.651  25.903  1.00  0.00     0.110 C 
BRANCH  10  11
ATOM     11  S   UNL A   1      35.749  23.498  24.246  1.00  0.00    -0.121 SA
BRANCH  11  12
ATOM     12  C   UNL A   1      34.831  21.967  24.311  1.00  0.00     0.008 A 
ATOM     13  C   UNL A   1      33.189  19.654  24.341  1.00  0.00     0.009 A 
ATOM     14  C   UNL A   1      32.731  20.853  23.779  1.00  0.00     0.011 A 
ATOM     15  C   UNL A   1      34.477  19.639  24.900  1.00  0.00     0.011 A 
ATOM     16  C   UNL A   1      33.547  21.989  23.757  1.00  0.00     0.015 A 
ATOM     17  C   UNL A   1      35.295  20.776  24.874  1.00  0.00     0.015 A 
BRANCH  13  18
ATOM     18  C   UNL A   1      32.332  18.394  24.404  1.00  0.00     0.210 C 
ATOM     19  C   UNL A   1      32.617  17.539  25.648  1.00  0.00     0.081 C 
BRANCH  18  20
ATOM     20  N   UNL A   1      32.494  17.649  23.149  1.00  0.00    -0.343 N 
ATOM     21  C   UNL A   1      33.748  16.918  23.061  1.00  0.00     0.331 C 
ATOM     22  H   UNL A   1      31.727  16.983  23.068  1.00  0.00     0.346 HD
ATOM     23  H   UNL A   1      32.496  18.336  22.394  1.00  0.00     0.346 HD
ENDBRANCH  18  20
ENDBRANCH  13  18
ENDBRANCH  11  12
ENDBRANCH  10  11
ENDBRANCH   5  10
ENDBRANCH   2   4
ENDBRANCH   1   2
BRANCH   1  24
ATOM     24  C   UNL A   1      42.155  18.881  26.210  1.00  0.00     0.275 C 
BRANCH  24  25
ATOM     25  C   UNL A   1      43.557  18.475  25.754  1.00  0.00     0.275 C 
BRANCH  25  26
ATOM     26  O   UNL A   1      43.743  18.871  24.386  1.00  0.00    -0.458 OA
BRANCH  26  27
ATOM     27  C   UNL A   1      44.926  19.462  24.098  1.00  0.00     0.338 C 
ATOM     28  O   UNL A   1      45.878  18.962  23.525  1.00  0.00    -0.246 OA
BRANCH  27  29
ATOM     29  C   UNL A   1      44.918  20.853  24.603  1.00  0.00     0.060 A 
ATOM     30  C   UNL A   1      44.307  21.872  23.873  1.00  0.00     0.016 A 
ATOM     31  C   UNL A   1      45.598  21.160  25.781  1.00  0.00     0.016 A 
ATOM     32  C   UNL A   1      44.427  23.203  24.277  1.00  0.00     0.010 A 
ATOM     33  C   UNL A   1      45.648  22.485  26.230  1.00  0.00     0.010 A 
ATOM     34  C   UNL A   1      45.094  23.529  25.466  1.00  0.00    -0.014 A 
BRANCH  34  35
ATOM     35  C   UNL A   1      45.271  24.951  25.886  1.00  0.00     0.031 A 
ATOM     36  C   UNL A   1      46.600  25.633  25.687  1.00  0.00     0.074 A 
ATOM     37  C   UNL A   1      44.256  25.646  26.438  1.00  0.00     0.049 A 
ATOM     38  N   UNL A   1      47.026  26.780  26.158  1.00  0.00    -0.248 NA
ATOM     39  C   UNL A   1      47.587  24.925  24.859  1.00  0.00     0.031 C 
ATOM     40  C   UNL A   1      42.900  25.144  26.656  1.00  0.00     0.029 A 
ATOM     41  N   UNL A   1      44.211  26.936  26.913  1.00  0.00    -0.354 N 
ATOM     42  C   UNL A   1      48.348  26.890  25.747  1.00  0.00     0.074 A 
ATOM     43  C   UNL A   1      48.653  25.703  24.978  1.00  0.00     0.031 C 
ATOM     44  C   UNL A   1      42.146  26.124  27.179  1.00  0.00     0.029 A 
ATOM     45  C   UNL A   1      42.984  27.297  27.412  1.00  0.00     0.049 A 
ATOM     46  H   UNL A   1      44.985  27.544  26.895  1.00  0.00     0.167 HD
ATOM     47  C   UNL A   1      49.229  27.889  25.993  1.00  0.00     0.037 A 
ATOM     48  C   UNL A   1      42.582  28.427  28.026  1.00  0.00     0.037 A 
ATOM     49  C   UNL A   1      48.910  29.108  26.690  1.00  0.00     0.049 A 
ATOM     50  C   UNL A   1      43.574  29.527  28.281  1.00  0.00     0.074 A 
ATOM     51  C   UNL A   1      49.734  30.186  26.969  1.00  0.00     0.029 A 
ATOM     52  N   UNL A   1      47.658  29.422  27.194  1.00  0.00    -0.354 N 
ATOM     53  N   UNL A   1      44.843  29.587  27.958  1.00  0.00    -0.248 NA
ATOM     54  C   UNL A   1      43.084  30.706  29.011  1.00  0.00     0.031 C 
ATOM     55  C   UNL A   1      48.984  31.144  27.660  1.00  0.00     0.029 A 
ATOM     56  C   UNL A   1      47.687  30.675  27.784  1.00  0.00     0.049 A 
ATOM     57  H   UNL A   1      46.865  28.841  27.141  1.00  0.00     0.167 HD
ATOM     58  C   UNL A   1      45.303  30.802  28.446  1.00  0.00     0.074 A 
ATOM     59  C   UNL A   1      44.171  31.463  29.062  1.00  0.00     0.031 C 
ATOM     60  C   UNL A   1      46.554  31.319  28.397  1.00  0.00     0.037 A 
BRANCH  47  61
ATOM     61  C   UNL A   1      50.644  27.696  25.532  1.00  0.00     0.064 A 
ATOM     62  C   UNL A   1      51.039  27.966  24.215  1.00  0.00     0.173 A 
ATOM     63  C   UNL A   1      51.624  27.268  26.440  1.00  0.00     0.173 A 
ATOM     64  F   UNL A   1      50.134  28.363  23.307  1.00  0.00    -0.203 F 
ATOM     65  C   UNL A   1      52.363  27.795  23.817  1.00  0.00     0.198 A 
ATOM     66  C   UNL A   1      52.951  27.122  26.046  1.00  0.00     0.198 A 
ATOM     67  F   UNL A   1      51.297  27.002  27.713  1.00  0.00    -0.203 F 
ATOM     68  F   UNL A   1      52.713  28.022  22.544  1.00  0.00    -0.200 F 
ATOM     69  C   UNL A   1      53.318  27.380  24.734  1.00  0.00     0.200 A 
ATOM     70  F   UNL A   1      53.875  26.731  26.935  1.00  0.00    -0.200 F 
ATOM     71  F   UNL A   1      54.593  27.223  24.350  1.00  0.00    -0.200 F 
ENDBRANCH  47  61
BRANCH  48  72
ATOM     72  C   UNL A   1      41.173  28.561  28.475  1.00  0.00     0.064 A 
ATOM     73  C   UNL A   1      40.183  29.034  27.603  1.00  0.00     0.173 A 
ATOM     74  C   UNL A   1      40.785  28.208  29.775  1.00  0.00     0.173 A 
ATOM     75  F   UNL A   1      40.511  29.412  26.359  1.00  0.00    -0.203 F 
ATOM     76  C   UNL A   1      38.857  29.151  28.017  1.00  0.00     0.198 A 
ATOM     77  C   UNL A   1      39.455  28.300  30.180  1.00  0.00     0.198 A 
ATOM     78  F   UNL A   1      41.697  27.755  30.648  1.00  0.00    -0.203 F 
ATOM     79  F   UNL A   1      37.935  29.638  27.175  1.00  0.00    -0.200 F 
ATOM     80  C   UNL A   1      38.493  28.776  29.301  1.00  0.00     0.200 A 
ATOM     81  F   UNL A   1      39.106  27.926  31.418  1.00  0.00    -0.200 F 
ATOM     82  F   UNL A   1      37.217  28.878  29.695  1.00  0.00    -0.200 F 
ENDBRANCH  48  72
BRANCH  60  83
ATOM     83  C   UNL A   1      46.762  32.666  29.017  1.00  0.00     0.064 A 
ATOM     84  C   UNL A   1      47.091  32.801  30.373  1.00  0.00     0.173 A 
ATOM     85  C   UNL A   1      46.661  33.831  28.243  1.00  0.00     0.173 A 
ATOM     86  F   UNL A   1      47.183  31.715  31.156  1.00  0.00    -0.203 F 
ATOM     87  C   UNL A   1      47.294  34.057  30.937  1.00  0.00     0.198 A 
ATOM     88  C   UNL A   1      46.885  35.084  28.806  1.00  0.00     0.198 A 
ATOM     89  F   UNL A   1      46.352  33.752  26.940  1.00  0.00    -0.203 F 
ATOM     90  F   UNL A   1      47.572  34.166  32.243  1.00  0.00    -0.200 F 
ATOM     91  C   UNL A   1      47.195  35.196  30.153  1.00  0.00     0.200 A 
ATOM     92  F   UNL A   1      46.794  36.185  28.046  1.00  0.00    -0.200 F 
ATOM     93  F   UNL A   1      47.391  36.405  30.698  1.00  0.00    -0.200 F 
ENDBRANCH  60  83
ENDBRANCH  34  35
ENDBRANCH  27  29
ENDBRANCH  26  27
ENDBRANCH  25  26
ENDBRANCH  24  25
ENDBRANCH   1  24
TORSDOF 16
ENDMDL
MODEL 3
REMARK VINA RESULT:     -11.9      0.785      7.523
REMARK SMILES C[NH2+][C@@H](C)c1ccc(SCc2ccc(C(=O)OCCOC(=O)c3ccc(-c4c5nc(c(-c6c(F)c(F)c(F)c(F)c6F)c6ccc([nH]6)c(-c6c(F)c(F)c(F)c(F)c6F)c6nc(c(-c7c(F)c(F)c(F)c(F)c7F)c7ccc4[nH]7)C=C6)C=C5)cc3)cc2)cc1
REMARK SMILES IDX 17 1 15 2 16 3 14 4 11 5 12 6 87 7 13 8 86 9 10 10 9 11 8 12
REMARK SMILES IDX 5 13 6 14 89 15 7 16 88 17 3 18 4 19 2 20 1 21 18 24 19 25
REMARK SMILES IDX 20 26 21 27 22 28 23 29 24 30 85 31 25 32 84 33 26 34 27 35
REMARK SMILES IDX 28 36 78 37 29 38 83 39 77 40 79 41 30 42 82 43 76 44 75 45
REMARK SMILES IDX 31 47 63 48 43 49 62 50 44 51 47 52 61 53 80 54 45 55 46 56
REMARK SMILES IDX 60 58 81 59 48 60 32 61 33 62 41 63 34 64 35 65 39 66 42 67
REMARK SMILES IDX 36 68 37 69 40 70 38 71 64 72 65 73 73 74 66 75 67 76 71 77
REMARK SMILES IDX 74 78 68 79 69 80 72 81 70 82 49 83 50 84 58 85 51 86 52 87
REMARK SMILES IDX 56 88 59 89 53 90 54 91 57 92 55 93
REMARK H PARENT 2 22 2 23 79 46 47 57
REMARK Flexibility Score: inf
ROOT
ATOM      1  O   UNL A   1      32.901  31.019  27.905  1.00  0.00    -0.458 OA
ENDROOT
BRANCH   1   2
ATOM      2  C   UNL A   1      33.807  30.202  27.310  1.00  0.00     0.338 C 
ATOM      3  O   UNL A   1      35.006  30.400  27.194  1.00  0.00    -0.246 OA
BRANCH   2   4
ATOM      4  C   UNL A   1      33.163  28.935  26.895  1.00  0.00     0.060 A 
ATOM      5  C   UNL A   1      32.027  26.491  26.059  1.00  0.00    -0.038 A 
ATOM      6  C   UNL A   1      33.285  26.900  25.586  1.00  0.00     0.005 A 
ATOM      7  C   UNL A   1      31.332  27.353  26.922  1.00  0.00     0.005 A 
ATOM      8  C   UNL A   1      33.836  28.117  25.982  1.00  0.00     0.016 A 
ATOM      9  C   UNL A   1      31.905  28.554  27.362  1.00  0.00     0.016 A 
BRANCH   5  10
ATOM     10  C   UNL A   1      31.497  25.166  25.550  1.00  0.00     0.110 C 
BRANCH  10  11
ATOM     11  S   UNL A   1      31.061  25.012  23.794  1.00  0.00    -0.121 SA
BRANCH  11  12
ATOM     12  C   UNL A   1      30.192  26.528  23.424  1.00  0.00     0.008 A 
ATOM     13  C   UNL A   1      28.615  28.828  22.902  1.00  0.00     0.009 A 
ATOM     14  C   UNL A   1      28.069  27.715  23.555  1.00  0.00     0.011 A 
ATOM     15  C   UNL A   1      29.960  28.761  22.502  1.00  0.00     0.011 A 
ATOM     16  C   UNL A   1      28.851  26.587  23.820  1.00  0.00     0.015 A 
ATOM     17  C   UNL A   1      30.744  27.632  22.772  1.00  0.00     0.015 A 
BRANCH  13  18
ATOM     18  C   UNL A   1      27.799  30.074  22.576  1.00  0.00     0.210 C 
ATOM     19  C   UNL A   1      28.080  30.621  21.168  1.00  0.00     0.081 C 
BRANCH  18  20
ATOM     20  N   UNL A   1      28.020  31.072  23.630  1.00  0.00    -0.343 N 
ATOM     21  C   UNL A   1      28.650  32.294  23.157  1.00  0.00     0.331 C 
ATOM     22  H   UNL A   1      27.118  31.313  24.040  1.00  0.00     0.346 HD
ATOM     23  H   UNL A   1      28.656  30.652  24.308  1.00  0.00     0.346 HD
ENDBRANCH  18  20
ENDBRANCH  13  18
ENDBRANCH  11  12
ENDBRANCH  10  11
ENDBRANCH   5  10
ENDBRANCH   2   4
ENDBRANCH   1   2
BRANCH   1  24
ATOM     24  C   UNL A   1      32.434  32.123  27.102  1.00  0.00     0.275 C 
BRANCH  24  25
ATOM     25  C   UNL A   1      33.207  33.399  27.438  1.00  0.00     0.275 C 
BRANCH  25  26
ATOM     26  O   UNL A   1      32.331  34.321  28.105  1.00  0.00    -0.458 OA
BRANCH  26  27
ATOM     27  C   UNL A   1      32.932  35.240  28.895  1.00  0.00     0.338 C 
ATOM     28  O   UNL A   1      32.613  36.406  29.042  1.00  0.00    -0.246 OA
BRANCH  27  29
ATOM     29  C   UNL A   1      34.088  34.620  29.580  1.00  0.00     0.060 A 
ATOM     30  C   UNL A   1      35.367  34.694  29.029  1.00  0.00     0.016 A 
ATOM     31  C   UNL A   1      33.882  33.888  30.750  1.00  0.00     0.016 A 
ATOM     32  C   UNL A   1      36.427  33.986  29.598  1.00  0.00     0.010 A 
ATOM     33  C   UNL A   1      34.962  33.246  31.367  1.00  0.00     0.010 A 
ATOM     34  C   UNL A   1      36.242  33.257  30.781  1.00  0.00    -0.014 A 
BRANCH  34  35
ATOM     35  C   UNL A   1      37.353  32.458  31.375  1.00  0.00     0.031 A 
ATOM     36  C   UNL A   1      37.819  32.746  32.780  1.00  0.00     0.074 A 
ATOM     37  C   UNL A   1      37.952  31.471  30.678  1.00  0.00     0.049 A 
ATOM     38  N   UNL A   1      38.887  32.317  33.407  1.00  0.00    -0.248 NA
ATOM     39  C   UNL A   1      36.978  33.647  33.581  1.00  0.00     0.031 C 
ATOM     40  C   UNL A   1      37.589  31.042  29.329  1.00  0.00     0.029 A 
ATOM     41  N   UNL A   1      38.996  30.644  31.020  1.00  0.00    -0.354 N 
ATOM     42  C   UNL A   1      38.882  32.954  34.641  1.00  0.00     0.074 A 
ATOM     43  C   UNL A   1      37.701  33.789  34.683  1.00  0.00     0.031 C 
ATOM     44  C   UNL A   1      38.364  30.005  28.973  1.00  0.00     0.029 A 
ATOM     45  C   UNL A   1      39.336  29.750  30.033  1.00  0.00     0.049 A 
ATOM     46  H   UNL A   1      39.456  30.686  31.889  1.00  0.00     0.167 HD
ATOM     47  C   UNL A   1      39.784  32.856  35.647  1.00  0.00     0.037 A 
ATOM     48  C   UNL A   1      40.338  28.852  29.967  1.00  0.00     0.037 A 
ATOM     49  C   UNL A   1      40.919  31.970  35.644  1.00  0.00     0.049 A 
ATOM     50  C   UNL A   1      41.323  28.753  31.099  1.00  0.00     0.074 A 
ATOM     51  C   UNL A   1      41.877  31.787  36.628  1.00  0.00     0.029 A 
ATOM     52  N   UNL A   1      41.233  31.096  34.615  1.00  0.00    -0.354 N 
ATOM     53  N   UNL A   1      41.354  29.418  32.227  1.00  0.00    -0.248 NA
ATOM     54  C   UNL A   1      42.427  27.797  30.934  1.00  0.00     0.031 C 
ATOM     55  C   UNL A   1      42.782  30.816  36.186  1.00  0.00     0.029 A 
ATOM     56  C   UNL A   1      42.370  30.374  34.940  1.00  0.00     0.049 A 
ATOM     57  H   UNL A   1      40.724  31.001  33.778  1.00  0.00     0.167 HD
ATOM     58  C   UNL A   1      42.478  28.966  32.904  1.00  0.00     0.074 A 
ATOM     59  C   UNL A   1      43.088  27.948  32.073  1.00  0.00     0.031 C 
ATOM     60  C   UNL A   1      42.967  29.366  34.102  1.00  0.00     0.037 A 
BRANCH  47  61
ATOM     61  C   UNL A   1      39.603  33.757  36.833  1.00  0.00     0.064 A 
ATOM     62  C   UNL A   1      40.130  35.055  36.866  1.00  0.00     0.173 A 
ATOM     63  C   UNL A   1      38.855  33.321  37.937  1.00  0.00     0.173 A 
ATOM     64  F   UNL A   1      40.865  35.511  35.841  1.00  0.00    -0.203 F 
ATOM     65  C   UNL A   1      39.932  35.878  37.973  1.00  0.00     0.198 A 
ATOM     66  C   UNL A   1      38.638  34.154  39.031  1.00  0.00     0.198 A 
ATOM     67  F   UNL A   1      38.325  32.088  37.951  1.00  0.00    -0.203 F 
ATOM     68  F   UNL A   1      40.476  37.102  38.002  1.00  0.00    -0.200 F 
ATOM     69  C   UNL A   1      39.181  35.429  39.050  1.00  0.00     0.200 A 
ATOM     70  F   UNL A   1      37.904  33.724  40.066  1.00  0.00    -0.200 F 
ATOM     71  F   UNL A   1      38.987  36.226  40.110  1.00  0.00    -0.200 F 
ENDBRANCH  47  61
BRANCH  48  72
ATOM     72  C   UNL A   1      40.480  27.994  28.763  1.00  0.00     0.064 A 
ATOM     73  C   UNL A   1      39.838  26.751  28.687  1.00  0.00     0.173 A 
ATOM     74  C   UNL A   1      41.248  28.402  27.663  1.00  0.00     0.173 A 
ATOM     75  F   UNL A   1      39.117  26.304  29.726  1.00  0.00    -0.203 F 
ATOM     76  C   UNL A   1      39.960  25.947  27.555  1.00  0.00     0.198 A 
ATOM     77  C   UNL A   1      41.348  27.609  26.522  1.00  0.00     0.198 A 
ATOM     78  F   UNL A   1      41.886  29.581  27.691  1.00  0.00    -0.203 F 
ATOM     79  F   UNL A   1      39.363  24.747  27.520  1.00  0.00    -0.200 F 
ATOM     80  C   UNL A   1      40.707  26.381  26.470  1.00  0.00     0.200 A 
ATOM     81  F   UNL A   1      42.062  28.038  25.472  1.00  0.00    -0.200 F 
ATOM     82  F   UNL A   1      40.815  25.613  25.379  1.00  0.00    -0.200 F 
ENDBRANCH  48  72
BRANCH  60  83
ATOM     83  C   UNL A   1      44.215  28.698  34.589  1.00  0.00     0.064 A 
ATOM     84  C   UNL A   1      45.481  29.243  34.333  1.00  0.00     0.173 A 
ATOM     85  C   UNL A   1      44.145  27.517  35.344  1.00  0.00     0.173 A 
ATOM     86  F   UNL A   1      45.599  30.362  33.602  1.00  0.00    -0.203 F 
ATOM     87  C   UNL A   1      46.635  28.619  34.800  1.00  0.00     0.198 A 
ATOM     88  C   UNL A   1      45.299  26.908  35.826  1.00  0.00     0.198 A 
ATOM     89  F   UNL A   1      42.955  26.960  35.617  1.00  0.00    -0.203 F 
ATOM     90  F   UNL A   1      47.838  29.137  34.514  1.00  0.00    -0.200 F 
ATOM     91  C   UNL A   1      46.543  27.456  35.550  1.00  0.00     0.200 A 
ATOM     92  F   UNL A   1      45.209  25.787  36.555  1.00  0.00    -0.200 F 
ATOM     93  F   UNL A   1      47.654  26.857  35.999  1.00  0.00    -0.200 F 
ENDBRANCH  60  83
ENDBRANCH  34  35
ENDBRANCH  27  29
ENDBRANCH  26  27
ENDBRANCH  25  26
ENDBRANCH  24  25
ENDBRANCH   1  24
TORSDOF 16
ENDMDL
