MODEL 1
REMARK VINA RESULT:     -10.3      0.000      0.000
REMARK SMILES CCOc1c(Br)cc(CCC(=O)OCCOC(=O)c2ccc(-c3c4nc(c(-c5c(F)c(F)c(F)c(F)c5F)c5ccc([nH]5)c(-c5c(F)c(F)c(F)c(F)c5F)c5nc(c(-c6c(F)c(F)c(F)c(F)c6F)c6ccc3[nH]6)C=C5)C=C4)cc2)cc1OC
REMARK SMILES IDX 14 1 13 2 11 3 12 4 10 5 9 6 8 7 4 8 5 9 83 10 6 11 7 12
REMARK SMILES IDX 82 13 3 14 2 15 1 16 84 17 85 18 15 19 16 20 17 21 18 22
REMARK SMILES IDX 19 23 20 24 81 25 21 26 80 27 22 28 23 29 24 30 74 31 25 32
REMARK SMILES IDX 79 33 73 34 75 35 26 36 78 37 72 38 71 39 27 41 59 42 39 43
REMARK SMILES IDX 58 44 40 45 43 46 57 47 76 48 41 49 42 50 56 52 77 53 44 54
REMARK SMILES IDX 28 55 29 56 37 57 30 58 31 59 35 60 38 61 32 62 33 63 36 64
REMARK SMILES IDX 34 65 60 66 61 67 69 68 62 69 63 70 67 71 70 72 64 73 65 74
REMARK SMILES IDX 68 75 66 76 45 77 46 78 54 79 47 80 48 81 52 82 55 83 49 84
REMARK SMILES IDX 50 85 53 86 51 87
REMARK H PARENT 75 40 43 51
REMARK Flexibility Score: inf
ROOT
ATOM      1  C   UNL A   1      31.774  28.664  24.667  1.00  0.00     0.274 C 
ENDROOT
BRANCH   1   2
ATOM      2  O   UNL A   1      30.964  27.807  25.495  1.00  0.00    -0.462 OA
BRANCH   2   3
ATOM      3  C   UNL A   1      31.490  27.403  26.676  1.00  0.00     0.306 C 
ATOM      4  O   UNL A   1      31.217  27.888  27.767  1.00  0.00    -0.252 OA
BRANCH   3   5
ATOM      5  C   UNL A   1      32.521  26.307  26.506  1.00  0.00     0.127 C 
BRANCH   5   6
ATOM      6  C   UNL A   1      31.951  24.933  26.140  1.00  0.00     0.047 C 
BRANCH   6   7
ATOM      7  C   UNL A   1      33.033  23.913  25.885  1.00  0.00    -0.042 A 
ATOM      8  C   UNL A   1      35.069  21.983  25.873  1.00  0.00     0.175 A 
ATOM      9  C   UNL A   1      35.387  23.344  25.803  1.00  0.00     0.064 A 
ATOM     10  C   UNL A   1      33.728  21.584  25.775  1.00  0.00     0.162 A 
ATOM     11  Br  UNL A   1      37.185  23.958  25.786  1.00  0.00    -0.047 Br
ATOM     12  C   UNL A   1      34.374  24.302  25.801  1.00  0.00     0.023 A 
ATOM     13  C   UNL A   1      32.718  22.550  25.819  1.00  0.00     0.054 A 
BRANCH   8  14
ATOM     14  O   UNL A   1      36.080  21.073  26.053  1.00  0.00    -0.489 OA
BRANCH  14  15
ATOM     15  C   UNL A   1      36.614  20.624  24.795  1.00  0.00     0.226 C 
ATOM     16  C   UNL A   1      37.845  19.756  25.001  1.00  0.00     0.049 C 
ENDBRANCH  14  15
ENDBRANCH   8  14
BRANCH  10  17
ATOM     17  O   UNL A   1      33.275  20.292  25.722  1.00  0.00    -0.493 OA
ATOM     18  C   UNL A   1      32.977  19.814  24.411  1.00  0.00     0.278 C 
ENDBRANCH  10  17
ENDBRANCH   6   7
ENDBRANCH   5   6
ENDBRANCH   3   5
ENDBRANCH   2   3
ENDBRANCH   1   2
BRANCH   1  19
ATOM     19  C   UNL A   1      31.877  30.074  25.251  1.00  0.00     0.275 C 
BRANCH  19  20
ATOM     20  O   UNL A   1      33.211  30.338  25.724  1.00  0.00    -0.458 OA
BRANCH  20  21
ATOM     21  C   UNL A   1      33.302  31.125  26.816  1.00  0.00     0.338 C 
ATOM     22  O   UNL A   1      32.468  31.902  27.254  1.00  0.00    -0.246 OA
BRANCH  21  23
ATOM     23  C   UNL A   1      34.557  30.836  27.517  1.00  0.00     0.060 A 
ATOM     24  C   UNL A   1      34.753  29.551  28.031  1.00  0.00     0.016 A 
ATOM     25  C   UNL A   1      35.500  31.844  27.726  1.00  0.00     0.016 A 
ATOM     26  C   UNL A   1      35.905  29.263  28.755  1.00  0.00     0.010 A 
ATOM     27  C   UNL A   1      36.656  31.553  28.452  1.00  0.00     0.010 A 
ATOM     28  C   UNL A   1      36.861  30.264  28.974  1.00  0.00    -0.014 A 
BRANCH  28  29
ATOM     29  C   UNL A   1      38.066  29.971  29.780  1.00  0.00     0.031 A 
ATOM     30  C   UNL A   1      39.116  29.046  29.242  1.00  0.00     0.074 A 
ATOM     31  C   UNL A   1      38.206  30.533  30.994  1.00  0.00     0.049 A 
ATOM     32  N   UNL A   1      40.198  28.593  29.823  1.00  0.00    -0.248 NA
ATOM     33  C   UNL A   1      38.921  28.563  27.866  1.00  0.00     0.031 C 
ATOM     34  C   UNL A   1      37.262  31.470  31.601  1.00  0.00     0.029 A 
ATOM     35  N   UNL A   1      39.191  30.387  31.937  1.00  0.00    -0.354 N 
ATOM     36  C   UNL A   1      40.804  27.762  28.891  1.00  0.00     0.074 A 
ATOM     37  C   UNL A   1      39.962  27.757  27.713  1.00  0.00     0.031 C 
ATOM     38  C   UNL A   1      37.710  31.811  32.821  1.00  0.00     0.029 A 
ATOM     39  C   UNL A   1      38.948  31.086  33.093  1.00  0.00     0.049 A 
ATOM     40  H   UNL A   1      39.994  29.834  31.798  1.00  0.00     0.167 HD
ATOM     41  C   UNL A   1      41.961  27.069  29.013  1.00  0.00     0.037 A 
ATOM     42  C   UNL A   1      39.636  31.114  34.249  1.00  0.00     0.037 A 
ATOM     43  C   UNL A   1      42.794  27.083  30.187  1.00  0.00     0.049 A 
ATOM     44  C   UNL A   1      40.891  30.295  34.375  1.00  0.00     0.074 A 
ATOM     45  C   UNL A   1      43.993  26.427  30.404  1.00  0.00     0.029 A 
ATOM     46  N   UNL A   1      42.510  27.792  31.346  1.00  0.00    -0.354 N 
ATOM     47  N   UNL A   1      41.464  29.518  33.488  1.00  0.00    -0.248 NA
ATOM     48  C   UNL A   1      41.594  30.355  35.664  1.00  0.00     0.031 C 
ATOM     49  C   UNL A   1      44.416  26.708  31.709  1.00  0.00     0.029 A 
ATOM     50  C   UNL A   1      43.501  27.574  32.290  1.00  0.00     0.049 A 
ATOM     51  H   UNL A   1      41.720  28.365  31.478  1.00  0.00     0.167 HD
ATOM     52  C   UNL A   1      42.603  29.014  34.101  1.00  0.00     0.074 A 
ATOM     53  C   UNL A   1      42.647  29.584  35.432  1.00  0.00     0.031 C 
ATOM     54  C   UNL A   1      43.528  28.155  33.607  1.00  0.00     0.037 A 
BRANCH  41  55
ATOM     55  C   UNL A   1      42.382  26.216  27.854  1.00  0.00     0.064 A 
ATOM     56  C   UNL A   1      41.821  24.950  27.629  1.00  0.00     0.173 A 
ATOM     57  C   UNL A   1      43.336  26.685  26.939  1.00  0.00     0.173 A 
ATOM     58  F   UNL A   1      40.916  24.451  28.484  1.00  0.00    -0.203 F 
ATOM     59  C   UNL A   1      42.215  24.177  26.540  1.00  0.00     0.198 A 
ATOM     60  C   UNL A   1      43.710  25.918  25.837  1.00  0.00     0.198 A 
ATOM     61  F   UNL A   1      43.901  27.890  27.108  1.00  0.00    -0.203 F 
ATOM     62  F   UNL A   1      41.694  22.953  26.366  1.00  0.00    -0.200 F 
ATOM     63  C   UNL A   1      43.153  24.663  25.642  1.00  0.00     0.200 A 
ATOM     64  F   UNL A   1      44.609  26.394  24.966  1.00  0.00    -0.200 F 
ATOM     65  F   UNL A   1      43.527  23.919  24.592  1.00  0.00    -0.200 F 
ENDBRANCH  41  55
BRANCH  42  66
ATOM     66  C   UNL A   1      39.142  31.937  35.383  1.00  0.00     0.064 A 
ATOM     67  C   UNL A   1      39.452  33.300  35.471  1.00  0.00     0.173 A 
ATOM     68  C   UNL A   1      38.351  31.378  36.396  1.00  0.00     0.173 A 
ATOM     69  F   UNL A   1      40.226  33.874  34.538  1.00  0.00    -0.203 F 
ATOM     70  C   UNL A   1      38.999  34.072  36.539  1.00  0.00     0.198 A 
ATOM     71  C   UNL A   1      37.878  32.156  37.450  1.00  0.00     0.198 A 
ATOM     72  F   UNL A   1      38.029  30.077  36.358  1.00  0.00    -0.203 F 
ATOM     73  F   UNL A   1      39.342  35.365  36.622  1.00  0.00    -0.200 F 
ATOM     74  C   UNL A   1      38.207  33.501  37.524  1.00  0.00     0.200 A 
ATOM     75  F   UNL A   1      37.105  31.603  38.395  1.00  0.00    -0.200 F 
ATOM     76  F   UNL A   1      37.769  34.245  38.549  1.00  0.00    -0.200 F 
ENDBRANCH  42  66
BRANCH  54  77
ATOM     77  C   UNL A   1      44.681  27.804  34.500  1.00  0.00     0.064 A 
ATOM     78  C   UNL A   1      45.849  28.581  34.527  1.00  0.00     0.173 A 
ATOM     79  C   UNL A   1      44.601  26.701  35.363  1.00  0.00     0.173 A 
ATOM     80  F   UNL A   1      45.977  29.636  33.708  1.00  0.00    -0.203 F 
ATOM     81  C   UNL A   1      46.905  28.253  35.373  1.00  0.00     0.198 A 
ATOM     82  C   UNL A   1      45.648  26.391  36.224  1.00  0.00     0.198 A 
ATOM     83  F   UNL A   1      43.503  25.931  35.376  1.00  0.00    -0.203 F 
ATOM     84  F   UNL A   1      48.028  28.983  35.354  1.00  0.00    -0.200 F 
ATOM     85  C   UNL A   1      46.801  27.162  36.225  1.00  0.00     0.200 A 
ATOM     86  F   UNL A   1      45.544  25.344  37.054  1.00  0.00    -0.200 F 
ATOM     87  F   UNL A   1      47.817  26.850  37.041  1.00  0.00    -0.200 F 
ENDBRANCH  54  77
ENDBRANCH  28  29
ENDBRANCH  21  23
ENDBRANCH  20  21
ENDBRANCH  19  20
ENDBRANCH   1  19
TORSDOF 16
ENDMDL
MODEL 2
REMARK VINA RESULT:     -10.3      4.603      9.863
REMARK SMILES CCOc1c(Br)cc(CCC(=O)OCCOC(=O)c2ccc(-c3c4nc(c(-c5c(F)c(F)c(F)c(F)c5F)c5ccc([nH]5)c(-c5c(F)c(F)c(F)c(F)c5F)c5nc(c(-c6c(F)c(F)c(F)c(F)c6F)c6ccc3[nH]6)C=C5)C=C4)cc2)cc1OC
REMARK SMILES IDX 14 1 13 2 11 3 12 4 10 5 9 6 8 7 4 8 5 9 83 10 6 11 7 12
REMARK SMILES IDX 82 13 3 14 2 15 1 16 84 17 85 18 15 19 16 20 17 21 18 22
REMARK SMILES IDX 19 23 20 24 81 25 21 26 80 27 22 28 23 29 24 30 74 31 25 32
REMARK SMILES IDX 79 33 73 34 75 35 26 36 78 37 72 38 71 39 27 41 59 42 39 43
REMARK SMILES IDX 58 44 40 45 43 46 57 47 76 48 41 49 42 50 56 52 77 53 44 54
REMARK SMILES IDX 28 55 29 56 37 57 30 58 31 59 35 60 38 61 32 62 33 63 36 64
REMARK SMILES IDX 34 65 60 66 61 67 69 68 62 69 63 70 67 71 70 72 64 73 65 74
REMARK SMILES IDX 68 75 66 76 45 77 46 78 54 79 47 80 48 81 52 82 55 83 49 84
REMARK SMILES IDX 50 85 53 86 51 87
REMARK H PARENT 75 40 43 51
REMARK Flexibility Score: inf
ROOT
ATOM      1  C   UNL A   1      39.090  21.132  25.854  1.00  0.00     0.274 C 
ENDROOT
BRANCH   1   2
ATOM      2  O   UNL A   1      37.917  21.438  25.077  1.00  0.00    -0.462 OA
BRANCH   2   3
ATOM      3  C   UNL A   1      37.416  22.693  25.172  1.00  0.00     0.306 C 
ATOM      4  O   UNL A   1      37.686  23.490  26.062  1.00  0.00    -0.252 OA
BRANCH   3   5
ATOM      5  C   UNL A   1      36.417  23.002  24.077  1.00  0.00     0.127 C 
BRANCH   5   6
ATOM      6  C   UNL A   1      34.978  22.564  24.369  1.00  0.00     0.047 C 
BRANCH   6   7
ATOM      7  C   UNL A   1      34.161  23.663  25.001  1.00  0.00    -0.042 A 
ATOM      8  C   UNL A   1      32.343  25.632  25.831  1.00  0.00     0.175 A 
ATOM      9  C   UNL A   1      33.430  25.974  25.019  1.00  0.00     0.064 A 
ATOM     10  C   UNL A   1      32.265  24.338  26.367  1.00  0.00     0.162 A 
ATOM     11  Br  UNL A   1      33.686  27.740  24.369  1.00  0.00    -0.047 Br
ATOM     12  C   UNL A   1      34.338  24.995  24.614  1.00  0.00     0.023 A 
ATOM     13  C   UNL A   1      33.152  23.354  25.921  1.00  0.00     0.054 A 
BRANCH   8  14
ATOM     14  O   UNL A   1      31.371  26.571  26.068  1.00  0.00    -0.489 OA
BRANCH  14  15
ATOM     15  C   UNL A   1      30.170  26.282  25.331  1.00  0.00     0.226 C 
ATOM     16  C   UNL A   1      30.011  27.226  24.151  1.00  0.00     0.049 C 
ENDBRANCH  14  15
ENDBRANCH   8  14
BRANCH  10  17
ATOM     17  O   UNL A   1      31.323  23.892  27.256  1.00  0.00    -0.493 OA
ATOM     18  C   UNL A   1      30.455  22.878  26.754  1.00  0.00     0.278 C 
ENDBRANCH  10  17
ENDBRANCH   6   7
ENDBRANCH   5   6
ENDBRANCH   3   5
ENDBRANCH   2   3
ENDBRANCH   1   2
BRANCH   1  19
ATOM     19  C   UNL A   1      39.607  19.723  25.556  1.00  0.00     0.275 C 
BRANCH  19  20
ATOM     20  O   UNL A   1      40.607  19.331  26.515  1.00  0.00    -0.458 OA
BRANCH  20  21
ATOM     21  C   UNL A   1      41.888  19.448  26.109  1.00  0.00     0.338 C 
ATOM     22  O   UNL A   1      42.538  18.664  25.437  1.00  0.00    -0.246 OA
BRANCH  21  23
ATOM     23  C   UNL A   1      42.402  20.762  26.506  1.00  0.00     0.060 A 
ATOM     24  C   UNL A   1      42.280  21.149  27.844  1.00  0.00     0.016 A 
ATOM     25  C   UNL A   1      42.935  21.633  25.554  1.00  0.00     0.016 A 
ATOM     26  C   UNL A   1      42.701  22.415  28.241  1.00  0.00     0.010 A 
ATOM     27  C   UNL A   1      43.357  22.901  25.953  1.00  0.00     0.010 A 
ATOM     28  C   UNL A   1      43.237  23.300  27.296  1.00  0.00    -0.014 A 
BRANCH  28  29
ATOM     29  C   UNL A   1      43.646  24.661  27.708  1.00  0.00     0.031 A 
ATOM     30  C   UNL A   1      42.603  25.683  28.045  1.00  0.00     0.074 A 
ATOM     31  C   UNL A   1      44.954  24.971  27.768  1.00  0.00     0.049 A 
ATOM     32  N   UNL A   1      42.749  26.950  28.340  1.00  0.00    -0.248 NA
ATOM     33  C   UNL A   1      41.207  25.218  28.048  1.00  0.00     0.031 C 
ATOM     34  C   UNL A   1      46.051  24.046  27.491  1.00  0.00     0.029 A 
ATOM     35  N   UNL A   1      45.577  26.154  28.070  1.00  0.00    -0.354 N 
ATOM     36  C   UNL A   1      41.466  27.437  28.550  1.00  0.00     0.074 A 
ATOM     37  C   UNL A   1      40.552  26.336  28.330  1.00  0.00     0.031 C 
ATOM     38  C   UNL A   1      47.217  24.699  27.629  1.00  0.00     0.029 A 
ATOM     39  C   UNL A   1      46.944  26.094  27.964  1.00  0.00     0.049 A 
ATOM     40  H   UNL A   1      45.090  26.967  28.338  1.00  0.00     0.167 HD
ATOM     41  C   UNL A   1      41.091  28.691  28.896  1.00  0.00     0.037 A 
ATOM     42  C   UNL A   1      47.866  27.065  28.097  1.00  0.00     0.037 A 
ATOM     43  C   UNL A   1      42.008  29.779  29.117  1.00  0.00     0.049 A 
ATOM     44  C   UNL A   1      47.419  28.461  28.432  1.00  0.00     0.074 A 
ATOM     45  C   UNL A   1      41.730  31.083  29.486  1.00  0.00     0.029 A 
ATOM     46  N   UNL A   1      43.387  29.685  28.986  1.00  0.00    -0.354 N 
ATOM     47  N   UNL A   1      46.206  28.914  28.637  1.00  0.00    -0.248 NA
ATOM     48  C   UNL A   1      48.469  29.482  28.552  1.00  0.00     0.031 C 
ATOM     49  C   UNL A   1      42.937  31.789  29.541  1.00  0.00     0.029 A 
ATOM     50  C   UNL A   1      43.972  30.914  29.248  1.00  0.00     0.049 A 
ATOM     51  H   UNL A   1      43.877  28.867  28.743  1.00  0.00     0.167 HD
ATOM     52  C   UNL A   1      46.346  30.263  28.930  1.00  0.00     0.074 A 
ATOM     53  C   UNL A   1      47.765  30.553  28.890  1.00  0.00     0.031 C 
ATOM     54  C   UNL A   1      45.386  31.180  29.207  1.00  0.00     0.037 A 
BRANCH  41  55
ATOM     55  C   UNL A   1      39.623  28.961  29.033  1.00  0.00     0.064 A 
ATOM     56  C   UNL A   1      38.971  28.875  30.272  1.00  0.00     0.173 A 
ATOM     57  C   UNL A   1      38.865  29.342  27.916  1.00  0.00     0.173 A 
ATOM     58  F   UNL A   1      39.650  28.500  31.367  1.00  0.00    -0.203 F 
ATOM     59  C   UNL A   1      37.609  29.142  30.383  1.00  0.00     0.198 A 
ATOM     60  C   UNL A   1      37.508  29.632  28.036  1.00  0.00     0.198 A 
ATOM     61  F   UNL A   1      39.442  29.442  26.709  1.00  0.00    -0.203 F 
ATOM     62  F   UNL A   1      36.998  29.015  31.570  1.00  0.00    -0.200 F 
ATOM     63  C   UNL A   1      36.880  29.526  29.268  1.00  0.00     0.200 A 
ATOM     64  F   UNL A   1      36.807  30.012  26.959  1.00  0.00    -0.200 F 
ATOM     65  F   UNL A   1      35.570  29.787  29.378  1.00  0.00    -0.200 F 
ENDBRANCH  41  55
BRANCH  42  66
ATOM     66  C   UNL A   1      49.304  26.749  27.897  1.00  0.00     0.064 A 
ATOM     67  C   UNL A   1      49.882  26.797  26.622  1.00  0.00     0.173 A 
ATOM     68  C   UNL A   1      50.127  26.397  28.977  1.00  0.00     0.173 A 
ATOM     69  F   UNL A   1      49.129  27.105  25.556  1.00  0.00    -0.203 F 
ATOM     70  C   UNL A   1      51.228  26.491  26.432  1.00  0.00     0.198 A 
ATOM     71  C   UNL A   1      51.479  26.116  28.788  1.00  0.00     0.198 A 
ATOM     72  F   UNL A   1      49.621  26.335  30.216  1.00  0.00    -0.203 F 
ATOM     73  F   UNL A   1      51.747  26.505  25.196  1.00  0.00    -0.200 F 
ATOM     74  C   UNL A   1      52.027  26.157  27.516  1.00  0.00     0.200 A 
ATOM     75  F   UNL A   1      52.249  25.803  29.840  1.00  0.00    -0.200 F 
ATOM     76  F   UNL A   1      53.321  25.867  27.331  1.00  0.00    -0.200 F 
ENDBRANCH  42  66
BRANCH  54  77
ATOM     77  C   UNL A   1      45.843  32.574  29.517  1.00  0.00     0.064 A 
ATOM     78  C   UNL A   1      45.936  33.554  28.516  1.00  0.00     0.173 A 
ATOM     79  C   UNL A   1      46.155  32.943  30.833  1.00  0.00     0.173 A 
ATOM     80  F   UNL A   1      45.664  33.244  27.240  1.00  0.00    -0.203 F 
ATOM     81  C   UNL A   1      46.346  34.849  28.823  1.00  0.00     0.198 A 
ATOM     82  C   UNL A   1      46.541  34.244  31.139  1.00  0.00     0.198 A 
ATOM     83  F   UNL A   1      46.077  32.043  31.824  1.00  0.00    -0.203 F 
ATOM     84  F   UNL A   1      46.469  35.759  27.847  1.00  0.00    -0.200 F 
ATOM     85  C   UNL A   1      46.642  35.194  30.133  1.00  0.00     0.200 A 
ATOM     86  F   UNL A   1      46.816  34.580  32.407  1.00  0.00    -0.200 F 
ATOM     87  F   UNL A   1      47.032  36.442  30.426  1.00  0.00    -0.200 F 
ENDBRANCH  54  77
ENDBRANCH  28  29
ENDBRANCH  21  23
ENDBRANCH  20  21
ENDBRANCH  19  20
ENDBRANCH   1  19
TORSDOF 16
ENDMDL
MODEL 3
REMARK VINA RESULT:     -10.2      4.242      9.477
REMARK SMILES CCOc1c(Br)cc(CCC(=O)OCCOC(=O)c2ccc(-c3c4nc(c(-c5c(F)c(F)c(F)c(F)c5F)c5ccc([nH]5)c(-c5c(F)c(F)c(F)c(F)c5F)c5nc(c(-c6c(F)c(F)c(F)c(F)c6F)c6ccc3[nH]6)C=C5)C=C4)cc2)cc1OC
REMARK SMILES IDX 14 1 13 2 11 3 12 4 10 5 9 6 8 7 4 8 5 9 83 10 6 11 7 12
REMARK SMILES IDX 82 13 3 14 2 15 1 16 84 17 85 18 15 19 16 20 17 21 18 22
REMARK SMILES IDX 19 23 20 24 81 25 21 26 80 27 22 28 23 29 24 30 74 31 25 32
REMARK SMILES IDX 79 33 73 34 75 35 26 36 78 37 72 38 71 39 27 41 59 42 39 43
REMARK SMILES IDX 58 44 40 45 43 46 57 47 76 48 41 49 42 50 56 52 77 53 44 54
REMARK SMILES IDX 28 55 29 56 37 57 30 58 31 59 35 60 38 61 32 62 33 63 36 64
REMARK SMILES IDX 34 65 60 66 61 67 69 68 62 69 63 70 67 71 70 72 64 73 65 74
REMARK SMILES IDX 68 75 66 76 45 77 46 78 54 79 47 80 48 81 52 82 55 83 49 84
REMARK SMILES IDX 50 85 53 86 51 87
REMARK H PARENT 75 40 43 51
REMARK Flexibility Score: inf
ROOT
ATOM      1  C   UNL A   1      33.723  33.946  28.683  1.00  0.00     0.274 C 
ENDROOT
BRANCH   1   2
ATOM      2  O   UNL A   1      34.645  34.540  29.618  1.00  0.00    -0.462 OA
BRANCH   2   3
ATOM      3  C   UNL A   1      34.389  34.374  30.937  1.00  0.00     0.306 C 
ATOM      4  O   UNL A   1      33.370  34.747  31.505  1.00  0.00    -0.252 OA
BRANCH   3   5
ATOM      5  C   UNL A   1      35.540  33.721  31.673  1.00  0.00     0.127 C 
BRANCH   5   6
ATOM      6  C   UNL A   1      35.340  32.238  32.004  1.00  0.00     0.047 C 
BRANCH   6   7
ATOM      7  C   UNL A   1      36.596  31.596  32.540  1.00  0.00    -0.042 A 
ATOM      8  C   UNL A   1      38.708  30.395  33.942  1.00  0.00     0.175 A 
ATOM      9  C   UNL A   1      38.674  31.784  33.773  1.00  0.00     0.064 A 
ATOM     10  C   UNL A   1      37.777  29.596  33.264  1.00  0.00     0.162 A 
ATOM     11  Br  UNL A   1      39.983  32.926  34.542  1.00  0.00    -0.047 Br
ATOM     12  C   UNL A   1      37.628  32.379  33.068  1.00  0.00     0.023 A 
ATOM     13  C   UNL A   1      36.707  30.202  32.598  1.00  0.00     0.054 A 
BRANCH   8  14
ATOM     14  O   UNL A   1      39.645  29.853  34.786  1.00  0.00    -0.489 OA
BRANCH  14  15
ATOM     15  C   UNL A   1      40.874  29.570  34.095  1.00  0.00     0.226 C 
ATOM     16  C   UNL A   1      41.324  28.140  34.341  1.00  0.00     0.049 C 
ENDBRANCH  14  15
ENDBRANCH   8  14
BRANCH  10  17
ATOM     17  O   UNL A   1      37.753  28.227  33.249  1.00  0.00    -0.493 OA
ATOM     18  C   UNL A   1      38.485  27.625  32.182  1.00  0.00     0.278 C 
ENDBRANCH  10  17
ENDBRANCH   6   7
ENDBRANCH   5   6
ENDBRANCH   3   5
ENDBRANCH   2   3
ENDBRANCH   1   2
BRANCH   1  19
ATOM     19  C   UNL A   1      34.399  32.863  27.840  1.00  0.00     0.275 C 
BRANCH  19  20
ATOM     20  O   UNL A   1      34.378  31.595  28.521  1.00  0.00    -0.458 OA
BRANCH  20  21
ATOM     21  C   UNL A   1      34.640  30.514  27.757  1.00  0.00     0.338 C 
ATOM     22  O   UNL A   1      33.943  30.024  26.883  1.00  0.00    -0.246 OA
BRANCH  21  23
ATOM     23  C   UNL A   1      35.995  30.036  28.046  1.00  0.00     0.060 A 
ATOM     24  C   UNL A   1      36.260  29.509  29.313  1.00  0.00     0.016 A 
ATOM     25  C   UNL A   1      37.012  30.172  27.099  1.00  0.00     0.016 A 
ATOM     26  C   UNL A   1      37.550  29.104  29.640  1.00  0.00     0.010 A 
ATOM     27  C   UNL A   1      38.306  29.765  27.428  1.00  0.00     0.010 A 
ATOM     28  C   UNL A   1      38.582  29.235  28.701  1.00  0.00    -0.014 A 
BRANCH  28  29
ATOM     29  C   UNL A   1      39.962  28.845  29.061  1.00  0.00     0.031 A 
ATOM     30  C   UNL A   1      40.826  29.790  29.840  1.00  0.00     0.074 A 
ATOM     31  C   UNL A   1      40.435  27.645  28.677  1.00  0.00     0.049 A 
ATOM     32  N   UNL A   1      42.085  29.676  30.178  1.00  0.00    -0.248 NA
ATOM     33  C   UNL A   1      40.186  31.033  30.300  1.00  0.00     0.031 C 
ATOM     34  C   UNL A   1      39.671  26.636  27.943  1.00  0.00     0.029 A 
ATOM     35  N   UNL A   1      41.672  27.078  28.843  1.00  0.00    -0.354 N 
ATOM     36  C   UNL A   1      42.393  30.836  30.875  1.00  0.00     0.074 A 
ATOM     37  C   UNL A   1      41.197  31.650  30.898  1.00  0.00     0.031 C 
ATOM     38  C   UNL A   1      40.461  25.574  27.714  1.00  0.00     0.029 A 
ATOM     39  C   UNL A   1      41.792  25.846  28.250  1.00  0.00     0.049 A 
ATOM     40  H   UNL A   1      42.402  27.513  29.339  1.00  0.00     0.167 HD
ATOM     41  C   UNL A   1      43.572  31.183  31.445  1.00  0.00     0.037 A 
ATOM     42  C   UNL A   1      42.865  25.043  28.131  1.00  0.00     0.037 A 
ATOM     43  C   UNL A   1      44.756  30.365  31.421  1.00  0.00     0.049 A 
ATOM     44  C   UNL A   1      44.175  25.476  28.730  1.00  0.00     0.074 A 
ATOM     45  C   UNL A   1      45.995  30.620  31.983  1.00  0.00     0.029 A 
ATOM     46  N   UNL A   1      44.846  29.128  30.798  1.00  0.00    -0.354 N 
ATOM     47  N   UNL A   1      44.459  26.570  29.395  1.00  0.00    -0.248 NA
ATOM     48  C   UNL A   1      45.315  24.565  28.559  1.00  0.00     0.031 C 
ATOM     49  C   UNL A   1      46.846  29.555  31.666  1.00  0.00     0.029 A 
ATOM     50  C   UNL A   1      46.125  28.616  30.945  1.00  0.00     0.049 A 
ATOM     51  H   UNL A   1      44.109  28.680  30.323  1.00  0.00     0.167 HD
ATOM     52  C   UNL A   1      45.799  26.470  29.741  1.00  0.00     0.074 A 
ATOM     53  C   UNL A   1      46.270  25.202  29.222  1.00  0.00     0.031 C 
ATOM     54  C   UNL A   1      46.572  27.350  30.424  1.00  0.00     0.037 A 
BRANCH  41  55
ATOM     55  C   UNL A   1      43.645  32.519  32.122  1.00  0.00     0.064 A 
ATOM     56  C   UNL A   1      43.761  33.710  31.391  1.00  0.00     0.173 A 
ATOM     57  C   UNL A   1      43.567  32.610  33.521  1.00  0.00     0.173 A 
ATOM     58  F   UNL A   1      43.855  33.674  30.053  1.00  0.00    -0.203 F 
ATOM     59  C   UNL A   1      43.816  34.943  32.037  1.00  0.00     0.198 A 
ATOM     60  C   UNL A   1      43.597  33.847  34.160  1.00  0.00     0.198 A 
ATOM     61  F   UNL A   1      43.452  31.500  34.265  1.00  0.00    -0.203 F 
ATOM     62  F   UNL A   1      43.966  36.066  31.320  1.00  0.00    -0.200 F 
ATOM     63  C   UNL A   1      43.727  35.011  33.419  1.00  0.00     0.200 A 
ATOM     64  F   UNL A   1      43.501  33.911  35.496  1.00  0.00    -0.200 F 
ATOM     65  F   UNL A   1      43.774  36.199  34.037  1.00  0.00    -0.200 F 
ENDBRANCH  41  55
BRANCH  42  66
ATOM     66  C   UNL A   1      42.746  23.754  27.403  1.00  0.00     0.064 A 
ATOM     67  C   UNL A   1      42.244  22.611  28.040  1.00  0.00     0.173 A 
ATOM     68  C   UNL A   1      43.129  23.640  26.059  1.00  0.00     0.173 A 
ATOM     69  F   UNL A   1      41.889  22.665  29.332  1.00  0.00    -0.203 F 
ATOM     70  C   UNL A   1      42.142  21.398  27.361  1.00  0.00     0.198 A 
ATOM     71  C   UNL A   1      43.002  22.433  25.375  1.00  0.00     0.198 A 
ATOM     72  F   UNL A   1      43.617  24.705  25.406  1.00  0.00    -0.203 F 
ATOM     73  F   UNL A   1      41.696  20.310  28.004  1.00  0.00    -0.200 F 
ATOM     74  C   UNL A   1      42.514  21.312  26.028  1.00  0.00     0.200 A 
ATOM     75  F   UNL A   1      43.354  22.357  24.084  1.00  0.00    -0.200 F 
ATOM     76  F   UNL A   1      42.412  20.146  25.376  1.00  0.00    -0.200 F 
ENDBRANCH  42  66
BRANCH  54  77
ATOM     77  C   UNL A   1      47.997  26.956  30.676  1.00  0.00     0.064 A 
ATOM     78  C   UNL A   1      49.037  27.401  29.846  1.00  0.00     0.173 A 
ATOM     79  C   UNL A   1      48.328  26.156  31.779  1.00  0.00     0.173 A 
ATOM     80  F   UNL A   1      48.767  28.155  28.770  1.00  0.00    -0.203 F 
ATOM     81  C   UNL A   1      50.357  27.040  30.102  1.00  0.00     0.198 A 
ATOM     82  C   UNL A   1      49.651  25.818  32.045  1.00  0.00     0.198 A 
ATOM     83  F   UNL A   1      47.369  25.709  32.603  1.00  0.00    -0.203 F 
ATOM     84  F   UNL A   1      51.332  27.441  29.274  1.00  0.00    -0.200 F 
ATOM     85  C   UNL A   1      50.664  26.255  31.204  1.00  0.00     0.200 A 
ATOM     86  F   UNL A   1      49.947  25.068  33.115  1.00  0.00    -0.200 F 
ATOM     87  F   UNL A   1      51.935  25.912  31.450  1.00  0.00    -0.200 F 
ENDBRANCH  54  77
ENDBRANCH  28  29
ENDBRANCH  21  23
ENDBRANCH  20  21
ENDBRANCH  19  20
ENDBRANCH   1  19
TORSDOF 16
ENDMDL
