MODEL 1
REMARK VINA RESULT:     -11.8      0.000      0.000
REMARK SMILES NC(=O)N[C@@H](C(=O)N[C@@H](CO)C(=O)OCCOC(=O)c1ccc(-c2c3nc(c(-c4c(F)c(F)c(F)c(F)c4F)c4ccc([nH]4)c(-c4c(F)c(F)c(F)c(F)c4F)c4nc(c(-c5c(F)c(F)c(F)c(F)c5F)c5ccc2[nH]5)C=C4)C=C3)cc1)c1ccccc1
REMARK SMILES IDX 15 1 14 2 12 3 13 4 9 5 8 6 6 7 7 8 5 10 4 11 1 12 2 13 3 16
REMARK SMILES IDX 83 18 84 19 88 20 85 21 87 22 86 23 10 24 11 25 16 27 17 28
REMARK SMILES IDX 18 29 19 30 20 31 21 32 82 33 22 34 81 35 23 36 24 37 25 38
REMARK SMILES IDX 75 39 26 40 80 41 74 42 76 43 27 44 79 45 73 46 72 47 28 49
REMARK SMILES IDX 60 50 40 51 59 52 41 53 44 54 58 55 77 56 42 57 43 58 57 60
REMARK SMILES IDX 78 61 45 62 29 63 30 64 38 65 31 66 32 67 36 68 39 69 33 70
REMARK SMILES IDX 34 71 37 72 35 73 61 74 62 75 70 76 63 77 64 78 68 79 71 80
REMARK SMILES IDX 65 81 66 82 69 83 67 84 46 85 47 86 55 87 48 88 49 89 53 90
REMARK SMILES IDX 56 91 50 92 51 93 54 94 52 95
REMARK H PARENT 8 9 1 14 1 15 4 17 11 26 76 48 44 59
REMARK Flexibility Score: inf
ROOT
ATOM      1  C   UNL A   1      32.173  28.930  24.753  1.00  0.00     0.274 C 
ENDROOT
BRANCH   1   2
ATOM      2  O   UNL A   1      32.356  27.759  25.574  1.00  0.00    -0.460 OA
BRANCH   2   3
ATOM      3  C   UNL A   1      31.267  26.958  25.728  1.00  0.00     0.331 C 
ATOM      4  O   UNL A   1      30.674  26.776  26.787  1.00  0.00    -0.250 OA
BRANCH   3   5
ATOM      5  C   UNL A   1      30.832  26.288  24.420  1.00  0.00     0.218 C 
BRANCH   5   6
ATOM      6  N   UNL A   1      30.944  24.823  24.407  1.00  0.00    -0.339 N 
ATOM      7  C   UNL A   1      31.990  24.028  24.003  1.00  0.00     0.248 C 
ATOM      8  O   UNL A   1      31.834  22.810  24.105  1.00  0.00    -0.272 OA
ATOM      9  H   UNL A   1      30.152  24.339  24.735  1.00  0.00     0.164 HD
BRANCH   7  10
ATOM     10  C   UNL A   1      33.310  24.685  23.485  1.00  0.00     0.203 C 
BRANCH  10  11
ATOM     11  N   UNL A   1      33.319  24.695  22.020  1.00  0.00    -0.322 N 
ATOM     12  N   UNL A   1      32.704  26.878  21.651  1.00  0.00    -0.352 N 
ATOM     13  C   UNL A   1      33.005  25.670  21.151  1.00  0.00     0.313 C 
ATOM     14  H   UNL A   1      32.469  27.617  21.043  1.00  0.00     0.161 HD
ATOM     15  H   UNL A   1      32.718  27.026  22.623  1.00  0.00     0.161 HD
ATOM     16  O   UNL A   1      32.937  25.453  19.947  1.00  0.00    -0.249 OA
ATOM     17  H   UNL A   1      33.601  23.848  21.605  1.00  0.00     0.166 HD
ENDBRANCH  10  11
BRANCH  10  18
ATOM     18  C   UNL A   1      34.605  24.051  23.976  1.00  0.00    -0.016 A 
ATOM     19  C   UNL A   1      35.094  24.345  25.262  1.00  0.00     0.006 A 
ATOM     20  C   UNL A   1      35.392  23.247  23.135  1.00  0.00     0.006 A 
ATOM     21  C   UNL A   1      36.328  23.847  25.691  1.00  0.00     0.000 A 
ATOM     22  C   UNL A   1      36.623  22.747  23.567  1.00  0.00     0.000 A 
ATOM     23  C   UNL A   1      37.092  23.050  24.843  1.00  0.00     0.000 A 
ENDBRANCH  10  18
ENDBRANCH   7  10
ENDBRANCH   5   6
BRANCH   5  24
ATOM     24  C   UNL A   1      29.405  26.742  24.098  1.00  0.00     0.193 C 
BRANCH  24  25
ATOM     25  O   UNL A   1      28.444  25.923  24.766  1.00  0.00    -0.394 OA
ATOM     26  H   UNL A   1      27.870  26.481  25.315  1.00  0.00     0.210 HD
ENDBRANCH  24  25
ENDBRANCH   5  24
ENDBRANCH   3   5
ENDBRANCH   2   3
ENDBRANCH   1   2
BRANCH   1  27
ATOM     27  C   UNL A   1      31.731  30.126  25.600  1.00  0.00     0.275 C 
BRANCH  27  28
ATOM     28  O   UNL A   1      32.390  30.138  26.883  1.00  0.00    -0.458 OA
BRANCH  28  29
ATOM     29  C   UNL A   1      33.040  31.287  27.165  1.00  0.00     0.338 C 
ATOM     30  O   UNL A   1      32.570  32.407  27.261  1.00  0.00    -0.246 OA
BRANCH  29  31
ATOM     31  C   UNL A   1      34.443  31.026  27.509  1.00  0.00     0.060 A 
ATOM     32  C   UNL A   1      34.817  29.697  27.668  1.00  0.00     0.016 A 
ATOM     33  C   UNL A   1      35.299  32.051  27.907  1.00  0.00     0.016 A 
ATOM     34  C   UNL A   1      35.996  29.390  28.333  1.00  0.00     0.010 A 
ATOM     35  C   UNL A   1      36.525  31.732  28.515  1.00  0.00     0.010 A 
ATOM     36  C   UNL A   1      36.859  30.394  28.793  1.00  0.00    -0.014 A 
BRANCH  36  37
ATOM     37  C   UNL A   1      38.023  30.004  29.648  1.00  0.00     0.031 A 
ATOM     38  C   UNL A   1      39.136  29.153  29.082  1.00  0.00     0.074 A 
ATOM     39  C   UNL A   1      38.164  30.517  30.888  1.00  0.00     0.049 A 
ATOM     40  N   UNL A   1      40.200  28.673  29.681  1.00  0.00    -0.248 NA
ATOM     41  C   UNL A   1      39.048  28.798  27.658  1.00  0.00     0.031 C 
ATOM     42  C   UNL A   1      37.216  31.419  31.543  1.00  0.00     0.029 A 
ATOM     43  N   UNL A   1      39.181  30.390  31.805  1.00  0.00    -0.354 N 
ATOM     44  C   UNL A   1      40.867  27.912  28.727  1.00  0.00     0.074 A 
ATOM     45  C   UNL A   1      40.094  27.999  27.507  1.00  0.00     0.031 C 
ATOM     46  C   UNL A   1      37.725  31.821  32.716  1.00  0.00     0.029 A 
ATOM     47  C   UNL A   1      38.982  31.118  32.954  1.00  0.00     0.049 A 
ATOM     48  H   UNL A   1      39.976  29.829  31.654  1.00  0.00     0.167 HD
ATOM     49  C   UNL A   1      42.015  27.203  28.856  1.00  0.00     0.037 A 
ATOM     50  C   UNL A   1      39.700  31.185  34.092  1.00  0.00     0.037 A 
ATOM     51  C   UNL A   1      42.817  27.154  30.053  1.00  0.00     0.049 A 
ATOM     52  C   UNL A   1      40.944  30.352  34.226  1.00  0.00     0.074 A 
ATOM     53  C   UNL A   1      43.988  26.452  30.280  1.00  0.00     0.029 A 
ATOM     54  N   UNL A   1      42.539  27.850  31.221  1.00  0.00    -0.354 N 
ATOM     55  N   UNL A   1      41.519  29.572  33.344  1.00  0.00    -0.248 NA
ATOM     56  C   UNL A   1      41.627  30.393  35.527  1.00  0.00     0.031 C 
ATOM     57  C   UNL A   1      44.394  26.686  31.599  1.00  0.00     0.029 A 
ATOM     58  C   UNL A   1      43.508  27.581  32.176  1.00  0.00     0.049 A 
ATOM     59  H   UNL A   1      41.768  28.448  31.352  1.00  0.00     0.167 HD
ATOM     60  C   UNL A   1      42.634  29.040  33.975  1.00  0.00     0.074 A 
ATOM     61  C   UNL A   1      42.672  29.608  35.306  1.00  0.00     0.031 C 
ATOM     62  C   UNL A   1      43.540  28.152  33.498  1.00  0.00     0.037 A 
BRANCH  49  63
ATOM     63  C   UNL A   1      42.448  26.366  27.685  1.00  0.00     0.064 A 
ATOM     64  C   UNL A   1      43.423  26.798  26.774  1.00  0.00     0.173 A 
ATOM     65  C   UNL A   1      41.888  25.094  27.490  1.00  0.00     0.173 A 
ATOM     66  F   UNL A   1      43.977  28.013  26.905  1.00  0.00    -0.203 F 
ATOM     67  C   UNL A   1      43.799  26.000  25.696  1.00  0.00     0.198 A 
ATOM     68  C   UNL A   1      42.288  24.284  26.430  1.00  0.00     0.198 A 
ATOM     69  F   UNL A   1      40.956  24.628  28.335  1.00  0.00    -0.203 F 
ATOM     70  F   UNL A   1      44.694  26.454  24.808  1.00  0.00    -0.200 F 
ATOM     71  C   UNL A   1      43.236  24.742  25.528  1.00  0.00     0.200 A 
ATOM     72  F   UNL A   1      41.753  23.066  26.279  1.00  0.00    -0.200 F 
ATOM     73  F   UNL A   1      43.602  23.975  24.492  1.00  0.00    -0.200 F 
ENDBRANCH  49  63
BRANCH  50  74
ATOM     74  C   UNL A   1      39.225  32.029  35.224  1.00  0.00     0.064 A 
ATOM     75  C   UNL A   1      39.533  33.394  35.296  1.00  0.00     0.173 A 
ATOM     76  C   UNL A   1      38.465  31.478  36.269  1.00  0.00     0.173 A 
ATOM     77  F   UNL A   1      40.282  33.962  34.340  1.00  0.00    -0.203 F 
ATOM     78  C   UNL A   1      39.112  34.172  36.374  1.00  0.00     0.198 A 
ATOM     79  C   UNL A   1      38.012  32.264  37.324  1.00  0.00     0.198 A 
ATOM     80  F   UNL A   1      38.146  30.176  36.253  1.00  0.00    -0.203 F 
ATOM     81  F   UNL A   1      39.467  35.462  36.445  1.00  0.00    -0.200 F 
ATOM     82  C   UNL A   1      38.344  33.608  37.382  1.00  0.00     0.200 A 
ATOM     83  F   UNL A   1      37.255  31.717  38.285  1.00  0.00    -0.200 F 
ATOM     84  F   UNL A   1      37.932  34.358  38.413  1.00  0.00    -0.200 F 
ENDBRANCH  50  74
BRANCH  62  85
ATOM     85  C   UNL A   1      44.671  27.771  34.410  1.00  0.00     0.064 A 
ATOM     86  C   UNL A   1      45.861  28.513  34.464  1.00  0.00     0.173 A 
ATOM     87  C   UNL A   1      44.560  26.650  35.248  1.00  0.00     0.173 A 
ATOM     88  F   UNL A   1      46.024  29.584  33.671  1.00  0.00    -0.203 F 
ATOM     89  C   UNL A   1      46.911  28.126  35.292  1.00  0.00     0.198 A 
ATOM     90  C   UNL A   1      45.600  26.285  36.099  1.00  0.00     0.198 A 
ATOM     91  F   UNL A   1      43.442  25.909  35.242  1.00  0.00    -0.203 F 
ATOM     92  F   UNL A   1      48.061  28.814  35.280  1.00  0.00    -0.200 F 
ATOM     93  C   UNL A   1      46.778  27.015  36.113  1.00  0.00     0.200 A 
ATOM     94  F   UNL A   1      45.463  25.219  36.901  1.00  0.00    -0.200 F 
ATOM     95  F   UNL A   1      47.790  26.643  36.909  1.00  0.00    -0.200 F 
ENDBRANCH  62  85
ENDBRANCH  36  37
ENDBRANCH  29  31
ENDBRANCH  28  29
ENDBRANCH  27  28
ENDBRANCH   1  27
TORSDOF 17
ENDMDL
MODEL 2
REMARK VINA RESULT:     -11.7      0.390      1.648
REMARK SMILES NC(=O)N[C@@H](C(=O)N[C@@H](CO)C(=O)OCCOC(=O)c1ccc(-c2c3nc(c(-c4c(F)c(F)c(F)c(F)c4F)c4ccc([nH]4)c(-c4c(F)c(F)c(F)c(F)c4F)c4nc(c(-c5c(F)c(F)c(F)c(F)c5F)c5ccc2[nH]5)C=C4)C=C3)cc1)c1ccccc1
REMARK SMILES IDX 15 1 14 2 12 3 13 4 9 5 8 6 6 7 7 8 5 10 4 11 1 12 2 13 3 16
REMARK SMILES IDX 83 18 84 19 88 20 85 21 87 22 86 23 10 24 11 25 16 27 17 28
REMARK SMILES IDX 18 29 19 30 20 31 21 32 82 33 22 34 81 35 23 36 24 37 25 38
REMARK SMILES IDX 75 39 26 40 80 41 74 42 76 43 27 44 79 45 73 46 72 47 28 49
REMARK SMILES IDX 60 50 40 51 59 52 41 53 44 54 58 55 77 56 42 57 43 58 57 60
REMARK SMILES IDX 78 61 45 62 29 63 30 64 38 65 31 66 32 67 36 68 39 69 33 70
REMARK SMILES IDX 34 71 37 72 35 73 61 74 62 75 70 76 63 77 64 78 68 79 71 80
REMARK SMILES IDX 65 81 66 82 69 83 67 84 46 85 47 86 55 87 48 88 49 89 53 90
REMARK SMILES IDX 56 91 50 92 51 93 54 94 52 95
REMARK H PARENT 8 9 1 14 1 15 4 17 11 26 76 48 44 59
REMARK Flexibility Score: inf
ROOT
ATOM      1  C   UNL A   1      32.370  29.312  24.997  1.00  0.00     0.274 C 
ENDROOT
BRANCH   1   2
ATOM      2  O   UNL A   1      32.550  28.119  25.786  1.00  0.00    -0.460 OA
BRANCH   2   3
ATOM      3  C   UNL A   1      31.469  27.299  25.888  1.00  0.00     0.331 C 
ATOM      4  O   UNL A   1      30.812  27.129  26.911  1.00  0.00    -0.250 OA
BRANCH   3   5
ATOM      5  C   UNL A   1      31.133  26.590  24.572  1.00  0.00     0.218 C 
BRANCH   5   6
ATOM      6  N   UNL A   1      31.149  25.122  24.637  1.00  0.00    -0.339 N 
ATOM      7  C   UNL A   1      32.117  24.237  24.223  1.00  0.00     0.248 C 
ATOM      8  O   UNL A   1      31.888  23.040  24.404  1.00  0.00    -0.272 OA
ATOM      9  H   UNL A   1      30.347  24.711  25.034  1.00  0.00     0.164 HD
BRANCH   7  10
ATOM     10  C   UNL A   1      33.444  24.774  23.597  1.00  0.00     0.203 C 
BRANCH  10  11
ATOM     11  N   UNL A   1      33.376  24.686  22.136  1.00  0.00    -0.322 N 
ATOM     12  N   UNL A   1      32.764  26.848  21.653  1.00  0.00    -0.352 N 
ATOM     13  C   UNL A   1      33.027  25.605  21.221  1.00  0.00     0.313 C 
ATOM     14  H   UNL A   1      32.506  27.548  21.011  1.00  0.00     0.161 HD
ATOM     15  H   UNL A   1      32.831  27.060  22.612  1.00  0.00     0.161 HD
ATOM     16  O   UNL A   1      32.893  25.309  20.040  1.00  0.00    -0.249 OA
ATOM     17  H   UNL A   1      33.628  23.810  21.766  1.00  0.00     0.166 HD
ENDBRANCH  10  11
BRANCH  10  18
ATOM     18  C   UNL A   1      34.723  24.094  24.068  1.00  0.00    -0.016 A 
ATOM     19  C   UNL A   1      35.224  24.344  25.358  1.00  0.00     0.006 A 
ATOM     20  C   UNL A   1      35.485  23.291  23.205  1.00  0.00     0.006 A 
ATOM     21  C   UNL A   1      36.446  23.802  25.770  1.00  0.00     0.000 A 
ATOM     22  C   UNL A   1      36.704  22.748  23.619  1.00  0.00     0.000 A 
ATOM     23  C   UNL A   1      37.185  23.007  24.900  1.00  0.00     0.000 A 
ENDBRANCH  10  18
ENDBRANCH   7  10
ENDBRANCH   5   6
BRANCH   5  24
ATOM     24  C   UNL A   1      29.781  27.112  24.075  1.00  0.00     0.193 C 
BRANCH  24  25
ATOM     25  O   UNL A   1      29.911  27.731  22.794  1.00  0.00    -0.394 OA
ATOM     26  H   UNL A   1      30.097  28.676  22.910  1.00  0.00     0.210 HD
ENDBRANCH  24  25
ENDBRANCH   5  24
ENDBRANCH   3   5
ENDBRANCH   2   3
ENDBRANCH   1   2
BRANCH   1  27
ATOM     27  C   UNL A   1      31.776  30.441  25.842  1.00  0.00     0.275 C 
BRANCH  27  28
ATOM     28  O   UNL A   1      32.407  30.519  27.138  1.00  0.00    -0.458 OA
BRANCH  28  29
ATOM     29  C   UNL A   1      33.158  31.625  27.325  1.00  0.00     0.338 C 
ATOM     30  O   UNL A   1      32.786  32.785  27.359  1.00  0.00    -0.246 OA
BRANCH  29  31
ATOM     31  C   UNL A   1      34.545  31.269  27.648  1.00  0.00     0.060 A 
ATOM     32  C   UNL A   1      34.810  29.928  27.902  1.00  0.00     0.016 A 
ATOM     33  C   UNL A   1      35.499  32.243  27.937  1.00  0.00     0.016 A 
ATOM     34  C   UNL A   1      35.982  29.571  28.555  1.00  0.00     0.010 A 
ATOM     35  C   UNL A   1      36.714  31.865  28.532  1.00  0.00     0.010 A 
ATOM     36  C   UNL A   1      36.943  30.528  28.907  1.00  0.00    -0.014 A 
BRANCH  36  37
ATOM     37  C   UNL A   1      38.099  30.105  29.756  1.00  0.00     0.031 A 
ATOM     38  C   UNL A   1      39.199  29.244  29.177  1.00  0.00     0.074 A 
ATOM     39  C   UNL A   1      38.248  30.595  31.005  1.00  0.00     0.049 A 
ATOM     40  N   UNL A   1      40.253  28.736  29.769  1.00  0.00    -0.248 NA
ATOM     41  C   UNL A   1      39.105  28.914  27.748  1.00  0.00     0.031 C 
ATOM     42  C   UNL A   1      37.315  31.502  31.674  1.00  0.00     0.029 A 
ATOM     43  N   UNL A   1      39.262  30.436  31.920  1.00  0.00    -0.354 N 
ATOM     44  C   UNL A   1      40.908  27.980  28.804  1.00  0.00     0.074 A 
ATOM     45  C   UNL A   1      40.138  28.100  27.585  1.00  0.00     0.031 C 
ATOM     46  C   UNL A   1      37.830  31.876  32.854  1.00  0.00     0.029 A 
ATOM     47  C   UNL A   1      39.074  31.149  33.080  1.00  0.00     0.049 A 
ATOM     48  H   UNL A   1      40.047  29.864  31.761  1.00  0.00     0.167 HD
ATOM     49  C   UNL A   1      42.044  27.249  28.922  1.00  0.00     0.037 A 
ATOM     50  C   UNL A   1      39.792  31.185  34.220  1.00  0.00     0.037 A 
ATOM     51  C   UNL A   1      42.844  27.168  30.118  1.00  0.00     0.049 A 
ATOM     52  C   UNL A   1      41.022  30.329  34.341  1.00  0.00     0.074 A 
ATOM     53  C   UNL A   1      44.003  26.442  30.335  1.00  0.00     0.029 A 
ATOM     54  N   UNL A   1      42.577  27.849  31.297  1.00  0.00    -0.354 N 
ATOM     55  N   UNL A   1      41.584  29.554  33.447  1.00  0.00    -0.248 NA
ATOM     56  C   UNL A   1      41.704  30.337  35.643  1.00  0.00     0.031 C 
ATOM     57  C   UNL A   1      44.411  26.647  31.657  1.00  0.00     0.029 A 
ATOM     58  C   UNL A   1      43.540  27.548  32.248  1.00  0.00     0.049 A 
ATOM     59  H   UNL A   1      41.816  28.457  31.438  1.00  0.00     0.167 HD
ATOM     60  C   UNL A   1      42.689  28.992  34.070  1.00  0.00     0.074 A 
ATOM     61  C   UNL A   1      42.736  29.538  35.410  1.00  0.00     0.031 C 
ATOM     62  C   UNL A   1      43.581  28.097  33.579  1.00  0.00     0.037 A 
BRANCH  49  63
ATOM     63  C   UNL A   1      42.464  26.424  27.737  1.00  0.00     0.064 A 
ATOM     64  C   UNL A   1      43.437  26.860  26.826  1.00  0.00     0.173 A 
ATOM     65  C   UNL A   1      41.892  25.159  27.529  1.00  0.00     0.173 A 
ATOM     66  F   UNL A   1      44.001  28.069  26.970  1.00  0.00    -0.203 F 
ATOM     67  C   UNL A   1      43.800  26.073  25.736  1.00  0.00     0.198 A 
ATOM     68  C   UNL A   1      42.280  24.360  26.456  1.00  0.00     0.198 A 
ATOM     69  F   UNL A   1      40.961  24.690  28.374  1.00  0.00    -0.203 F 
ATOM     70  F   UNL A   1      44.694  26.531  24.849  1.00  0.00    -0.200 F 
ATOM     71  C   UNL A   1      43.227  24.822  25.556  1.00  0.00     0.200 A 
ATOM     72  F   UNL A   1      41.734  23.148  26.293  1.00  0.00    -0.200 F 
ATOM     73  F   UNL A   1      43.581  24.066  24.508  1.00  0.00    -0.200 F 
ENDBRANCH  49  63
BRANCH  50  74
ATOM     74  C   UNL A   1      39.330  32.018  35.365  1.00  0.00     0.064 A 
ATOM     75  C   UNL A   1      38.514  31.486  36.372  1.00  0.00     0.173 A 
ATOM     76  C   UNL A   1      39.683  33.374  35.463  1.00  0.00     0.173 A 
ATOM     77  F   UNL A   1      38.122  30.204  36.309  1.00  0.00    -0.203 F 
ATOM     78  C   UNL A   1      38.058  32.278  37.425  1.00  0.00     0.198 A 
ATOM     79  C   UNL A   1      39.260  34.154  36.535  1.00  0.00     0.198 A 
ATOM     80  F   UNL A   1      40.457  33.936  34.524  1.00  0.00    -0.203 F 
ATOM     81  F   UNL A   1      37.235  31.758  38.345  1.00  0.00    -0.200 F 
ATOM     82  C   UNL A   1      38.439  33.609  37.510  1.00  0.00     0.200 A 
ATOM     83  F   UNL A   1      39.647  35.434  36.621  1.00  0.00    -0.200 F 
ATOM     84  F   UNL A   1      38.009  34.369  38.527  1.00  0.00    -0.200 F 
ENDBRANCH  50  74
BRANCH  62  85
ATOM     85  C   UNL A   1      44.705  27.681  34.486  1.00  0.00     0.064 A 
ATOM     86  C   UNL A   1      44.603  26.560  35.324  1.00  0.00     0.173 A 
ATOM     87  C   UNL A   1      45.903  28.412  34.511  1.00  0.00     0.173 A 
ATOM     88  F   UNL A   1      43.473  25.837  35.350  1.00  0.00    -0.203 F 
ATOM     89  C   UNL A   1      45.643  26.209  36.180  1.00  0.00     0.198 A 
ATOM     90  C   UNL A   1      46.953  28.038  35.344  1.00  0.00     0.198 A 
ATOM     91  F   UNL A   1      46.056  29.487  33.725  1.00  0.00    -0.203 F 
ATOM     92  F   UNL A   1      45.499  25.171  37.016  1.00  0.00    -0.200 F 
ATOM     93  C   UNL A   1      46.819  26.945  36.186  1.00  0.00     0.200 A 
ATOM     94  F   UNL A   1      48.094  28.742  35.339  1.00  0.00    -0.200 F 
ATOM     95  F   UNL A   1      47.819  26.606  37.012  1.00  0.00    -0.200 F 
ENDBRANCH  62  85
ENDBRANCH  36  37
ENDBRANCH  29  31
ENDBRANCH  28  29
ENDBRANCH  27  28
ENDBRANCH   1  27
TORSDOF 17
ENDMDL
MODEL 3
REMARK VINA RESULT:     -11.5      0.977      1.957
REMARK SMILES NC(=O)N[C@@H](C(=O)N[C@@H](CO)C(=O)OCCOC(=O)c1ccc(-c2c3nc(c(-c4c(F)c(F)c(F)c(F)c4F)c4ccc([nH]4)c(-c4c(F)c(F)c(F)c(F)c4F)c4nc(c(-c5c(F)c(F)c(F)c(F)c5F)c5ccc2[nH]5)C=C4)C=C3)cc1)c1ccccc1
REMARK SMILES IDX 15 1 14 2 12 3 13 4 9 5 8 6 6 7 7 8 5 10 4 11 1 12 2 13 3 16
REMARK SMILES IDX 83 18 84 19 88 20 85 21 87 22 86 23 10 24 11 25 16 27 17 28
REMARK SMILES IDX 18 29 19 30 20 31 21 32 82 33 22 34 81 35 23 36 24 37 25 38
REMARK SMILES IDX 75 39 26 40 80 41 74 42 76 43 27 44 79 45 73 46 72 47 28 49
REMARK SMILES IDX 60 50 40 51 59 52 41 53 44 54 58 55 77 56 42 57 43 58 57 60
REMARK SMILES IDX 78 61 45 62 29 63 30 64 38 65 31 66 32 67 36 68 39 69 33 70
REMARK SMILES IDX 34 71 37 72 35 73 61 74 62 75 70 76 63 77 64 78 68 79 71 80
REMARK SMILES IDX 65 81 66 82 69 83 67 84 46 85 47 86 55 87 48 88 49 89 53 90
REMARK SMILES IDX 56 91 50 92 51 93 54 94 52 95
REMARK H PARENT 8 9 1 14 1 15 4 17 11 26 76 48 44 59
REMARK Flexibility Score: inf
ROOT
ATOM      1  C   UNL A   1      32.241  28.941  25.098  1.00  0.00     0.274 C 
ENDROOT
BRANCH   1   2
ATOM      2  O   UNL A   1      31.194  27.949  25.113  1.00  0.00    -0.460 OA
BRANCH   2   3
ATOM      3  C   UNL A   1      31.300  26.980  26.062  1.00  0.00     0.331 C 
ATOM      4  O   UNL A   1      31.116  27.152  27.263  1.00  0.00    -0.250 OA
BRANCH   3   5
ATOM      5  C   UNL A   1      31.676  25.614  25.478  1.00  0.00     0.218 C 
BRANCH   5   6
ATOM      6  N   UNL A   1      32.034  24.592  26.472  1.00  0.00    -0.339 N 
ATOM      7  C   UNL A   1      33.002  23.617  26.417  1.00  0.00     0.248 C 
ATOM      8  O   UNL A   1      33.108  22.884  27.401  1.00  0.00    -0.272 OA
ATOM      9  H   UNL A   1      31.502  24.608  27.300  1.00  0.00     0.164 HD
BRANCH   7  10
ATOM     10  C   UNL A   1      33.924  23.509  25.160  1.00  0.00     0.203 C 
BRANCH  10  11
ATOM     11  N   UNL A   1      33.338  22.580  24.191  1.00  0.00    -0.322 N 
ATOM     12  N   UNL A   1      33.178  23.977  22.374  1.00  0.00    -0.352 N 
ATOM     13  C   UNL A   1      32.946  22.775  22.921  1.00  0.00     0.313 C 
ATOM     14  H   UNL A   1      32.904  24.156  21.444  1.00  0.00     0.161 HD
ATOM     15  H   UNL A   1      33.623  24.680  22.900  1.00  0.00     0.161 HD
ATOM     16  O   UNL A   1      32.343  21.907  22.301  1.00  0.00    -0.249 OA
ATOM     17  H   UNL A   1      33.213  21.663  24.525  1.00  0.00     0.166 HD
ENDBRANCH  10  11
BRANCH  10  18
ATOM     18  C   UNL A   1      35.365  23.091  25.428  1.00  0.00    -0.016 A 
ATOM     19  C   UNL A   1      36.321  24.049  25.811  1.00  0.00     0.006 A 
ATOM     20  C   UNL A   1      35.798  21.774  25.204  1.00  0.00     0.006 A 
ATOM     21  C   UNL A   1      37.665  23.697  25.967  1.00  0.00     0.000 A 
ATOM     22  C   UNL A   1      37.141  21.424  25.364  1.00  0.00     0.000 A 
ATOM     23  C   UNL A   1      38.074  22.386  25.742  1.00  0.00     0.000 A 
ENDBRANCH  10  18
ENDBRANCH   7  10
ENDBRANCH   5   6
BRANCH   5  24
ATOM     24  C   UNL A   1      30.529  25.141  24.581  1.00  0.00     0.193 C 
BRANCH  24  25
ATOM     25  O   UNL A   1      29.277  25.660  25.033  1.00  0.00    -0.394 OA
ATOM     26  H   UNL A   1      29.433  26.308  25.738  1.00  0.00     0.210 HD
ENDBRANCH  24  25
ENDBRANCH   5  24
ENDBRANCH   3   5
ENDBRANCH   2   3
ENDBRANCH   1   2
BRANCH   1  27
ATOM     27  C   UNL A   1      31.773  30.237  25.765  1.00  0.00     0.275 C 
BRANCH  27  28
ATOM     28  O   UNL A   1      32.340  30.387  27.084  1.00  0.00    -0.458 OA
BRANCH  28  29
ATOM     29  C   UNL A   1      33.072  31.508  27.251  1.00  0.00     0.338 C 
ATOM     30  O   UNL A   1      32.680  32.662  27.258  1.00  0.00    -0.246 OA
BRANCH  29  31
ATOM     31  C   UNL A   1      34.463  31.182  27.588  1.00  0.00     0.060 A 
ATOM     32  C   UNL A   1      34.762  29.842  27.803  1.00  0.00     0.016 A 
ATOM     33  C   UNL A   1      35.382  32.173  27.927  1.00  0.00     0.016 A 
ATOM     34  C   UNL A   1      35.933  29.498  28.466  1.00  0.00     0.010 A 
ATOM     35  C   UNL A   1      36.597  31.811  28.533  1.00  0.00     0.010 A 
ATOM     36  C   UNL A   1      36.859  30.470  28.868  1.00  0.00    -0.014 A 
BRANCH  36  37
ATOM     37  C   UNL A   1      38.012  30.052  29.724  1.00  0.00     0.031 A 
ATOM     38  C   UNL A   1      39.090  29.151  29.168  1.00  0.00     0.074 A 
ATOM     39  C   UNL A   1      38.177  30.580  30.955  1.00  0.00     0.049 A 
ATOM     40  N   UNL A   1      40.138  28.643  29.771  1.00  0.00    -0.248 NA
ATOM     41  C   UNL A   1      38.982  28.776  27.751  1.00  0.00     0.031 C 
ATOM     42  C   UNL A   1      37.266  31.527  31.598  1.00  0.00     0.029 A 
ATOM     43  N   UNL A   1      39.193  30.431  31.870  1.00  0.00    -0.354 N 
ATOM     44  C   UNL A   1      40.773  27.842  28.827  1.00  0.00     0.074 A 
ATOM     45  C   UNL A   1      39.998  27.937  27.610  1.00  0.00     0.031 C 
ATOM     46  C   UNL A   1      37.795  31.929  32.763  1.00  0.00     0.029 A 
ATOM     47  C   UNL A   1      39.026  31.185  33.007  1.00  0.00     0.049 A 
ATOM     48  H   UNL A   1      39.966  29.839  31.725  1.00  0.00     0.167 HD
ATOM     49  C   UNL A   1      41.895  27.094  28.963  1.00  0.00     0.037 A 
ATOM     50  C   UNL A   1      39.752  31.245  34.141  1.00  0.00     0.037 A 
ATOM     51  C   UNL A   1      42.701  27.036  30.158  1.00  0.00     0.049 A 
ATOM     52  C   UNL A   1      40.965  30.370  34.284  1.00  0.00     0.074 A 
ATOM     53  C   UNL A   1      43.846  26.295  30.392  1.00  0.00     0.029 A 
ATOM     54  N   UNL A   1      42.454  27.761  31.315  1.00  0.00    -0.354 N 
ATOM     55  N   UNL A   1      41.507  29.555  33.412  1.00  0.00    -0.248 NA
ATOM     56  C   UNL A   1      41.656  30.407  35.581  1.00  0.00     0.031 C 
ATOM     57  C   UNL A   1      44.267  26.536  31.705  1.00  0.00     0.029 A 
ATOM     58  C   UNL A   1      43.417  27.472  32.270  1.00  0.00     0.049 A 
ATOM     59  H   UNL A   1      41.706  28.388  31.439  1.00  0.00     0.167 HD
ATOM     60  C   UNL A   1      42.605  28.992  34.048  1.00  0.00     0.074 A 
ATOM     61  C   UNL A   1      42.670  29.581  35.369  1.00  0.00     0.031 C 
ATOM     62  C   UNL A   1      43.476  28.064  33.582  1.00  0.00     0.037 A 
BRANCH  49  63
ATOM     63  C   UNL A   1      42.291  26.222  27.805  1.00  0.00     0.064 A 
ATOM     64  C   UNL A   1      41.683  24.983  27.555  1.00  0.00     0.173 A 
ATOM     65  C   UNL A   1      43.287  26.654  26.914  1.00  0.00     0.173 A 
ATOM     66  F   UNL A   1      40.738  24.517  28.386  1.00  0.00    -0.203 F 
ATOM     67  C   UNL A   1      42.077  24.197  26.475  1.00  0.00     0.198 A 
ATOM     68  C   UNL A   1      43.658  25.880  25.817  1.00  0.00     0.198 A 
ATOM     69  F   UNL A   1      43.898  27.833  27.103  1.00  0.00    -0.203 F 
ATOM     70  F   UNL A   1      41.519  22.994  26.284  1.00  0.00    -0.200 F 
ATOM     71  C   UNL A   1      43.059  24.649  25.604  1.00  0.00     0.200 A 
ATOM     72  F   UNL A   1      44.596  26.325  24.971  1.00  0.00    -0.200 F 
ATOM     73  F   UNL A   1      43.434  23.892  24.563  1.00  0.00    -0.200 F 
ENDBRANCH  49  63
BRANCH  50  74
ATOM     74  C   UNL A   1      39.313  32.124  35.260  1.00  0.00     0.064 A 
ATOM     75  C   UNL A   1      39.724  33.462  35.342  1.00  0.00     0.173 A 
ATOM     76  C   UNL A   1      38.486  31.636  36.284  1.00  0.00     0.173 A 
ATOM     77  F   UNL A   1      40.541  33.969  34.406  1.00  0.00    -0.203 F 
ATOM     78  C   UNL A   1      39.336  34.271  36.409  1.00  0.00     0.198 A 
ATOM     79  C   UNL A   1      38.067  32.455  37.327  1.00  0.00     0.198 A 
ATOM     80  F   UNL A   1      38.067  30.362  36.259  1.00  0.00    -0.203 F 
ATOM     81  F   UNL A   1      39.787  35.530  36.490  1.00  0.00    -0.200 F 
ATOM     82  C   UNL A   1      38.500  33.770  37.395  1.00  0.00     0.200 A 
ATOM     83  F   UNL A   1      37.244  31.970  38.267  1.00  0.00    -0.200 F 
ATOM     84  F   UNL A   1      38.120  34.550  38.416  1.00  0.00    -0.200 F 
ENDBRANCH  50  74
BRANCH  62  85
ATOM     85  C   UNL A   1      44.597  27.657  34.496  1.00  0.00     0.064 A 
ATOM     86  C   UNL A   1      44.486  26.553  35.355  1.00  0.00     0.173 A 
ATOM     87  C   UNL A   1      45.801  28.377  34.505  1.00  0.00     0.173 A 
ATOM     88  F   UNL A   1      43.350  25.841  35.397  1.00  0.00    -0.203 F 
ATOM     89  C   UNL A   1      45.524  26.210  36.218  1.00  0.00     0.198 A 
ATOM     90  C   UNL A   1      46.850  28.010  35.346  1.00  0.00     0.198 A 
ATOM     91  F   UNL A   1      45.964  29.436  33.698  1.00  0.00    -0.203 F 
ATOM     92  F   UNL A   1      45.372  25.190  37.075  1.00  0.00    -0.200 F 
ATOM     93  C   UNL A   1      46.706  26.935  36.209  1.00  0.00     0.200 A 
ATOM     94  F   UNL A   1      47.996  28.705  35.325  1.00  0.00    -0.200 F 
ATOM     95  F   UNL A   1      47.704  26.604  37.040  1.00  0.00    -0.200 F 
ENDBRANCH  62  85
ENDBRANCH  36  37
ENDBRANCH  29  31
ENDBRANCH  28  29
ENDBRANCH  27  28
ENDBRANCH   1  27
TORSDOF 17
ENDMDL
