MODEL 1
REMARK VINA RESULT:     -12.3      0.000      0.000
REMARK SMILES O=C(OCCOC(=O)[C@@]1([C@@H]2CCC[C@@H]2O)CCCc2ccccc21)c1ccc(-c2c3nc(c(-c4c(F)c(F)c(F)c(F)c4F)c4ccc([nH]4)c(-c4c(F)c(F)c(F)c(F)c4F)c4nc(c(-c5c(F)c(F)c(F)c(F)c5F)c5ccc2[nH]5)C=C4)C=C3)cc1
REMARK SMILES IDX 4 1 3 2 2 3 1 4 25 5 26 6 87 7 27 8 86 9 28 10 29 11 30 12
REMARK SMILES IDX 80 13 31 14 85 15 79 16 81 17 32 18 84 19 78 20 77 21 33 23
REMARK SMILES IDX 65 24 45 25 64 26 46 27 49 28 63 29 82 30 47 31 48 32 62 34
REMARK SMILES IDX 83 35 50 36 34 37 35 38 43 39 36 40 37 41 41 42 44 43 38 44
REMARK SMILES IDX 39 45 42 46 40 47 66 48 67 49 75 50 68 51 69 52 73 53 76 54
REMARK SMILES IDX 70 55 71 56 74 57 72 58 51 59 52 60 60 61 53 62 54 63 58 64
REMARK SMILES IDX 61 65 55 66 56 67 59 68 57 69 5 70 6 71 7 72 8 73 9 74 16 75
REMARK SMILES IDX 24 76 17 77 19 78 23 79 18 80 20 81 22 82 21 83 10 84 11 85
REMARK SMILES IDX 14 86 12 87 13 88 15 89
REMARK H PARENT 81 22 49 33 15 90
REMARK Flexibility Score: inf
ROOT
ATOM      1  C   UNL A   1      31.952  31.903  27.029  1.00  0.00     0.275 C 
ENDROOT
BRANCH   1   2
ATOM      2  O   UNL A   1      33.106  32.744  26.936  1.00  0.00    -0.458 OA
BRANCH   2   3
ATOM      3  C   UNL A   1      33.316  33.521  28.025  1.00  0.00     0.338 C 
ATOM      4  O   UNL A   1      32.764  34.572  28.294  1.00  0.00    -0.246 OA
BRANCH   3   5
ATOM      5  C   UNL A   1      34.557  33.038  28.670  1.00  0.00     0.060 A 
ATOM      6  C   UNL A   1      34.546  31.980  29.584  1.00  0.00     0.016 A 
ATOM      7  C   UNL A   1      35.768  33.554  28.207  1.00  0.00     0.016 A 
ATOM      8  C   UNL A   1      35.747  31.435  30.021  1.00  0.00     0.010 A 
ATOM      9  C   UNL A   1      36.963  32.944  28.565  1.00  0.00     0.010 A 
ATOM     10  C   UNL A   1      36.960  31.909  29.509  1.00  0.00    -0.014 A 
BRANCH  10  11
ATOM     11  C   UNL A   1      38.225  31.424  30.096  1.00  0.00     0.031 A 
ATOM     12  C   UNL A   1      38.635  31.973  31.426  1.00  0.00     0.074 A 
ATOM     13  C   UNL A   1      38.942  30.460  29.490  1.00  0.00     0.049 A 
ATOM     14  N   UNL A   1      39.540  31.522  32.251  1.00  0.00    -0.248 NA
ATOM     15  C   UNL A   1      37.921  33.167  31.911  1.00  0.00     0.031 C 
ATOM     16  C   UNL A   1      38.631  29.871  28.191  1.00  0.00     0.029 A 
ATOM     17  N   UNL A   1      40.081  29.808  29.880  1.00  0.00    -0.354 N 
ATOM     18  C   UNL A   1      39.437  32.325  33.376  1.00  0.00     0.074 A 
ATOM     19  C   UNL A   1      38.501  33.379  33.078  1.00  0.00     0.031 C 
ATOM     20  C   UNL A   1      39.584  28.983  27.861  1.00  0.00     0.029 A 
ATOM     21  C   UNL A   1      40.540  28.903  28.956  1.00  0.00     0.049 A 
ATOM     22  H   UNL A   1      40.528  29.974  30.741  1.00  0.00     0.167 HD
ATOM     23  C   UNL A   1      40.005  32.135  34.588  1.00  0.00     0.037 A 
ATOM     24  C   UNL A   1      41.596  28.071  29.014  1.00  0.00     0.037 A 
ATOM     25  C   UNL A   1      40.950  31.092  34.851  1.00  0.00     0.049 A 
ATOM     26  C   UNL A   1      42.307  27.945  30.333  1.00  0.00     0.074 A 
ATOM     27  C   UNL A   1      41.587  30.770  36.032  1.00  0.00     0.029 A 
ATOM     28  N   UNL A   1      41.411  30.205  33.885  1.00  0.00    -0.354 N 
ATOM     29  N   UNL A   1      42.097  28.605  31.448  1.00  0.00    -0.248 NA
ATOM     30  C   UNL A   1      43.339  26.907  30.432  1.00  0.00     0.031 C 
ATOM     31  C   UNL A   1      42.462  29.708  35.771  1.00  0.00     0.029 A 
ATOM     32  C   UNL A   1      42.340  29.345  34.435  1.00  0.00     0.049 A 
ATOM     33  H   UNL A   1      41.117  30.192  32.945  1.00  0.00     0.167 HD
ATOM     34  C   UNL A   1      42.909  28.013  32.402  1.00  0.00     0.074 A 
ATOM     35  C   UNL A   1      43.638  26.957  31.723  1.00  0.00     0.031 C 
ATOM     36  C   UNL A   1      43.020  28.291  33.724  1.00  0.00     0.037 A 
BRANCH  23  37
ATOM     37  C   UNL A   1      39.563  33.067  35.674  1.00  0.00     0.064 A 
ATOM     38  C   UNL A   1      40.239  34.281  35.901  1.00  0.00     0.173 A 
ATOM     39  C   UNL A   1      38.538  32.711  36.556  1.00  0.00     0.173 A 
ATOM     40  F   UNL A   1      41.253  34.649  35.102  1.00  0.00    -0.203 F 
ATOM     41  C   UNL A   1      39.934  35.075  37.002  1.00  0.00     0.198 A 
ATOM     42  C   UNL A   1      38.218  33.524  37.641  1.00  0.00     0.198 A 
ATOM     43  F   UNL A   1      37.873  31.558  36.391  1.00  0.00    -0.203 F 
ATOM     44  F   UNL A   1      40.650  36.184  37.245  1.00  0.00    -0.200 F 
ATOM     45  C   UNL A   1      38.925  34.696  37.872  1.00  0.00     0.200 A 
ATOM     46  F   UNL A   1      37.245  33.157  38.486  1.00  0.00    -0.200 F 
ATOM     47  F   UNL A   1      38.649  35.447  38.947  1.00  0.00    -0.200 F 
ENDBRANCH  23  37
BRANCH  24  48
ATOM     48  C   UNL A   1      41.954  27.232  27.842  1.00  0.00     0.064 A 
ATOM     49  C   UNL A   1      41.356  25.983  27.624  1.00  0.00     0.173 A 
ATOM     50  C   UNL A   1      42.894  27.677  26.900  1.00  0.00     0.173 A 
ATOM     51  F   UNL A   1      40.454  25.513  28.497  1.00  0.00    -0.203 F 
ATOM     52  C   UNL A   1      41.703  25.200  26.524  1.00  0.00     0.198 A 
ATOM     53  C   UNL A   1      43.229  26.899  25.792  1.00  0.00     0.198 A 
ATOM     54  F   UNL A   1      43.486  28.870  27.055  1.00  0.00    -0.203 F 
ATOM     55  F   UNL A   1      41.139  23.996  26.358  1.00  0.00    -0.200 F 
ATOM     56  C   UNL A   1      42.638  25.659  25.608  1.00  0.00     0.200 A 
ATOM     57  F   UNL A   1      44.125  27.351  24.904  1.00  0.00    -0.200 F 
ATOM     58  F   UNL A   1      42.971  24.904  24.552  1.00  0.00    -0.200 F 
ENDBRANCH  24  48
BRANCH  36  59
ATOM     59  C   UNL A   1      43.905  27.392  34.529  1.00  0.00     0.064 A 
ATOM     60  C   UNL A   1      43.441  26.180  35.055  1.00  0.00     0.173 A 
ATOM     61  C   UNL A   1      45.249  27.739  34.736  1.00  0.00     0.173 A 
ATOM     62  F   UNL A   1      42.159  25.820  34.894  1.00  0.00    -0.203 F 
ATOM     63  C   UNL A   1      44.290  25.354  35.784  1.00  0.00     0.198 A 
ATOM     64  C   UNL A   1      46.101  26.896  35.440  1.00  0.00     0.198 A 
ATOM     65  F   UNL A   1      45.734  28.889  34.246  1.00  0.00    -0.203 F 
ATOM     66  F   UNL A   1      43.817  24.220  36.319  1.00  0.00    -0.200 F 
ATOM     67  C   UNL A   1      45.618  25.708  35.969  1.00  0.00     0.200 A 
ATOM     68  F   UNL A   1      47.386  27.234  35.609  1.00  0.00    -0.200 F 
ATOM     69  F   UNL A   1      46.435  24.905  36.666  1.00  0.00    -0.200 F 
ENDBRANCH  36  59
ENDBRANCH  10  11
ENDBRANCH   3   5
ENDBRANCH   2   3
ENDBRANCH   1   2
BRANCH   1  70
ATOM     70  C   UNL A   1      32.398  30.435  27.045  1.00  0.00     0.274 C 
BRANCH  70  71
ATOM     71  O   UNL A   1      31.633  29.577  26.162  1.00  0.00    -0.461 OA
BRANCH  71  72
ATOM     72  C   UNL A   1      32.216  29.207  24.976  1.00  0.00     0.317 C 
ATOM     73  O   UNL A   1      33.272  29.692  24.585  1.00  0.00    -0.251 OA
BRANCH  72  74
ATOM     74  C   UNL A   1      31.393  28.105  24.192  1.00  0.00     0.098 C 
ATOM     75  C   UNL A   1      30.965  27.068  25.269  1.00  0.00     0.024 C 
ATOM     76  C   UNL A   1      30.094  28.715  23.604  1.00  0.00    -0.027 A 
ATOM     77  C   UNL A   1      29.986  26.013  24.782  1.00  0.00     0.006 C 
ATOM     78  C   UNL A   1      28.912  27.950  23.488  1.00  0.00    -0.044 A 
ATOM     79  C   UNL A   1      30.044  30.045  23.157  1.00  0.00     0.005 A 
ATOM     80  C   UNL A   1      28.737  26.607  24.150  1.00  0.00     0.036 C 
ATOM     81  C   UNL A   1      27.788  28.478  22.820  1.00  0.00     0.004 A 
ATOM     82  C   UNL A   1      28.910  30.572  22.529  1.00  0.00     0.000 A 
ATOM     83  C   UNL A   1      27.791  29.777  22.328  1.00  0.00     0.000 A 
BRANCH  74  84
ATOM     84  C   UNL A   1      32.296  27.486  23.039  1.00  0.00     0.040 C 
ATOM     85  C   UNL A   1      31.628  26.677  21.900  1.00  0.00     0.008 C 
ATOM     86  C   UNL A   1      33.466  26.570  23.459  1.00  0.00     0.119 C 
ATOM     87  C   UNL A   1      32.089  25.222  22.006  1.00  0.00     0.003 C 
ATOM     88  C   UNL A   1      32.992  25.145  23.222  1.00  0.00     0.032 C 
BRANCH  86  89
ATOM     89  O   UNL A   1      33.903  26.718  24.791  1.00  0.00    -0.393 OA
ATOM     90  H   UNL A   1      34.528  26.009  25.007  1.00  0.00     0.210 HD
ENDBRANCH  86  89
ENDBRANCH  74  84
ENDBRANCH  72  74
ENDBRANCH  71  72
ENDBRANCH  70  71
ENDBRANCH   1  70
TORSDOF 13
ENDMDL
MODEL 2
REMARK VINA RESULT:     -12.3      0.954      1.929
REMARK SMILES O=C(OCCOC(=O)[C@@]1([C@@H]2CCC[C@@H]2O)CCCc2ccccc21)c1ccc(-c2c3nc(c(-c4c(F)c(F)c(F)c(F)c4F)c4ccc([nH]4)c(-c4c(F)c(F)c(F)c(F)c4F)c4nc(c(-c5c(F)c(F)c(F)c(F)c5F)c5ccc2[nH]5)C=C4)C=C3)cc1
REMARK SMILES IDX 4 1 3 2 2 3 1 4 25 5 26 6 87 7 27 8 86 9 28 10 29 11 30 12
REMARK SMILES IDX 80 13 31 14 85 15 79 16 81 17 32 18 84 19 78 20 77 21 33 23
REMARK SMILES IDX 65 24 45 25 64 26 46 27 49 28 63 29 82 30 47 31 48 32 62 34
REMARK SMILES IDX 83 35 50 36 34 37 35 38 43 39 36 40 37 41 41 42 44 43 38 44
REMARK SMILES IDX 39 45 42 46 40 47 66 48 67 49 75 50 68 51 69 52 73 53 76 54
REMARK SMILES IDX 70 55 71 56 74 57 72 58 51 59 52 60 60 61 53 62 54 63 58 64
REMARK SMILES IDX 61 65 55 66 56 67 59 68 57 69 5 70 6 71 7 72 8 73 9 74 16 75
REMARK SMILES IDX 24 76 17 77 19 78 23 79 18 80 20 81 22 82 21 83 10 84 11 85
REMARK SMILES IDX 14 86 12 87 13 88 15 89
REMARK H PARENT 81 22 49 33 15 90
REMARK Flexibility Score: inf
ROOT
ATOM      1  C   UNL A   1      32.419  31.198  27.250  1.00  0.00     0.275 C 
ENDROOT
BRANCH   1   2
ATOM      2  O   UNL A   1      33.713  31.776  27.052  1.00  0.00    -0.458 OA
BRANCH   2   3
ATOM      3  C   UNL A   1      34.072  32.673  28.001  1.00  0.00     0.338 C 
ATOM      4  O   UNL A   1      33.658  33.810  28.130  1.00  0.00    -0.246 OA
BRANCH   3   5
ATOM      5  C   UNL A   1      35.288  32.144  28.660  1.00  0.00     0.060 A 
ATOM      6  C   UNL A   1      35.295  30.900  29.297  1.00  0.00     0.016 A 
ATOM      7  C   UNL A   1      36.479  32.847  28.476  1.00  0.00     0.016 A 
ATOM      8  C   UNL A   1      36.497  30.359  29.736  1.00  0.00     0.010 A 
ATOM      9  C   UNL A   1      37.690  32.261  28.822  1.00  0.00     0.010 A 
ATOM     10  C   UNL A   1      37.700  31.033  29.495  1.00  0.00    -0.014 A 
BRANCH  10  11
ATOM     11  C   UNL A   1      38.944  30.518  30.100  1.00  0.00     0.031 A 
ATOM     12  C   UNL A   1      39.304  30.994  31.473  1.00  0.00     0.074 A 
ATOM     13  C   UNL A   1      39.686  29.590  29.469  1.00  0.00     0.049 A 
ATOM     14  N   UNL A   1      40.180  30.500  32.304  1.00  0.00    -0.248 NA
ATOM     15  C   UNL A   1      38.569  32.159  31.995  1.00  0.00     0.031 C 
ATOM     16  C   UNL A   1      39.424  29.072  28.130  1.00  0.00     0.029 A 
ATOM     17  N   UNL A   1      40.812  28.919  29.864  1.00  0.00    -0.354 N 
ATOM     18  C   UNL A   1      40.035  31.241  33.466  1.00  0.00     0.074 A 
ATOM     19  C   UNL A   1      39.107  32.309  33.192  1.00  0.00     0.031 C 
ATOM     20  C   UNL A   1      40.391  28.204  27.787  1.00  0.00     0.029 A 
ATOM     21  C   UNL A   1      41.308  28.066  28.910  1.00  0.00     0.049 A 
ATOM     22  H   UNL A   1      41.228  29.038  30.749  1.00  0.00     0.167 HD
ATOM     23  C   UNL A   1      40.559  30.986  34.686  1.00  0.00     0.037 A 
ATOM     24  C   UNL A   1      42.364  27.234  28.961  1.00  0.00     0.037 A 
ATOM     25  C   UNL A   1      41.498  29.931  34.926  1.00  0.00     0.049 A 
ATOM     26  C   UNL A   1      43.027  27.038  30.295  1.00  0.00     0.074 A 
ATOM     27  C   UNL A   1      42.092  29.546  36.110  1.00  0.00     0.029 A 
ATOM     28  N   UNL A   1      41.995  29.100  33.930  1.00  0.00    -0.354 N 
ATOM     29  N   UNL A   1      42.775  27.635  31.436  1.00  0.00    -0.248 NA
ATOM     30  C   UNL A   1      44.058  25.997  30.375  1.00  0.00     0.031 C 
ATOM     31  C   UNL A   1      42.980  28.502  35.823  1.00  0.00     0.029 A 
ATOM     32  C   UNL A   1      42.907  28.212  34.467  1.00  0.00     0.049 A 
ATOM     33  H   UNL A   1      41.736  29.137  32.981  1.00  0.00     0.167 HD
ATOM     34  C   UNL A   1      43.553  26.994  32.385  1.00  0.00     0.074 A 
ATOM     35  C   UNL A   1      44.310  25.977  31.677  1.00  0.00     0.031 C 
ATOM     36  C   UNL A   1      43.616  27.200  33.724  1.00  0.00     0.037 A 
BRANCH  23  37
ATOM     37  C   UNL A   1      40.075  31.858  35.804  1.00  0.00     0.064 A 
ATOM     38  C   UNL A   1      38.874  31.567  36.476  1.00  0.00     0.173 A 
ATOM     39  C   UNL A   1      40.748  33.038  36.140  1.00  0.00     0.173 A 
ATOM     40  F   UNL A   1      38.175  30.464  36.165  1.00  0.00    -0.203 F 
ATOM     41  C   UNL A   1      38.341  32.454  37.406  1.00  0.00     0.198 A 
ATOM     42  C   UNL A   1      40.224  33.909  37.092  1.00  0.00     0.198 A 
ATOM     43  F   UNL A   1      41.889  33.367  35.518  1.00  0.00    -0.203 F 
ATOM     44  F   UNL A   1      37.151  32.196  37.971  1.00  0.00    -0.200 F 
ATOM     45  C   UNL A   1      39.015  33.625  37.713  1.00  0.00     0.200 A 
ATOM     46  F   UNL A   1      40.872  35.044  37.387  1.00  0.00    -0.200 F 
ATOM     47  F   UNL A   1      38.489  34.492  38.589  1.00  0.00    -0.200 F 
ENDBRANCH  23  37
BRANCH  24  48
ATOM     48  C   UNL A   1      42.766  26.461  27.758  1.00  0.00     0.064 A 
ATOM     49  C   UNL A   1      42.189  25.220  27.457  1.00  0.00     0.173 A 
ATOM     50  C   UNL A   1      43.731  26.962  26.871  1.00  0.00     0.173 A 
ATOM     51  F   UNL A   1      41.264  24.696  28.275  1.00  0.00    -0.203 F 
ATOM     52  C   UNL A   1      42.577  24.498  26.329  1.00  0.00     0.198 A 
ATOM     53  C   UNL A   1      44.108  26.246  25.735  1.00  0.00     0.198 A 
ATOM     54  F   UNL A   1      44.305  28.150  27.107  1.00  0.00    -0.203 F 
ATOM     55  F   UNL A   1      42.031  23.300  26.083  1.00  0.00    -0.200 F 
ATOM     56  C   UNL A   1      43.536  25.012  25.468  1.00  0.00     0.200 A 
ATOM     57  F   UNL A   1      45.027  26.751  24.900  1.00  0.00    -0.200 F 
ATOM     58  F   UNL A   1      43.909  24.317  24.386  1.00  0.00    -0.200 F 
ENDBRANCH  24  48
BRANCH  36  59
ATOM     59  C   UNL A   1      44.474  26.259  34.510  1.00  0.00     0.064 A 
ATOM     60  C   UNL A   1      45.809  26.557  34.812  1.00  0.00     0.173 A 
ATOM     61  C   UNL A   1      43.931  25.062  35.001  1.00  0.00     0.173 A 
ATOM     62  F   UNL A   1      46.372  27.683  34.348  1.00  0.00    -0.203 F 
ATOM     63  C   UNL A   1      46.580  25.674  35.560  1.00  0.00     0.198 A 
ATOM     64  C   UNL A   1      44.697  24.196  35.773  1.00  0.00     0.198 A 
ATOM     65  F   UNL A   1      42.655  24.741  34.738  1.00  0.00    -0.203 F 
ATOM     66  F   UNL A   1      47.868  25.954  35.801  1.00  0.00    -0.200 F 
ATOM     67  C   UNL A   1      46.022  24.501  36.046  1.00  0.00     0.200 A 
ATOM     68  F   UNL A   1      44.153  23.069  36.251  1.00  0.00    -0.200 F 
ATOM     69  F   UNL A   1      46.766  23.656  36.774  1.00  0.00    -0.200 F 
ENDBRANCH  36  59
ENDBRANCH  10  11
ENDBRANCH   3   5
ENDBRANCH   2   3
ENDBRANCH   1   2
BRANCH   1  70
ATOM     70  C   UNL A   1      32.545  29.669  27.251  1.00  0.00     0.274 C 
BRANCH  70  71
ATOM     71  O   UNL A   1      31.703  29.008  26.273  1.00  0.00    -0.461 OA
BRANCH  71  72
ATOM     72  C   UNL A   1      32.173  28.927  24.986  1.00  0.00     0.317 C 
ATOM     73  O   UNL A   1      33.167  29.537  24.610  1.00  0.00    -0.251 OA
BRANCH  72  74
ATOM     74  C   UNL A   1      31.308  27.972  24.066  1.00  0.00     0.098 C 
ATOM     75  C   UNL A   1      30.912  26.773  24.974  1.00  0.00     0.024 C 
ATOM     76  C   UNL A   1      29.993  28.674  23.638  1.00  0.00    -0.027 A 
ATOM     77  C   UNL A   1      29.904  25.815  24.360  1.00  0.00     0.006 C 
ATOM     78  C   UNL A   1      28.800  27.943  23.446  1.00  0.00    -0.044 A 
ATOM     79  C   UNL A   1      29.939  30.060  23.419  1.00  0.00     0.005 A 
ATOM     80  C   UNL A   1      28.637  26.510  23.885  1.00  0.00     0.036 C 
ATOM     81  C   UNL A   1      27.656  28.578  22.920  1.00  0.00     0.004 A 
ATOM     82  C   UNL A   1      28.787  30.688  22.932  1.00  0.00     0.000 A 
ATOM     83  C   UNL A   1      27.653  29.940  22.649  1.00  0.00     0.000 A 
BRANCH  74  84
ATOM     84  C   UNL A   1      32.159  27.547  22.791  1.00  0.00     0.040 C 
ATOM     85  C   UNL A   1      31.472  26.767  21.642  1.00  0.00     0.008 C 
ATOM     86  C   UNL A   1      33.447  26.730  23.029  1.00  0.00     0.119 C 
ATOM     87  C   UNL A   1      32.083  25.366  21.579  1.00  0.00     0.003 C 
ATOM     88  C   UNL A   1      33.096  25.287  22.704  1.00  0.00     0.032 C 
BRANCH  86  89
ATOM     89  O   UNL A   1      33.987  26.815  24.328  1.00  0.00    -0.393 OA
ATOM     90  H   UNL A   1      34.949  26.700  24.287  1.00  0.00     0.210 HD
ENDBRANCH  86  89
ENDBRANCH  74  84
ENDBRANCH  72  74
ENDBRANCH  71  72
ENDBRANCH  70  71
ENDBRANCH   1  70
TORSDOF 13
ENDMDL
MODEL 3
REMARK VINA RESULT:     -12.3      0.947      2.233
REMARK SMILES O=C(OCCOC(=O)[C@@]1([C@@H]2CCC[C@@H]2O)CCCc2ccccc21)c1ccc(-c2c3nc(c(-c4c(F)c(F)c(F)c(F)c4F)c4ccc([nH]4)c(-c4c(F)c(F)c(F)c(F)c4F)c4nc(c(-c5c(F)c(F)c(F)c(F)c5F)c5ccc2[nH]5)C=C4)C=C3)cc1
REMARK SMILES IDX 4 1 3 2 2 3 1 4 25 5 26 6 87 7 27 8 86 9 28 10 29 11 30 12
REMARK SMILES IDX 80 13 31 14 85 15 79 16 81 17 32 18 84 19 78 20 77 21 33 23
REMARK SMILES IDX 65 24 45 25 64 26 46 27 49 28 63 29 82 30 47 31 48 32 62 34
REMARK SMILES IDX 83 35 50 36 34 37 35 38 43 39 36 40 37 41 41 42 44 43 38 44
REMARK SMILES IDX 39 45 42 46 40 47 66 48 67 49 75 50 68 51 69 52 73 53 76 54
REMARK SMILES IDX 70 55 71 56 74 57 72 58 51 59 52 60 60 61 53 62 54 63 58 64
REMARK SMILES IDX 61 65 55 66 56 67 59 68 57 69 5 70 6 71 7 72 8 73 9 74 16 75
REMARK SMILES IDX 24 76 17 77 19 78 23 79 18 80 20 81 22 82 21 83 10 84 11 85
REMARK SMILES IDX 14 86 12 87 13 88 15 89
REMARK H PARENT 81 22 49 33 15 90
REMARK Flexibility Score: inf
ROOT
ATOM      1  C   UNL A   1      32.432  31.199  27.251  1.00  0.00     0.275 C 
ENDROOT
BRANCH   1   2
ATOM      2  O   UNL A   1      33.716  31.796  27.047  1.00  0.00    -0.458 OA
BRANCH   2   3
ATOM      3  C   UNL A   1      34.071  32.690  28.001  1.00  0.00     0.338 C 
ATOM      4  O   UNL A   1      33.654  33.827  28.133  1.00  0.00    -0.246 OA
BRANCH   3   5
ATOM      5  C   UNL A   1      35.286  32.162  28.660  1.00  0.00     0.060 A 
ATOM      6  C   UNL A   1      35.297  30.911  29.285  1.00  0.00     0.016 A 
ATOM      7  C   UNL A   1      36.474  32.873  28.490  1.00  0.00     0.016 A 
ATOM      8  C   UNL A   1      36.500  30.372  29.724  1.00  0.00     0.010 A 
ATOM      9  C   UNL A   1      37.686  32.290  28.836  1.00  0.00     0.010 A 
ATOM     10  C   UNL A   1      37.700  31.055  29.497  1.00  0.00    -0.014 A 
BRANCH  10  11
ATOM     11  C   UNL A   1      38.944  30.540  30.103  1.00  0.00     0.031 A 
ATOM     12  C   UNL A   1      39.300  31.014  31.477  1.00  0.00     0.074 A 
ATOM     13  C   UNL A   1      39.689  29.615  29.471  1.00  0.00     0.049 A 
ATOM     14  N   UNL A   1      40.176  30.520  32.309  1.00  0.00    -0.248 NA
ATOM     15  C   UNL A   1      38.562  32.177  32.001  1.00  0.00     0.031 C 
ATOM     16  C   UNL A   1      39.430  29.100  28.130  1.00  0.00     0.029 A 
ATOM     17  N   UNL A   1      40.815  28.946  29.867  1.00  0.00    -0.354 N 
ATOM     18  C   UNL A   1      40.026  31.256  33.473  1.00  0.00     0.074 A 
ATOM     19  C   UNL A   1      39.097  32.323  33.200  1.00  0.00     0.031 C 
ATOM     20  C   UNL A   1      40.400  28.236  27.786  1.00  0.00     0.029 A 
ATOM     21  C   UNL A   1      41.314  28.096  28.911  1.00  0.00     0.049 A 
ATOM     22  H   UNL A   1      41.229  29.064  30.752  1.00  0.00     0.167 HD
ATOM     23  C   UNL A   1      40.549  31.000  34.693  1.00  0.00     0.037 A 
ATOM     24  C   UNL A   1      42.372  27.266  28.962  1.00  0.00     0.037 A 
ATOM     25  C   UNL A   1      41.489  29.946  34.932  1.00  0.00     0.049 A 
ATOM     26  C   UNL A   1      43.032  27.067  30.297  1.00  0.00     0.074 A 
ATOM     27  C   UNL A   1      42.082  29.559  36.116  1.00  0.00     0.029 A 
ATOM     28  N   UNL A   1      41.990  29.118  33.935  1.00  0.00    -0.354 N 
ATOM     29  N   UNL A   1      42.777  27.661  31.439  1.00  0.00    -0.248 NA
ATOM     30  C   UNL A   1      44.065  26.028  30.376  1.00  0.00     0.031 C 
ATOM     31  C   UNL A   1      42.972  28.517  35.828  1.00  0.00     0.029 A 
ATOM     32  C   UNL A   1      42.902  28.230  34.471  1.00  0.00     0.049 A 
ATOM     33  H   UNL A   1      41.732  29.157  32.985  1.00  0.00     0.167 HD
ATOM     34  C   UNL A   1      43.555  27.018  32.388  1.00  0.00     0.074 A 
ATOM     35  C   UNL A   1      44.315  26.005  31.678  1.00  0.00     0.031 C 
ATOM     36  C   UNL A   1      43.614  27.221  33.727  1.00  0.00     0.037 A 
BRANCH  23  37
ATOM     37  C   UNL A   1      40.061  31.867  35.812  1.00  0.00     0.064 A 
ATOM     38  C   UNL A   1      38.854  31.578  36.475  1.00  0.00     0.173 A 
ATOM     39  C   UNL A   1      40.736  33.043  36.159  1.00  0.00     0.173 A 
ATOM     40  F   UNL A   1      38.153  30.480  36.154  1.00  0.00    -0.203 F 
ATOM     41  C   UNL A   1      38.319  32.462  37.407  1.00  0.00     0.198 A 
ATOM     42  C   UNL A   1      40.210  33.911  37.112  1.00  0.00     0.198 A 
ATOM     43  F   UNL A   1      41.883  33.370  35.546  1.00  0.00    -0.203 F 
ATOM     44  F   UNL A   1      37.125  32.207  37.962  1.00  0.00    -0.200 F 
ATOM     45  C   UNL A   1      38.996  33.629  37.724  1.00  0.00     0.200 A 
ATOM     46  F   UNL A   1      40.861  35.042  37.417  1.00  0.00    -0.200 F 
ATOM     47  F   UNL A   1      38.468  34.494  38.601  1.00  0.00    -0.200 F 
ENDBRANCH  23  37
BRANCH  24  48
ATOM     48  C   UNL A   1      42.778  26.496  27.758  1.00  0.00     0.064 A 
ATOM     49  C   UNL A   1      43.758  26.973  26.878  1.00  0.00     0.173 A 
ATOM     50  C   UNL A   1      42.199  25.250  27.473  1.00  0.00     0.173 A 
ATOM     51  F   UNL A   1      44.339  28.161  27.105  1.00  0.00    -0.203 F 
ATOM     52  C   UNL A   1      44.128  26.246  25.747  1.00  0.00     0.198 A 
ATOM     53  C   UNL A   1      42.580  24.517  26.350  1.00  0.00     0.198 A 
ATOM     54  F   UNL A   1      41.264  24.743  28.290  1.00  0.00    -0.203 F 
ATOM     55  F   UNL A   1      45.046  26.742  24.906  1.00  0.00    -0.200 F 
ATOM     56  C   UNL A   1      43.539  25.018  25.484  1.00  0.00     0.200 A 
ATOM     57  F   UNL A   1      42.016  23.326  26.105  1.00  0.00    -0.200 F 
ATOM     58  F   UNL A   1      43.895  24.322  24.396  1.00  0.00    -0.200 F 
ENDBRANCH  24  48
BRANCH  36  59
ATOM     59  C   UNL A   1      44.473  26.280  34.513  1.00  0.00     0.064 A 
ATOM     60  C   UNL A   1      45.807  26.579  34.816  1.00  0.00     0.173 A 
ATOM     61  C   UNL A   1      43.930  25.082  35.001  1.00  0.00     0.173 A 
ATOM     62  F   UNL A   1      46.369  27.706  34.355  1.00  0.00    -0.203 F 
ATOM     63  C   UNL A   1      46.578  25.695  35.564  1.00  0.00     0.198 A 
ATOM     64  C   UNL A   1      44.695  24.215  35.772  1.00  0.00     0.198 A 
ATOM     65  F   UNL A   1      42.655  24.760  34.737  1.00  0.00    -0.203 F 
ATOM     66  F   UNL A   1      47.866  25.975  35.806  1.00  0.00    -0.200 F 
ATOM     67  C   UNL A   1      46.021  24.520  36.047  1.00  0.00     0.200 A 
ATOM     68  F   UNL A   1      44.153  23.087  36.248  1.00  0.00    -0.200 F 
ATOM     69  F   UNL A   1      46.764  23.675  36.774  1.00  0.00    -0.200 F 
ENDBRANCH  36  59
ENDBRANCH  10  11
ENDBRANCH   3   5
ENDBRANCH   2   3
ENDBRANCH   1   2
BRANCH   1  70
ATOM     70  C   UNL A   1      32.579  29.673  27.245  1.00  0.00     0.274 C 
BRANCH  70  71
ATOM     71  O   UNL A   1      31.731  29.003  26.278  1.00  0.00    -0.461 OA
BRANCH  71  72
ATOM     72  C   UNL A   1      32.184  28.926  24.985  1.00  0.00     0.317 C 
ATOM     73  O   UNL A   1      33.170  29.541  24.597  1.00  0.00    -0.251 OA
BRANCH  72  74
ATOM     74  C   UNL A   1      31.311  27.968  24.075  1.00  0.00     0.098 C 
ATOM     75  C   UNL A   1      30.917  26.775  24.992  1.00  0.00     0.024 C 
ATOM     76  C   UNL A   1      29.996  28.672  23.651  1.00  0.00    -0.027 A 
ATOM     77  C   UNL A   1      29.903  25.817  24.389  1.00  0.00     0.006 C 
ATOM     78  C   UNL A   1      28.800  27.943  23.470  1.00  0.00    -0.044 A 
ATOM     79  C   UNL A   1      29.944  30.056  23.424  1.00  0.00     0.005 A 
ATOM     80  C   UNL A   1      28.636  26.512  23.917  1.00  0.00     0.036 C 
ATOM     81  C   UNL A   1      27.654  28.578  22.947  1.00  0.00     0.004 A 
ATOM     82  C   UNL A   1      28.791  30.685  22.941  1.00  0.00     0.000 A 
ATOM     83  C   UNL A   1      27.653  29.939  22.668  1.00  0.00     0.000 A 
BRANCH  74  84
ATOM     84  C   UNL A   1      32.154  27.534  22.798  1.00  0.00     0.040 C 
ATOM     85  C   UNL A   1      31.460  26.747  21.658  1.00  0.00     0.008 C 
ATOM     86  C   UNL A   1      33.443  26.718  23.033  1.00  0.00     0.119 C 
ATOM     87  C   UNL A   1      32.069  25.345  21.601  1.00  0.00     0.003 C 
ATOM     88  C   UNL A   1      33.090  25.273  22.719  1.00  0.00     0.032 C 
BRANCH  86  89
ATOM     89  O   UNL A   1      33.991  26.812  24.328  1.00  0.00    -0.393 OA
ATOM     90  H   UNL A   1      34.953  26.696  24.281  1.00  0.00     0.210 HD
ENDBRANCH  86  89
ENDBRANCH  74  84
ENDBRANCH  72  74
ENDBRANCH  71  72
ENDBRANCH  70  71
ENDBRANCH   1  70
TORSDOF 13
ENDMDL
