MODEL 1
REMARK VINA RESULT:     -12.7      0.000      0.000
REMARK SMILES O=C(CN1C(=O)/C(=C\c2c(F)cccc2Cl)Oc2ccccc21)OCCOC(=O)c1ccc(-c2c3nc(c(-c4c(F)c(F)c(F)c(F)c4F)c4ccc([nH]4)c(-c4c(F)c(F)c(F)c(F)c4F)c4nc(c(-c5c(F)c(F)c(F)c(F)c5F)c5ccc2[nH]5)C=C4)C=C3)cc1
REMARK SMILES IDX 25 1 24 2 2 3 1 4 3 5 4 6 5 7 23 8 6 9 7 10 18 11 22 12 8 13
REMARK SMILES IDX 17 14 19 15 21 16 20 17 9 18 10 19 15 20 11 21 12 22 14 23
REMARK SMILES IDX 16 24 13 25 26 26 27 27 28 28 29 29 30 30 31 31 92 32 32 33
REMARK SMILES IDX 91 34 33 35 34 36 35 37 85 38 36 39 90 40 84 41 86 42 37 43
REMARK SMILES IDX 89 44 83 45 82 46 38 48 70 49 50 50 69 51 51 52 54 53 68 54
REMARK SMILES IDX 87 55 52 56 53 57 67 59 88 60 55 61 39 62 40 63 48 64 41 65
REMARK SMILES IDX 42 66 46 67 49 68 43 69 44 70 47 71 45 72 71 73 72 74 80 75
REMARK SMILES IDX 73 76 74 77 78 78 81 79 75 80 76 81 79 82 77 83 56 84 57 85
REMARK SMILES IDX 65 86 58 87 59 88 63 89 66 90 60 91 61 92 64 93 62 94
REMARK H PARENT 86 47 54 58
REMARK Flexibility Score: inf
ROOT
ATOM      1  C   UNL A   1      31.768  30.972  26.673  1.00  0.00     0.274 C 
ENDROOT
BRANCH   1   2
ATOM      2  O   UNL A   1      33.100  30.488  26.389  1.00  0.00    -0.461 OA
BRANCH   2   3
ATOM      3  C   UNL A   1      33.477  29.192  26.430  1.00  0.00     0.326 C 
ATOM      4  O   UNL A   1      33.818  28.691  27.503  1.00  0.00    -0.250 OA
BRANCH   3   5
ATOM      5  C   UNL A   1      33.409  28.310  25.185  1.00  0.00     0.248 C 
BRANCH   5   6
ATOM      6  N   UNL A   1      32.301  27.386  24.983  1.00  0.00    -0.291 N 
ATOM      7  C   UNL A   1      32.439  26.088  25.457  1.00  0.00     0.294 C 
ATOM      8  C   UNL A   1      31.117  27.814  24.333  1.00  0.00     0.088 A 
ATOM      9  O   UNL A   1      33.408  25.735  26.123  1.00  0.00    -0.265 OA
ATOM     10  C   UNL A   1      31.351  25.128  25.069  1.00  0.00     0.193 C 
ATOM     11  C   UNL A   1      30.076  26.902  24.154  1.00  0.00     0.151 A 
ATOM     12  C   UNL A   1      30.947  29.126  23.865  1.00  0.00     0.030 A 
ATOM     13  C   UNL A   1      31.527  23.795  25.112  1.00  0.00     0.065 C 
ATOM     14  O   UNL A   1      30.137  25.603  24.584  1.00  0.00    -0.449 OA
ATOM     15  C   UNL A   1      28.900  27.279  23.500  1.00  0.00     0.049 A 
ATOM     16  C   UNL A   1      29.774  29.503  23.207  1.00  0.00     0.002 A 
ATOM     17  C   UNL A   1      28.752  28.578  23.020  1.00  0.00     0.004 A 
BRANCH  13  18
ATOM     18  C   UNL A   1      32.775  23.079  25.422  1.00  0.00     0.033 A 
ATOM     19  C   UNL A   1      33.045  22.664  26.731  1.00  0.00     0.132 A 
ATOM     20  C   UNL A   1      33.737  22.809  24.435  1.00  0.00     0.051 A 
ATOM     21  F   UNL A   1      32.155  22.897  27.709  1.00  0.00    -0.206 F 
ATOM     22  C   UNL A   1      34.234  22.010  27.059  1.00  0.00     0.040 A 
ATOM     23  C   UNL A   1      34.927  22.144  24.754  1.00  0.00     0.021 A 
ATOM     24  Cl  UNL A   1      33.502  23.280  22.785  1.00  0.00    -0.084 Cl
ATOM     25  C   UNL A   1      35.177  21.747  26.068  1.00  0.00     0.005 A 
ENDBRANCH  13  18
ENDBRANCH   5   6
ENDBRANCH   3   5
ENDBRANCH   2   3
ENDBRANCH   1   2
BRANCH   1  26
ATOM     26  C   UNL A   1      31.736  32.485  26.876  1.00  0.00     0.275 C 
BRANCH  26  27
ATOM     27  O   UNL A   1      33.088  32.964  26.942  1.00  0.00    -0.458 OA
BRANCH  27  28
ATOM     28  C   UNL A   1      33.400  33.786  27.969  1.00  0.00     0.338 C 
ATOM     29  O   UNL A   1      32.764  34.741  28.375  1.00  0.00    -0.246 OA
BRANCH  28  30
ATOM     30  C   UNL A   1      34.567  33.200  28.658  1.00  0.00     0.060 A 
ATOM     31  C   UNL A   1      35.816  33.828  28.615  1.00  0.00     0.016 A 
ATOM     32  C   UNL A   1      34.417  31.953  29.275  1.00  0.00     0.016 A 
ATOM     33  C   UNL A   1      36.924  33.195  29.172  1.00  0.00     0.010 A 
ATOM     34  C   UNL A   1      35.531  31.313  29.819  1.00  0.00     0.010 A 
ATOM     35  C   UNL A   1      36.789  31.933  29.769  1.00  0.00    -0.014 A 
BRANCH  35  36
ATOM     36  C   UNL A   1      37.948  31.329  30.458  1.00  0.00     0.031 A 
ATOM     37  C   UNL A   1      38.268  31.642  31.885  1.00  0.00     0.074 A 
ATOM     38  C   UNL A   1      38.698  30.454  29.767  1.00  0.00     0.049 A 
ATOM     39  N   UNL A   1      39.204  31.130  32.646  1.00  0.00    -0.248 NA
ATOM     40  C   UNL A   1      37.437  32.657  32.544  1.00  0.00     0.031 C 
ATOM     41  C   UNL A   1      38.459  30.070  28.375  1.00  0.00     0.029 A 
ATOM     42  N   UNL A   1      39.793  29.722  30.139  1.00  0.00    -0.354 N 
ATOM     43  C   UNL A   1      39.061  31.740  33.883  1.00  0.00     0.074 A 
ATOM     44  C   UNL A   1      37.977  32.696  33.756  1.00  0.00     0.031 C 
ATOM     45  C   UNL A   1      39.373  29.158  28.014  1.00  0.00     0.029 A 
ATOM     46  C   UNL A   1      40.263  28.906  29.143  1.00  0.00     0.049 A 
ATOM     47  H   UNL A   1      40.203  29.777  31.032  1.00  0.00     0.167 HD
ATOM     48  C   UNL A   1      39.760  31.502  35.020  1.00  0.00     0.037 A 
ATOM     49  C   UNL A   1      41.292  28.040  29.143  1.00  0.00     0.037 A 
ATOM     50  C   UNL A   1      40.848  30.562  35.130  1.00  0.00     0.049 A 
ATOM     51  C   UNL A   1      42.095  27.850  30.394  1.00  0.00     0.074 A 
ATOM     52  C   UNL A   1      41.596  30.231  36.248  1.00  0.00     0.029 A 
ATOM     53  N   UNL A   1      41.351  29.806  34.079  1.00  0.00    -0.354 N 
ATOM     54  N   UNL A   1      41.929  28.401  31.571  1.00  0.00    -0.248 NA
ATOM     55  C   UNL A   1      43.223  26.913  30.317  1.00  0.00     0.031 C 
ATOM     56  C   UNL A   1      42.579  29.310  35.864  1.00  0.00     0.029 A 
ATOM     57  C   UNL A   1      42.417  29.032  34.517  1.00  0.00     0.049 A 
ATOM     58  H   UNL A   1      41.003  29.817  33.159  1.00  0.00     0.167 HD
ATOM     59  C   UNL A   1      42.921  27.870  32.382  1.00  0.00     0.074 A 
ATOM     60  C   UNL A   1      43.675  26.942  31.563  1.00  0.00     0.031 C 
ATOM     61  C   UNL A   1      43.177  28.130  33.688  1.00  0.00     0.037 A 
BRANCH  48  62
ATOM     62  C   UNL A   1      39.368  32.271  36.247  1.00  0.00     0.064 A 
ATOM     63  C   UNL A   1      39.943  33.517  36.539  1.00  0.00     0.173 A 
ATOM     64  C   UNL A   1      38.367  31.792  37.104  1.00  0.00     0.173 A 
ATOM     65  F   UNL A   1      40.903  34.020  35.750  1.00  0.00    -0.203 F 
ATOM     66  C   UNL A   1      39.543  34.246  37.657  1.00  0.00     0.198 A 
ATOM     67  C   UNL A   1      37.954  32.534  38.209  1.00  0.00     0.198 A 
ATOM     68  F   UNL A   1      37.777  30.611  36.864  1.00  0.00    -0.203 F 
ATOM     69  F   UNL A   1      40.126  35.421  37.933  1.00  0.00    -0.200 F 
ATOM     70  C   UNL A   1      38.545  33.757  38.487  1.00  0.00     0.200 A 
ATOM     71  F   UNL A   1      36.980  32.067  39.003  1.00  0.00    -0.200 F 
ATOM     72  F   UNL A   1      38.155  34.464  39.556  1.00  0.00    -0.200 F 
ENDBRANCH  48  62
BRANCH  49  73
ATOM     73  C   UNL A   1      41.563  27.254  27.918  1.00  0.00     0.064 A 
ATOM     74  C   UNL A   1      42.445  27.738  26.944  1.00  0.00     0.173 A 
ATOM     75  C   UNL A   1      41.016  25.976  27.737  1.00  0.00     0.173 A 
ATOM     76  F   UNL A   1      42.980  28.961  27.075  1.00  0.00    -0.203 F 
ATOM     77  C   UNL A   1      42.775  26.968  25.833  1.00  0.00     0.198 A 
ATOM     78  C   UNL A   1      41.363  25.199  26.635  1.00  0.00     0.198 A 
ATOM     79  F   UNL A   1      40.174  25.471  28.651  1.00  0.00    -0.203 F 
ATOM     80  F   UNL A   1      43.616  27.455  24.910  1.00  0.00    -0.200 F 
ATOM     81  C   UNL A   1      42.242  25.696  25.685  1.00  0.00     0.200 A 
ATOM     82  F   UNL A   1      40.857  23.965  26.502  1.00  0.00    -0.200 F 
ATOM     83  F   UNL A   1      42.579  24.946  24.626  1.00  0.00    -0.200 F 
ENDBRANCH  49  73
BRANCH  61  84
ATOM     84  C   UNL A   1      44.330  27.399  34.311  1.00  0.00     0.064 A 
ATOM     85  C   UNL A   1      45.612  27.968  34.364  1.00  0.00     0.173 A 
ATOM     86  C   UNL A   1      44.150  26.129  34.877  1.00  0.00     0.173 A 
ATOM     87  F   UNL A   1      45.838  29.173  33.819  1.00  0.00    -0.203 F 
ATOM     88  C   UNL A   1      46.675  27.281  34.944  1.00  0.00     0.198 A 
ATOM     89  C   UNL A   1      45.210  25.456  35.478  1.00  0.00     0.198 A 
ATOM     90  F   UNL A   1      42.943  25.542  34.853  1.00  0.00    -0.203 F 
ATOM     91  F   UNL A   1      47.900  27.825  34.945  1.00  0.00    -0.200 F 
ATOM     92  C   UNL A   1      46.473  26.029  35.505  1.00  0.00     0.200 A 
ATOM     93  F   UNL A   1      45.012  24.249  36.027  1.00  0.00    -0.200 F 
ATOM     94  F   UNL A   1      47.497  25.371  36.063  1.00  0.00    -0.200 F 
ENDBRANCH  61  84
ENDBRANCH  35  36
ENDBRANCH  28  30
ENDBRANCH  27  28
ENDBRANCH  26  27
ENDBRANCH   1  26
TORSDOF 13
ENDMDL
MODEL 2
REMARK VINA RESULT:     -12.7      4.836     10.171
REMARK SMILES O=C(CN1C(=O)/C(=C\c2c(F)cccc2Cl)Oc2ccccc21)OCCOC(=O)c1ccc(-c2c3nc(c(-c4c(F)c(F)c(F)c(F)c4F)c4ccc([nH]4)c(-c4c(F)c(F)c(F)c(F)c4F)c4nc(c(-c5c(F)c(F)c(F)c(F)c5F)c5ccc2[nH]5)C=C4)C=C3)cc1
REMARK SMILES IDX 25 1 24 2 2 3 1 4 3 5 4 6 5 7 23 8 6 9 7 10 18 11 22 12 8 13
REMARK SMILES IDX 17 14 19 15 21 16 20 17 9 18 10 19 15 20 11 21 12 22 14 23
REMARK SMILES IDX 16 24 13 25 26 26 27 27 28 28 29 29 30 30 31 31 92 32 32 33
REMARK SMILES IDX 91 34 33 35 34 36 35 37 85 38 36 39 90 40 84 41 86 42 37 43
REMARK SMILES IDX 89 44 83 45 82 46 38 48 70 49 50 50 69 51 51 52 54 53 68 54
REMARK SMILES IDX 87 55 52 56 53 57 67 59 88 60 55 61 39 62 40 63 48 64 41 65
REMARK SMILES IDX 42 66 46 67 49 68 43 69 44 70 47 71 45 72 71 73 72 74 80 75
REMARK SMILES IDX 73 76 74 77 78 78 81 79 75 80 76 81 79 82 77 83 56 84 57 85
REMARK SMILES IDX 65 86 58 87 59 88 63 89 66 90 60 91 61 92 64 93 62 94
REMARK H PARENT 86 47 54 58
REMARK Flexibility Score: inf
ROOT
ATOM      1  C   UNL A   1      38.155  20.834  25.042  1.00  0.00     0.274 C 
ENDROOT
BRANCH   1   2
ATOM      2  O   UNL A   1      37.759  21.857  25.983  1.00  0.00    -0.461 OA
BRANCH   2   3
ATOM      3  C   UNL A   1      37.223  23.050  25.648  1.00  0.00     0.326 C 
ATOM      4  O   UNL A   1      37.711  24.087  26.100  1.00  0.00    -0.250 OA
BRANCH   3   5
ATOM      5  C   UNL A   1      36.070  23.145  24.650  1.00  0.00     0.248 C 
BRANCH   5   6
ATOM      6  N   UNL A   1      34.687  23.030  25.091  1.00  0.00    -0.291 N 
ATOM      7  C   UNL A   1      34.121  21.763  25.141  1.00  0.00     0.294 C 
ATOM      8  C   UNL A   1      33.955  24.183  25.470  1.00  0.00     0.088 A 
ATOM      9  O   UNL A   1      34.776  20.747  24.929  1.00  0.00    -0.265 OA
ATOM     10  C   UNL A   1      32.648  21.713  25.429  1.00  0.00     0.193 C 
ATOM     11  C   UNL A   1      32.631  24.036  25.887  1.00  0.00     0.151 A 
ATOM     12  C   UNL A   1      34.512  25.471  25.448  1.00  0.00     0.030 A 
ATOM     13  C   UNL A   1      31.900  20.634  25.133  1.00  0.00     0.065 C 
ATOM     14  O   UNL A   1      31.998  22.824  25.955  1.00  0.00    -0.449 OA
ATOM     15  C   UNL A   1      31.868  25.150  26.249  1.00  0.00     0.049 A 
ATOM     16  C   UNL A   1      33.750  26.585  25.806  1.00  0.00     0.002 A 
ATOM     17  C   UNL A   1      32.426  26.426  26.201  1.00  0.00     0.004 A 
BRANCH  13  18
ATOM     18  C   UNL A   1      32.339  19.425  24.418  1.00  0.00     0.033 A 
ATOM     19  C   UNL A   1      32.756  18.295  25.131  1.00  0.00     0.132 A 
ATOM     20  C   UNL A   1      32.375  19.368  23.015  1.00  0.00     0.051 A 
ATOM     21  F   UNL A   1      32.737  18.300  26.473  1.00  0.00    -0.206 F 
ATOM     22  C   UNL A   1      33.206  17.146  24.479  1.00  0.00     0.040 A 
ATOM     23  C   UNL A   1      32.815  18.215  22.354  1.00  0.00     0.021 A 
ATOM     24  Cl  UNL A   1      31.882  20.711  22.039  1.00  0.00    -0.084 Cl
ATOM     25  C   UNL A   1      33.234  17.104  23.087  1.00  0.00     0.005 A 
ENDBRANCH  13  18
ENDBRANCH   5   6
ENDBRANCH   3   5
ENDBRANCH   2   3
ENDBRANCH   1   2
BRANCH   1  26
ATOM     26  C   UNL A   1      39.083  19.799  25.673  1.00  0.00     0.275 C 
BRANCH  26  27
ATOM     27  O   UNL A   1      40.362  20.412  25.898  1.00  0.00    -0.458 OA
BRANCH  27  28
ATOM     28  C   UNL A   1      40.781  20.507  27.180  1.00  0.00     0.338 C 
ATOM     29  O   UNL A   1      40.889  19.608  27.993  1.00  0.00    -0.246 OA
BRANCH  28  30
ATOM     30  C   UNL A   1      41.284  21.880  27.374  1.00  0.00     0.060 A 
ATOM     31  C   UNL A   1      42.027  22.220  28.510  1.00  0.00     0.016 A 
ATOM     32  C   UNL A   1      40.919  22.860  26.443  1.00  0.00     0.016 A 
ATOM     33  C   UNL A   1      42.386  23.547  28.726  1.00  0.00     0.010 A 
ATOM     34  C   UNL A   1      41.268  24.191  26.668  1.00  0.00     0.010 A 
ATOM     35  C   UNL A   1      42.003  24.540  27.812  1.00  0.00    -0.014 A 
BRANCH  35  36
ATOM     36  C   UNL A   1      42.493  25.922  27.994  1.00  0.00     0.031 A 
ATOM     37  C   UNL A   1      43.812  26.369  27.449  1.00  0.00     0.074 A 
ATOM     38  C   UNL A   1      41.695  26.785  28.644  1.00  0.00     0.049 A 
ATOM     39  N   UNL A   1      44.339  27.569  27.460  1.00  0.00    -0.248 NA
ATOM     40  C   UNL A   1      44.648  25.345  26.809  1.00  0.00     0.031 C 
ATOM     41  C   UNL A   1      40.384  26.450  29.199  1.00  0.00     0.029 A 
ATOM     42  N   UNL A   1      41.858  28.114  28.931  1.00  0.00    -0.354 N 
ATOM     43  C   UNL A   1      45.557  27.453  26.810  1.00  0.00     0.074 A 
ATOM     44  C   UNL A   1      45.713  26.055  26.457  1.00  0.00     0.031 C 
ATOM     45  C   UNL A   1      39.852  27.552  29.749  1.00  0.00     0.029 A 
ATOM     46  C   UNL A   1      40.789  28.660  29.593  1.00  0.00     0.049 A 
ATOM     47  H   UNL A   1      42.664  28.625  28.689  1.00  0.00     0.167 HD
ATOM     48  C   UNL A   1      46.449  28.433  26.519  1.00  0.00     0.037 A 
ATOM     49  C   UNL A   1      40.581  29.919  30.016  1.00  0.00     0.037 A 
ATOM     50  C   UNL A   1      46.292  29.818  26.890  1.00  0.00     0.049 A 
ATOM     51  C   UNL A   1      41.616  30.968  29.744  1.00  0.00     0.074 A 
ATOM     52  C   UNL A   1      47.127  30.887  26.613  1.00  0.00     0.029 A 
ATOM     53  N   UNL A   1      45.231  30.325  27.629  1.00  0.00    -0.354 N 
ATOM     54  N   UNL A   1      42.748  30.860  29.094  1.00  0.00    -0.248 NA
ATOM     55  C   UNL A   1      41.341  32.315  30.261  1.00  0.00     0.031 C 
ATOM     56  C   UNL A   1      46.595  32.031  27.221  1.00  0.00     0.029 A 
ATOM     57  C   UNL A   1      45.406  31.685  27.841  1.00  0.00     0.049 A 
ATOM     58  H   UNL A   1      44.467  29.797  27.955  1.00  0.00     0.167 HD
ATOM     59  C   UNL A   1      43.317  32.124  29.108  1.00  0.00     0.074 A 
ATOM     60  C   UNL A   1      42.396  32.987  29.822  1.00  0.00     0.031 C 
ATOM     61  C   UNL A   1      44.496  32.530  28.574  1.00  0.00     0.037 A 
BRANCH  48  62
ATOM     62  C   UNL A   1      47.679  28.044  25.753  1.00  0.00     0.064 A 
ATOM     63  C   UNL A   1      48.897  27.803  26.407  1.00  0.00     0.173 A 
ATOM     64  C   UNL A   1      47.629  27.850  24.365  1.00  0.00     0.173 A 
ATOM     65  F   UNL A   1      48.996  27.974  27.733  1.00  0.00    -0.203 F 
ATOM     66  C   UNL A   1      50.024  27.401  25.696  1.00  0.00     0.198 A 
ATOM     67  C   UNL A   1      48.753  27.426  23.660  1.00  0.00     0.198 A 
ATOM     68  F   UNL A   1      46.486  28.056  23.693  1.00  0.00    -0.203 F 
ATOM     69  F   UNL A   1      51.185  27.204  26.336  1.00  0.00    -0.200 F 
ATOM     70  C   UNL A   1      49.950  27.207  24.325  1.00  0.00     0.200 A 
ATOM     71  F   UNL A   1      48.677  27.225  22.337  1.00  0.00    -0.200 F 
ATOM     72  F   UNL A   1      51.033  26.810  23.643  1.00  0.00    -0.200 F 
ENDBRANCH  48  62
BRANCH  49  73
ATOM     73  C   UNL A   1      39.303  30.244  30.689  1.00  0.00     0.064 A 
ATOM     74  C   UNL A   1      39.176  30.107  32.076  1.00  0.00     0.173 A 
ATOM     75  C   UNL A   1      38.218  30.773  29.975  1.00  0.00     0.173 A 
ATOM     76  F   UNL A   1      40.186  29.593  32.793  1.00  0.00    -0.203 F 
ATOM     77  C   UNL A   1      38.008  30.494  32.728  1.00  0.00     0.198 A 
ATOM     78  C   UNL A   1      37.059  31.178  30.632  1.00  0.00     0.198 A 
ATOM     79  F   UNL A   1      38.302  30.930  28.645  1.00  0.00    -0.203 F 
ATOM     80  F   UNL A   1      37.907  30.347  34.056  1.00  0.00    -0.200 F 
ATOM     81  C   UNL A   1      36.956  31.038  32.007  1.00  0.00     0.200 A 
ATOM     82  F   UNL A   1      36.050  31.717  29.933  1.00  0.00    -0.200 F 
ATOM     83  F   UNL A   1      35.842  31.432  32.640  1.00  0.00    -0.200 F 
ENDBRANCH  49  73
BRANCH  61  84
ATOM     84  C   UNL A   1      44.858  33.975  28.748  1.00  0.00     0.064 A 
ATOM     85  C   UNL A   1      45.627  34.409  29.839  1.00  0.00     0.173 A 
ATOM     86  C   UNL A   1      44.450  34.932  27.808  1.00  0.00     0.173 A 
ATOM     87  F   UNL A   1      46.025  33.533  30.775  1.00  0.00    -0.203 F 
ATOM     88  C   UNL A   1      45.957  35.753  29.992  1.00  0.00     0.198 A 
ATOM     89  C   UNL A   1      44.803  36.272  27.951  1.00  0.00     0.198 A 
ATOM     90  F   UNL A   1      43.714  34.569  26.747  1.00  0.00    -0.203 F 
ATOM     91  F   UNL A   1      46.655  36.151  31.064  1.00  0.00    -0.200 F 
ATOM     92  C   UNL A   1      45.550  36.682  29.046  1.00  0.00     0.200 A 
ATOM     93  F   UNL A   1      44.416  37.168  27.033  1.00  0.00    -0.200 F 
ATOM     94  F   UNL A   1      45.869  37.974  29.194  1.00  0.00    -0.200 F 
ENDBRANCH  61  84
ENDBRANCH  35  36
ENDBRANCH  28  30
ENDBRANCH  27  28
ENDBRANCH  26  27
ENDBRANCH   1  26
TORSDOF 13
ENDMDL
MODEL 3
REMARK VINA RESULT:     -12.7      1.494      3.441
REMARK SMILES O=C(CN1C(=O)/C(=C\c2c(F)cccc2Cl)Oc2ccccc21)OCCOC(=O)c1ccc(-c2c3nc(c(-c4c(F)c(F)c(F)c(F)c4F)c4ccc([nH]4)c(-c4c(F)c(F)c(F)c(F)c4F)c4nc(c(-c5c(F)c(F)c(F)c(F)c5F)c5ccc2[nH]5)C=C4)C=C3)cc1
REMARK SMILES IDX 25 1 24 2 2 3 1 4 3 5 4 6 5 7 23 8 6 9 7 10 18 11 22 12 8 13
REMARK SMILES IDX 17 14 19 15 21 16 20 17 9 18 10 19 15 20 11 21 12 22 14 23
REMARK SMILES IDX 16 24 13 25 26 26 27 27 28 28 29 29 30 30 31 31 92 32 32 33
REMARK SMILES IDX 91 34 33 35 34 36 35 37 85 38 36 39 90 40 84 41 86 42 37 43
REMARK SMILES IDX 89 44 83 45 82 46 38 48 70 49 50 50 69 51 51 52 54 53 68 54
REMARK SMILES IDX 87 55 52 56 53 57 67 59 88 60 55 61 39 62 40 63 48 64 41 65
REMARK SMILES IDX 42 66 46 67 49 68 43 69 44 70 47 71 45 72 71 73 72 74 80 75
REMARK SMILES IDX 73 76 74 77 78 78 81 79 75 80 76 81 79 82 77 83 56 84 57 85
REMARK SMILES IDX 65 86 58 87 59 88 63 89 66 90 60 91 61 92 64 93 62 94
REMARK H PARENT 86 47 54 58
REMARK Flexibility Score: inf
ROOT
ATOM      1  C   UNL A   1      31.851  30.986  26.944  1.00  0.00     0.274 C 
ENDROOT
BRANCH   1   2
ATOM      2  O   UNL A   1      33.120  30.460  26.493  1.00  0.00    -0.461 OA
BRANCH   2   3
ATOM      3  C   UNL A   1      33.597  29.232  26.788  1.00  0.00     0.326 C 
ATOM      4  O   UNL A   1      34.696  29.121  27.335  1.00  0.00    -0.250 OA
BRANCH   3   5
ATOM      5  C   UNL A   1      32.763  27.978  26.533  1.00  0.00     0.248 C 
BRANCH   5   6
ATOM      6  N   UNL A   1      32.666  27.403  25.198  1.00  0.00    -0.291 N 
ATOM      7  C   UNL A   1      31.820  28.016  24.283  1.00  0.00     0.294 C 
ATOM      8  C   UNL A   1      33.429  26.261  24.850  1.00  0.00     0.088 A 
ATOM      9  O   UNL A   1      31.244  29.071  24.532  1.00  0.00    -0.265 OA
ATOM     10  C   UNL A   1      31.619  27.287  22.986  1.00  0.00     0.193 C 
ATOM     11  C   UNL A   1      33.311  25.735  23.563  1.00  0.00     0.151 A 
ATOM     12  C   UNL A   1      34.306  25.638  25.751  1.00  0.00     0.030 A 
ATOM     13  C   UNL A   1      30.566  27.536  22.185  1.00  0.00     0.065 C 
ATOM     14  O   UNL A   1      32.492  26.274  22.607  1.00  0.00    -0.449 OA
ATOM     15  C   UNL A   1      34.030  24.597  23.187  1.00  0.00     0.049 A 
ATOM     16  C   UNL A   1      35.022  24.498  25.378  1.00  0.00     0.002 A 
ATOM     17  C   UNL A   1      34.881  23.974  24.098  1.00  0.00     0.004 A 
BRANCH  13  18
ATOM     18  C   UNL A   1      29.433  28.432  22.468  1.00  0.00     0.033 A 
ATOM     19  C   UNL A   1      29.435  29.747  21.991  1.00  0.00     0.132 A 
ATOM     20  C   UNL A   1      28.333  28.012  23.235  1.00  0.00     0.051 A 
ATOM     21  F   UNL A   1      30.463  30.193  21.251  1.00  0.00    -0.206 F 
ATOM     22  C   UNL A   1      28.389  30.627  22.270  1.00  0.00     0.040 A 
ATOM     23  C   UNL A   1      27.275  28.886  23.510  1.00  0.00     0.021 A 
ATOM     24  Cl  UNL A   1      28.232  26.406  23.875  1.00  0.00    -0.084 Cl
ATOM     25  C   UNL A   1      27.304  30.196  23.030  1.00  0.00     0.005 A 
ENDBRANCH  13  18
ENDBRANCH   5   6
ENDBRANCH   3   5
ENDBRANCH   2   3
ENDBRANCH   1   2
BRANCH   1  26
ATOM     26  C   UNL A   1      31.791  32.508  26.848  1.00  0.00     0.275 C 
BRANCH  26  27
ATOM     27  O   UNL A   1      33.129  33.022  26.938  1.00  0.00    -0.458 OA
BRANCH  27  28
ATOM     28  C   UNL A   1      33.412  33.815  27.997  1.00  0.00     0.338 C 
ATOM     29  O   UNL A   1      32.752  34.742  28.427  1.00  0.00    -0.246 OA
BRANCH  28  30
ATOM     30  C   UNL A   1      34.582  33.229  28.679  1.00  0.00     0.060 A 
ATOM     31  C   UNL A   1      35.857  33.783  28.524  1.00  0.00     0.016 A 
ATOM     32  C   UNL A   1      34.403  32.048  29.409  1.00  0.00     0.016 A 
ATOM     33  C   UNL A   1      36.959  33.141  29.081  1.00  0.00     0.010 A 
ATOM     34  C   UNL A   1      35.511  31.398  29.955  1.00  0.00     0.010 A 
ATOM     35  C   UNL A   1      36.793  31.944  29.792  1.00  0.00    -0.014 A 
BRANCH  35  36
ATOM     36  C   UNL A   1      37.955  31.340  30.477  1.00  0.00     0.031 A 
ATOM     37  C   UNL A   1      38.282  31.654  31.902  1.00  0.00     0.074 A 
ATOM     38  C   UNL A   1      38.701  30.463  29.784  1.00  0.00     0.049 A 
ATOM     39  N   UNL A   1      39.220  31.143  32.659  1.00  0.00    -0.248 NA
ATOM     40  C   UNL A   1      37.454  32.671  32.564  1.00  0.00     0.031 C 
ATOM     41  C   UNL A   1      38.455  30.077  28.394  1.00  0.00     0.029 A 
ATOM     42  N   UNL A   1      39.797  29.730  30.152  1.00  0.00    -0.354 N 
ATOM     43  C   UNL A   1      39.084  31.754  33.896  1.00  0.00     0.074 A 
ATOM     44  C   UNL A   1      38.001  32.711  33.773  1.00  0.00     0.031 C 
ATOM     45  C   UNL A   1      39.367  29.164  28.030  1.00  0.00     0.029 A 
ATOM     46  C   UNL A   1      40.262  28.912  29.155  1.00  0.00     0.049 A 
ATOM     47  H   UNL A   1      40.211  29.787  31.043  1.00  0.00     0.167 HD
ATOM     48  C   UNL A   1      39.788  31.518  35.030  1.00  0.00     0.037 A 
ATOM     49  C   UNL A   1      41.289  28.045  29.152  1.00  0.00     0.037 A 
ATOM     50  C   UNL A   1      40.876  30.576  35.137  1.00  0.00     0.049 A 
ATOM     51  C   UNL A   1      42.098  27.856  30.399  1.00  0.00     0.074 A 
ATOM     52  C   UNL A   1      41.629  30.247  36.252  1.00  0.00     0.029 A 
ATOM     53  N   UNL A   1      41.373  29.818  34.085  1.00  0.00    -0.354 N 
ATOM     54  N   UNL A   1      41.938  28.409  31.576  1.00  0.00    -0.248 NA
ATOM     55  C   UNL A   1      43.225  26.919  30.319  1.00  0.00     0.031 C 
ATOM     56  C   UNL A   1      42.608  29.324  35.865  1.00  0.00     0.029 A 
ATOM     57  C   UNL A   1      42.440  29.044  34.519  1.00  0.00     0.049 A 
ATOM     58  H   UNL A   1      41.021  29.828  33.166  1.00  0.00     0.167 HD
ATOM     59  C   UNL A   1      42.933  27.879  32.384  1.00  0.00     0.074 A 
ATOM     60  C   UNL A   1      43.683  26.949  31.563  1.00  0.00     0.031 C 
ATOM     61  C   UNL A   1      43.196  28.140  33.688  1.00  0.00     0.037 A 
BRANCH  48  62
ATOM     62  C   UNL A   1      39.402  32.289  36.258  1.00  0.00     0.064 A 
ATOM     63  C   UNL A   1      39.998  33.523  36.559  1.00  0.00     0.173 A 
ATOM     64  C   UNL A   1      38.388  31.825  37.107  1.00  0.00     0.173 A 
ATOM     65  F   UNL A   1      40.972  34.011  35.777  1.00  0.00    -0.203 F 
ATOM     66  C   UNL A   1      39.604  34.255  37.677  1.00  0.00     0.198 A 
ATOM     67  C   UNL A   1      37.981  32.570  38.212  1.00  0.00     0.198 A 
ATOM     68  F   UNL A   1      37.778  30.656  36.858  1.00  0.00    -0.203 F 
ATOM     69  F   UNL A   1      40.207  35.418  37.962  1.00  0.00    -0.200 F 
ATOM     70  C   UNL A   1      38.593  33.781  38.499  1.00  0.00     0.200 A 
ATOM     71  F   UNL A   1      36.994  32.118  38.998  1.00  0.00    -0.200 F 
ATOM     72  F   UNL A   1      38.208  34.490  39.568  1.00  0.00    -0.200 F 
ENDBRANCH  48  62
BRANCH  49  73
ATOM     73  C   UNL A   1      41.554  27.257  27.927  1.00  0.00     0.064 A 
ATOM     74  C   UNL A   1      42.399  27.759  26.929  1.00  0.00     0.173 A 
ATOM     75  C   UNL A   1      41.040  25.962  27.769  1.00  0.00     0.173 A 
ATOM     76  F   UNL A   1      42.901  28.997  27.037  1.00  0.00    -0.203 F 
ATOM     77  C   UNL A   1      42.725  26.989  25.816  1.00  0.00     0.198 A 
ATOM     78  C   UNL A   1      41.383  25.187  26.665  1.00  0.00     0.198 A 
ATOM     79  F   UNL A   1      40.235  25.441  28.707  1.00  0.00    -0.203 F 
ATOM     80  F   UNL A   1      43.529  27.492  24.870  1.00  0.00    -0.200 F 
ATOM     81  C   UNL A   1      42.225  25.700  25.690  1.00  0.00     0.200 A 
ATOM     82  F   UNL A   1      40.911  23.938  26.554  1.00  0.00    -0.200 F 
ATOM     83  F   UNL A   1      42.559  24.952  24.630  1.00  0.00    -0.200 F 
ENDBRANCH  49  73
BRANCH  61  84
ATOM     84  C   UNL A   1      44.351  27.409  34.307  1.00  0.00     0.064 A 
ATOM     85  C   UNL A   1      44.191  26.131  34.864  1.00  0.00     0.173 A 
ATOM     86  C   UNL A   1      45.631  27.981  34.327  1.00  0.00     0.173 A 
ATOM     87  F   UNL A   1      42.982  25.550  34.885  1.00  0.00    -0.203 F 
ATOM     88  C   UNL A   1      45.269  25.461  35.437  1.00  0.00     0.198 A 
ATOM     89  C   UNL A   1      46.711  27.298  34.879  1.00  0.00     0.198 A 
ATOM     90  F   UNL A   1      45.836  29.201  33.807  1.00  0.00    -0.203 F 
ATOM     91  F   UNL A   1      45.085  24.260  36.002  1.00  0.00    -0.200 F 
ATOM     92  C   UNL A   1      46.529  26.042  35.439  1.00  0.00     0.200 A 
ATOM     93  F   UNL A   1      47.929  27.857  34.874  1.00  0.00    -0.200 F 
ATOM     94  F   UNL A   1      47.565  25.396  35.990  1.00  0.00    -0.200 F 
ENDBRANCH  61  84
ENDBRANCH  35  36
ENDBRANCH  28  30
ENDBRANCH  27  28
ENDBRANCH  26  27
ENDBRANCH   1  26
TORSDOF 13
ENDMDL
