MODEL 1
REMARK VINA RESULT:     -10.3      0.000      0.000
REMARK SMILES C[N@@H+](CC(=O)OCCOC(=O)c1ccc(-c2c3nc(c(-c4c(F)c(F)c(F)c(F)c4F)c4ccc([nH]4)c(-c4c(F)c(F)c(F)c(F)c4F)c4nc(c(-c5c(F)c(F)c(F)c(F)c5F)c5ccc2[nH]5)C=C4)C=C3)cc1)Cc1noc(-c2ccccc2Cl)n1
REMARK SMILES IDX 7 1 6 2 4 3 5 4 3 5 2 6 1 7 75 9 76 10 77 11 87 12 78 13
REMARK SMILES IDX 79 14 80 15 81 16 85 17 82 18 84 19 86 20 83 21 8 22 9 23
REMARK SMILES IDX 10 24 11 25 12 26 13 27 74 28 14 29 73 30 15 31 16 32 17 33
REMARK SMILES IDX 67 34 18 35 72 36 66 37 68 38 19 39 71 40 65 41 64 42 20 44
REMARK SMILES IDX 52 45 32 46 51 47 33 48 36 49 50 50 69 51 34 52 35 53 49 55
REMARK SMILES IDX 70 56 37 57 21 58 22 59 30 60 23 61 24 62 28 63 31 64 25 65
REMARK SMILES IDX 26 66 29 67 27 68 53 69 54 70 62 71 55 72 56 73 60 74 63 75
REMARK SMILES IDX 57 76 58 77 61 78 59 79 38 80 39 81 47 82 40 83 41 84 45 85
REMARK SMILES IDX 48 86 42 87 43 88 46 89 44 90
REMARK H PARENT 2 8 68 43 36 54
REMARK Flexibility Score: inf
ROOT
ATOM      1  C   UNL A   1      33.674  33.805  28.314  1.00  0.00     0.274 C 
ENDROOT
BRANCH   1   2
ATOM      2  O   UNL A   1      34.070  34.858  29.218  1.00  0.00    -0.458 OA
BRANCH   2   3
ATOM      3  C   UNL A   1      33.114  35.773  29.512  1.00  0.00     0.361 C 
ATOM      4  O   UNL A   1      32.207  36.079  28.738  1.00  0.00    -0.245 OA
BRANCH   3   5
ATOM      5  C   UNL A   1      33.248  36.480  30.854  1.00  0.00     0.386 C 
BRANCH   5   6
ATOM      6  N   UNL A   1      32.797  35.829  32.080  1.00  0.00    -0.322 N 
ATOM      7  C   UNL A   1      31.442  36.078  32.508  1.00  0.00     0.333 C 
ATOM      8  H   UNL A   1      32.670  34.890  31.701  1.00  0.00     0.348 HD
BRANCH   6   9
ATOM      9  C   UNL A   1      33.790  35.424  33.080  1.00  0.00     0.345 C 
BRANCH   9  10
ATOM     10  C   UNL A   1      34.562  34.160  32.848  1.00  0.00     0.226 A 
ATOM     11  N   UNL A   1      34.063  33.045  32.295  1.00  0.00    -0.056 NA
ATOM     12  N   UNL A   1      35.906  34.084  33.148  1.00  0.00    -0.186 NA
ATOM     13  O   UNL A   1      35.107  32.133  32.421  1.00  0.00    -0.334 OA
ATOM     14  C   UNL A   1      36.162  32.804  32.986  1.00  0.00     0.259 A 
BRANCH  14  15
ATOM     15  C   UNL A   1      37.311  31.982  33.374  1.00  0.00     0.058 A 
ATOM     16  C   UNL A   1      37.325  30.611  33.033  1.00  0.00     0.015 A 
ATOM     17  C   UNL A   1      38.394  32.473  34.128  1.00  0.00     0.053 A 
ATOM     18  C   UNL A   1      38.364  29.764  33.429  1.00  0.00     0.001 A 
ATOM     19  C   UNL A   1      39.437  31.617  34.521  1.00  0.00     0.021 A 
ATOM     20  Cl  UNL A   1      38.532  34.118  34.655  1.00  0.00    -0.083 Cl
ATOM     21  C   UNL A   1      39.420  30.267  34.176  1.00  0.00     0.002 A 
ENDBRANCH  14  15
ENDBRANCH   9  10
ENDBRANCH   6   9
ENDBRANCH   5   6
ENDBRANCH   3   5
ENDBRANCH   2   3
ENDBRANCH   1   2
BRANCH   1  22
ATOM     22  C   UNL A   1      34.392  32.474  28.578  1.00  0.00     0.275 C 
BRANCH  22  23
ATOM     23  O   UNL A   1      34.417  31.609  27.423  1.00  0.00    -0.458 OA
BRANCH  23  24
ATOM     24  C   UNL A   1      34.642  30.317  27.733  1.00  0.00     0.338 C 
ATOM     25  O   UNL A   1      33.845  29.400  27.626  1.00  0.00    -0.246 OA
BRANCH  24  26
ATOM     26  C   UNL A   1      36.003  30.059  28.186  1.00  0.00     0.060 A 
ATOM     27  C   UNL A   1      37.040  30.137  27.252  1.00  0.00     0.016 A 
ATOM     28  C   UNL A   1      36.220  29.540  29.463  1.00  0.00     0.016 A 
ATOM     29  C   UNL A   1      38.314  29.709  27.599  1.00  0.00     0.010 A 
ATOM     30  C   UNL A   1      37.502  29.118  29.813  1.00  0.00     0.010 A 
ATOM     31  C   UNL A   1      38.552  29.201  28.883  1.00  0.00    -0.014 A 
BRANCH  31  32
ATOM     32  C   UNL A   1      39.927  28.841  29.282  1.00  0.00     0.031 A 
ATOM     33  C   UNL A   1      40.765  29.767  30.103  1.00  0.00     0.074 A 
ATOM     34  C   UNL A   1      40.407  27.652  28.876  1.00  0.00     0.049 A 
ATOM     35  N   UNL A   1      42.011  29.631  30.479  1.00  0.00    -0.248 NA
ATOM     36  C   UNL A   1      40.125  31.007  30.567  1.00  0.00     0.031 C 
ATOM     37  C   UNL A   1      39.654  26.669  28.094  1.00  0.00     0.029 A 
ATOM     38  N   UNL A   1      41.635  27.075  29.052  1.00  0.00    -0.354 N 
ATOM     39  C   UNL A   1      42.308  30.763  31.221  1.00  0.00     0.074 A 
ATOM     40  C   UNL A   1      41.116  31.585  31.236  1.00  0.00     0.031 C 
ATOM     41  C   UNL A   1      40.444  25.615  27.845  1.00  0.00     0.029 A 
ATOM     42  C   UNL A   1      41.761  25.866  28.420  1.00  0.00     0.049 A 
ATOM     43  H   UNL A   1      42.357  27.489  29.579  1.00  0.00     0.167 HD
ATOM     44  C   UNL A   1      43.475  31.078  31.832  1.00  0.00     0.037 A 
ATOM     45  C   UNL A   1      42.831  25.060  28.294  1.00  0.00     0.037 A 
ATOM     46  C   UNL A   1      44.656  30.253  31.808  1.00  0.00     0.049 A 
ATOM     47  C   UNL A   1      44.125  25.462  28.935  1.00  0.00     0.074 A 
ATOM     48  C   UNL A   1      45.881  30.476  32.415  1.00  0.00     0.029 A 
ATOM     49  N   UNL A   1      44.759  29.046  31.133  1.00  0.00    -0.354 N 
ATOM     50  N   UNL A   1      44.397  26.534  29.637  1.00  0.00    -0.248 NA
ATOM     51  C   UNL A   1      45.261  24.547  28.760  1.00  0.00     0.031 C 
ATOM     52  C   UNL A   1      46.734  29.418  32.081  1.00  0.00     0.029 A 
ATOM     53  C   UNL A   1      46.033  28.522  31.290  1.00  0.00     0.049 A 
ATOM     54  H   UNL A   1      44.035  28.622  30.618  1.00  0.00     0.167 HD
ATOM     55  C   UNL A   1      45.731  26.424  29.995  1.00  0.00     0.074 A 
ATOM     56  C   UNL A   1      46.211  25.173  29.442  1.00  0.00     0.031 C 
ATOM     57  C   UNL A   1      46.491  27.283  30.715  1.00  0.00     0.037 A 
BRANCH  44  58
ATOM     58  C   UNL A   1      43.543  32.381  32.567  1.00  0.00     0.064 A 
ATOM     59  C   UNL A   1      43.916  33.566  31.920  1.00  0.00     0.173 A 
ATOM     60  C   UNL A   1      43.172  32.454  33.918  1.00  0.00     0.173 A 
ATOM     61  F   UNL A   1      44.284  33.543  30.630  1.00  0.00    -0.203 F 
ATOM     62  C   UNL A   1      43.923  34.781  32.601  1.00  0.00     0.198 A 
ATOM     63  C   UNL A   1      43.167  33.671  34.592  1.00  0.00     0.198 A 
ATOM     64  F   UNL A   1      42.805  31.346  34.579  1.00  0.00    -0.203 F 
ATOM     65  F   UNL A   1      44.297  35.902  31.968  1.00  0.00    -0.200 F 
ATOM     66  C   UNL A   1      43.543  34.833  33.935  1.00  0.00     0.200 A 
ATOM     67  F   UNL A   1      42.794  33.723  35.880  1.00  0.00    -0.200 F 
ATOM     68  F   UNL A   1      43.541  36.005  34.586  1.00  0.00    -0.200 F 
ENDBRANCH  44  58
BRANCH  45  69
ATOM     69  C   UNL A   1      42.705  23.811  27.509  1.00  0.00     0.064 A 
ATOM     70  C   UNL A   1      43.073  23.769  26.160  1.00  0.00     0.173 A 
ATOM     71  C   UNL A   1      42.267  22.624  28.112  1.00  0.00     0.173 A 
ATOM     72  F   UNL A   1      43.482  24.888  25.542  1.00  0.00    -0.203 F 
ATOM     73  C   UNL A   1      43.012  22.579  25.439  1.00  0.00     0.198 A 
ATOM     74  C   UNL A   1      42.223  21.431  27.395  1.00  0.00     0.198 A 
ATOM     75  F   UNL A   1      41.908  22.618  29.404  1.00  0.00    -0.203 F 
ATOM     76  F   UNL A   1      43.355  22.565  24.144  1.00  0.00    -0.200 F 
ATOM     77  C   UNL A   1      42.594  21.410  26.059  1.00  0.00     0.200 A 
ATOM     78  F   UNL A   1      41.830  20.301  28.000  1.00  0.00    -0.200 F 
ATOM     79  F   UNL A   1      42.549  20.264  25.367  1.00  0.00    -0.200 F 
ENDBRANCH  45  69
BRANCH  57  80
ATOM     80  C   UNL A   1      47.917  26.892  30.940  1.00  0.00     0.064 A 
ATOM     81  C   UNL A   1      48.938  27.364  30.101  1.00  0.00     0.173 A 
ATOM     82  C   UNL A   1      48.269  26.053  32.005  1.00  0.00     0.173 A 
ATOM     83  F   UNL A   1      48.642  28.155  29.058  1.00  0.00    -0.203 F 
ATOM     84  C   UNL A   1      50.261  26.993  30.313  1.00  0.00     0.198 A 
ATOM     85  C   UNL A   1      49.596  25.696  32.223  1.00  0.00     0.198 A 
ATOM     86  F   UNL A   1      47.326  25.577  32.830  1.00  0.00    -0.203 F 
ATOM     87  F   UNL A   1      51.219  27.425  29.479  1.00  0.00    -0.200 F 
ATOM     88  C   UNL A   1      50.591  26.163  31.375  1.00  0.00     0.200 A 
ATOM     89  F   UNL A   1      49.915  24.896  33.249  1.00  0.00    -0.200 F 
ATOM     90  F   UNL A   1      51.866  25.803  31.574  1.00  0.00    -0.200 F 
ENDBRANCH  57  80
ENDBRANCH  31  32
ENDBRANCH  24  26
ENDBRANCH  23  24
ENDBRANCH  22  23
ENDBRANCH   1  22
TORSDOF 15
ENDMDL
MODEL 2
REMARK VINA RESULT:     -10.3      4.781     10.015
REMARK SMILES C[N@@H+](CC(=O)OCCOC(=O)c1ccc(-c2c3nc(c(-c4c(F)c(F)c(F)c(F)c4F)c4ccc([nH]4)c(-c4c(F)c(F)c(F)c(F)c4F)c4nc(c(-c5c(F)c(F)c(F)c(F)c5F)c5ccc2[nH]5)C=C4)C=C3)cc1)Cc1noc(-c2ccccc2Cl)n1
REMARK SMILES IDX 7 1 6 2 4 3 5 4 3 5 2 6 1 7 75 9 76 10 77 11 87 12 78 13
REMARK SMILES IDX 79 14 80 15 81 16 85 17 82 18 84 19 86 20 83 21 8 22 9 23
REMARK SMILES IDX 10 24 11 25 12 26 13 27 74 28 14 29 73 30 15 31 16 32 17 33
REMARK SMILES IDX 67 34 18 35 72 36 66 37 68 38 19 39 71 40 65 41 64 42 20 44
REMARK SMILES IDX 52 45 32 46 51 47 33 48 36 49 50 50 69 51 34 52 35 53 49 55
REMARK SMILES IDX 70 56 37 57 21 58 22 59 30 60 23 61 24 62 28 63 31 64 25 65
REMARK SMILES IDX 26 66 29 67 27 68 53 69 54 70 62 71 55 72 56 73 60 74 63 75
REMARK SMILES IDX 57 76 58 77 61 78 59 79 38 80 39 81 47 82 40 83 41 84 45 85
REMARK SMILES IDX 48 86 42 87 43 88 46 89 44 90
REMARK H PARENT 2 8 68 43 36 54
REMARK Flexibility Score: inf
ROOT
ATOM      1  C   UNL A   1      31.476  29.289  24.790  1.00  0.00     0.274 C 
ENDROOT
BRANCH   1   2
ATOM      2  O   UNL A   1      30.404  29.643  23.891  1.00  0.00    -0.458 OA
BRANCH   2   3
ATOM      3  C   UNL A   1      30.020  28.676  23.023  1.00  0.00     0.361 C 
ATOM      4  O   UNL A   1      29.729  28.896  21.847  1.00  0.00    -0.245 OA
BRANCH   3   5
ATOM      5  C   UNL A   1      29.891  27.271  23.595  1.00  0.00     0.386 C 
BRANCH   5   6
ATOM      6  N   UNL A   1      30.645  26.165  23.013  1.00  0.00    -0.322 N 
ATOM      7  C   UNL A   1      30.307  24.829  23.441  1.00  0.00     0.333 C 
ATOM      8  H   UNL A   1      30.193  26.153  22.098  1.00  0.00     0.348 HD
BRANCH   6   9
ATOM      9  C   UNL A   1      31.988  26.417  22.482  1.00  0.00     0.345 C 
BRANCH   9  10
ATOM     10  C   UNL A   1      32.957  25.276  22.418  1.00  0.00     0.226 A 
ATOM     11  N   UNL A   1      33.131  24.474  21.357  1.00  0.00    -0.056 NA
ATOM     12  N   UNL A   1      33.809  25.007  23.469  1.00  0.00    -0.186 NA
ATOM     13  O   UNL A   1      34.018  23.511  21.829  1.00  0.00    -0.334 OA
ATOM     14  C   UNL A   1      34.345  23.860  23.116  1.00  0.00     0.259 A 
BRANCH  14  15
ATOM     15  C   UNL A   1      35.133  22.879  23.866  1.00  0.00     0.058 A 
ATOM     16  C   UNL A   1      36.507  23.120  24.086  1.00  0.00     0.015 A 
ATOM     17  C   UNL A   1      34.605  21.663  24.340  1.00  0.00     0.053 A 
ATOM     18  C   UNL A   1      37.323  22.193  24.740  1.00  0.00     0.001 A 
ATOM     19  C   UNL A   1      35.429  20.735  25.000  1.00  0.00     0.021 A 
ATOM     20  Cl  UNL A   1      32.951  21.189  24.139  1.00  0.00    -0.083 Cl
ATOM     21  C   UNL A   1      36.783  20.998  25.197  1.00  0.00     0.002 A 
ENDBRANCH  14  15
ENDBRANCH   9  10
ENDBRANCH   6   9
ENDBRANCH   5   6
ENDBRANCH   3   5
ENDBRANCH   2   3
ENDBRANCH   1   2
BRANCH   1  22
ATOM     22  C   UNL A   1      31.783  30.375  25.830  1.00  0.00     0.275 C 
BRANCH  22  23
ATOM     23  O   UNL A   1      33.190  30.484  26.133  1.00  0.00    -0.458 OA
BRANCH  23  24
ATOM     24  C   UNL A   1      33.461  31.418  27.065  1.00  0.00     0.338 C 
ATOM     25  O   UNL A   1      32.827  32.440  27.268  1.00  0.00    -0.246 OA
BRANCH  24  26
ATOM     26  C   UNL A   1      34.605  31.084  27.904  1.00  0.00     0.060 A 
ATOM     27  C   UNL A   1      35.627  32.029  28.041  1.00  0.00     0.016 A 
ATOM     28  C   UNL A   1      34.762  29.779  28.371  1.00  0.00     0.016 A 
ATOM     29  C   UNL A   1      36.814  31.674  28.667  1.00  0.00     0.010 A 
ATOM     30  C   UNL A   1      35.952  29.426  29.007  1.00  0.00     0.010 A 
ATOM     31  C   UNL A   1      36.981  30.371  29.156  1.00  0.00    -0.014 A 
BRANCH  31  32
ATOM     32  C   UNL A   1      38.202  30.026  29.909  1.00  0.00     0.031 A 
ATOM     33  C   UNL A   1      39.217  29.080  29.351  1.00  0.00     0.074 A 
ATOM     34  C   UNL A   1      38.371  30.583  31.121  1.00  0.00     0.049 A 
ATOM     35  N   UNL A   1      40.306  28.621  29.912  1.00  0.00    -0.248 NA
ATOM     36  C   UNL A   1      38.985  28.586  27.986  1.00  0.00     0.031 C 
ATOM     37  C   UNL A   1      37.448  31.538  31.738  1.00  0.00     0.029 A 
ATOM     38  N   UNL A   1      39.363  30.422  32.051  1.00  0.00    -0.354 N 
ATOM     39  C   UNL A   1      40.891  27.784  28.975  1.00  0.00     0.074 A 
ATOM     40  C   UNL A   1      40.031  27.788  27.809  1.00  0.00     0.031 C 
ATOM     41  C   UNL A   1      37.911  31.868  32.952  1.00  0.00     0.029 A 
ATOM     42  C   UNL A   1      39.139  31.123  33.207  1.00  0.00     0.049 A 
ATOM     43  H   UNL A   1      40.156  29.858  31.903  1.00  0.00     0.167 HD
ATOM     44  C   UNL A   1      42.042  27.081  29.087  1.00  0.00     0.037 A 
ATOM     45  C   UNL A   1      39.835  31.140  34.358  1.00  0.00     0.037 A 
ATOM     46  C   UNL A   1      42.889  27.082  30.253  1.00  0.00     0.049 A 
ATOM     47  C   UNL A   1      41.076  30.308  34.472  1.00  0.00     0.074 A 
ATOM     48  C   UNL A   1      44.087  26.419  30.454  1.00  0.00     0.029 A 
ATOM     49  N   UNL A   1      42.618  27.781  31.420  1.00  0.00    -0.354 N 
ATOM     50  N   UNL A   1      41.624  29.520  33.580  1.00  0.00    -0.248 NA
ATOM     51  C   UNL A   1      41.792  30.361  35.754  1.00  0.00     0.031 C 
ATOM     52  C   UNL A   1      44.526  26.693  31.755  1.00  0.00     0.029 A 
ATOM     53  C   UNL A   1      43.616  27.548  32.354  1.00  0.00     0.049 A 
ATOM     54  H   UNL A   1      41.834  28.358  31.565  1.00  0.00     0.167 HD
ATOM     55  C   UNL A   1      42.750  28.987  34.184  1.00  0.00     0.074 A 
ATOM     56  C   UNL A   1      42.816  29.551  35.518  1.00  0.00     0.031 C 
ATOM     57  C   UNL A   1      43.649  28.108  33.681  1.00  0.00     0.037 A 
BRANCH  44  58
ATOM     58  C   UNL A   1      42.452  26.232  27.923  1.00  0.00     0.064 A 
ATOM     59  C   UNL A   1      43.333  26.711  26.944  1.00  0.00     0.173 A 
ATOM     60  C   UNL A   1      42.007  24.906  27.819  1.00  0.00     0.173 A 
ATOM     61  F   UNL A   1      43.779  27.975  26.998  1.00  0.00    -0.203 F 
ATOM     62  C   UNL A   1      43.749  25.894  25.895  1.00  0.00     0.198 A 
ATOM     63  C   UNL A   1      42.436  24.087  26.778  1.00  0.00     0.198 A 
ATOM     64  F   UNL A   1      41.165  24.402  28.735  1.00  0.00    -0.203 F 
ATOM     65  F   UNL A   1      44.580  26.375  24.960  1.00  0.00    -0.200 F 
ATOM     66  C   UNL A   1      43.305  24.581  25.817  1.00  0.00     0.200 A 
ATOM     67  F   UNL A   1      42.011  22.817  26.706  1.00  0.00    -0.200 F 
ATOM     68  F   UNL A   1      43.714  23.794  24.813  1.00  0.00    -0.200 F 
ENDBRANCH  44  58
BRANCH  45  69
ATOM     69  C   UNL A   1      39.342  31.963  35.486  1.00  0.00     0.064 A 
ATOM     70  C   UNL A   1      38.491  31.421  36.455  1.00  0.00     0.173 A 
ATOM     71  C   UNL A   1      39.762  33.291  35.644  1.00  0.00     0.173 A 
ATOM     72  F   UNL A   1      38.053  30.159  36.331  1.00  0.00    -0.203 F 
ATOM     73  C   UNL A   1      38.078  32.179  37.547  1.00  0.00     0.198 A 
ATOM     74  C   UNL A   1      39.363  34.042  36.747  1.00  0.00     0.198 A 
ATOM     75  F   UNL A   1      40.582  33.849  34.742  1.00  0.00    -0.203 F 
ATOM     76  F   UNL A   1      37.249  31.645  38.456  1.00  0.00    -0.200 F 
ATOM     77  C   UNL A   1      38.520  33.486  37.697  1.00  0.00     0.200 A 
ATOM     78  F   UNL A   1      39.802  35.300  36.893  1.00  0.00    -0.200 F 
ATOM     79  F   UNL A   1      38.133  34.208  38.756  1.00  0.00    -0.200 F 
ENDBRANCH  45  69
BRANCH  57  80
ATOM     80  C   UNL A   1      44.774  27.707  34.582  1.00  0.00     0.064 A 
ATOM     81  C   UNL A   1      44.674  26.577  35.406  1.00  0.00     0.173 A 
ATOM     82  C   UNL A   1      45.963  28.448  34.613  1.00  0.00     0.173 A 
ATOM     83  F   UNL A   1      43.545  25.851  35.422  1.00  0.00    -0.203 F 
ATOM     84  C   UNL A   1      45.722  26.213  36.245  1.00  0.00     0.198 A 
ATOM     85  C   UNL A   1      47.016  28.071  35.442  1.00  0.00     0.198 A 
ATOM     86  F   UNL A   1      46.102  29.536  33.843  1.00  0.00    -0.203 F 
ATOM     87  F   UNL A   1      45.594  25.150  37.053  1.00  0.00    -0.200 F 
ATOM     88  C   UNL A   1      46.893  26.957  36.260  1.00  0.00     0.200 A 
ATOM     89  F   UNL A   1      48.147  28.789  35.455  1.00  0.00    -0.200 F 
ATOM     90  F   UNL A   1      47.900  26.607  37.072  1.00  0.00    -0.200 F 
ENDBRANCH  57  80
ENDBRANCH  31  32
ENDBRANCH  24  26
ENDBRANCH  23  24
ENDBRANCH  22  23
ENDBRANCH   1  22
TORSDOF 15
ENDMDL
MODEL 3
REMARK VINA RESULT:     -10.2      4.641     11.534
REMARK SMILES C[N@@H+](CC(=O)OCCOC(=O)c1ccc(-c2c3nc(c(-c4c(F)c(F)c(F)c(F)c4F)c4ccc([nH]4)c(-c4c(F)c(F)c(F)c(F)c4F)c4nc(c(-c5c(F)c(F)c(F)c(F)c5F)c5ccc2[nH]5)C=C4)C=C3)cc1)Cc1noc(-c2ccccc2Cl)n1
REMARK SMILES IDX 7 1 6 2 4 3 5 4 3 5 2 6 1 7 75 9 76 10 77 11 87 12 78 13
REMARK SMILES IDX 79 14 80 15 81 16 85 17 82 18 84 19 86 20 83 21 8 22 9 23
REMARK SMILES IDX 10 24 11 25 12 26 13 27 74 28 14 29 73 30 15 31 16 32 17 33
REMARK SMILES IDX 67 34 18 35 72 36 66 37 68 38 19 39 71 40 65 41 64 42 20 44
REMARK SMILES IDX 52 45 32 46 51 47 33 48 36 49 50 50 69 51 34 52 35 53 49 55
REMARK SMILES IDX 70 56 37 57 21 58 22 59 30 60 23 61 24 62 28 63 31 64 25 65
REMARK SMILES IDX 26 66 29 67 27 68 53 69 54 70 62 71 55 72 56 73 60 74 63 75
REMARK SMILES IDX 57 76 58 77 61 78 59 79 38 80 39 81 47 82 40 83 41 84 45 85
REMARK SMILES IDX 48 86 42 87 43 88 46 89 44 90
REMARK H PARENT 2 8 68 43 36 54
REMARK Flexibility Score: inf
ROOT
ATOM      1  C   UNL A   1      41.036  19.818  26.346  1.00  0.00     0.274 C 
ENDROOT
BRANCH   1   2
ATOM      2  O   UNL A   1      42.305  19.539  26.974  1.00  0.00    -0.458 OA
BRANCH   2   3
ATOM      3  C   UNL A   1      43.021  18.525  26.430  1.00  0.00     0.361 C 
ATOM      4  O   UNL A   1      43.291  17.485  27.031  1.00  0.00    -0.245 OA
BRANCH   3   5
ATOM      5  C   UNL A   1      43.554  18.757  25.022  1.00  0.00     0.386 C 
BRANCH   5   6
ATOM      6  N   UNL A   1      44.795  19.497  24.815  1.00  0.00    -0.322 N 
ATOM      7  C   UNL A   1      45.973  19.029  25.505  1.00  0.00     0.333 C 
ATOM      8  H   UNL A   1      45.012  19.146  23.882  1.00  0.00     0.348 HD
BRANCH   6   9
ATOM      9  C   UNL A   1      44.728  20.903  24.405  1.00  0.00     0.345 C 
BRANCH   9  10
ATOM     10  C   UNL A   1      45.258  21.946  25.342  1.00  0.00     0.226 A 
ATOM     11  N   UNL A   1      46.496  22.460  25.299  1.00  0.00    -0.056 NA
ATOM     12  N   UNL A   1      44.450  22.508  26.308  1.00  0.00    -0.186 NA
ATOM     13  O   UNL A   1      46.543  23.268  26.431  1.00  0.00    -0.334 OA
ATOM     14  C   UNL A   1      45.303  23.213  27.018  1.00  0.00     0.259 A 
BRANCH  14  15
ATOM     15  C   UNL A   1      45.187  23.853  28.331  1.00  0.00     0.058 A 
ATOM     16  C   UNL A   1      46.239  24.675  28.793  1.00  0.00     0.015 A 
ATOM     17  C   UNL A   1      44.094  23.651  29.195  1.00  0.00     0.053 A 
ATOM     18  C   UNL A   1      46.211  25.262  30.062  1.00  0.00     0.001 A 
ATOM     19  C   UNL A   1      44.070  24.247  30.468  1.00  0.00     0.021 A 
ATOM     20  Cl  UNL A   1      42.729  22.658  28.805  1.00  0.00    -0.083 Cl
ATOM     21  C   UNL A   1      45.126  25.047  30.900  1.00  0.00     0.002 A 
ENDBRANCH  14  15
ENDBRANCH   9  10
ENDBRANCH   6   9
ENDBRANCH   5   6
ENDBRANCH   3   5
ENDBRANCH   2   3
ENDBRANCH   1   2
BRANCH   1  22
ATOM     22  C   UNL A   1      40.774  21.317  26.143  1.00  0.00     0.275 C 
BRANCH  22  23
ATOM     23  O   UNL A   1      39.713  21.822  26.980  1.00  0.00    -0.458 OA
BRANCH  23  24
ATOM     24  C   UNL A   1      39.124  22.926  26.481  1.00  0.00     0.338 C 
ATOM     25  O   UNL A   1      38.142  22.956  25.759  1.00  0.00    -0.246 OA
BRANCH  24  26
ATOM     26  C   UNL A   1      39.744  24.167  26.930  1.00  0.00     0.060 A 
ATOM     27  C   UNL A   1      39.760  24.443  28.301  1.00  0.00     0.016 A 
ATOM     28  C   UNL A   1      40.109  25.135  25.995  1.00  0.00     0.016 A 
ATOM     29  C   UNL A   1      40.162  25.695  28.747  1.00  0.00     0.010 A 
ATOM     30  C   UNL A   1      40.520  26.390  26.444  1.00  0.00     0.010 A 
ATOM     31  C   UNL A   1      40.547  26.673  27.821  1.00  0.00    -0.014 A 
BRANCH  31  32
ATOM     32  C   UNL A   1      41.069  27.967  28.301  1.00  0.00     0.031 A 
ATOM     33  C   UNL A   1      42.539  28.223  28.401  1.00  0.00     0.074 A 
ATOM     34  C   UNL A   1      40.179  28.910  28.655  1.00  0.00     0.049 A 
ATOM     35  N   UNL A   1      43.158  29.278  28.866  1.00  0.00    -0.248 NA
ATOM     36  C   UNL A   1      43.433  27.162  27.914  1.00  0.00     0.031 C 
ATOM     37  C   UNL A   1      38.725  28.762  28.567  1.00  0.00     0.029 A 
ATOM     38  N   UNL A   1      40.361  30.167  29.167  1.00  0.00    -0.354 N 
ATOM     39  C   UNL A   1      44.512  29.012  28.731  1.00  0.00     0.074 A 
ATOM     40  C   UNL A   1      44.628  27.690  28.150  1.00  0.00     0.031 C 
ATOM     41  C   UNL A   1      38.145  29.881  29.025  1.00  0.00     0.029 A 
ATOM     42  C   UNL A   1      39.185  30.805  29.466  1.00  0.00     0.049 A 
ATOM     43  H   UNL A   1      41.248  30.570  29.307  1.00  0.00     0.167 HD
ATOM     44  C   UNL A   1      45.556  29.806  29.065  1.00  0.00     0.037 A 
ATOM     45  C   UNL A   1      38.971  31.993  30.058  1.00  0.00     0.037 A 
ATOM     46  C   UNL A   1      45.429  31.119  29.645  1.00  0.00     0.049 A 
ATOM     47  C   UNL A   1      40.147  32.827  30.467  1.00  0.00     0.074 A 
ATOM     48  C   UNL A   1      46.428  32.010  29.999  1.00  0.00     0.029 A 
ATOM     49  N   UNL A   1      44.222  31.725  29.963  1.00  0.00    -0.354 N 
ATOM     50  N   UNL A   1      41.425  32.569  30.334  1.00  0.00    -0.248 NA
ATOM     51  C   UNL A   1      39.853  34.113  31.113  1.00  0.00     0.031 C 
ATOM     52  C   UNL A   1      45.825  33.143  30.559  1.00  0.00     0.029 A 
ATOM     53  C   UNL A   1      44.451  32.970  30.528  1.00  0.00     0.049 A 
ATOM     54  H   UNL A   1      43.334  31.330  29.809  1.00  0.00     0.167 HD
ATOM     55  C   UNL A   1      42.090  33.658  30.873  1.00  0.00     0.074 A 
ATOM     56  C   UNL A   1      41.073  34.588  31.324  1.00  0.00     0.031 C 
ATOM     57  C   UNL A   1      43.423  33.868  30.985  1.00  0.00     0.037 A 
BRANCH  44  58
ATOM     58  C   UNL A   1      46.936  29.274  28.828  1.00  0.00     0.064 A 
ATOM     59  C   UNL A   1      47.621  28.555  29.817  1.00  0.00     0.173 A 
ATOM     60  C   UNL A   1      47.554  29.432  27.579  1.00  0.00     0.173 A 
ATOM     61  F   UNL A   1      47.072  28.384  31.029  1.00  0.00    -0.203 F 
ATOM     62  C   UNL A   1      48.882  28.018  29.566  1.00  0.00     0.198 A 
ATOM     63  C   UNL A   1      48.808  28.883  27.327  1.00  0.00     0.198 A 
ATOM     64  F   UNL A   1      46.935  30.111  26.600  1.00  0.00    -0.203 F 
ATOM     65  F   UNL A   1      49.527  27.347  30.530  1.00  0.00    -0.200 F 
ATOM     66  C   UNL A   1      49.471  28.178  28.320  1.00  0.00     0.200 A 
ATOM     67  F   UNL A   1      49.374  29.032  26.121  1.00  0.00    -0.200 F 
ATOM     68  F   UNL A   1      50.680  27.653  28.078  1.00  0.00    -0.200 F 
ENDBRANCH  44  58
BRANCH  45  69
ATOM     69  C   UNL A   1      37.579  32.433  30.307  1.00  0.00     0.064 A 
ATOM     70  C   UNL A   1      36.937  32.140  31.515  1.00  0.00     0.173 A 
ATOM     71  C   UNL A   1      36.889  33.205  29.362  1.00  0.00     0.173 A 
ATOM     72  F   UNL A   1      37.558  31.391  32.439  1.00  0.00    -0.203 F 
ATOM     73  C   UNL A   1      35.651  32.607  31.772  1.00  0.00     0.198 A 
ATOM     74  C   UNL A   1      35.609  33.686  29.627  1.00  0.00     0.198 A 
ATOM     75  F   UNL A   1      37.468  33.513  28.193  1.00  0.00    -0.203 F 
ATOM     76  F   UNL A   1      35.048  32.301  32.929  1.00  0.00    -0.200 F 
ATOM     77  C   UNL A   1      34.991  33.386  30.832  1.00  0.00     0.200 A 
ATOM     78  F   UNL A   1      34.980  34.448  28.722  1.00  0.00    -0.200 F 
ATOM     79  F   UNL A   1      33.759  33.846  31.087  1.00  0.00    -0.200 F 
ENDBRANCH  45  69
BRANCH  57  80
ATOM     80  C   UNL A   1      43.848  35.153  31.623  1.00  0.00     0.064 A 
ATOM     81  C   UNL A   1      44.112  35.226  32.998  1.00  0.00     0.173 A 
ATOM     82  C   UNL A   1      44.006  36.314  30.855  1.00  0.00     0.173 A 
ATOM     83  F   UNL A   1      43.955  34.142  33.774  1.00  0.00    -0.203 F 
ATOM     84  C   UNL A   1      44.503  36.424  33.586  1.00  0.00     0.198 A 
ATOM     85  C   UNL A   1      44.413  37.508  31.443  1.00  0.00     0.198 A 
ATOM     86  F   UNL A   1      43.763  36.291  29.536  1.00  0.00    -0.203 F 
ATOM     87  F   UNL A   1      44.716  36.483  34.908  1.00  0.00    -0.200 F 
ATOM     88  C   UNL A   1      44.657  37.563  32.809  1.00  0.00     0.200 A 
ATOM     89  F   UNL A   1      44.562  38.607  30.693  1.00  0.00    -0.200 F 
ATOM     90  F   UNL A   1      45.029  38.719  33.377  1.00  0.00    -0.200 F 
ENDBRANCH  57  80
ENDBRANCH  31  32
ENDBRANCH  24  26
ENDBRANCH  23  24
ENDBRANCH  22  23
ENDBRANCH   1  22
TORSDOF 15
ENDMDL
