MODEL 1
REMARK VINA RESULT:     -10.9      0.000      0.000
REMARK SMILES Nc1ccc(Cl)c(SC[C@H]2CC[C@@H](C(=O)OCCOC(=O)c3ccc(-c4c5nc(c(-c6c(F)c(F)c(F)c(F)c6F)c6ccc([nH]6)c(-c6c(F)c(F)c(F)c(F)c6F)c6nc(c(-c7c(F)c(F)c(F)c(F)c7F)c7ccc4[nH]7)C=C6)C=C5)cc3)O2)c1
REMARK SMILES IDX 17 1 16 2 14 3 15 4 13 5 10 6 11 7 85 8 12 9 9 10 8 11 7 12
REMARK SMILES IDX 2 13 3 14 86 15 4 16 5 17 6 18 1 19 18 22 19 23 20 24 21 25
REMARK SMILES IDX 22 26 23 27 84 28 24 29 83 30 25 31 26 32 27 33 77 34 28 35
REMARK SMILES IDX 82 36 76 37 78 38 29 39 81 40 75 41 74 42 30 44 62 45 42 46
REMARK SMILES IDX 61 47 43 48 46 49 60 50 79 51 44 52 45 53 59 55 80 56 47 57
REMARK SMILES IDX 31 58 32 59 40 60 33 61 34 62 38 63 41 64 35 65 36 66 39 67
REMARK SMILES IDX 37 68 63 69 64 70 72 71 65 72 66 73 70 74 73 75 67 76 68 77
REMARK SMILES IDX 71 78 69 79 48 80 49 81 57 82 50 83 51 84 55 85 58 86 52 87
REMARK SMILES IDX 53 88 56 89 54 90
REMARK H PARENT 1 20 1 21 78 43 46 54
REMARK Flexibility Score: inf
ROOT
ATOM      1  C   UNL A   1      33.674  34.213  28.075  1.00  0.00     0.274 C 
ENDROOT
BRANCH   1   2
ATOM      2  O   UNL A   1      32.598  34.915  28.736  1.00  0.00    -0.460 OA
BRANCH   2   3
ATOM      3  C   UNL A   1      32.931  36.081  29.353  1.00  0.00     0.335 C 
ATOM      4  O   UNL A   1      33.327  37.086  28.766  1.00  0.00    -0.249 OA
BRANCH   3   5
ATOM      5  C   UNL A   1      32.758  36.041  30.881  1.00  0.00     0.228 C 
ATOM      6  C   UNL A   1      33.557  35.312  32.949  1.00  0.00     0.129 C 
ATOM      7  C   UNL A   1      33.226  36.800  33.039  1.00  0.00     0.036 C 
ATOM      8  O   UNL A   1      33.299  34.917  31.590  1.00  0.00    -0.362 OA
ATOM      9  C   UNL A   1      33.298  37.259  31.603  1.00  0.00     0.047 C 
BRANCH   6  10
ATOM     10  C   UNL A   1      34.966  34.952  33.475  1.00  0.00     0.107 C 
BRANCH  10  11
ATOM     11  S   UNL A   1      35.690  33.342  33.007  1.00  0.00    -0.122 SA
BRANCH  11  12
ATOM     12  C   UNL A   1      36.860  33.725  31.680  1.00  0.00     0.028 A 
ATOM     13  C   UNL A   1      37.442  33.831  29.291  1.00  0.00     0.033 A 
ATOM     14  C   UNL A   1      38.663  34.415  29.615  1.00  0.00     0.027 A 
ATOM     15  C   UNL A   1      36.569  33.474  30.326  1.00  0.00     0.042 A 
ATOM     16  C   UNL A   1      38.986  34.679  30.944  1.00  0.00     0.024 A 
ATOM     17  C   UNL A   1      38.100  34.331  31.972  1.00  0.00     0.054 A 
ATOM     18  Cl  UNL A   1      38.609  34.718  33.585  1.00  0.00    -0.083 Cl
BRANCH  13  19
ATOM     19  N   UNL A   1      37.133  33.496  27.983  1.00  0.00    -0.399 N 
ATOM     20  H   UNL A   1      37.083  32.550  27.716  1.00  0.00     0.156 HD
ATOM     21  H   UNL A   1      36.964  34.205  27.321  1.00  0.00     0.156 HD
ENDBRANCH  13  19
ENDBRANCH  11  12
ENDBRANCH  10  11
ENDBRANCH   6  10
ENDBRANCH   3   5
ENDBRANCH   2   3
ENDBRANCH   1   2
BRANCH   1  22
ATOM     22  C   UNL A   1      33.524  32.683  28.105  1.00  0.00     0.275 C 
BRANCH  22  23
ATOM     23  O   UNL A   1      34.567  31.982  27.390  1.00  0.00    -0.458 OA
BRANCH  23  24
ATOM     24  C   UNL A   1      34.561  30.656  27.646  1.00  0.00     0.338 C 
ATOM     25  O   UNL A   1      33.593  29.927  27.540  1.00  0.00    -0.246 OA
BRANCH  24  26
ATOM     26  C   UNL A   1      35.870  30.102  28.019  1.00  0.00     0.060 A 
ATOM     27  C   UNL A   1      36.030  29.718  29.354  1.00  0.00     0.016 A 
ATOM     28  C   UNL A   1      36.969  30.141  27.159  1.00  0.00     0.016 A 
ATOM     29  C   UNL A   1      37.293  29.405  29.843  1.00  0.00     0.010 A 
ATOM     30  C   UNL A   1      38.242  29.812  27.651  1.00  0.00     0.010 A 
ATOM     31  C   UNL A   1      38.414  29.465  29.002  1.00  0.00    -0.014 A 
BRANCH  31  32
ATOM     32  C   UNL A   1      39.727  29.084  29.574  1.00  0.00     0.031 A 
ATOM     33  C   UNL A   1      40.318  29.803  30.748  1.00  0.00     0.074 A 
ATOM     34  C   UNL A   1      40.328  27.978  29.103  1.00  0.00     0.049 A 
ATOM     35  N   UNL A   1      41.238  29.389  31.584  1.00  0.00    -0.248 NA
ATOM     36  C   UNL A   1      39.786  31.134  31.055  1.00  0.00     0.031 C 
ATOM     37  C   UNL A   1      39.849  27.181  27.976  1.00  0.00     0.029 A 
ATOM     38  N   UNL A   1      41.461  27.333  29.524  1.00  0.00    -0.354 N 
ATOM     39  C   UNL A   1      41.309  30.355  32.577  1.00  0.00     0.074 A 
ATOM     40  C   UNL A   1      40.388  31.410  32.207  1.00  0.00     0.031 C 
ATOM     41  C   UNL A   1      40.693  26.157  27.782  1.00  0.00     0.029 A 
ATOM     42  C   UNL A   1      41.773  26.238  28.763  1.00  0.00     0.049 A 
ATOM     43  H   UNL A   1      41.998  27.628  30.295  1.00  0.00     0.167 HD
ATOM     44  C   UNL A   1      42.069  30.348  33.697  1.00  0.00     0.037 A 
ATOM     45  C   UNL A   1      42.822  25.400  28.840  1.00  0.00     0.037 A 
ATOM     46  C   UNL A   1      43.107  29.387  33.969  1.00  0.00     0.049 A 
ATOM     47  C   UNL A   1      43.804  25.552  29.962  1.00  0.00     0.074 A 
ATOM     48  C   UNL A   1      43.952  29.308  35.063  1.00  0.00     0.029 A 
ATOM     49  N   UNL A   1      43.492  28.381  33.095  1.00  0.00    -0.354 N 
ATOM     50  N   UNL A   1      43.772  26.380  30.978  1.00  0.00    -0.248 NA
ATOM     51  C   UNL A   1      44.960  24.648  29.958  1.00  0.00     0.031 C 
ATOM     52  C   UNL A   1      44.902  28.308  34.809  1.00  0.00     0.029 A 
ATOM     53  C   UNL A   1      44.614  27.730  33.583  1.00  0.00     0.049 A 
ATOM     54  H   UNL A   1      43.035  28.162  32.251  1.00  0.00     0.167 HD
ATOM     55  C   UNL A   1      44.894  26.092  31.742  1.00  0.00     0.074 A 
ATOM     56  C   UNL A   1      45.578  25.001  31.076  1.00  0.00     0.031 C 
ATOM     57  C   UNL A   1      45.311  26.674  32.894  1.00  0.00     0.037 A 
BRANCH  44  58
ATOM     58  C   UNL A   1      41.824  31.426  34.708  1.00  0.00     0.064 A 
ATOM     59  C   UNL A   1      42.578  32.609  34.690  1.00  0.00     0.173 A 
ATOM     60  C   UNL A   1      40.790  31.317  35.646  1.00  0.00     0.173 A 
ATOM     61  F   UNL A   1      43.580  32.757  33.810  1.00  0.00    -0.203 F 
ATOM     62  C   UNL A   1      42.303  33.647  35.579  1.00  0.00     0.198 A 
ATOM     63  C   UNL A   1      40.512  32.359  36.528  1.00  0.00     0.198 A 
ATOM     64  F   UNL A   1      40.042  30.205  35.699  1.00  0.00    -0.203 F 
ATOM     65  F   UNL A   1      43.037  34.768  35.547  1.00  0.00    -0.200 F 
ATOM     66  C   UNL A   1      41.267  33.523  36.493  1.00  0.00     0.200 A 
ATOM     67  F   UNL A   1      39.508  32.241  37.408  1.00  0.00    -0.200 F 
ATOM     68  F   UNL A   1      40.996  34.524  37.340  1.00  0.00    -0.200 F 
ENDBRANCH  44  58
BRANCH  45  69
ATOM     69  C   UNL A   1      42.987  24.372  27.785  1.00  0.00     0.064 A 
ATOM     70  C   UNL A   1      43.612  24.662  26.567  1.00  0.00     0.173 A 
ATOM     71  C   UNL A   1      42.572  23.050  28.014  1.00  0.00     0.173 A 
ATOM     72  F   UNL A   1      44.006  25.915  26.298  1.00  0.00    -0.203 F 
ATOM     73  C   UNL A   1      43.821  23.664  25.618  1.00  0.00     0.198 A 
ATOM     74  C   UNL A   1      42.805  22.050  27.075  1.00  0.00     0.198 A 
ATOM     75  F   UNL A   1      41.968  22.727  29.167  1.00  0.00    -0.203 F 
ATOM     76  F   UNL A   1      44.407  23.967  24.451  1.00  0.00    -0.200 F 
ATOM     77  C   UNL A   1      43.429  22.358  25.877  1.00  0.00     0.200 A 
ATOM     78  F   UNL A   1      42.436  20.789  27.338  1.00  0.00    -0.200 F 
ATOM     79  F   UNL A   1      43.653  21.396  24.972  1.00  0.00    -0.200 F 
ENDBRANCH  45  69
BRANCH  57  80
ATOM     80  C   UNL A   1      46.581  26.150  33.494  1.00  0.00     0.064 A 
ATOM     81  C   UNL A   1      47.817  26.756  33.223  1.00  0.00     0.173 A 
ATOM     82  C   UNL A   1      46.566  25.039  34.349  1.00  0.00     0.173 A 
ATOM     83  F   UNL A   1      47.886  27.811  32.399  1.00  0.00    -0.203 F 
ATOM     84  C   UNL A   1      48.997  26.248  33.763  1.00  0.00     0.198 A 
ATOM     85  C   UNL A   1      47.743  24.549  34.908  1.00  0.00     0.198 A 
ATOM     86  F   UNL A   1      45.409  24.428  34.643  1.00  0.00    -0.203 F 
ATOM     87  F   UNL A   1      50.171  26.809  33.448  1.00  0.00    -0.200 F 
ATOM     88  C   UNL A   1      48.958  25.148  34.607  1.00  0.00     0.200 A 
ATOM     89  F   UNL A   1      47.704  23.493  35.731  1.00  0.00    -0.200 F 
ATOM     90  F   UNL A   1      50.094  24.657  35.122  1.00  0.00    -0.200 F 
ENDBRANCH  57  80
ENDBRANCH  31  32
ENDBRANCH  24  26
ENDBRANCH  23  24
ENDBRANCH  22  23
ENDBRANCH   1  22
TORSDOF 15
ENDMDL
MODEL 2
REMARK VINA RESULT:     -10.7      1.266      7.388
REMARK SMILES Nc1ccc(Cl)c(SC[C@H]2CC[C@@H](C(=O)OCCOC(=O)c3ccc(-c4c5nc(c(-c6c(F)c(F)c(F)c(F)c6F)c6ccc([nH]6)c(-c6c(F)c(F)c(F)c(F)c6F)c6nc(c(-c7c(F)c(F)c(F)c(F)c7F)c7ccc4[nH]7)C=C6)C=C5)cc3)O2)c1
REMARK SMILES IDX 17 1 16 2 14 3 15 4 13 5 10 6 11 7 85 8 12 9 9 10 8 11 7 12
REMARK SMILES IDX 2 13 3 14 86 15 4 16 5 17 6 18 1 19 18 22 19 23 20 24 21 25
REMARK SMILES IDX 22 26 23 27 84 28 24 29 83 30 25 31 26 32 27 33 77 34 28 35
REMARK SMILES IDX 82 36 76 37 78 38 29 39 81 40 75 41 74 42 30 44 62 45 42 46
REMARK SMILES IDX 61 47 43 48 46 49 60 50 79 51 44 52 45 53 59 55 80 56 47 57
REMARK SMILES IDX 31 58 32 59 40 60 33 61 34 62 38 63 41 64 35 65 36 66 39 67
REMARK SMILES IDX 37 68 63 69 64 70 72 71 65 72 66 73 70 74 73 75 67 76 68 77
REMARK SMILES IDX 71 78 69 79 48 80 49 81 57 82 50 83 51 84 55 85 58 86 52 87
REMARK SMILES IDX 53 88 56 89 54 90
REMARK H PARENT 1 20 1 21 78 43 46 54
REMARK Flexibility Score: inf
ROOT
ATOM      1  C   UNL A   1      33.706  34.110  28.160  1.00  0.00     0.274 C 
ENDROOT
BRANCH   1   2
ATOM      2  O   UNL A   1      32.631  34.759  28.877  1.00  0.00    -0.460 OA
BRANCH   2   3
ATOM      3  C   UNL A   1      32.920  35.968  29.428  1.00  0.00     0.335 C 
ATOM      4  O   UNL A   1      33.240  36.965  28.784  1.00  0.00    -0.249 OA
BRANCH   3   5
ATOM      5  C   UNL A   1      32.803  35.989  30.962  1.00  0.00     0.228 C 
ATOM      6  C   UNL A   1      33.682  35.351  33.028  1.00  0.00     0.129 C 
ATOM      7  C   UNL A   1      33.343  36.839  33.069  1.00  0.00     0.036 C 
ATOM      8  O   UNL A   1      33.377  34.899  31.696  1.00  0.00    -0.362 OA
ATOM      9  C   UNL A   1      33.360  37.239  31.614  1.00  0.00     0.047 C 
BRANCH   6  10
ATOM     10  C   UNL A   1      35.111  35.021  33.516  1.00  0.00     0.107 C 
BRANCH  10  11
ATOM     11  S   UNL A   1      35.835  33.404  33.075  1.00  0.00    -0.122 SA
BRANCH  11  12
ATOM     12  C   UNL A   1      36.942  33.752  31.685  1.00  0.00     0.028 A 
ATOM     13  C   UNL A   1      37.406  33.814  29.270  1.00  0.00     0.033 A 
ATOM     14  C   UNL A   1      38.647  34.388  29.523  1.00  0.00     0.027 A 
ATOM     15  C   UNL A   1      36.581  33.484  30.352  1.00  0.00     0.042 A 
ATOM     16  C   UNL A   1      39.040  34.669  30.830  1.00  0.00     0.024 A 
ATOM     17  C   UNL A   1      38.202  34.347  31.907  1.00  0.00     0.054 A 
ATOM     18  Cl  UNL A   1      38.794  34.753  33.486  1.00  0.00    -0.083 Cl
BRANCH  13  19
ATOM     19  N   UNL A   1      37.028  33.463  27.984  1.00  0.00    -0.399 N 
ATOM     20  H   UNL A   1      36.432  32.693  27.839  1.00  0.00     0.156 HD
ATOM     21  H   UNL A   1      37.356  33.983  27.215  1.00  0.00     0.156 HD
ENDBRANCH  13  19
ENDBRANCH  11  12
ENDBRANCH  10  11
ENDBRANCH   6  10
ENDBRANCH   3   5
ENDBRANCH   2   3
ENDBRANCH   1   2
BRANCH   1  22
ATOM     22  C   UNL A   1      33.434  32.629  27.848  1.00  0.00     0.275 C 
BRANCH  22  23
ATOM     23  O   UNL A   1      34.292  31.716  28.569  1.00  0.00    -0.458 OA
BRANCH  23  24
ATOM     24  C   UNL A   1      34.654  30.653  27.820  1.00  0.00     0.338 C 
ATOM     25  O   UNL A   1      34.024  30.216  26.874  1.00  0.00    -0.246 OA
BRANCH  24  26
ATOM     26  C   UNL A   1      35.946  30.059  28.189  1.00  0.00     0.060 A 
ATOM     27  C   UNL A   1      36.119  29.721  29.534  1.00  0.00     0.016 A 
ATOM     28  C   UNL A   1      37.027  30.017  27.307  1.00  0.00     0.016 A 
ATOM     29  C   UNL A   1      37.377  29.374  30.011  1.00  0.00     0.010 A 
ATOM     30  C   UNL A   1      38.296  29.654  27.786  1.00  0.00     0.010 A 
ATOM     31  C   UNL A   1      38.482  29.354  29.146  1.00  0.00    -0.014 A 
BRANCH  31  32
ATOM     32  C   UNL A   1      39.790  28.940  29.707  1.00  0.00     0.031 A 
ATOM     33  C   UNL A   1      40.435  27.640  29.336  1.00  0.00     0.074 A 
ATOM     34  C   UNL A   1      40.466  29.823  30.460  1.00  0.00     0.049 A 
ATOM     35  N   UNL A   1      41.695  27.294  29.429  1.00  0.00    -0.248 NA
ATOM     36  C   UNL A   1      39.575  26.610  28.745  1.00  0.00     0.031 C 
ATOM     37  C   UNL A   1      39.958  31.127  30.880  1.00  0.00     0.029 A 
ATOM     38  N   UNL A   1      41.727  29.759  30.992  1.00  0.00    -0.354 N 
ATOM     39  C   UNL A   1      41.796  26.059  28.805  1.00  0.00     0.074 A 
ATOM     40  C   UNL A   1      40.459  25.683  28.395  1.00  0.00     0.031 C 
ATOM     41  C   UNL A   1      40.894  31.738  31.621  1.00  0.00     0.029 A 
ATOM     42  C   UNL A   1      42.057  30.862  31.734  1.00  0.00     0.049 A 
ATOM     43  H   UNL A   1      42.335  28.996  30.855  1.00  0.00     0.167 HD
ATOM     44  C   UNL A   1      42.909  25.320  28.589  1.00  0.00     0.037 A 
ATOM     45  C   UNL A   1      43.171  31.130  32.440  1.00  0.00     0.037 A 
ATOM     46  C   UNL A   1      44.202  25.614  29.153  1.00  0.00     0.049 A 
ATOM     47  C   UNL A   1      44.323  30.173  32.385  1.00  0.00     0.074 A 
ATOM     48  C   UNL A   1      45.388  24.913  29.016  1.00  0.00     0.029 A 
ATOM     49  N   UNL A   1      44.456  26.661  30.026  1.00  0.00    -0.354 N 
ATOM     50  N   UNL A   1      44.455  29.082  31.670  1.00  0.00    -0.248 NA
ATOM     51  C   UNL A   1      45.486  30.488  33.223  1.00  0.00     0.031 C 
ATOM     52  C   UNL A   1      46.336  25.488  29.875  1.00  0.00     0.029 A 
ATOM     53  C   UNL A   1      45.755  26.578  30.503  1.00  0.00     0.049 A 
ATOM     54  H   UNL A   1      43.808  27.361  30.271  1.00  0.00     0.167 HD
ATOM     55  C   UNL A   1      45.718  28.585  31.960  1.00  0.00     0.074 A 
ATOM     56  C   UNL A   1      46.316  29.504  32.908  1.00  0.00     0.031 C 
ATOM     57  C   UNL A   1      46.327  27.474  31.477  1.00  0.00     0.037 A 
BRANCH  44  58
ATOM     58  C   UNL A   1      42.778  24.104  27.724  1.00  0.00     0.064 A 
ATOM     59  C   UNL A   1      43.016  24.178  26.343  1.00  0.00     0.173 A 
ATOM     60  C   UNL A   1      42.492  22.850  28.278  1.00  0.00     0.173 A 
ATOM     61  F   UNL A   1      43.292  25.359  25.768  1.00  0.00    -0.203 F 
ATOM     62  C   UNL A   1      42.971  23.035  25.547  1.00  0.00     0.198 A 
ATOM     63  C   UNL A   1      42.456  21.708  27.481  1.00  0.00     0.198 A 
ATOM     64  F   UNL A   1      42.260  22.731  29.593  1.00  0.00    -0.203 F 
ATOM     65  F   UNL A   1      43.197  23.128  24.229  1.00  0.00    -0.200 F 
ATOM     66  C   UNL A   1      42.696  21.801  26.117  1.00  0.00     0.200 A 
ATOM     67  F   UNL A   1      42.195  20.515  28.032  1.00  0.00    -0.200 F 
ATOM     68  F   UNL A   1      42.663  20.701  25.354  1.00  0.00    -0.200 F 
ENDBRANCH  44  58
BRANCH  45  69
ATOM     69  C   UNL A   1      43.203  32.352  33.278  1.00  0.00     0.064 A 
ATOM     70  C   UNL A   1      43.719  33.559  32.796  1.00  0.00     0.173 A 
ATOM     71  C   UNL A   1      42.650  32.339  34.569  1.00  0.00     0.173 A 
ATOM     72  F   UNL A   1      44.275  33.612  31.577  1.00  0.00    -0.203 F 
ATOM     73  C   UNL A   1      43.675  34.714  33.574  1.00  0.00     0.198 A 
ATOM     74  C   UNL A   1      42.584  33.499  35.333  1.00  0.00     0.198 A 
ATOM     75  F   UNL A   1      42.145  31.203  35.070  1.00  0.00    -0.203 F 
ATOM     76  F   UNL A   1      44.189  35.857  33.100  1.00  0.00    -0.200 F 
ATOM     77  C   UNL A   1      43.097  34.686  34.836  1.00  0.00     0.200 A 
ATOM     78  F   UNL A   1      42.012  33.468  36.545  1.00  0.00    -0.200 F 
ATOM     79  F   UNL A   1      43.035  35.803  35.573  1.00  0.00    -0.200 F 
ENDBRANCH  45  69
BRANCH  57  80
ATOM     80  C   UNL A   1      47.707  27.182  31.986  1.00  0.00     0.064 A 
ATOM     81  C   UNL A   1      48.840  27.736  31.372  1.00  0.00     0.173 A 
ATOM     82  C   UNL A   1      47.900  26.349  33.096  1.00  0.00     0.173 A 
ATOM     83  F   UNL A   1      48.708  28.526  30.297  1.00  0.00    -0.203 F 
ATOM     84  C   UNL A   1      50.121  27.439  31.833  1.00  0.00     0.198 A 
ATOM     85  C   UNL A   1      49.180  26.075  33.572  1.00  0.00     0.198 A 
ATOM     86  F   UNL A   1      46.849  25.799  33.721  1.00  0.00    -0.203 F 
ATOM     87  F   UNL A   1      51.191  27.936  31.199  1.00  0.00    -0.200 F 
ATOM     88  C   UNL A   1      50.289  26.613  32.935  1.00  0.00     0.200 A 
ATOM     89  F   UNL A   1      49.342  25.284  34.641  1.00  0.00    -0.200 F 
ATOM     90  F   UNL A   1      51.522  26.324  33.374  1.00  0.00    -0.200 F 
ENDBRANCH  57  80
ENDBRANCH  31  32
ENDBRANCH  24  26
ENDBRANCH  23  24
ENDBRANCH  22  23
ENDBRANCH   1  22
TORSDOF 15
ENDMDL
MODEL 3
REMARK VINA RESULT:     -10.7      5.050     10.738
REMARK SMILES Nc1ccc(Cl)c(SC[C@H]2CC[C@@H](C(=O)OCCOC(=O)c3ccc(-c4c5nc(c(-c6c(F)c(F)c(F)c(F)c6F)c6ccc([nH]6)c(-c6c(F)c(F)c(F)c(F)c6F)c6nc(c(-c7c(F)c(F)c(F)c(F)c7F)c7ccc4[nH]7)C=C6)C=C5)cc3)O2)c1
REMARK SMILES IDX 17 1 16 2 14 3 15 4 13 5 10 6 11 7 85 8 12 9 9 10 8 11 7 12
REMARK SMILES IDX 2 13 3 14 86 15 4 16 5 17 6 18 1 19 18 22 19 23 20 24 21 25
REMARK SMILES IDX 22 26 23 27 84 28 24 29 83 30 25 31 26 32 27 33 77 34 28 35
REMARK SMILES IDX 82 36 76 37 78 38 29 39 81 40 75 41 74 42 30 44 62 45 42 46
REMARK SMILES IDX 61 47 43 48 46 49 60 50 79 51 44 52 45 53 59 55 80 56 47 57
REMARK SMILES IDX 31 58 32 59 40 60 33 61 34 62 38 63 41 64 35 65 36 66 39 67
REMARK SMILES IDX 37 68 63 69 64 70 72 71 65 72 66 73 70 74 73 75 67 76 68 77
REMARK SMILES IDX 71 78 69 79 48 80 49 81 57 82 50 83 51 84 55 85 58 86 52 87
REMARK SMILES IDX 53 88 56 89 54 90
REMARK H PARENT 1 20 1 21 78 43 46 54
REMARK Flexibility Score: inf
ROOT
ATOM      1  C   UNL A   1      40.860  19.966  26.369  1.00  0.00     0.274 C 
ENDROOT
BRANCH   1   2
ATOM      2  O   UNL A   1      42.198  19.567  26.741  1.00  0.00    -0.460 OA
BRANCH   2   3
ATOM      3  C   UNL A   1      42.814  18.683  25.910  1.00  0.00     0.335 C 
ATOM      4  O   UNL A   1      42.547  17.485  25.853  1.00  0.00    -0.249 OA
BRANCH   3   5
ATOM      5  C   UNL A   1      43.894  19.323  25.021  1.00  0.00     0.228 C 
ATOM      6  C   UNL A   1      45.308  21.135  24.609  1.00  0.00     0.129 C 
ATOM      7  C   UNL A   1      46.112  19.841  24.504  1.00  0.00     0.036 C 
ATOM      8  O   UNL A   1      43.969  20.755  24.979  1.00  0.00    -0.362 OA
ATOM      9  C   UNL A   1      45.307  18.864  25.325  1.00  0.00     0.047 C 
BRANCH   6  10
ATOM     10  C   UNL A   1      45.956  22.203  25.520  1.00  0.00     0.107 C 
BRANCH  10  11
ATOM     11  S   UNL A   1      44.902  23.085  26.722  1.00  0.00    -0.122 SA
BRANCH  11  12
ATOM     12  C   UNL A   1      45.141  24.841  26.353  1.00  0.00     0.028 A 
ATOM     13  C   UNL A   1      44.334  26.972  25.425  1.00  0.00     0.033 A 
ATOM     14  C   UNL A   1      45.493  27.603  25.867  1.00  0.00     0.027 A 
ATOM     15  C   UNL A   1      44.185  25.598  25.653  1.00  0.00     0.042 A 
ATOM     16  C   UNL A   1      46.463  26.886  26.564  1.00  0.00     0.024 A 
ATOM     17  C   UNL A   1      46.298  25.514  26.799  1.00  0.00     0.054 A 
ATOM     18  Cl  UNL A   1      47.568  24.731  27.685  1.00  0.00    -0.083 Cl
BRANCH  13  19
ATOM     19  N   UNL A   1      43.392  27.652  24.670  1.00  0.00    -0.399 N 
ATOM     20  H   UNL A   1      42.510  27.247  24.503  1.00  0.00     0.156 HD
ATOM     21  H   UNL A   1      43.605  28.539  24.300  1.00  0.00     0.156 HD
ENDBRANCH  13  19
ENDBRANCH  11  12
ENDBRANCH  10  11
ENDBRANCH   6  10
ENDBRANCH   3   5
ENDBRANCH   2   3
ENDBRANCH   1   2
BRANCH   1  22
ATOM     22  C   UNL A   1      40.406  21.284  27.018  1.00  0.00     0.275 C 
BRANCH  22  23
ATOM     23  O   UNL A   1      40.287  22.381  26.085  1.00  0.00    -0.458 OA
BRANCH  23  24
ATOM     24  C   UNL A   1      39.181  23.125  26.307  1.00  0.00     0.338 C 
ATOM     25  O   UNL A   1      38.039  22.763  26.092  1.00  0.00    -0.246 OA
BRANCH  24  26
ATOM     26  C   UNL A   1      39.443  24.440  26.908  1.00  0.00     0.060 A 
ATOM     27  C   UNL A   1      40.248  25.316  26.174  1.00  0.00     0.016 A 
ATOM     28  C   UNL A   1      39.090  24.741  28.224  1.00  0.00     0.016 A 
ATOM     29  C   UNL A   1      40.733  26.477  26.764  1.00  0.00     0.010 A 
ATOM     30  C   UNL A   1      39.570  25.921  28.815  1.00  0.00     0.010 A 
ATOM     31  C   UNL A   1      40.413  26.784  28.095  1.00  0.00    -0.014 A 
BRANCH  31  32
ATOM     32  C   UNL A   1      40.931  28.055  28.654  1.00  0.00     0.031 A 
ATOM     33  C   UNL A   1      40.044  29.242  28.875  1.00  0.00     0.074 A 
ATOM     34  C   UNL A   1      42.199  28.085  29.096  1.00  0.00     0.049 A 
ATOM     35  N   UNL A   1      40.229  30.267  29.669  1.00  0.00    -0.248 NA
ATOM     36  C   UNL A   1      38.768  29.268  28.153  1.00  0.00     0.031 C 
ATOM     37  C   UNL A   1      43.160  26.993  28.955  1.00  0.00     0.029 A 
ATOM     38  N   UNL A   1      42.888  29.065  29.761  1.00  0.00    -0.354 N 
ATOM     39  C   UNL A   1      39.049  30.996  29.628  1.00  0.00     0.074 A 
ATOM     40  C   UNL A   1      38.177  30.333  28.681  1.00  0.00     0.031 C 
ATOM     41  C   UNL A   1      44.324  27.369  29.505  1.00  0.00     0.029 A 
ATOM     42  C   UNL A   1      44.189  28.728  30.022  1.00  0.00     0.049 A 
ATOM     43  H   UNL A   1      42.487  29.925  30.023  1.00  0.00     0.167 HD
ATOM     44  C   UNL A   1      38.729  32.108  30.330  1.00  0.00     0.037 A 
ATOM     45  C   UNL A   1      45.170  29.444  30.602  1.00  0.00     0.037 A 
ATOM     46  C   UNL A   1      39.661  32.859  31.132  1.00  0.00     0.049 A 
ATOM     47  C   UNL A   1      44.856  30.795  31.169  1.00  0.00     0.074 A 
ATOM     48  C   UNL A   1      39.443  34.015  31.862  1.00  0.00     0.029 A 
ATOM     49  N   UNL A   1      41.011  32.566  31.246  1.00  0.00    -0.354 N 
ATOM     50  N   UNL A   1      43.698  31.405  31.254  1.00  0.00    -0.248 NA
ATOM     51  C   UNL A   1      45.978  31.553  31.734  1.00  0.00     0.031 C 
ATOM     52  C   UNL A   1      40.680  34.466  32.345  1.00  0.00     0.029 A 
ATOM     53  C   UNL A   1      41.657  33.562  31.962  1.00  0.00     0.049 A 
ATOM     54  H   UNL A   1      41.448  31.766  30.872  1.00  0.00     0.167 HD
ATOM     55  C   UNL A   1      43.947  32.612  31.891  1.00  0.00     0.074 A 
ATOM     56  C   UNL A   1      45.367  32.641  32.183  1.00  0.00     0.031 C 
ATOM     57  C   UNL A   1      43.076  33.601  32.211  1.00  0.00     0.037 A 
BRANCH  44  58
ATOM     58  C   UNL A   1      37.316  32.599  30.246  1.00  0.00     0.064 A 
ATOM     59  C   UNL A   1      36.371  32.230  31.215  1.00  0.00     0.173 A 
ATOM     60  C   UNL A   1      36.922  33.498  29.247  1.00  0.00     0.173 A 
ATOM     61  F   UNL A   1      36.704  31.371  32.190  1.00  0.00    -0.203 F 
ATOM     62  C   UNL A   1      35.077  32.746  31.184  1.00  0.00     0.198 A 
ATOM     63  C   UNL A   1      35.630  34.019  29.224  1.00  0.00     0.198 A 
ATOM     64  F   UNL A   1      37.793  33.880  28.301  1.00  0.00    -0.203 F 
ATOM     65  F   UNL A   1      34.187  32.379  32.117  1.00  0.00    -0.200 F 
ATOM     66  C   UNL A   1      34.709  33.644  30.192  1.00  0.00     0.200 A 
ATOM     67  F   UNL A   1      35.276  34.888  28.268  1.00  0.00    -0.200 F 
ATOM     68  F   UNL A   1      33.468  34.148  30.169  1.00  0.00    -0.200 F 
ENDBRANCH  44  58
BRANCH  45  69
ATOM     69  C   UNL A   1      46.540  28.880  30.626  1.00  0.00     0.064 A 
ATOM     70  C   UNL A   1      47.020  28.163  31.727  1.00  0.00     0.173 A 
ATOM     71  C   UNL A   1      47.375  29.002  29.504  1.00  0.00     0.173 A 
ATOM     72  F   UNL A   1      46.264  28.039  32.827  1.00  0.00    -0.203 F 
ATOM     73  C   UNL A   1      48.285  27.580  31.702  1.00  0.00     0.198 A 
ATOM     74  C   UNL A   1      48.628  28.397  29.471  1.00  0.00     0.198 A 
ATOM     75  F   UNL A   1      46.957  29.682  28.427  1.00  0.00    -0.203 F 
ATOM     76  F   UNL A   1      48.732  26.910  32.773  1.00  0.00    -0.200 F 
ATOM     77  C   UNL A   1      49.082  27.688  30.571  1.00  0.00     0.200 A 
ATOM     78  F   UNL A   1      49.386  28.493  28.371  1.00  0.00    -0.200 F 
ATOM     79  F   UNL A   1      50.289  27.106  30.540  1.00  0.00    -0.200 F 
ENDBRANCH  45  69
BRANCH  57  80
ATOM     80  C   UNL A   1      43.644  34.807  32.897  1.00  0.00     0.064 A 
ATOM     81  C   UNL A   1      43.822  34.836  34.288  1.00  0.00     0.173 A 
ATOM     82  C   UNL A   1      44.016  35.941  32.162  1.00  0.00     0.173 A 
ATOM     83  F   UNL A   1      43.465  33.782  35.037  1.00  0.00    -0.203 F 
ATOM     84  C   UNL A   1      44.325  35.970  34.922  1.00  0.00     0.198 A 
ATOM     85  C   UNL A   1      44.543  37.064  32.795  1.00  0.00     0.198 A 
ATOM     86  F   UNL A   1      43.870  35.961  30.829  1.00  0.00    -0.203 F 
ATOM     87  F   UNL A   1      44.437  35.995  36.257  1.00  0.00    -0.200 F 
ATOM     88  C   UNL A   1      44.688  37.081  34.174  1.00  0.00     0.200 A 
ATOM     89  F   UNL A   1      44.902  38.133  32.072  1.00  0.00    -0.200 F 
ATOM     90  F   UNL A   1      45.167  38.173  34.787  1.00  0.00    -0.200 F 
ENDBRANCH  57  80
ENDBRANCH  31  32
ENDBRANCH  24  26
ENDBRANCH  23  24
ENDBRANCH  22  23
ENDBRANCH   1  22
TORSDOF 15
ENDMDL
