MODEL 1
REMARK VINA RESULT:     -11.3      0.000      0.000
REMARK SMILES O=C(OCCOC(=O)[C@H]1CC[C@@H](CNC(=O)[C@@H]2CCC[NH2+]C2)O1)c1ccc(-c2c3nc(c(-c4c(F)c(F)c(F)c(F)c4F)c4ccc([nH]4)c(-c4c(F)c(F)c(F)c(F)c4F)c4nc(c(-c5c(F)c(F)c(F)c(F)c5F)c5ccc2[nH]5)C=C4)C=C3)cc1
REMARK SMILES IDX 5 1 4 2 3 3 2 4 1 5 24 6 25 7 86 8 26 9 85 10 27 11 28 12
REMARK SMILES IDX 29 13 79 14 30 15 84 16 78 17 80 18 31 19 83 20 77 21 76 22
REMARK SMILES IDX 32 24 64 25 44 26 63 27 45 28 48 29 62 30 81 31 46 32 47 33
REMARK SMILES IDX 61 35 82 36 49 37 33 38 34 39 42 40 35 41 36 42 40 43 43 44
REMARK SMILES IDX 37 45 38 46 41 47 39 48 65 49 66 50 74 51 67 52 68 53 72 54
REMARK SMILES IDX 75 55 69 56 70 57 73 58 71 59 50 60 51 61 59 62 52 63 53 64
REMARK SMILES IDX 57 65 60 66 54 67 55 68 58 69 56 70 6 71 7 72 8 73 9 74
REMARK SMILES IDX 10 75 23 76 11 77 12 78 13 79 14 80 15 81 16 83 17 84 18 85
REMARK SMILES IDX 22 86 19 87 21 88 20 89
REMARK H PARENT 80 23 48 34 14 82 21 90 21 91
REMARK Flexibility Score: inf
ROOT
ATOM      1  C   UNL A   1      31.340  31.718  26.512  1.00  0.00     0.274 C 
ENDROOT
BRANCH   1   2
ATOM      2  C   UNL A   1      32.566  32.561  26.875  1.00  0.00     0.275 C 
BRANCH   2   3
ATOM      3  O   UNL A   1      32.214  33.779  27.560  1.00  0.00    -0.458 OA
BRANCH   3   4
ATOM      4  C   UNL A   1      32.903  34.464  28.506  1.00  0.00     0.338 C 
ATOM      5  O   UNL A   1      32.569  35.622  28.753  1.00  0.00    -0.246 OA
BRANCH   4   6
ATOM      6  C   UNL A   1      34.166  33.954  29.138  1.00  0.00     0.060 A 
ATOM      7  C   UNL A   1      35.474  34.276  28.763  1.00  0.00     0.016 A 
ATOM      8  C   UNL A   1      33.999  33.098  30.245  1.00  0.00     0.016 A 
ATOM      9  C   UNL A   1      36.572  33.865  29.527  1.00  0.00     0.010 A 
ATOM     10  C   UNL A   1      35.089  32.675  31.010  1.00  0.00     0.010 A 
ATOM     11  C   UNL A   1      36.382  33.074  30.660  1.00  0.00    -0.014 A 
BRANCH  11  12
ATOM     12  C   UNL A   1      37.551  32.489  31.345  1.00  0.00     0.031 A 
ATOM     13  C   UNL A   1      38.252  31.368  30.651  1.00  0.00     0.074 A 
ATOM     14  C   UNL A   1      37.972  32.944  32.538  1.00  0.00     0.049 A 
ATOM     15  N   UNL A   1      39.273  30.656  31.043  1.00  0.00    -0.248 NA
ATOM     16  C   UNL A   1      37.730  31.007  29.322  1.00  0.00     0.031 C 
ATOM     17  C   UNL A   1      37.397  34.073  33.259  1.00  0.00     0.029 A 
ATOM     18  N   UNL A   1      38.974  32.501  33.363  1.00  0.00    -0.354 N 
ATOM     19  C   UNL A   1      39.518  29.767  30.007  1.00  0.00     0.074 A 
ATOM     20  C   UNL A   1      38.518  29.999  28.991  1.00  0.00     0.031 C 
ATOM     21  C   UNL A   1      38.019  34.210  34.442  1.00  0.00     0.029 A 
ATOM     22  C   UNL A   1      39.028  33.164  34.566  1.00  0.00     0.049 A 
ATOM     23  H   UNL A   1      39.595  31.778  33.117  1.00  0.00     0.167 HD
ATOM     24  C   UNL A   1      40.499  28.841  29.917  1.00  0.00     0.037 A 
ATOM     25  C   UNL A   1      39.792  32.928  35.650  1.00  0.00     0.037 A 
ATOM     26  C   UNL A   1      41.446  28.594  30.967  1.00  0.00     0.049 A 
ATOM     27  C   UNL A   1      40.812  31.822  35.576  1.00  0.00     0.074 A 
ATOM     28  C   UNL A   1      42.470  27.669  31.007  1.00  0.00     0.029 A 
ATOM     29  N   UNL A   1      41.460  29.270  32.181  1.00  0.00    -0.354 N 
ATOM     30  N   UNL A   1      41.068  31.004  34.581  1.00  0.00    -0.248 NA
ATOM     31  C   UNL A   1      41.658  31.609  36.758  1.00  0.00     0.031 C 
ATOM     32  C   UNL A   1      43.061  27.739  32.273  1.00  0.00     0.029 A 
ATOM     33  C   UNL A   1      42.455  28.758  32.994  1.00  0.00     0.049 A 
ATOM     34  H   UNL A   1      40.852  30.004  32.426  1.00  0.00     0.167 HD
ATOM     35  C   UNL A   1      42.125  30.209  34.997  1.00  0.00     0.074 A 
ATOM     36  C   UNL A   1      42.459  30.637  36.341  1.00  0.00     0.031 C 
ATOM     37  C   UNL A   1      42.770  29.224  34.324  1.00  0.00     0.037 A 
BRANCH  24  38
ATOM     38  C   UNL A   1      40.514  28.004  28.673  1.00  0.00     0.064 A 
ATOM     39  C   UNL A   1      39.848  26.768  28.605  1.00  0.00     0.173 A 
ATOM     40  C   UNL A   1      41.281  28.398  27.567  1.00  0.00     0.173 A 
ATOM     41  F   UNL A   1      39.126  26.332  29.648  1.00  0.00    -0.203 F 
ATOM     42  C   UNL A   1      40.002  25.932  27.502  1.00  0.00     0.198 A 
ATOM     43  C   UNL A   1      41.401  27.575  26.451  1.00  0.00     0.198 A 
ATOM     44  F   UNL A   1      41.940  29.565  27.583  1.00  0.00    -0.203 F 
ATOM     45  F   UNL A   1      39.437  24.718  27.501  1.00  0.00    -0.200 F 
ATOM     46  C   UNL A   1      40.778  26.337  26.427  1.00  0.00     0.200 A 
ATOM     47  F   UNL A   1      42.148  27.969  25.411  1.00  0.00    -0.200 F 
ATOM     48  F   UNL A   1      40.945  25.522  25.376  1.00  0.00    -0.200 F 
ENDBRANCH  24  38
BRANCH  25  49
ATOM     49  C   UNL A   1      39.612  33.747  36.879  1.00  0.00     0.064 A 
ATOM     50  C   UNL A   1      38.769  33.333  37.919  1.00  0.00     0.173 A 
ATOM     51  C   UNL A   1      40.305  34.957  37.050  1.00  0.00     0.173 A 
ATOM     52  F   UNL A   1      38.072  32.193  37.800  1.00  0.00    -0.203 F 
ATOM     53  C   UNL A   1      38.617  34.099  39.075  1.00  0.00     0.198 A 
ATOM     54  C   UNL A   1      40.171  35.710  38.215  1.00  0.00     0.198 A 
ATOM     55  F   UNL A   1      41.131  35.399  36.089  1.00  0.00    -0.203 F 
ATOM     56  F   UNL A   1      37.782  33.692  40.041  1.00  0.00    -0.200 F 
ATOM     57  C   UNL A   1      39.324  35.283  39.225  1.00  0.00     0.200 A 
ATOM     58  F   UNL A   1      40.868  36.844  38.361  1.00  0.00    -0.200 F 
ATOM     59  F   UNL A   1      39.186  36.012  40.341  1.00  0.00    -0.200 F 
ENDBRANCH  25  49
BRANCH  37  60
ATOM     60  C   UNL A   1      43.937  28.569  34.999  1.00  0.00     0.064 A 
ATOM     61  C   UNL A   1      43.793  27.397  35.754  1.00  0.00     0.173 A 
ATOM     62  C   UNL A   1      45.235  29.060  34.778  1.00  0.00     0.173 A 
ATOM     63  F   UNL A   1      42.573  26.899  36.002  1.00  0.00    -0.203 F 
ATOM     64  C   UNL A   1      44.908  26.738  36.263  1.00  0.00     0.198 A 
ATOM     65  C   UNL A   1      46.347  28.381  35.262  1.00  0.00     0.198 A 
ATOM     66  F   UNL A   1      45.421  30.174  34.057  1.00  0.00    -0.203 F 
ATOM     67  F   UNL A   1      44.750  25.629  36.998  1.00  0.00    -0.200 F 
ATOM     68  C   UNL A   1      46.184  27.221  36.004  1.00  0.00     0.200 A 
ATOM     69  F   UNL A   1      47.577  28.838  34.994  1.00  0.00    -0.200 F 
ATOM     70  F   UNL A   1      47.257  26.565  36.466  1.00  0.00    -0.200 F 
ENDBRANCH  37  60
ENDBRANCH  11  12
ENDBRANCH   4   6
ENDBRANCH   3   4
ENDBRANCH   2   3
ENDBRANCH   1   2
BRANCH   1  71
ATOM     71  O   UNL A   1      31.671  30.323  26.453  1.00  0.00    -0.460 OA
BRANCH  71  72
ATOM     72  C   UNL A   1      31.703  29.749  25.211  1.00  0.00     0.335 C 
ATOM     73  O   UNL A   1      30.764  29.703  24.434  1.00  0.00    -0.249 OA
BRANCH  72  74
ATOM     74  C   UNL A   1      33.120  29.261  24.908  1.00  0.00     0.228 C 
ATOM     75  C   UNL A   1      33.896  28.783  26.117  1.00  0.00     0.047 C 
ATOM     76  O   UNL A   1      33.043  28.159  23.997  1.00  0.00    -0.361 OA
ATOM     77  C   UNL A   1      33.652  27.292  26.098  1.00  0.00     0.037 C 
ATOM     78  C   UNL A   1      33.615  26.990  24.609  1.00  0.00     0.138 C 
BRANCH  78  79
ATOM     79  C   UNL A   1      32.833  25.751  24.145  1.00  0.00     0.147 C 
BRANCH  79  80
ATOM     80  N   UNL A   1      33.581  24.860  23.279  1.00  0.00    -0.353 N 
ATOM     81  C   UNL A   1      34.453  23.861  23.587  1.00  0.00     0.228 C 
ATOM     82  H   UNL A   1      33.435  25.001  22.316  1.00  0.00     0.163 HD
ATOM     83  O   UNL A   1      35.154  23.448  22.659  1.00  0.00    -0.275 OA
BRANCH  81  84
ATOM     84  C   UNL A   1      34.582  23.346  25.024  1.00  0.00     0.133 C 
ATOM     85  C   UNL A   1      35.708  24.078  25.778  1.00  0.00     0.025 C 
ATOM     86  C   UNL A   1      34.823  21.832  25.107  1.00  0.00     0.274 C 
ATOM     87  C   UNL A   1      37.094  23.600  25.341  1.00  0.00     0.062 C 
ATOM     88  N   UNL A   1      36.146  21.425  24.627  1.00  0.00    -0.346 N 
ATOM     89  C   UNL A   1      37.213  22.078  25.382  1.00  0.00     0.260 C 
ATOM     90  H   UNL A   1      36.238  20.414  24.729  1.00  0.00     0.346 HD
ATOM     91  H   UNL A   1      36.231  21.700  23.649  1.00  0.00     0.346 HD
ENDBRANCH  81  84
ENDBRANCH  79  80
ENDBRANCH  78  79
ENDBRANCH  72  74
ENDBRANCH  71  72
ENDBRANCH   1  71
TORSDOF 14
ENDMDL
MODEL 2
REMARK VINA RESULT:     -11.3      5.278     10.815
REMARK SMILES O=C(OCCOC(=O)[C@H]1CC[C@@H](CNC(=O)[C@@H]2CCC[NH2+]C2)O1)c1ccc(-c2c3nc(c(-c4c(F)c(F)c(F)c(F)c4F)c4ccc([nH]4)c(-c4c(F)c(F)c(F)c(F)c4F)c4nc(c(-c5c(F)c(F)c(F)c(F)c5F)c5ccc2[nH]5)C=C4)C=C3)cc1
REMARK SMILES IDX 5 1 4 2 3 3 2 4 1 5 24 6 25 7 86 8 26 9 85 10 27 11 28 12
REMARK SMILES IDX 29 13 79 14 30 15 84 16 78 17 80 18 31 19 83 20 77 21 76 22
REMARK SMILES IDX 32 24 64 25 44 26 63 27 45 28 48 29 62 30 81 31 46 32 47 33
REMARK SMILES IDX 61 35 82 36 49 37 33 38 34 39 42 40 35 41 36 42 40 43 43 44
REMARK SMILES IDX 37 45 38 46 41 47 39 48 65 49 66 50 74 51 67 52 68 53 72 54
REMARK SMILES IDX 75 55 69 56 70 57 73 58 71 59 50 60 51 61 59 62 52 63 53 64
REMARK SMILES IDX 57 65 60 66 54 67 55 68 58 69 56 70 6 71 7 72 8 73 9 74
REMARK SMILES IDX 10 75 23 76 11 77 12 78 13 79 14 80 15 81 16 83 17 84 18 85
REMARK SMILES IDX 22 86 19 87 21 88 20 89
REMARK H PARENT 80 23 48 34 14 82 21 90 21 91
REMARK Flexibility Score: inf
ROOT
ATOM      1  C   UNL A   1      37.938  19.962  24.672  1.00  0.00     0.274 C 
ENDROOT
BRANCH   1   2
ATOM      2  C   UNL A   1      38.938  20.130  25.820  1.00  0.00     0.275 C 
BRANCH   2   3
ATOM      3  O   UNL A   1      40.077  19.256  25.692  1.00  0.00    -0.458 OA
BRANCH   3   4
ATOM      4  C   UNL A   1      41.384  19.504  25.953  1.00  0.00     0.338 C 
ATOM      5  O   UNL A   1      42.181  18.568  25.896  1.00  0.00    -0.246 OA
BRANCH   4   6
ATOM      6  C   UNL A   1      41.885  20.813  26.490  1.00  0.00     0.060 A 
ATOM      7  C   UNL A   1      42.018  21.166  27.836  1.00  0.00     0.016 A 
ATOM      8  C   UNL A   1      42.297  21.756  25.526  1.00  0.00     0.016 A 
ATOM      9  C   UNL A   1      42.648  22.356  28.217  1.00  0.00     0.010 A 
ATOM     10  C   UNL A   1      42.918  22.951  25.896  1.00  0.00     0.010 A 
ATOM     11  C   UNL A   1      43.111  23.247  27.249  1.00  0.00    -0.014 A 
BRANCH  11  12
ATOM     12  C   UNL A   1      43.596  24.579  27.656  1.00  0.00     0.031 A 
ATOM     13  C   UNL A   1      42.562  25.606  27.984  1.00  0.00     0.074 A 
ATOM     14  C   UNL A   1      44.908  24.861  27.735  1.00  0.00     0.049 A 
ATOM     15  N   UNL A   1      42.711  26.856  28.329  1.00  0.00    -0.248 NA
ATOM     16  C   UNL A   1      41.162  25.153  27.919  1.00  0.00     0.031 C 
ATOM     17  C   UNL A   1      45.988  23.910  27.502  1.00  0.00     0.029 A 
ATOM     18  N   UNL A   1      45.558  26.035  28.019  1.00  0.00    -0.354 N 
ATOM     19  C   UNL A   1      41.424  27.336  28.527  1.00  0.00     0.074 A 
ATOM     20  C   UNL A   1      40.509  26.260  28.226  1.00  0.00     0.031 C 
ATOM     21  C   UNL A   1      47.169  24.542  27.603  1.00  0.00     0.029 A 
ATOM     22  C   UNL A   1      46.923  25.951  27.893  1.00  0.00     0.049 A 
ATOM     23  H   UNL A   1      45.090  26.859  28.287  1.00  0.00     0.167 HD
ATOM     24  C   UNL A   1      41.047  28.569  28.932  1.00  0.00     0.037 A 
ATOM     25  C   UNL A   1      47.861  26.915  27.977  1.00  0.00     0.037 A 
ATOM     26  C   UNL A   1      41.978  29.636  29.173  1.00  0.00     0.049 A 
ATOM     27  C   UNL A   1      47.417  28.312  28.326  1.00  0.00     0.074 A 
ATOM     28  C   UNL A   1      41.720  30.936  29.561  1.00  0.00     0.029 A 
ATOM     29  N   UNL A   1      43.354  29.523  29.016  1.00  0.00    -0.354 N 
ATOM     30  N   UNL A   1      46.203  28.757  28.550  1.00  0.00    -0.248 NA
ATOM     31  C   UNL A   1      48.462  29.336  28.448  1.00  0.00     0.031 C 
ATOM     32  C   UNL A   1      42.936  31.628  29.574  1.00  0.00     0.029 A 
ATOM     33  C   UNL A   1      43.959  30.741  29.267  1.00  0.00     0.049 A 
ATOM     34  H   UNL A   1      43.828  28.698  28.763  1.00  0.00     0.167 HD
ATOM     35  C   UNL A   1      46.338  30.097  28.877  1.00  0.00     0.074 A 
ATOM     36  C   UNL A   1      47.755  30.397  28.815  1.00  0.00     0.031 C 
ATOM     37  C   UNL A   1      45.379  30.996  29.212  1.00  0.00     0.037 A 
BRANCH  24  38
ATOM     38  C   UNL A   1      39.573  28.811  29.051  1.00  0.00     0.064 A 
ATOM     39  C   UNL A   1      38.807  29.262  27.962  1.00  0.00     0.173 A 
ATOM     40  C   UNL A   1      38.934  28.681  30.292  1.00  0.00     0.173 A 
ATOM     41  F   UNL A   1      39.378  29.433  26.760  1.00  0.00    -0.203 F 
ATOM     42  C   UNL A   1      37.475  29.632  28.128  1.00  0.00     0.198 A 
ATOM     43  C   UNL A   1      37.592  29.016  30.445  1.00  0.00     0.198 A 
ATOM     44  F   UNL A   1      39.620  28.259  31.365  1.00  0.00    -0.203 F 
ATOM     45  F   UNL A   1      36.793  30.151  27.099  1.00  0.00    -0.200 F 
ATOM     46  C   UNL A   1      36.869  29.509  29.369  1.00  0.00     0.200 A 
ATOM     47  F   UNL A   1      37.007  28.893  31.644  1.00  0.00    -0.200 F 
ATOM     48  F   UNL A   1      35.594  29.888  29.534  1.00  0.00    -0.200 F 
ENDBRANCH  24  38
BRANCH  25  49
ATOM     49  C   UNL A   1      49.290  26.587  27.724  1.00  0.00     0.064 A 
ATOM     50  C   UNL A   1      50.195  26.395  28.776  1.00  0.00     0.173 A 
ATOM     51  C   UNL A   1      49.775  26.433  26.414  1.00  0.00     0.173 A 
ATOM     52  F   UNL A   1      49.787  26.545  30.044  1.00  0.00    -0.203 F 
ATOM     53  C   UNL A   1      51.531  26.073  28.530  1.00  0.00     0.198 A 
ATOM     54  C   UNL A   1      51.104  26.088  26.171  1.00  0.00     0.198 A 
ATOM     55  F   UNL A   1      48.952  26.599  25.369  1.00  0.00    -0.203 F 
ATOM     56  F   UNL A   1      52.380  25.922  29.555  1.00  0.00    -0.200 F 
ATOM     57  C   UNL A   1      51.981  25.912  27.228  1.00  0.00     0.200 A 
ATOM     58  F   UNL A   1      51.530  25.919  24.912  1.00  0.00    -0.200 F 
ATOM     59  F   UNL A   1      53.262  25.590  26.994  1.00  0.00    -0.200 F 
ENDBRANCH  25  49
BRANCH  37  60
ATOM     60  C   UNL A   1      45.821  32.378  29.591  1.00  0.00     0.064 A 
ATOM     61  C   UNL A   1      45.873  33.420  28.656  1.00  0.00     0.173 A 
ATOM     62  C   UNL A   1      46.076  32.682  30.938  1.00  0.00     0.173 A 
ATOM     63  F   UNL A   1      45.651  33.174  27.357  1.00  0.00    -0.203 F 
ATOM     64  C   UNL A   1      46.163  34.721  29.057  1.00  0.00     0.198 A 
ATOM     65  C   UNL A   1      46.335  33.988  31.339  1.00  0.00     0.198 A 
ATOM     66  F   UNL A   1      46.031  31.718  31.869  1.00  0.00    -0.203 F 
ATOM     67  F   UNL A   1      46.226  35.701  28.146  1.00  0.00    -0.200 F 
ATOM     68  C   UNL A   1      46.378  35.007  30.398  1.00  0.00     0.200 A 
ATOM     69  F   UNL A   1      46.522  34.264  32.636  1.00  0.00    -0.200 F 
ATOM     70  F   UNL A   1      46.623  36.266  30.785  1.00  0.00    -0.200 F 
ENDBRANCH  37  60
ENDBRANCH  11  12
ENDBRANCH   4   6
ENDBRANCH   3   4
ENDBRANCH   2   3
ENDBRANCH   1   2
BRANCH   1  71
ATOM     71  O   UNL A   1      37.087  21.112  24.555  1.00  0.00    -0.460 OA
BRANCH  71  72
ATOM     72  C   UNL A   1      35.848  21.022  25.129  1.00  0.00     0.335 C 
ATOM     73  O   UNL A   1      35.014  20.172  24.870  1.00  0.00    -0.249 OA
BRANCH  72  74
ATOM     74  C   UNL A   1      35.706  22.092  26.212  1.00  0.00     0.228 C 
ATOM     75  C   UNL A   1      36.501  23.356  25.961  1.00  0.00     0.047 C 
ATOM     76  O   UNL A   1      34.329  22.474  26.307  1.00  0.00    -0.361 OA
ATOM     77  C   UNL A   1      35.486  24.257  25.296  1.00  0.00     0.037 C 
ATOM     78  C   UNL A   1      34.199  23.874  26.010  1.00  0.00     0.138 C 
BRANCH  78  79
ATOM     79  C   UNL A   1      32.871  24.107  25.273  1.00  0.00     0.147 C 
BRANCH  79  80
ATOM     80  N   UNL A   1      31.912  24.912  26.004  1.00  0.00    -0.353 N 
ATOM     81  C   UNL A   1      31.836  26.263  26.161  1.00  0.00     0.228 C 
ATOM     82  H   UNL A   1      31.205  24.402  26.460  1.00  0.00     0.163 HD
ATOM     83  O   UNL A   1      31.086  26.663  27.056  1.00  0.00    -0.275 OA
BRANCH  81  84
ATOM     84  C   UNL A   1      32.694  27.202  25.308  1.00  0.00     0.133 C 
ATOM     85  C   UNL A   1      33.974  27.620  26.056  1.00  0.00     0.025 C 
ATOM     86  C   UNL A   1      31.945  28.462  24.852  1.00  0.00     0.274 C 
ATOM     87  C   UNL A   1      33.687  28.655  27.146  1.00  0.00     0.062 C 
ATOM     88  N   UNL A   1      31.650  29.393  25.945  1.00  0.00    -0.346 N 
ATOM     89  C   UNL A   1      32.871  29.832  26.616  1.00  0.00     0.260 C 
ATOM     90  H   UNL A   1      31.170  30.209  25.563  1.00  0.00     0.346 HD
ATOM     91  H   UNL A   1      31.064  28.913  26.626  1.00  0.00     0.346 HD
ENDBRANCH  81  84
ENDBRANCH  79  80
ENDBRANCH  78  79
ENDBRANCH  72  74
ENDBRANCH  71  72
ENDBRANCH   1  71
TORSDOF 14
ENDMDL
MODEL 3
REMARK VINA RESULT:     -11.2      5.530     11.252
REMARK SMILES O=C(OCCOC(=O)[C@H]1CC[C@@H](CNC(=O)[C@@H]2CCC[NH2+]C2)O1)c1ccc(-c2c3nc(c(-c4c(F)c(F)c(F)c(F)c4F)c4ccc([nH]4)c(-c4c(F)c(F)c(F)c(F)c4F)c4nc(c(-c5c(F)c(F)c(F)c(F)c5F)c5ccc2[nH]5)C=C4)C=C3)cc1
REMARK SMILES IDX 5 1 4 2 3 3 2 4 1 5 24 6 25 7 86 8 26 9 85 10 27 11 28 12
REMARK SMILES IDX 29 13 79 14 30 15 84 16 78 17 80 18 31 19 83 20 77 21 76 22
REMARK SMILES IDX 32 24 64 25 44 26 63 27 45 28 48 29 62 30 81 31 46 32 47 33
REMARK SMILES IDX 61 35 82 36 49 37 33 38 34 39 42 40 35 41 36 42 40 43 43 44
REMARK SMILES IDX 37 45 38 46 41 47 39 48 65 49 66 50 74 51 67 52 68 53 72 54
REMARK SMILES IDX 75 55 69 56 70 57 73 58 71 59 50 60 51 61 59 62 52 63 53 64
REMARK SMILES IDX 57 65 60 66 54 67 55 68 58 69 56 70 6 71 7 72 8 73 9 74
REMARK SMILES IDX 10 75 23 76 11 77 12 78 13 79 14 80 15 81 16 83 17 84 18 85
REMARK SMILES IDX 22 86 19 87 21 88 20 89
REMARK H PARENT 80 23 48 34 14 82 21 90 21 91
REMARK Flexibility Score: inf
ROOT
ATOM      1  C   UNL A   1      37.756  19.905  24.909  1.00  0.00     0.274 C 
ENDROOT
BRANCH   1   2
ATOM      2  C   UNL A   1      38.940  20.348  25.774  1.00  0.00     0.275 C 
BRANCH   2   3
ATOM      3  O   UNL A   1      40.024  19.398  25.754  1.00  0.00    -0.458 OA
BRANCH   3   4
ATOM      4  C   UNL A   1      41.335  19.583  26.043  1.00  0.00     0.338 C 
ATOM      5  O   UNL A   1      42.060  18.593  26.139  1.00  0.00    -0.246 OA
BRANCH   4   6
ATOM      6  C   UNL A   1      41.914  20.911  26.437  1.00  0.00     0.060 A 
ATOM      7  C   UNL A   1      42.220  21.336  27.733  1.00  0.00     0.016 A 
ATOM      8  C   UNL A   1      42.212  21.791  25.376  1.00  0.00     0.016 A 
ATOM      9  C   UNL A   1      42.905  22.534  27.963  1.00  0.00     0.010 A 
ATOM     10  C   UNL A   1      42.888  22.994  25.596  1.00  0.00     0.010 A 
ATOM     11  C   UNL A   1      43.252  23.361  26.895  1.00  0.00    -0.014 A 
BRANCH  11  12
ATOM     12  C   UNL A   1      43.800  24.705  27.160  1.00  0.00     0.031 A 
ATOM     13  C   UNL A   1      42.838  25.747  27.630  1.00  0.00     0.074 A 
ATOM     14  C   UNL A   1      45.104  24.984  26.993  1.00  0.00     0.049 A 
ATOM     15  N   UNL A   1      43.044  27.008  27.898  1.00  0.00    -0.248 NA
ATOM     16  C   UNL A   1      41.451  25.298  27.833  1.00  0.00     0.031 C 
ATOM     17  C   UNL A   1      46.127  24.020  26.605  1.00  0.00     0.029 A 
ATOM     18  N   UNL A   1      45.792  26.164  27.113  1.00  0.00    -0.354 N 
ATOM     19  C   UNL A   1      41.813  27.500  28.306  1.00  0.00     0.074 A 
ATOM     20  C   UNL A   1      40.860  26.418  28.212  1.00  0.00     0.031 C 
ATOM     21  C   UNL A   1      47.305  24.651  26.470  1.00  0.00     0.029 A 
ATOM     22  C   UNL A   1      47.112  26.070  26.748  1.00  0.00     0.049 A 
ATOM     23  H   UNL A   1      45.377  26.999  27.431  1.00  0.00     0.167 HD
ATOM     24  C   UNL A   1      41.512  28.749  28.728  1.00  0.00     0.037 A 
ATOM     25  C   UNL A   1      48.048  27.033  26.629  1.00  0.00     0.037 A 
ATOM     26  C   UNL A   1      42.467  29.820  28.759  1.00  0.00     0.049 A 
ATOM     27  C   UNL A   1      47.671  28.443  27.001  1.00  0.00     0.074 A 
ATOM     28  C   UNL A   1      42.280  31.133  29.140  1.00  0.00     0.029 A 
ATOM     29  N   UNL A   1      43.794  29.695  28.363  1.00  0.00    -0.354 N 
ATOM     30  N   UNL A   1      46.515  28.901  27.423  1.00  0.00    -0.248 NA
ATOM     31  C   UNL A   1      48.718  29.467  26.897  1.00  0.00     0.031 C 
ATOM     32  C   UNL A   1      43.477  31.820  28.911  1.00  0.00     0.029 A 
ATOM     33  C   UNL A   1      44.431  30.919  28.458  1.00  0.00     0.049 A 
ATOM     34  H   UNL A   1      44.217  28.859  28.059  1.00  0.00     0.167 HD
ATOM     35  C   UNL A   1      46.703  30.252  27.672  1.00  0.00     0.074 A 
ATOM     36  C   UNL A   1      48.085  30.543  27.347  1.00  0.00     0.031 C 
ATOM     37  C   UNL A   1      45.818  31.166  28.141  1.00  0.00     0.037 A 
BRANCH  24  38
ATOM     38  C   UNL A   1      40.082  29.001  29.099  1.00  0.00     0.064 A 
ATOM     39  C   UNL A   1      39.616  28.827  30.414  1.00  0.00     0.173 A 
ATOM     40  C   UNL A   1      39.143  29.328  28.110  1.00  0.00     0.173 A 
ATOM     41  F   UNL A   1      40.469  28.483  31.391  1.00  0.00    -0.203 F 
ATOM     42  C   UNL A   1      38.259  28.911  30.710  1.00  0.00     0.198 A 
ATOM     43  C   UNL A   1      37.791  29.448  28.418  1.00  0.00     0.198 A 
ATOM     44  F   UNL A   1      39.533  29.500  26.838  1.00  0.00    -0.203 F 
ATOM     45  F   UNL A   1      37.828  28.646  31.951  1.00  0.00    -0.200 F 
ATOM     46  C   UNL A   1      37.348  29.221  29.712  1.00  0.00     0.200 A 
ATOM     47  F   UNL A   1      36.912  29.752  27.453  1.00  0.00    -0.200 F 
ATOM     48  F   UNL A   1      36.038  29.278  29.993  1.00  0.00    -0.200 F 
ENDBRANCH  24  38
BRANCH  25  49
ATOM     49  C   UNL A   1      49.409  26.690  26.136  1.00  0.00     0.064 A 
ATOM     50  C   UNL A   1      50.378  26.139  26.984  1.00  0.00     0.173 A 
ATOM     51  C   UNL A   1      49.761  26.886  24.790  1.00  0.00     0.173 A 
ATOM     52  F   UNL A   1      50.099  25.946  28.281  1.00  0.00    -0.203 F 
ATOM     53  C   UNL A   1      51.648  25.806  26.510  1.00  0.00     0.198 A 
ATOM     54  C   UNL A   1      51.022  26.531  24.313  1.00  0.00     0.198 A 
ATOM     55  F   UNL A   1      48.871  27.404  23.931  1.00  0.00    -0.203 F 
ATOM     56  F   UNL A   1      52.564  25.306  27.351  1.00  0.00    -0.200 F 
ATOM     57  C   UNL A   1      51.966  25.996  25.174  1.00  0.00     0.200 A 
ATOM     58  F   UNL A   1      51.318  26.701  23.017  1.00  0.00    -0.200 F 
ATOM     59  F   UNL A   1      53.182  25.664  24.718  1.00  0.00    -0.200 F 
ENDBRANCH  25  49
BRANCH  37  60
ATOM     60  C   UNL A   1      46.317  32.558  28.384  1.00  0.00     0.064 A 
ATOM     61  C   UNL A   1      46.849  32.948  29.620  1.00  0.00     0.173 A 
ATOM     62  C   UNL A   1      46.375  33.473  27.320  1.00  0.00     0.173 A 
ATOM     63  F   UNL A   1      46.804  32.113  30.668  1.00  0.00    -0.203 F 
ATOM     64  C   UNL A   1      47.423  34.205  29.783  1.00  0.00     0.198 A 
ATOM     65  C   UNL A   1      46.977  34.716  27.478  1.00  0.00     0.198 A 
ATOM     66  F   UNL A   1      45.884  33.142  26.117  1.00  0.00    -0.203 F 
ATOM     67  F   UNL A   1      47.911  34.567  30.977  1.00  0.00    -0.200 F 
ATOM     68  C   UNL A   1      47.501  35.081  28.709  1.00  0.00     0.200 A 
ATOM     69  F   UNL A   1      47.069  35.552  26.436  1.00  0.00    -0.200 F 
ATOM     70  F   UNL A   1      48.085  36.278  28.860  1.00  0.00    -0.200 F 
ENDBRANCH  37  60
ENDBRANCH  11  12
ENDBRANCH   4   6
ENDBRANCH   3   4
ENDBRANCH   2   3
ENDBRANCH   1   2
BRANCH   1  71
ATOM     71  O   UNL A   1      36.909  21.017  24.586  1.00  0.00    -0.460 OA
BRANCH  71  72
ATOM     72  C   UNL A   1      35.645  21.001  25.111  1.00  0.00     0.335 C 
ATOM     73  O   UNL A   1      34.764  20.217  24.800  1.00  0.00    -0.249 OA
BRANCH  72  74
ATOM     74  C   UNL A   1      35.536  22.053  26.216  1.00  0.00     0.228 C 
ATOM     75  C   UNL A   1      36.416  23.269  26.020  1.00  0.00     0.047 C 
ATOM     76  O   UNL A   1      34.184  22.519  26.279  1.00  0.00    -0.361 OA
ATOM     77  C   UNL A   1      35.481  24.248  25.348  1.00  0.00     0.037 C 
ATOM     78  C   UNL A   1      34.151  23.931  26.012  1.00  0.00     0.138 C 
BRANCH  78  79
ATOM     79  C   UNL A   1      32.864  24.264  25.242  1.00  0.00     0.147 C 
BRANCH  79  80
ATOM     80  N   UNL A   1      31.908  25.061  25.986  1.00  0.00    -0.353 N 
ATOM     81  C   UNL A   1      31.845  26.408  26.177  1.00  0.00     0.228 C 
ATOM     82  H   UNL A   1      31.192  24.546  26.423  1.00  0.00     0.163 HD
ATOM     83  O   UNL A   1      31.093  26.793  27.076  1.00  0.00    -0.275 OA
BRANCH  81  84
ATOM     84  C   UNL A   1      32.719  27.359  25.355  1.00  0.00     0.133 C 
ATOM     85  C   UNL A   1      34.024  27.700  26.098  1.00  0.00     0.025 C 
ATOM     86  C   UNL A   1      32.004  28.663  24.972  1.00  0.00     0.274 C 
ATOM     87  C   UNL A   1      33.789  28.691  27.241  1.00  0.00     0.062 C 
ATOM     88  N   UNL A   1      31.757  29.549  26.112  1.00  0.00    -0.346 N 
ATOM     89  C   UNL A   1      33.002  29.916  26.782  1.00  0.00     0.260 C 
ATOM     90  H   UNL A   1      31.298  30.397  25.778  1.00  0.00     0.346 HD
ATOM     91  H   UNL A   1      31.167  29.055  26.781  1.00  0.00     0.346 HD
ENDBRANCH  81  84
ENDBRANCH  79  80
ENDBRANCH  78  79
ENDBRANCH  72  74
ENDBRANCH  71  72
ENDBRANCH   1  71
TORSDOF 14
ENDMDL
