MODEL 1
REMARK VINA RESULT:     -14.5      0.000      0.000
REMARK SMILES COc1ccc(NC(=O)N[C@@H]2C=C[C@H](C(=O)OCCOC(=O)c3ccc(-c4c5nc(c(-c6c(F)c(F)c(F)c(F)c6F)c6ccc([nH]6)c(-c6c(F)c(F)c(F)c(F)c6F)c6nc(c(-c7c(F)c(F)c(F)c(F)c7F)c7ccc4[nH]7)C=C6)C=C5)cc3)C2)c(C)c1
REMARK SMILES IDX 18 1 17 2 15 3 16 4 14 5 11 6 12 7 86 8 13 9 10 10 7 11 8 12
REMARK SMILES IDX 9 14 6 16 3 17 4 18 89 19 5 20 87 21 88 22 2 23 1 24 19 25
REMARK SMILES IDX 20 26 21 27 22 28 23 29 24 30 85 31 25 32 84 33 26 34 27 35
REMARK SMILES IDX 28 36 78 37 29 38 83 39 77 40 79 41 30 42 82 43 76 44 75 45
REMARK SMILES IDX 31 47 63 48 43 49 62 50 44 51 47 52 61 53 80 54 45 55 46 56
REMARK SMILES IDX 60 58 81 59 48 60 32 61 33 62 41 63 34 64 35 65 39 66 42 67
REMARK SMILES IDX 36 68 37 69 40 70 38 71 64 72 65 73 73 74 66 75 67 76 71 77
REMARK SMILES IDX 74 78 68 79 69 80 72 81 70 82 49 83 50 84 58 85 51 86 52 87
REMARK SMILES IDX 56 88 59 89 53 90 54 91 57 92 55 93
REMARK H PARENT 7 13 10 15 79 46 47 57
REMARK Flexibility Score: inf
ROOT
ATOM      1  C   UNL A   1      37.404  21.406  24.536  1.00  0.00     0.274 C 
ENDROOT
BRANCH   1   2
ATOM      2  O   UNL A   1      35.937  20.573  24.923  1.00  0.00    -0.462 OA
BRANCH   2   3
ATOM      3  C   UNL A   1      34.141  20.214  25.044  1.00  0.00     0.312 C 
ATOM      4  O   UNL A   1      33.812  19.056  24.686  1.00  0.00    -0.252 OA
BRANCH   3   5
ATOM      5  C   UNL A   1      32.630  21.311  25.264  1.00  0.00     0.124 C 
ATOM      6  C   UNL A   1      32.329  24.506  24.398  1.00  0.00     0.107 C 
ATOM      7  C   UNL A   1      33.924  24.100  25.385  1.00  0.00    -0.006 C 
ATOM      8  C   UNL A   1      31.163  22.892  24.544  1.00  0.00     0.048 C 
ATOM      9  C   UNL A   1      34.126  22.617  25.812  1.00  0.00    -0.014 C 
BRANCH   6  10
ATOM     10  N   UNL A   1      32.735  24.638  22.841  1.00  0.00    -0.332 N 
ATOM     11  N   UNL A   1      33.366  26.978  22.527  1.00  0.00    -0.308 N 
ATOM     12  C   UNL A   1      33.140  25.704  22.017  1.00  0.00     0.319 C 
ATOM     13  H   UNL A   1      33.970  27.584  22.040  1.00  0.00     0.171 HD
ATOM     14  O   UNL A   1      33.301  25.524  20.809  1.00  0.00    -0.248 OA
ATOM     15  H   UNL A   1      32.688  23.779  22.360  1.00  0.00     0.165 HD
BRANCH  11  16
ATOM     16  C   UNL A   1      32.763  27.425  23.708  1.00  0.00     0.046 A 
ATOM     17  C   UNL A   1      32.383  30.158  26.006  1.00  0.00     0.119 A 
ATOM     18  C   UNL A   1      33.884  29.297  26.020  1.00  0.00     0.048 A 
ATOM     19  C   UNL A   1      31.213  29.604  24.952  1.00  0.00     0.052 A 
ATOM     20  C   UNL A   1      33.935  27.649  24.819  1.00  0.00     0.030 A 
ATOM     21  C   UNL A   1      31.396  28.353  23.810  1.00  0.00    -0.024 A 
ATOM     22  C   UNL A   1      30.296  28.108  22.792  1.00  0.00     0.047 C 
BRANCH  17  23
ATOM     23  O   UNL A   1      32.026  31.031  26.986  1.00  0.00    -0.497 OA
ATOM     24  C   UNL A   1      31.277  32.138  26.510  1.00  0.00     0.278 C 
ENDBRANCH  17  23
ENDBRANCH  11  16
ENDBRANCH   6  10
ENDBRANCH   3   5
ENDBRANCH   2   3
ENDBRANCH   1   2
BRANCH   1  25
ATOM     25  C   UNL A   1      38.267  21.753  25.770  1.00  0.00     0.275 C 
BRANCH  25  26
ATOM     26  O   UNL A   1      39.033  22.970  25.779  1.00  0.00    -0.458 OA
BRANCH  26  27
ATOM     27  C   UNL A   1      38.498  24.082  26.357  1.00  0.00     0.338 C 
ATOM     28  O   UNL A   1      37.434  24.593  26.059  1.00  0.00    -0.246 OA
BRANCH  27  29
ATOM     29  C   UNL A   1      39.561  24.819  27.021  1.00  0.00     0.060 A 
ATOM     30  C   UNL A   1      40.201  26.347  26.260  1.00  0.00     0.016 A 
ATOM     31  C   UNL A   1      39.121  24.804  28.753  1.00  0.00     0.016 A 
ATOM     32  C   UNL A   1      40.489  27.856  27.329  1.00  0.00     0.010 A 
ATOM     33  C   UNL A   1      39.311  26.289  29.739  1.00  0.00     0.010 A 
ATOM     34  C   UNL A   1      40.018  27.841  29.089  1.00  0.00    -0.014 A 
BRANCH  34  35
ATOM     35  C   UNL A   1      39.841  29.159  29.844  1.00  0.00     0.031 A 
ATOM     36  C   UNL A   1      38.798  30.199  29.403  1.00  0.00     0.074 A 
ATOM     37  C   UNL A   1      40.720  29.362  30.872  1.00  0.00     0.049 A 
ATOM     38  N   UNL A   1      38.999  31.459  29.140  1.00  0.00    -0.248 NA
ATOM     39  C   UNL A   1      37.388  29.872  29.103  1.00  0.00     0.031 C 
ATOM     40  C   UNL A   1      40.939  30.386  31.891  1.00  0.00     0.029 A 
ATOM     41  N   UNL A   1      41.858  28.580  31.117  1.00  0.00    -0.354 N 
ATOM     42  C   UNL A   1      37.732  32.063  29.024  1.00  0.00     0.074 A 
ATOM     43  C   UNL A   1      36.855  31.010  28.645  1.00  0.00     0.031 C 
ATOM     44  C   UNL A   1      42.260  30.383  32.230  1.00  0.00     0.029 A 
ATOM     45  C   UNL A   1      42.927  29.417  31.352  1.00  0.00     0.049 A 
ATOM     46  H   UNL A   1      41.888  27.597  31.122  1.00  0.00     0.167 HD
ATOM     47  C   UNL A   1      37.433  33.233  29.682  1.00  0.00     0.037 A 
ATOM     48  C   UNL A   1      43.865  29.649  30.380  1.00  0.00     0.037 A 
ATOM     49  C   UNL A   1      38.628  33.631  30.390  1.00  0.00     0.049 A 
ATOM     50  C   UNL A   1      43.869  31.111  30.106  1.00  0.00     0.074 A 
ATOM     51  C   UNL A   1      39.038  33.345  31.679  1.00  0.00     0.029 A 
ATOM     52  N   UNL A   1      39.746  33.986  29.667  1.00  0.00    -0.354 N 
ATOM     53  N   UNL A   1      42.768  31.800  30.024  1.00  0.00    -0.248 NA
ATOM     54  C   UNL A   1      45.087  31.890  29.962  1.00  0.00     0.031 C 
ATOM     55  C   UNL A   1      40.446  33.484  31.708  1.00  0.00     0.029 A 
ATOM     56  C   UNL A   1      40.877  33.817  30.435  1.00  0.00     0.049 A 
ATOM     57  H   UNL A   1      39.738  34.313  28.738  1.00  0.00     0.167 HD
ATOM     58  C   UNL A   1      43.106  33.108  29.915  1.00  0.00     0.074 A 
ATOM     59  C   UNL A   1      44.561  33.119  29.878  1.00  0.00     0.031 C 
ATOM     60  C   UNL A   1      42.172  34.093  29.857  1.00  0.00     0.037 A 
BRANCH  47  61
ATOM     61  C   UNL A   1      36.058  33.814  30.066  1.00  0.00     0.064 A 
ATOM     62  C   UNL A   1      35.184  34.295  29.051  1.00  0.00     0.173 A 
ATOM     63  C   UNL A   1      35.532  33.941  31.368  1.00  0.00     0.173 A 
ATOM     64  F   UNL A   1      35.481  34.167  27.751  1.00  0.00    -0.203 F 
ATOM     65  C   UNL A   1      33.962  34.928  29.314  1.00  0.00     0.198 A 
ATOM     66  C   UNL A   1      34.302  34.582  31.633  1.00  0.00     0.198 A 
ATOM     67  F   UNL A   1      36.165  33.426  32.429  1.00  0.00    -0.203 F 
ATOM     68  F   UNL A   1      33.217  35.389  28.298  1.00  0.00    -0.200 F 
ATOM     69  C   UNL A   1      33.525  35.087  30.608  1.00  0.00     0.200 A 
ATOM     70  F   UNL A   1      33.874  34.710  32.899  1.00  0.00    -0.200 F 
ATOM     71  F   UNL A   1      32.362  35.702  30.863  1.00  0.00    -0.200 F 
ENDBRANCH  47  61
BRANCH  48  72
ATOM     72  C   UNL A   1      44.146  28.662  29.270  1.00  0.00     0.064 A 
ATOM     73  C   UNL A   1      44.733  27.404  29.515  1.00  0.00     0.173 A 
ATOM     74  C   UNL A   1      43.719  28.890  27.945  1.00  0.00     0.173 A 
ATOM     75  F   UNL A   1      45.127  27.078  30.757  1.00  0.00    -0.203 F 
ATOM     76  C   UNL A   1      44.836  26.421  28.514  1.00  0.00     0.198 A 
ATOM     77  C   UNL A   1      43.847  27.919  26.940  1.00  0.00     0.198 A 
ATOM     78  F   UNL A   1      43.130  30.046  27.611  1.00  0.00    -0.203 F 
ATOM     79  F   UNL A   1      45.281  25.193  28.827  1.00  0.00    -0.200 F 
ATOM     80  C   UNL A   1      44.394  26.679  27.227  1.00  0.00     0.200 A 
ATOM     81  F   UNL A   1      43.357  28.163  25.713  1.00  0.00    -0.200 F 
ATOM     82  F   UNL A   1      44.419  25.715  26.293  1.00  0.00    -0.200 F 
ENDBRANCH  48  72
BRANCH  60  83
ATOM     83  C   UNL A   1      42.472  35.450  29.325  1.00  0.00     0.064 A 
ATOM     84  C   UNL A   1      42.024  35.883  28.072  1.00  0.00     0.173 A 
ATOM     85  C   UNL A   1      43.140  36.408  30.114  1.00  0.00     0.173 A 
ATOM     86  F   UNL A   1      41.157  35.163  27.343  1.00  0.00    -0.203 F 
ATOM     87  C   UNL A   1      42.420  37.100  27.544  1.00  0.00     0.198 A 
ATOM     88  C   UNL A   1      43.423  37.675  29.631  1.00  0.00     0.198 A 
ATOM     89  F   UNL A   1      43.514  36.160  31.378  1.00  0.00    -0.203 F 
ATOM     90  F   UNL A   1      42.109  37.398  26.276  1.00  0.00    -0.200 F 
ATOM     91  C   UNL A   1      43.122  37.996  28.325  1.00  0.00     0.200 A 
ATOM     92  F   UNL A   1      43.989  38.578  30.441  1.00  0.00    -0.200 F 
ATOM     93  F   UNL A   1      43.486  39.181  27.824  1.00  0.00    -0.200 F 
ENDBRANCH  60  83
ENDBRANCH  34  35
ENDBRANCH  27  29
ENDBRANCH  26  27
ENDBRANCH  25  26
ENDBRANCH   1  25
TORSDOF 14
ENDMDL
MODEL 2
REMARK VINA RESULT:     -13.9      2.194      3.417
REMARK SMILES COc1ccc(NC(=O)N[C@@H]2C=C[C@H](C(=O)OCCOC(=O)c3ccc(-c4c5nc(c(-c6c(F)c(F)c(F)c(F)c6F)c6ccc([nH]6)c(-c6c(F)c(F)c(F)c(F)c6F)c6nc(c(-c7c(F)c(F)c(F)c(F)c7F)c7ccc4[nH]7)C=C6)C=C5)cc3)C2)c(C)c1
REMARK SMILES IDX 18 1 17 2 15 3 16 4 14 5 11 6 12 7 86 8 13 9 10 10 7 11 8 12
REMARK SMILES IDX 9 14 6 16 3 17 4 18 89 19 5 20 87 21 88 22 2 23 1 24 19 25
REMARK SMILES IDX 20 26 21 27 22 28 23 29 24 30 85 31 25 32 84 33 26 34 27 35
REMARK SMILES IDX 28 36 78 37 29 38 83 39 77 40 79 41 30 42 82 43 76 44 75 45
REMARK SMILES IDX 31 47 63 48 43 49 62 50 44 51 47 52 61 53 80 54 45 55 46 56
REMARK SMILES IDX 60 58 81 59 48 60 32 61 33 62 41 63 34 64 35 65 39 66 42 67
REMARK SMILES IDX 36 68 37 69 40 70 38 71 64 72 65 73 73 74 66 75 67 76 71 77
REMARK SMILES IDX 74 78 68 79 69 80 72 81 70 82 49 83 50 84 58 85 51 86 52 87
REMARK SMILES IDX 56 88 59 89 53 90 54 91 57 92 55 93
REMARK H PARENT 7 13 10 15 79 46 47 57
REMARK Flexibility Score: inf
ROOT
ATOM      1  C   UNL A   1      38.151  21.992  25.340  1.00  0.00     0.274 C 
ENDROOT
BRANCH   1   2
ATOM      2  O   UNL A   1      36.534  21.449  25.635  1.00  0.00    -0.462 OA
BRANCH   2   3
ATOM      3  C   UNL A   1      34.849  20.798  25.307  1.00  0.00     0.312 C 
ATOM      4  O   UNL A   1      34.820  19.713  24.676  1.00  0.00    -0.252 OA
BRANCH   3   5
ATOM      5  C   UNL A   1      33.138  21.569  25.410  1.00  0.00     0.124 C 
ATOM      6  C   UNL A   1      32.233  24.588  24.355  1.00  0.00     0.107 C 
ATOM      7  C   UNL A   1      33.829  24.568  25.421  1.00  0.00    -0.006 C 
ATOM      8  C   UNL A   1      31.415  22.778  24.550  1.00  0.00     0.048 C 
ATOM      9  C   UNL A   1      34.309  23.180  25.938  1.00  0.00    -0.014 C 
BRANCH   6  10
ATOM     10  N   UNL A   1      32.676  24.726  22.808  1.00  0.00    -0.332 N 
ATOM     11  N   UNL A   1      33.282  27.075  22.510  1.00  0.00    -0.308 N 
ATOM     12  C   UNL A   1      33.087  25.798  21.995  1.00  0.00     0.319 C 
ATOM     13  H   UNL A   1      33.889  27.690  22.039  1.00  0.00     0.171 HD
ATOM     14  O   UNL A   1      33.281  25.621  20.791  1.00  0.00    -0.248 OA
ATOM     15  H   UNL A   1      32.654  23.868  22.327  1.00  0.00     0.165 HD
BRANCH  11  16
ATOM     16  C   UNL A   1      32.642  27.513  23.675  1.00  0.00     0.046 A 
ATOM     17  C   UNL A   1      32.162  30.242  25.960  1.00  0.00     0.119 A 
ATOM     18  C   UNL A   1      33.676  29.405  26.012  1.00  0.00     0.048 A 
ATOM     19  C   UNL A   1      31.028  29.669  24.878  1.00  0.00     0.052 A 
ATOM     20  C   UNL A   1      33.783  27.758  24.815  1.00  0.00     0.030 A 
ATOM     21  C   UNL A   1      31.259  28.420  23.743  1.00  0.00    -0.024 A 
ATOM     22  C   UNL A   1      30.189  28.156  22.698  1.00  0.00     0.047 C 
BRANCH  17  23
ATOM     23  O   UNL A   1      31.768  31.110  26.930  1.00  0.00    -0.497 OA
ATOM     24  C   UNL A   1      31.089  32.250  26.425  1.00  0.00     0.278 C 
ENDBRANCH  17  23
ENDBRANCH  11  16
ENDBRANCH   6  10
ENDBRANCH   3   5
ENDBRANCH   2   3
ENDBRANCH   1   2
BRANCH   1  25
ATOM     25  C   UNL A   1      39.226  21.198  26.116  1.00  0.00     0.275 C 
BRANCH  25  26
ATOM     26  O   UNL A   1      40.411  21.871  26.574  1.00  0.00    -0.458 OA
BRANCH  26  27
ATOM     27  C   UNL A   1      41.625  21.451  26.120  1.00  0.00     0.338 C 
ATOM     28  O   UNL A   1      41.906  20.310  25.800  1.00  0.00    -0.246 OA
BRANCH  27  29
ATOM     29  C   UNL A   1      42.632  22.422  26.517  1.00  0.00     0.060 A 
ATOM     30  C   UNL A   1      42.725  24.021  25.645  1.00  0.00     0.016 A 
ATOM     31  C   UNL A   1      42.634  22.381  28.303  1.00  0.00     0.016 A 
ATOM     32  C   UNL A   1      42.930  25.597  26.634  1.00  0.00     0.010 A 
ATOM     33  C   UNL A   1      42.732  23.909  29.235  1.00  0.00     0.010 A 
ATOM     34  C   UNL A   1      42.910  25.550  28.454  1.00  0.00    -0.014 A 
BRANCH  34  35
ATOM     35  C   UNL A   1      42.640  26.829  29.249  1.00  0.00     0.031 A 
ATOM     36  C   UNL A   1      41.385  27.678  28.994  1.00  0.00     0.074 A 
ATOM     37  C   UNL A   1      43.624  27.183  30.130  1.00  0.00     0.049 A 
ATOM     38  N   UNL A   1      41.333  28.952  28.723  1.00  0.00    -0.248 NA
ATOM     39  C   UNL A   1      40.018  27.121  28.912  1.00  0.00     0.031 C 
ATOM     40  C   UNL A   1      43.830  28.239  31.120  1.00  0.00     0.029 A 
ATOM     41  N   UNL A   1      44.899  26.601  30.183  1.00  0.00    -0.354 N 
ATOM     42  C   UNL A   1      39.982  29.338  28.815  1.00  0.00     0.074 A 
ATOM     43  C   UNL A   1      39.241  28.151  28.562  1.00  0.00     0.031 C 
ATOM     44  C   UNL A   1      45.170  28.457  31.248  1.00  0.00     0.029 A 
ATOM     45  C   UNL A   1      45.840  27.605  30.261  1.00  0.00     0.049 A 
ATOM     46  H   UNL A   1      45.090  25.637  30.166  1.00  0.00     0.167 HD
ATOM     47  C   UNL A   1      39.602  30.450  29.531  1.00  0.00     0.037 A 
ATOM     48  C   UNL A   1      46.563  27.978  29.158  1.00  0.00     0.037 A 
ATOM     49  C   UNL A   1      40.811  31.046  30.050  1.00  0.00     0.049 A 
ATOM     50  C   UNL A   1      46.284  29.418  28.910  1.00  0.00     0.074 A 
ATOM     51  C   UNL A   1      41.459  30.843  31.255  1.00  0.00     0.029 A 
ATOM     52  N   UNL A   1      41.729  31.572  29.167  1.00  0.00    -0.354 N 
ATOM     53  N   UNL A   1      45.087  29.916  29.013  1.00  0.00    -0.248 NA
ATOM     54  C   UNL A   1      47.321  30.385  28.591  1.00  0.00     0.031 C 
ATOM     55  C   UNL A   1      42.813  31.212  31.066  1.00  0.00     0.029 A 
ATOM     56  C   UNL A   1      42.979  31.599  29.746  1.00  0.00     0.049 A 
ATOM     57  H   UNL A   1      41.522  31.884  28.256  1.00  0.00     0.167 HD
ATOM     58  C   UNL A   1      45.184  31.261  28.873  1.00  0.00     0.074 A 
ATOM     59  C   UNL A   1      46.593  31.510  28.610  1.00  0.00     0.031 C 
ATOM     60  C   UNL A   1      44.104  32.078  28.977  1.00  0.00     0.037 A 
BRANCH  47  61
ATOM     61  C   UNL A   1      38.228  30.800  30.134  1.00  0.00     0.064 A 
ATOM     62  C   UNL A   1      37.219  31.375  29.311  1.00  0.00     0.173 A 
ATOM     63  C   UNL A   1      37.826  30.619  31.473  1.00  0.00     0.173 A 
ATOM     64  F   UNL A   1      37.395  31.532  27.992  1.00  0.00    -0.203 F 
ATOM     65  C   UNL A   1      35.980  31.816  29.794  1.00  0.00     0.198 A 
ATOM     66  C   UNL A   1      36.578  31.066  31.960  1.00  0.00     0.198 A 
ATOM     67  F   UNL A   1      38.603  29.977  32.353  1.00  0.00    -0.203 F 
ATOM     68  F   UNL A   1      35.101  32.384  28.956  1.00  0.00    -0.200 F 
ATOM     69  C   UNL A   1      35.662  31.676  31.125  1.00  0.00     0.200 A 
ATOM     70  F   UNL A   1      36.269  30.903  33.257  1.00  0.00    -0.200 F 
ATOM     71  F   UNL A   1      34.483  32.107  31.592  1.00  0.00    -0.200 F 
ENDBRANCH  47  61
BRANCH  48  72
ATOM     72  C   UNL A   1      46.825  27.040  28.002  1.00  0.00     0.064 A 
ATOM     73  C   UNL A   1      46.059  27.074  26.819  1.00  0.00     0.173 A 
ATOM     74  C   UNL A   1      47.931  26.164  27.989  1.00  0.00     0.173 A 
ATOM     75  F   UNL A   1      45.014  27.912  26.720  1.00  0.00    -0.203 F 
ATOM     76  C   UNL A   1      46.410  26.324  25.682  1.00  0.00     0.198 A 
ATOM     77  C   UNL A   1      48.264  25.396  26.864  1.00  0.00     0.198 A 
ATOM     78  F   UNL A   1      48.735  26.072  29.057  1.00  0.00    -0.203 F 
ATOM     79  F   UNL A   1      45.727  26.490  24.536  1.00  0.00    -0.200 F 
ATOM     80  C   UNL A   1      47.510  25.485  25.705  1.00  0.00     0.200 A 
ATOM     81  F   UNL A   1      49.370  24.634  26.881  1.00  0.00    -0.200 F 
ATOM     82  F   UNL A   1      47.891  24.831  24.595  1.00  0.00    -0.200 F 
ENDBRANCH  48  72
BRANCH  60  83
ATOM     83  C   UNL A   1      44.091  33.460  28.427  1.00  0.00     0.064 A 
ATOM     84  C   UNL A   1      44.273  34.592  29.232  1.00  0.00     0.173 A 
ATOM     85  C   UNL A   1      44.000  33.690  27.040  1.00  0.00     0.173 A 
ATOM     86  F   UNL A   1      44.634  34.493  30.520  1.00  0.00    -0.203 F 
ATOM     87  C   UNL A   1      44.130  35.871  28.721  1.00  0.00     0.198 A 
ATOM     88  C   UNL A   1      43.989  34.972  26.516  1.00  0.00     0.198 A 
ATOM     89  F   UNL A   1      43.946  32.688  26.150  1.00  0.00    -0.203 F 
ATOM     90  F   UNL A   1      44.141  36.917  29.558  1.00  0.00    -0.200 F 
ATOM     91  C   UNL A   1      43.987  36.061  27.361  1.00  0.00     0.200 A 
ATOM     92  F   UNL A   1      43.980  35.141  25.188  1.00  0.00    -0.200 F 
ATOM     93  F   UNL A   1      43.872  37.296  26.865  1.00  0.00    -0.200 F 
ENDBRANCH  60  83
ENDBRANCH  34  35
ENDBRANCH  27  29
ENDBRANCH  26  27
ENDBRANCH  25  26
ENDBRANCH   1  25
TORSDOF 14
ENDMDL
MODEL 3
REMARK VINA RESULT:     -13.8      3.837      9.903
REMARK SMILES COc1ccc(NC(=O)N[C@@H]2C=C[C@H](C(=O)OCCOC(=O)c3ccc(-c4c5nc(c(-c6c(F)c(F)c(F)c(F)c6F)c6ccc([nH]6)c(-c6c(F)c(F)c(F)c(F)c6F)c6nc(c(-c7c(F)c(F)c(F)c(F)c7F)c7ccc4[nH]7)C=C6)C=C5)cc3)C2)c(C)c1
REMARK SMILES IDX 18 1 17 2 15 3 16 4 14 5 11 6 12 7 86 8 13 9 10 10 7 11 8 12
REMARK SMILES IDX 9 14 6 16 3 17 4 18 89 19 5 20 87 21 88 22 2 23 1 24 19 25
REMARK SMILES IDX 20 26 21 27 22 28 23 29 24 30 85 31 25 32 84 33 26 34 27 35
REMARK SMILES IDX 28 36 78 37 29 38 83 39 77 40 79 41 30 42 82 43 76 44 75 45
REMARK SMILES IDX 31 47 63 48 43 49 62 50 44 51 47 52 61 53 80 54 45 55 46 56
REMARK SMILES IDX 60 58 81 59 48 60 32 61 33 62 41 63 34 64 35 65 39 66 42 67
REMARK SMILES IDX 36 68 37 69 40 70 38 71 64 72 65 73 73 74 66 75 67 76 71 77
REMARK SMILES IDX 74 78 68 79 69 80 72 81 70 82 49 83 50 84 58 85 51 86 52 87
REMARK SMILES IDX 56 88 59 89 53 90 54 91 57 92 55 93
REMARK H PARENT 7 13 10 15 79 46 47 57
REMARK Flexibility Score: inf
ROOT
ATOM      1  C   UNL A   1      35.136  32.698  28.171  1.00  0.00     0.274 C 
ENDROOT
BRANCH   1   2
ATOM      2  O   UNL A   1      34.097  31.501  27.476  1.00  0.00    -0.462 OA
BRANCH   2   3
ATOM      3  C   UNL A   1      32.805  30.753  26.408  1.00  0.00     0.312 C 
ATOM      4  O   UNL A   1      31.634  30.858  26.849  1.00  0.00    -0.252 OA
BRANCH   3   5
ATOM      5  C   UNL A   1      32.878  29.558  24.957  1.00  0.00     0.124 C 
ATOM      6  C   UNL A   1      32.178  26.310  24.997  1.00  0.00     0.107 C 
ATOM      7  C   UNL A   1      33.353  26.884  26.402  1.00  0.00    -0.006 C 
ATOM      8  C   UNL A   1      32.059  27.838  23.719  1.00  0.00     0.048 C 
ATOM      9  C   UNL A   1      33.711  28.398  26.442  1.00  0.00    -0.014 C 
BRANCH   6  10
ATOM     10  N   UNL A   1      30.705  26.128  25.632  1.00  0.00    -0.332 N 
ATOM     11  N   UNL A   1      30.709  23.915  26.670  1.00  0.00    -0.308 N 
ATOM     12  C   UNL A   1      30.049  25.086  26.315  1.00  0.00     0.319 C 
ATOM     13  H   UNL A   1      30.365  23.385  27.425  1.00  0.00     0.171 HD
ATOM     14  O   UNL A   1      28.859  25.195  26.611  1.00  0.00    -0.248 OA
ATOM     15  H   UNL A   1      30.138  26.924  25.516  1.00  0.00     0.165 HD
BRANCH  11  16
ATOM     16  C   UNL A   1      31.846  23.465  25.988  1.00  0.00     0.046 A 
ATOM     17  C   UNL A   1      33.895  20.632  25.163  1.00  0.00     0.119 A 
ATOM     18  C   UNL A   1      33.987  21.251  26.777  1.00  0.00     0.048 A 
ATOM     19  C   UNL A   1      32.891  21.447  24.107  1.00  0.00     0.052 A 
ATOM     20  C   UNL A   1      32.935  22.969  27.095  1.00  0.00     0.030 A 
ATOM     21  C   UNL A   1      31.863  22.749  24.495  1.00  0.00    -0.024 A 
ATOM     22  C   UNL A   1      30.869  23.246  23.460  1.00  0.00     0.047 C 
BRANCH  17  23
ATOM     23  O   UNL A   1      34.794  19.743  24.664  1.00  0.00    -0.497 OA
ATOM     24  C   UNL A   1      34.281  18.424  24.554  1.00  0.00     0.278 C 
ENDBRANCH  17  23
ENDBRANCH  11  16
ENDBRANCH   6  10
ENDBRANCH   3   5
ENDBRANCH   2   3
ENDBRANCH   1   2
BRANCH   1  25
ATOM     25  C   UNL A   1      34.453  33.560  29.257  1.00  0.00     0.275 C 
BRANCH  25  26
ATOM     26  O   UNL A   1      34.360  33.061  30.602  1.00  0.00    -0.458 OA
BRANCH  26  27
ATOM     27  C   UNL A   1      34.277  33.951  31.631  1.00  0.00     0.338 C 
ATOM     28  O   UNL A   1      33.556  34.932  31.663  1.00  0.00    -0.246 OA
BRANCH  27  29
ATOM     29  C   UNL A   1      35.476  33.835  32.445  1.00  0.00     0.060 A 
ATOM     30  C   UNL A   1      35.848  32.251  33.269  1.00  0.00     0.016 A 
ATOM     31  C   UNL A   1      36.749  34.674  31.514  1.00  0.00     0.016 A 
ATOM     32  C   UNL A   1      37.592  31.575  33.217  1.00  0.00     0.010 A 
ATOM     33  C   UNL A   1      38.389  33.961  31.393  1.00  0.00     0.010 A 
ATOM     34  C   UNL A   1      38.880  32.425  32.249  1.00  0.00    -0.014 A 
BRANCH  34  35
ATOM     35  C   UNL A   1      40.152  31.677  31.846  1.00  0.00     0.031 A 
ATOM     36  C   UNL A   1      40.091  30.390  31.008  1.00  0.00     0.074 A 
ATOM     37  C   UNL A   1      41.314  32.196  32.348  1.00  0.00     0.049 A 
ATOM     38  N   UNL A   1      40.624  29.235  31.291  1.00  0.00    -0.248 NA
ATOM     39  C   UNL A   1      39.298  30.253  29.768  1.00  0.00     0.031 C 
ATOM     40  C   UNL A   1      42.741  31.902  32.234  1.00  0.00     0.029 A 
ATOM     41  N   UNL A   1      41.386  33.183  33.341  1.00  0.00    -0.354 N 
ATOM     42  C   UNL A   1      40.522  28.440  30.134  1.00  0.00     0.074 A 
ATOM     43  C   UNL A   1      39.414  28.968  29.419  1.00  0.00     0.031 C 
ATOM     44  C   UNL A   1      43.361  32.318  33.375  1.00  0.00     0.029 A 
ATOM     45  C   UNL A   1      42.314  32.797  34.283  1.00  0.00     0.049 A 
ATOM     46  H   UNL A   1      40.861  34.015  33.361  1.00  0.00     0.167 HD
ATOM     47  C   UNL A   1      41.605  27.744  29.646  1.00  0.00     0.037 A 
ATOM     48  C   UNL A   1      41.919  32.272  35.485  1.00  0.00     0.037 A 
ATOM     49  C   UNL A   1      42.703  27.991  30.551  1.00  0.00     0.049 A 
ATOM     50  C   UNL A   1      42.499  30.907  35.587  1.00  0.00     0.074 A 
ATOM     51  C   UNL A   1      43.680  28.969  30.522  1.00  0.00     0.029 A 
ATOM     52  N   UNL A   1      42.620  27.524  31.845  1.00  0.00    -0.354 N 
ATOM     53  N   UNL A   1      42.517  30.088  34.576  1.00  0.00    -0.248 NA
ATOM     54  C   UNL A   1      43.136  30.401  36.791  1.00  0.00     0.031 C 
ATOM     55  C   UNL A   1      44.155  29.123  31.846  1.00  0.00     0.029 A 
ATOM     56  C   UNL A   1      43.440  28.266  32.667  1.00  0.00     0.049 A 
ATOM     57  H   UNL A   1      42.059  26.771  32.140  1.00  0.00     0.167 HD
ATOM     58  C   UNL A   1      43.234  28.996  34.940  1.00  0.00     0.074 A 
ATOM     59  C   UNL A   1      43.600  29.232  36.329  1.00  0.00     0.031 C 
ATOM     60  C   UNL A   1      43.476  27.973  34.082  1.00  0.00     0.037 A 
BRANCH  47  61
ATOM     61  C   UNL A   1      41.860  27.205  28.225  1.00  0.00     0.064 A 
ATOM     62  C   UNL A   1      42.074  25.813  28.023  1.00  0.00     0.173 A 
ATOM     63  C   UNL A   1      41.917  27.962  27.036  1.00  0.00     0.173 A 
ATOM     64  F   UNL A   1      41.962  24.933  29.027  1.00  0.00    -0.203 F 
ATOM     65  C   UNL A   1      42.410  25.250  26.784  1.00  0.00     0.198 A 
ATOM     66  C   UNL A   1      42.259  27.394  25.789  1.00  0.00     0.198 A 
ATOM     67  F   UNL A   1      41.614  29.265  27.025  1.00  0.00    -0.203 F 
ATOM     68  F   UNL A   1      42.635  23.931  26.690  1.00  0.00    -0.200 F 
ATOM     69  C   UNL A   1      42.518  26.043  25.666  1.00  0.00     0.200 A 
ATOM     70  F   UNL A   1      42.338  28.176  24.699  1.00  0.00    -0.200 F 
ATOM     71  F   UNL A   1      42.852  25.510  24.483  1.00  0.00    -0.200 F 
ENDBRANCH  47  61
BRANCH  48  72
ATOM     72  C   UNL A   1      40.573  32.579  36.103  1.00  0.00     0.064 A 
ATOM     73  C   UNL A   1      39.549  31.615  36.187  1.00  0.00     0.173 A 
ATOM     74  C   UNL A   1      40.311  33.807  36.746  1.00  0.00     0.173 A 
ATOM     75  F   UNL A   1      39.726  30.398  35.646  1.00  0.00    -0.203 F 
ATOM     76  C   UNL A   1      38.366  31.845  36.912  1.00  0.00     0.198 A 
ATOM     77  C   UNL A   1      39.120  34.046  37.446  1.00  0.00     0.198 A 
ATOM     78  F   UNL A   1      41.229  34.784  36.743  1.00  0.00    -0.203 F 
ATOM     79  F   UNL A   1      37.477  30.850  37.074  1.00  0.00    -0.200 F 
ATOM     80  C   UNL A   1      38.151  33.060  37.540  1.00  0.00     0.200 A 
ATOM     81  F   UNL A   1      38.954  35.207  38.101  1.00  0.00    -0.200 F 
ATOM     82  F   UNL A   1      37.059  33.251  38.298  1.00  0.00    -0.200 F 
ENDBRANCH  48  72
BRANCH  60  83
ATOM     83  C   UNL A   1      43.875  26.616  34.546  1.00  0.00     0.064 A 
ATOM     84  C   UNL A   1      45.212  26.253  34.747  1.00  0.00     0.173 A 
ATOM     85  C   UNL A   1      42.907  25.659  34.911  1.00  0.00     0.173 A 
ATOM     86  F   UNL A   1      46.205  27.152  34.692  1.00  0.00    -0.203 F 
ATOM     87  C   UNL A   1      45.567  24.950  35.056  1.00  0.00     0.198 A 
ATOM     88  C   UNL A   1      43.265  24.395  35.347  1.00  0.00     0.198 A 
ATOM     89  F   UNL A   1      41.592  25.924  34.883  1.00  0.00    -0.203 F 
ATOM     90  F   UNL A   1      46.862  24.608  35.069  1.00  0.00    -0.200 F 
ATOM     91  C   UNL A   1      44.592  24.020  35.355  1.00  0.00     0.200 A 
ATOM     92  F   UNL A   1      42.316  23.545  35.757  1.00  0.00    -0.200 F 
ATOM     93  F   UNL A   1      44.934  22.769  35.676  1.00  0.00    -0.200 F 
ENDBRANCH  60  83
ENDBRANCH  34  35
ENDBRANCH  27  29
ENDBRANCH  26  27
ENDBRANCH  25  26
ENDBRANCH   1  25
TORSDOF 14
ENDMDL
