MODEL 1
REMARK VINA RESULT:     -12.5      0.000      0.000
REMARK SMILES Cc1ccccc1NC(=O)C[NH+]1CCC(CC(=O)OCCOC(=O)c2ccc(-c3c4nc(c(-c5c(F)c(F)c(F)c(F)c5F)c5ccc([nH]5)c(-c5c(F)c(F)c(F)c(F)c5F)c5nc(c(-c6c(F)c(F)c(F)c(F)c6F)c6ccc3[nH]6)C=C5)C=C4)cc2)CC1
REMARK SMILES IDX 20 1 19 2 17 3 18 4 16 5 15 6 12 7 13 8 89 9 14 11 88 12
REMARK SMILES IDX 11 13 9 14 8 15 10 17 7 18 1 19 2 20 3 21 4 22 6 23 5 24
REMARK SMILES IDX 21 25 22 26 23 27 24 28 25 29 26 30 87 31 27 32 86 33 28 34
REMARK SMILES IDX 29 35 30 36 80 37 31 38 85 39 79 40 81 41 32 42 84 43 78 44
REMARK SMILES IDX 77 45 33 47 65 48 45 49 64 50 46 51 49 52 63 53 82 54 47 55
REMARK SMILES IDX 48 56 62 58 83 59 50 60 34 61 35 62 43 63 36 64 37 65 41 66
REMARK SMILES IDX 44 67 38 68 39 69 42 70 40 71 66 72 67 73 75 74 68 75 69 76
REMARK SMILES IDX 73 77 76 78 70 79 71 80 74 81 72 82 51 83 52 84 60 85 53 86
REMARK SMILES IDX 54 87 58 88 61 89 55 90 56 91 59 92 57 93
REMARK H PARENT 12 10 8 16 81 46 49 57
REMARK Flexibility Score: inf
ROOT
ATOM      1  C   UNL A   1      32.812  28.598  25.402  1.00  0.00     0.274 C 
ENDROOT
BRANCH   1   2
ATOM      2  O   UNL A   1      31.994  28.730  24.220  1.00  0.00    -0.462 OA
BRANCH   2   3
ATOM      3  C   UNL A   1      32.035  27.721  23.330  1.00  0.00     0.306 C 
ATOM      4  O   UNL A   1      31.149  27.506  22.515  1.00  0.00    -0.252 OA
BRANCH   3   5
ATOM      5  C   UNL A   1      33.288  26.879  23.471  1.00  0.00     0.126 C 
BRANCH   5   6
ATOM      6  C   UNL A   1      32.829  25.436  23.550  1.00  0.00     0.011 C 
ATOM      7  N   UNL A   1      32.853  22.619  24.129  1.00  0.00    -0.327 N 
ATOM      8  C   UNL A   1      33.471  23.142  22.909  1.00  0.00     0.262 C 
ATOM      9  C   UNL A   1      31.822  23.501  24.693  1.00  0.00     0.262 C 
ATOM     10  H   UNL A   1      33.568  22.603  24.856  1.00  0.00     0.348 HD
ATOM     11  C   UNL A   1      34.001  24.535  23.160  1.00  0.00     0.066 C 
ATOM     12  C   UNL A   1      32.266  24.960  24.881  1.00  0.00     0.066 C 
BRANCH   7  13
ATOM     13  C   UNL A   1      32.409  21.220  23.923  1.00  0.00     0.363 C 
BRANCH  13  14
ATOM     14  C   UNL A   1      32.946  20.189  24.932  1.00  0.00     0.279 C 
ATOM     15  N   UNL A   1      34.135  20.292  25.597  1.00  0.00    -0.321 N 
ATOM     16  H   UNL A   1      34.309  19.538  26.207  1.00  0.00     0.170 HD
ATOM     17  O   UNL A   1      32.240  19.213  25.231  1.00  0.00    -0.268 OA
BRANCH  15  18
ATOM     18  C   UNL A   1      35.162  21.252  25.588  1.00  0.00     0.044 A 
ATOM     19  C   UNL A   1      34.078  22.500  27.573  1.00  0.00     0.046 C 
ATOM     20  C   UNL A   1      35.074  22.365  26.451  1.00  0.00    -0.027 A 
ATOM     21  C   UNL A   1      35.974  23.434  26.278  1.00  0.00     0.005 A 
ATOM     22  C   UNL A   1      36.957  23.398  25.291  1.00  0.00     0.000 A 
ATOM     23  C   UNL A   1      36.238  21.179  24.698  1.00  0.00     0.026 A 
ATOM     24  C   UNL A   1      37.109  22.255  24.524  1.00  0.00     0.002 A 
ENDBRANCH  15  18
ENDBRANCH  13  14
ENDBRANCH   7  13
ENDBRANCH   5   6
ENDBRANCH   3   5
ENDBRANCH   2   3
ENDBRANCH   1   2
BRANCH   1  25
ATOM     25  C   UNL A   1      33.283  29.878  26.170  1.00  0.00     0.275 C 
BRANCH  25  26
ATOM     26  O   UNL A   1      34.143  29.769  27.343  1.00  0.00    -0.458 OA
BRANCH  26  27
ATOM     27  C   UNL A   1      34.912  30.817  27.779  1.00  0.00     0.338 C 
ATOM     28  O   UNL A   1      34.680  31.986  27.612  1.00  0.00    -0.246 OA
BRANCH  27  29
ATOM     29  C   UNL A   1      36.171  30.297  28.374  1.00  0.00     0.060 A 
ATOM     30  C   UNL A   1      36.266  29.738  29.662  1.00  0.00     0.016 A 
ATOM     31  C   UNL A   1      37.233  30.199  27.499  1.00  0.00     0.016 A 
ATOM     32  C   UNL A   1      37.415  29.009  30.010  1.00  0.00     0.010 A 
ATOM     33  C   UNL A   1      38.127  29.200  27.699  1.00  0.00     0.010 A 
ATOM     34  C   UNL A   1      38.319  28.714  28.995  1.00  0.00    -0.014 A 
BRANCH  34  35
ATOM     35  C   UNL A   1      39.670  28.188  29.102  1.00  0.00     0.031 A 
ATOM     36  C   UNL A   1      40.046  26.833  28.688  1.00  0.00     0.074 A 
ATOM     37  C   UNL A   1      40.554  29.219  29.129  1.00  0.00     0.049 A 
ATOM     38  N   UNL A   1      41.219  26.351  28.892  1.00  0.00    -0.248 NA
ATOM     39  C   UNL A   1      39.170  25.896  27.998  1.00  0.00     0.031 C 
ATOM     40  C   UNL A   1      41.911  29.340  28.633  1.00  0.00     0.029 A 
ATOM     41  N   UNL A   1      40.266  30.520  29.587  1.00  0.00    -0.354 N 
ATOM     42  C   UNL A   1      41.361  25.232  28.100  1.00  0.00     0.074 A 
ATOM     43  C   UNL A   1      40.021  24.908  27.676  1.00  0.00     0.031 C 
ATOM     44  C   UNL A   1      42.432  30.492  29.109  1.00  0.00     0.029 A 
ATOM     45  C   UNL A   1      41.467  31.060  30.045  1.00  0.00     0.049 A 
ATOM     46  H   UNL A   1      39.387  30.963  29.583  1.00  0.00     0.167 HD
ATOM     47  C   UNL A   1      42.629  24.826  27.789  1.00  0.00     0.037 A 
ATOM     48  C   UNL A   1      41.568  31.156  31.406  1.00  0.00     0.037 A 
ATOM     49  C   UNL A   1      43.596  25.781  28.337  1.00  0.00     0.049 A 
ATOM     50  C   UNL A   1      42.520  30.112  31.955  1.00  0.00     0.074 A 
ATOM     51  C   UNL A   1      44.311  26.841  27.806  1.00  0.00     0.029 A 
ATOM     52  N   UNL A   1      43.658  25.935  29.705  1.00  0.00    -0.354 N 
ATOM     53  N   UNL A   1      43.078  29.179  31.234  1.00  0.00    -0.248 NA
ATOM     54  C   UNL A   1      42.882  30.005  33.363  1.00  0.00     0.031 C 
ATOM     55  C   UNL A   1      44.805  27.627  28.894  1.00  0.00     0.029 A 
ATOM     56  C   UNL A   1      44.399  27.034  30.076  1.00  0.00     0.049 A 
ATOM     57  H   UNL A   1      43.220  25.327  30.346  1.00  0.00     0.167 HD
ATOM     58  C   UNL A   1      43.837  28.363  32.015  1.00  0.00     0.074 A 
ATOM     59  C   UNL A   1      43.661  28.908  33.352  1.00  0.00     0.031 C 
ATOM     60  C   UNL A   1      44.535  27.304  31.500  1.00  0.00     0.037 A 
BRANCH  47  61
ATOM     61  C   UNL A   1      43.054  23.715  26.851  1.00  0.00     0.064 A 
ATOM     62  C   UNL A   1      42.753  22.367  27.172  1.00  0.00     0.173 A 
ATOM     63  C   UNL A   1      43.708  23.886  25.616  1.00  0.00     0.173 A 
ATOM     64  F   UNL A   1      42.066  22.042  28.275  1.00  0.00    -0.203 F 
ATOM     65  C   UNL A   1      43.131  21.290  26.368  1.00  0.00     0.198 A 
ATOM     66  C   UNL A   1      44.106  22.802  24.820  1.00  0.00     0.198 A 
ATOM     67  F   UNL A   1      43.939  25.099  25.106  1.00  0.00    -0.203 F 
ATOM     68  F   UNL A   1      42.814  20.042  26.739  1.00  0.00    -0.200 F 
ATOM     69  C   UNL A   1      43.823  21.505  25.197  1.00  0.00     0.200 A 
ATOM     70  F   UNL A   1      44.759  23.027  23.669  1.00  0.00    -0.200 F 
ATOM     71  F   UNL A   1      44.191  20.472  24.428  1.00  0.00    -0.200 F 
ENDBRANCH  47  61
BRANCH  48  72
ATOM     72  C   UNL A   1      40.239  31.564  32.008  1.00  0.00     0.064 A 
ATOM     73  C   UNL A   1      39.499  30.571  32.698  1.00  0.00     0.173 A 
ATOM     74  C   UNL A   1      39.944  32.899  32.327  1.00  0.00     0.173 A 
ATOM     75  F   UNL A   1      39.745  29.271  32.465  1.00  0.00    -0.203 F 
ATOM     76  C   UNL A   1      38.630  30.892  33.744  1.00  0.00     0.198 A 
ATOM     77  C   UNL A   1      39.044  33.216  33.355  1.00  0.00     0.198 A 
ATOM     78  F   UNL A   1      40.609  33.901  31.736  1.00  0.00    -0.203 F 
ATOM     79  F   UNL A   1      38.072  29.917  34.477  1.00  0.00    -0.200 F 
ATOM     80  C   UNL A   1      38.422  32.215  34.087  1.00  0.00     0.200 A 
ATOM     81  F   UNL A   1      38.854  34.498  33.704  1.00  0.00    -0.200 F 
ATOM     82  F   UNL A   1      37.665  32.525  35.150  1.00  0.00    -0.200 F 
ENDBRANCH  48  72
BRANCH  60  83
ATOM     83  C   UNL A   1      45.388  26.385  32.331  1.00  0.00     0.064 A 
ATOM     84  C   UNL A   1      46.779  26.323  32.179  1.00  0.00     0.173 A 
ATOM     85  C   UNL A   1      44.832  25.462  33.249  1.00  0.00     0.173 A 
ATOM     86  F   UNL A   1      47.402  27.040  31.233  1.00  0.00    -0.203 F 
ATOM     87  C   UNL A   1      47.566  25.498  32.983  1.00  0.00     0.198 A 
ATOM     88  C   UNL A   1      45.613  24.592  34.000  1.00  0.00     0.198 A 
ATOM     89  F   UNL A   1      43.516  25.377  33.482  1.00  0.00    -0.203 F 
ATOM     90  F   UNL A   1      48.900  25.545  32.868  1.00  0.00    -0.200 F 
ATOM     91  C   UNL A   1      46.984  24.636  33.893  1.00  0.00     0.200 A 
ATOM     92  F   UNL A   1      45.021  23.728  34.839  1.00  0.00    -0.200 F 
ATOM     93  F   UNL A   1      47.741  23.844  34.662  1.00  0.00    -0.200 F 
ENDBRANCH  60  83
ENDBRANCH  34  35
ENDBRANCH  27  29
ENDBRANCH  26  27
ENDBRANCH  25  26
ENDBRANCH   1  25
TORSDOF 15
ENDMDL
MODEL 2
REMARK VINA RESULT:     -12.5      3.109      9.204
REMARK SMILES Cc1ccccc1NC(=O)C[NH+]1CCC(CC(=O)OCCOC(=O)c2ccc(-c3c4nc(c(-c5c(F)c(F)c(F)c(F)c5F)c5ccc([nH]5)c(-c5c(F)c(F)c(F)c(F)c5F)c5nc(c(-c6c(F)c(F)c(F)c(F)c6F)c6ccc3[nH]6)C=C5)C=C4)cc2)CC1
REMARK SMILES IDX 20 1 19 2 17 3 18 4 16 5 15 6 12 7 13 8 89 9 14 11 88 12
REMARK SMILES IDX 11 13 9 14 8 15 10 17 7 18 1 19 2 20 3 21 4 22 6 23 5 24
REMARK SMILES IDX 21 25 22 26 23 27 24 28 25 29 26 30 87 31 27 32 86 33 28 34
REMARK SMILES IDX 29 35 30 36 80 37 31 38 85 39 79 40 81 41 32 42 84 43 78 44
REMARK SMILES IDX 77 45 33 47 65 48 45 49 64 50 46 51 49 52 63 53 82 54 47 55
REMARK SMILES IDX 48 56 62 58 83 59 50 60 34 61 35 62 43 63 36 64 37 65 41 66
REMARK SMILES IDX 44 67 38 68 39 69 42 70 40 71 66 72 67 73 75 74 68 75 69 76
REMARK SMILES IDX 73 77 76 78 70 79 71 80 74 81 72 82 51 83 52 84 60 85 53 86
REMARK SMILES IDX 54 87 58 88 61 89 55 90 56 91 59 92 57 93
REMARK H PARENT 12 10 8 16 81 46 49 57
REMARK Flexibility Score: inf
ROOT
ATOM      1  C   UNL A   1      35.855  22.047  25.264  1.00  0.00     0.274 C 
ENDROOT
BRANCH   1   2
ATOM      2  O   UNL A   1      34.835  21.450  26.092  1.00  0.00    -0.462 OA
BRANCH   2   3
ATOM      3  C   UNL A   1      33.618  22.025  26.077  1.00  0.00     0.306 C 
ATOM      4  O   UNL A   1      32.599  21.435  25.749  1.00  0.00    -0.252 OA
BRANCH   3   5
ATOM      5  C   UNL A   1      33.665  23.483  26.492  1.00  0.00     0.126 C 
BRANCH   5   6
ATOM      6  C   UNL A   1      32.716  24.222  25.570  1.00  0.00     0.011 C 
ATOM      7  N   UNL A   1      31.379  26.396  24.243  1.00  0.00    -0.327 N 
ATOM      8  C   UNL A   1      30.934  25.928  25.557  1.00  0.00     0.262 C 
ATOM      9  C   UNL A   1      32.130  25.389  23.481  1.00  0.00     0.262 C 
ATOM     10  H   UNL A   1      32.067  27.134  24.394  1.00  0.00     0.348 HD
ATOM     11  C   UNL A   1      32.113  25.398  26.339  1.00  0.00     0.066 C 
ATOM     12  C   UNL A   1      33.286  24.737  24.256  1.00  0.00     0.066 C 
BRANCH   7  13
ATOM     13  C   UNL A   1      30.248  27.001  23.500  1.00  0.00     0.363 C 
BRANCH  13  14
ATOM     14  C   UNL A   1      30.467  28.439  22.997  1.00  0.00     0.279 C 
ATOM     15  N   UNL A   1      31.285  29.359  23.589  1.00  0.00    -0.321 N 
ATOM     16  H   UNL A   1      31.302  30.226  23.122  1.00  0.00     0.170 HD
ATOM     17  O   UNL A   1      29.921  28.798  21.942  1.00  0.00    -0.268 OA
BRANCH  15  18
ATOM     18  C   UNL A   1      32.107  29.321  24.730  1.00  0.00     0.044 A 
ATOM     19  C   UNL A   1      34.126  28.561  23.308  1.00  0.00     0.046 C 
ATOM     20  C   UNL A   1      33.425  28.832  24.614  1.00  0.00    -0.027 A 
ATOM     21  C   UNL A   1      34.163  28.579  25.787  1.00  0.00     0.005 A 
ATOM     22  C   UNL A   1      33.622  28.825  27.047  1.00  0.00     0.000 A 
ATOM     23  C   UNL A   1      31.637  29.688  25.994  1.00  0.00     0.026 A 
ATOM     24  C   UNL A   1      32.371  29.412  27.149  1.00  0.00     0.002 A 
ENDBRANCH  15  18
ENDBRANCH  13  14
ENDBRANCH   7  13
ENDBRANCH   5   6
ENDBRANCH   3   5
ENDBRANCH   2   3
ENDBRANCH   1   2
BRANCH   1  25
ATOM     25  C   UNL A   1      37.362  21.915  25.667  1.00  0.00     0.275 C 
BRANCH  25  26
ATOM     26  O   UNL A   1      38.086  23.049  26.229  1.00  0.00    -0.458 OA
BRANCH  26  27
ATOM     27  C   UNL A   1      39.440  23.012  26.444  1.00  0.00     0.338 C 
ATOM     28  O   UNL A   1      40.142  22.036  26.386  1.00  0.00    -0.246 OA
BRANCH  27  29
ATOM     29  C   UNL A   1      39.906  24.344  26.910  1.00  0.00     0.060 A 
ATOM     30  C   UNL A   1      40.577  25.277  26.097  1.00  0.00     0.016 A 
ATOM     31  C   UNL A   1      39.457  24.715  28.161  1.00  0.00     0.016 A 
ATOM     32  C   UNL A   1      40.702  26.605  26.538  1.00  0.00     0.010 A 
ATOM     33  C   UNL A   1      39.243  26.034  28.389  1.00  0.00     0.010 A 
ATOM     34  C   UNL A   1      39.988  26.974  27.673  1.00  0.00    -0.014 A 
BRANCH  34  35
ATOM     35  C   UNL A   1      40.104  28.185  28.469  1.00  0.00     0.031 A 
ATOM     36  C   UNL A   1      39.100  29.252  28.469  1.00  0.00     0.074 A 
ATOM     37  C   UNL A   1      40.929  27.954  29.523  1.00  0.00     0.049 A 
ATOM     38  N   UNL A   1      39.274  30.361  29.094  1.00  0.00    -0.248 NA
ATOM     39  C   UNL A   1      37.810  29.188  27.796  1.00  0.00     0.031 C 
ATOM     40  C   UNL A   1      40.943  28.482  30.872  1.00  0.00     0.029 A 
ATOM     41  N   UNL A   1      41.960  26.992  29.548  1.00  0.00    -0.354 N 
ATOM     42  C   UNL A   1      38.050  30.988  29.194  1.00  0.00     0.074 A 
ATOM     43  C   UNL A   1      37.204  30.295  28.253  1.00  0.00     0.031 C 
ATOM     44  C   UNL A   1      42.101  28.108  31.460  1.00  0.00     0.029 A 
ATOM     45  C   UNL A   1      42.921  27.456  30.444  1.00  0.00     0.049 A 
ATOM     46  H   UNL A   1      41.993  26.153  29.034  1.00  0.00     0.167 HD
ATOM     47  C   UNL A   1      37.886  31.916  30.184  1.00  0.00     0.037 A 
ATOM     48  C   UNL A   1      44.068  27.922  29.862  1.00  0.00     0.037 A 
ATOM     49  C   UNL A   1      39.097  31.970  31.007  1.00  0.00     0.049 A 
ATOM     50  C   UNL A   1      44.139  29.434  29.930  1.00  0.00     0.074 A 
ATOM     51  C   UNL A   1      39.460  31.424  32.227  1.00  0.00     0.029 A 
ATOM     52  N   UNL A   1      40.273  32.373  30.411  1.00  0.00    -0.354 N 
ATOM     53  N   UNL A   1      43.178  30.191  30.384  1.00  0.00    -0.248 NA
ATOM     54  C   UNL A   1      45.270  30.217  29.449  1.00  0.00     0.031 C 
ATOM     55  C   UNL A   1      40.882  31.518  32.344  1.00  0.00     0.029 A 
ATOM     56  C   UNL A   1      41.372  32.129  31.204  1.00  0.00     0.049 A 
ATOM     57  H   UNL A   1      40.322  32.788  29.519  1.00  0.00     0.167 HD
ATOM     58  C   UNL A   1      43.512  31.505  30.269  1.00  0.00     0.074 A 
ATOM     59  C   UNL A   1      44.828  31.471  29.650  1.00  0.00     0.031 C 
ATOM     60  C   UNL A   1      42.676  32.509  30.681  1.00  0.00     0.037 A 
BRANCH  47  61
ATOM     61  C   UNL A   1      36.621  32.650  30.581  1.00  0.00     0.064 A 
ATOM     62  C   UNL A   1      36.071  33.625  29.712  1.00  0.00     0.173 A 
ATOM     63  C   UNL A   1      35.875  32.428  31.753  1.00  0.00     0.173 A 
ATOM     64  F   UNL A   1      36.619  33.898  28.521  1.00  0.00    -0.203 F 
ATOM     65  C   UNL A   1      34.921  34.356  30.019  1.00  0.00     0.198 A 
ATOM     66  C   UNL A   1      34.733  33.179  32.072  1.00  0.00     0.198 A 
ATOM     67  F   UNL A   1      36.185  31.449  32.609  1.00  0.00    -0.203 F 
ATOM     68  F   UNL A   1      34.461  35.265  29.149  1.00  0.00    -0.200 F 
ATOM     69  C   UNL A   1      34.259  34.145  31.208  1.00  0.00     0.200 A 
ATOM     70  F   UNL A   1      34.084  32.946  33.223  1.00  0.00    -0.200 F 
ATOM     71  F   UNL A   1      33.160  34.850  31.507  1.00  0.00    -0.200 F 
ENDBRANCH  47  61
BRANCH  48  72
ATOM     72  C   UNL A   1      44.446  27.058  28.675  1.00  0.00     0.064 A 
ATOM     73  C   UNL A   1      44.232  27.593  27.380  1.00  0.00     0.173 A 
ATOM     74  C   UNL A   1      45.391  26.024  28.777  1.00  0.00     0.173 A 
ATOM     75  F   UNL A   1      43.362  28.603  27.209  1.00  0.00    -0.203 F 
ATOM     76  C   UNL A   1      45.020  27.219  26.288  1.00  0.00     0.198 A 
ATOM     77  C   UNL A   1      46.155  25.630  27.669  1.00  0.00     0.198 A 
ATOM     78  F   UNL A   1      45.670  25.475  29.967  1.00  0.00    -0.203 F 
ATOM     79  F   UNL A   1      44.893  27.863  25.118  1.00  0.00    -0.200 F 
ATOM     80  C   UNL A   1      45.997  26.254  26.440  1.00  0.00     0.200 A 
ATOM     81  F   UNL A   1      47.118  24.707  27.817  1.00  0.00    -0.200 F 
ATOM     82  F   UNL A   1      46.819  25.960  25.422  1.00  0.00    -0.200 F 
ENDBRANCH  48  72
BRANCH  60  83
ATOM     83  C   UNL A   1      43.014  33.971  30.574  1.00  0.00     0.064 A 
ATOM     84  C   UNL A   1      43.144  34.614  29.337  1.00  0.00     0.173 A 
ATOM     85  C   UNL A   1      43.311  34.763  31.710  1.00  0.00     0.173 A 
ATOM     86  F   UNL A   1      43.036  33.930  28.189  1.00  0.00    -0.203 F 
ATOM     87  C   UNL A   1      43.416  35.979  29.248  1.00  0.00     0.198 A 
ATOM     88  C   UNL A   1      43.649  36.107  31.615  1.00  0.00     0.198 A 
ATOM     89  F   UNL A   1      43.262  34.284  32.959  1.00  0.00    -0.203 F 
ATOM     90  F   UNL A   1      43.435  36.571  28.046  1.00  0.00    -0.200 F 
ATOM     91  C   UNL A   1      43.666  36.725  30.385  1.00  0.00     0.200 A 
ATOM     92  F   UNL A   1      43.938  36.796  32.728  1.00  0.00    -0.200 F 
ATOM     93  F   UNL A   1      43.928  38.034  30.298  1.00  0.00    -0.200 F 
ENDBRANCH  60  83
ENDBRANCH  34  35
ENDBRANCH  27  29
ENDBRANCH  26  27
ENDBRANCH  25  26
ENDBRANCH   1  25
TORSDOF 15
ENDMDL
MODEL 3
REMARK VINA RESULT:     -12.5      3.578      6.064
REMARK SMILES Cc1ccccc1NC(=O)C[NH+]1CCC(CC(=O)OCCOC(=O)c2ccc(-c3c4nc(c(-c5c(F)c(F)c(F)c(F)c5F)c5ccc([nH]5)c(-c5c(F)c(F)c(F)c(F)c5F)c5nc(c(-c6c(F)c(F)c(F)c(F)c6F)c6ccc3[nH]6)C=C5)C=C4)cc2)CC1
REMARK SMILES IDX 20 1 19 2 17 3 18 4 16 5 15 6 12 7 13 8 89 9 14 11 88 12
REMARK SMILES IDX 11 13 9 14 8 15 10 17 7 18 1 19 2 20 3 21 4 22 6 23 5 24
REMARK SMILES IDX 21 25 22 26 23 27 24 28 25 29 26 30 87 31 27 32 86 33 28 34
REMARK SMILES IDX 29 35 30 36 80 37 31 38 85 39 79 40 81 41 32 42 84 43 78 44
REMARK SMILES IDX 77 45 33 47 65 48 45 49 64 50 46 51 49 52 63 53 82 54 47 55
REMARK SMILES IDX 48 56 62 58 83 59 50 60 34 61 35 62 43 63 36 64 37 65 41 66
REMARK SMILES IDX 44 67 38 68 39 69 42 70 40 71 66 72 67 73 75 74 68 75 69 76
REMARK SMILES IDX 73 77 76 78 70 79 71 80 74 81 72 82 51 83 52 84 60 85 53 86
REMARK SMILES IDX 54 87 58 88 61 89 55 90 56 91 59 92 57 93
REMARK H PARENT 12 10 8 16 81 46 49 57
REMARK Flexibility Score: inf
ROOT
ATOM      1  C   UNL A   1      33.374  34.816  29.491  1.00  0.00     0.274 C 
ENDROOT
BRANCH   1   2
ATOM      2  O   UNL A   1      34.642  34.177  29.229  1.00  0.00    -0.462 OA
BRANCH   2   3
ATOM      3  C   UNL A   1      34.733  32.861  29.498  1.00  0.00     0.306 C 
ATOM      4  O   UNL A   1      34.283  32.349  30.513  1.00  0.00    -0.252 OA
BRANCH   3   5
ATOM      5  C   UNL A   1      35.471  32.102  28.412  1.00  0.00     0.126 C 
BRANCH   5   6
ATOM      6  C   UNL A   1      34.573  30.948  28.010  1.00  0.00     0.011 C 
ATOM      7  N   UNL A   1      32.900  29.261  26.389  1.00  0.00    -0.327 N 
ATOM      8  C   UNL A   1      32.351  30.435  27.069  1.00  0.00     0.262 C 
ATOM      9  C   UNL A   1      34.131  28.744  27.003  1.00  0.00     0.262 C 
ATOM     10  H   UNL A   1      33.210  29.557  25.463  1.00  0.00     0.348 HD
ATOM     11  C   UNL A   1      33.413  31.504  27.185  1.00  0.00     0.066 C 
ATOM     12  C   UNL A   1      35.218  29.804  27.241  1.00  0.00     0.066 C 
BRANCH   7  13
ATOM     13  C   UNL A   1      31.845  28.240  26.188  1.00  0.00     0.363 C 
BRANCH  13  14
ATOM     14  C   UNL A   1      31.896  27.473  24.855  1.00  0.00     0.279 C 
ATOM     15  N   UNL A   1      31.026  27.649  23.818  1.00  0.00    -0.321 N 
ATOM     16  H   UNL A   1      31.218  27.072  23.042  1.00  0.00     0.170 HD
ATOM     17  O   UNL A   1      32.824  26.673  24.655  1.00  0.00    -0.268 OA
BRANCH  15  18
ATOM     18  C   UNL A   1      29.910  28.484  23.629  1.00  0.00     0.044 A 
ATOM     19  C   UNL A   1      28.307  26.468  23.829  1.00  0.00     0.046 C 
ATOM     20  C   UNL A   1      28.627  27.908  23.520  1.00  0.00    -0.027 A 
ATOM     21  C   UNL A   1      27.551  28.715  23.103  1.00  0.00     0.005 A 
ATOM     22  C   UNL A   1      27.730  30.068  22.822  1.00  0.00     0.000 A 
ATOM     23  C   UNL A   1      30.038  29.868  23.475  1.00  0.00     0.026 A 
ATOM     24  C   UNL A   1      28.967  30.651  23.041  1.00  0.00     0.002 A 
ENDBRANCH  15  18
ENDBRANCH  13  14
ENDBRANCH   7  13
ENDBRANCH   5   6
ENDBRANCH   3   5
ENDBRANCH   2   3
ENDBRANCH   1   2
BRANCH   1  25
ATOM     25  C   UNL A   1      33.210  35.737  30.745  1.00  0.00     0.275 C 
BRANCH  25  26
ATOM     26  O   UNL A   1      33.469  35.224  32.086  1.00  0.00    -0.458 OA
BRANCH  26  27
ATOM     27  C   UNL A   1      34.441  35.758  32.893  1.00  0.00     0.338 C 
ATOM     28  O   UNL A   1      34.501  36.899  33.271  1.00  0.00    -0.246 OA
BRANCH  27  29
ATOM     29  C   UNL A   1      35.507  34.749  33.121  1.00  0.00     0.060 A 
ATOM     30  C   UNL A   1      35.417  33.700  34.055  1.00  0.00     0.016 A 
ATOM     31  C   UNL A   1      36.538  34.770  32.204  1.00  0.00     0.016 A 
ATOM     32  C   UNL A   1      36.333  32.637  33.983  1.00  0.00     0.010 A 
ATOM     33  C   UNL A   1      37.143  33.595  31.907  1.00  0.00     0.010 A 
ATOM     34  C   UNL A   1      37.165  32.582  32.869  1.00  0.00    -0.014 A 
BRANCH  34  35
ATOM     35  C   UNL A   1      38.335  31.750  32.646  1.00  0.00     0.031 A 
ATOM     36  C   UNL A   1      38.341  30.584  31.757  1.00  0.00     0.074 A 
ATOM     37  C   UNL A   1      39.456  32.462  32.929  1.00  0.00     0.049 A 
ATOM     38  N   UNL A   1      39.352  29.799  31.658  1.00  0.00    -0.248 NA
ATOM     39  C   UNL A   1      37.242  30.191  30.885  1.00  0.00     0.031 C 
ATOM     40  C   UNL A   1      40.790  32.428  32.363  1.00  0.00     0.029 A 
ATOM     41  N   UNL A   1      39.522  33.542  33.832  1.00  0.00    -0.354 N 
ATOM     42  C   UNL A   1      39.187  29.037  30.521  1.00  0.00     0.074 A 
ATOM     43  C   UNL A   1      37.803  29.213  30.157  1.00  0.00     0.031 C 
ATOM     44  C   UNL A   1      41.600  33.175  33.145  1.00  0.00     0.029 A 
ATOM     45  C   UNL A   1      40.829  33.582  34.316  1.00  0.00     0.049 A 
ATOM     46  H   UNL A   1      38.788  34.152  34.073  1.00  0.00     0.167 HD
ATOM     47  C   UNL A   1      40.301  28.480  29.957  1.00  0.00     0.037 A 
ATOM     48  C   UNL A   1      40.973  33.159  35.608  1.00  0.00     0.037 A 
ATOM     49  C   UNL A   1      41.491  28.919  30.692  1.00  0.00     0.049 A 
ATOM     50  C   UNL A   1      41.630  31.794  35.664  1.00  0.00     0.074 A 
ATOM     51  C   UNL A   1      42.448  29.898  30.482  1.00  0.00     0.029 A 
ATOM     52  N   UNL A   1      41.612  28.554  32.016  1.00  0.00    -0.354 N 
ATOM     53  N   UNL A   1      41.916  31.076  34.612  1.00  0.00    -0.248 NA
ATOM     54  C   UNL A   1      41.973  31.108  36.903  1.00  0.00     0.031 C 
ATOM     55  C   UNL A   1      43.146  30.101  31.713  1.00  0.00     0.029 A 
ATOM     56  C   UNL A   1      42.618  29.239  32.658  1.00  0.00     0.049 A 
ATOM     57  H   UNL A   1      41.042  27.880  32.452  1.00  0.00     0.167 HD
ATOM     58  C   UNL A   1      42.450  29.881  34.982  1.00  0.00     0.074 A 
ATOM     59  C   UNL A   1      42.441  29.937  36.436  1.00  0.00     0.031 C 
ATOM     60  C   UNL A   1      42.842  28.943  34.065  1.00  0.00     0.037 A 
BRANCH  47  61
ATOM     61  C   UNL A   1      40.409  27.711  28.656  1.00  0.00     0.064 A 
ATOM     62  C   UNL A   1      39.792  26.441  28.535  1.00  0.00     0.173 A 
ATOM     63  C   UNL A   1      41.050  28.160  27.486  1.00  0.00     0.173 A 
ATOM     64  F   UNL A   1      39.078  25.907  29.534  1.00  0.00    -0.203 F 
ATOM     65  C   UNL A   1      39.867  25.666  27.376  1.00  0.00     0.198 A 
ATOM     66  C   UNL A   1      41.143  27.371  26.330  1.00  0.00     0.198 A 
ATOM     67  F   UNL A   1      41.562  29.391  27.393  1.00  0.00    -0.203 F 
ATOM     68  F   UNL A   1      39.260  24.471  27.337  1.00  0.00    -0.200 F 
ATOM     69  C   UNL A   1      40.557  26.123  26.276  1.00  0.00     0.200 A 
ATOM     70  F   UNL A   1      41.799  27.839  25.256  1.00  0.00    -0.200 F 
ATOM     71  F   UNL A   1      40.634  25.377  25.166  1.00  0.00    -0.200 F 
ENDBRANCH  47  61
BRANCH  48  72
ATOM     72  C   UNL A   1      39.804  33.626  36.452  1.00  0.00     0.064 A 
ATOM     73  C   UNL A   1      38.831  32.663  36.817  1.00  0.00     0.173 A 
ATOM     74  C   UNL A   1      39.877  34.777  37.253  1.00  0.00     0.173 A 
ATOM     75  F   UNL A   1      38.721  31.524  36.112  1.00  0.00    -0.203 F 
ATOM     76  C   UNL A   1      38.085  32.776  37.993  1.00  0.00     0.198 A 
ATOM     77  C   UNL A   1      39.101  34.900  38.415  1.00  0.00     0.198 A 
ATOM     78  F   UNL A   1      40.781  35.731  36.991  1.00  0.00    -0.203 F 
ATOM     79  F   UNL A   1      37.293  31.767  38.385  1.00  0.00    -0.200 F 
ATOM     80  C   UNL A   1      38.239  33.885  38.804  1.00  0.00     0.200 A 
ATOM     81  F   UNL A   1      39.261  35.967  39.215  1.00  0.00    -0.200 F 
ATOM     82  F   UNL A   1      37.599  33.955  39.981  1.00  0.00    -0.200 F 
ENDBRANCH  48  72
BRANCH  60  83
ATOM     83  C   UNL A   1      43.440  27.613  34.437  1.00  0.00     0.064 A 
ATOM     84  C   UNL A   1      44.824  27.405  34.468  1.00  0.00     0.173 A 
ATOM     85  C   UNL A   1      42.644  26.469  34.686  1.00  0.00     0.173 A 
ATOM     86  F   UNL A   1      45.676  28.374  34.101  1.00  0.00    -0.203 F 
ATOM     87  C   UNL A   1      45.371  26.181  34.855  1.00  0.00     0.198 A 
ATOM     88  C   UNL A   1      43.192  25.233  35.004  1.00  0.00     0.198 A 
ATOM     89  F   UNL A   1      41.306  26.500  34.662  1.00  0.00    -0.203 F 
ATOM     90  F   UNL A   1      46.701  26.058  34.964  1.00  0.00    -0.200 F 
ATOM     91  C   UNL A   1      44.556  25.098  35.123  1.00  0.00     0.200 A 
ATOM     92  F   UNL A   1      42.382  24.184  35.210  1.00  0.00    -0.200 F 
ATOM     93  F   UNL A   1      45.082  23.924  35.493  1.00  0.00    -0.200 F 
ENDBRANCH  60  83
ENDBRANCH  34  35
ENDBRANCH  27  29
ENDBRANCH  26  27
ENDBRANCH  25  26
ENDBRANCH   1  25
TORSDOF 15
ENDMDL
