MODEL 1
REMARK VINA RESULT:     -16.6      0.000      0.000
REMARK SMILES O=C(OCCOC(=O)[C@H]1CCCC[C@H]1C(=O)Nc1ccc(Cl)cc1F)c1ccc(-c2c3nc(c(-c4c(F)c(F)c(F)c(F)c4F)c4ccc([nH]4)c(-c4c(F)c(F)c(F)c(F)c4F)c4nc(c(-c5c(F)c(F)c(F)c(F)c5F)c5ccc2[nH]5)C=C4)C=C3)cc1
REMARK SMILES IDX 4 1 3 2 2 3 1 4 26 5 27 6 88 7 28 8 87 9 29 10 30 11 31 12
REMARK SMILES IDX 81 13 32 14 86 15 80 16 82 17 33 18 85 19 79 20 78 21 34 23
REMARK SMILES IDX 66 24 46 25 65 26 47 27 50 28 64 29 83 30 48 31 49 32 63 34
REMARK SMILES IDX 84 35 51 36 35 37 36 38 44 39 37 40 38 41 42 42 45 43 39 44
REMARK SMILES IDX 40 45 43 46 41 47 67 48 68 49 76 50 69 51 70 52 74 53 77 54
REMARK SMILES IDX 71 55 72 56 75 57 73 58 52 59 53 60 61 61 54 62 55 63 59 64
REMARK SMILES IDX 62 65 56 66 57 67 60 68 58 69 5 70 6 71 7 72 8 73 9 74 10 75
REMARK SMILES IDX 14 76 11 77 13 78 12 79 15 80 16 81 17 82 18 84 19 85 24 86
REMARK SMILES IDX 20 87 23 88 25 89 21 90 22 91
REMARK H PARENT 82 22 50 33 17 83
REMARK Flexibility Score: inf
ROOT
ATOM      1  C   UNL A   1      37.291  19.245  24.638  1.00  0.00     0.275 C 
ENDROOT
BRANCH   1   2
ATOM      2  O   UNL A   1      38.793  18.654  25.460  1.00  0.00    -0.458 OA
BRANCH   2   3
ATOM      3  C   UNL A   1      40.448  19.395  26.115  1.00  0.00     0.338 C 
ATOM      4  O   UNL A   1      41.563  18.860  26.068  1.00  0.00    -0.246 OA
BRANCH   3   5
ATOM      5  C   UNL A   1      40.407  21.023  26.927  1.00  0.00     0.060 A 
ATOM      6  C   UNL A   1      39.487  22.508  26.176  1.00  0.00     0.016 A 
ATOM      7  C   UNL A   1      41.823  21.428  27.920  1.00  0.00     0.016 A 
ATOM      8  C   UNL A   1      40.006  24.200  26.488  1.00  0.00     0.010 A 
ATOM      9  C   UNL A   1      42.180  23.132  28.307  1.00  0.00     0.010 A 
ATOM     10  C   UNL A   1      41.337  24.508  27.567  1.00  0.00    -0.014 A 
BRANCH  10  11
ATOM     11  C   UNL A   1      41.821  25.937  27.578  1.00  0.00     0.031 A 
ATOM     12  C   UNL A   1      41.121  26.994  28.403  1.00  0.00     0.074 A 
ATOM     13  C   UNL A   1      43.031  26.229  27.040  1.00  0.00     0.049 A 
ATOM     14  N   UNL A   1      41.534  28.197  28.739  1.00  0.00    -0.248 NA
ATOM     15  C   UNL A   1      39.806  26.666  28.958  1.00  0.00     0.031 C 
ATOM     16  C   UNL A   1      43.859  25.300  26.271  1.00  0.00     0.029 A 
ATOM     17  N   UNL A   1      43.813  27.364  27.098  1.00  0.00    -0.354 N 
ATOM     18  C   UNL A   1      40.542  28.728  29.560  1.00  0.00     0.074 A 
ATOM     19  C   UNL A   1      39.517  27.727  29.687  1.00  0.00     0.031 C 
ATOM     20  C   UNL A   1      45.060  25.847  26.034  1.00  0.00     0.029 A 
ATOM     21  C   UNL A   1      45.056  27.221  26.514  1.00  0.00     0.049 A 
ATOM     22  H   UNL A   1      43.510  28.202  27.518  1.00  0.00     0.167 HD
ATOM     23  C   UNL A   1      40.449  29.954  30.126  1.00  0.00     0.037 A 
ATOM     24  C   UNL A   1      46.065  28.102  26.345  1.00  0.00     0.037 A 
ATOM     25  C   UNL A   1      41.390  31.010  29.896  1.00  0.00     0.049 A 
ATOM     26  C   UNL A   1      45.866  29.510  26.842  1.00  0.00     0.074 A 
ATOM     27  C   UNL A   1      41.312  32.338  30.272  1.00  0.00     0.029 A 
ATOM     28  N   UNL A   1      42.568  30.858  29.179  1.00  0.00    -0.354 N 
ATOM     29  N   UNL A   1      44.887  29.999  27.566  1.00  0.00    -0.248 NA
ATOM     30  C   UNL A   1      46.888  30.498  26.470  1.00  0.00     0.031 C 
ATOM     31  C   UNL A   1      42.404  33.007  29.709  1.00  0.00     0.029 A 
ATOM     32  C   UNL A   1      43.207  32.078  29.065  1.00  0.00     0.049 A 
ATOM     33  H   UNL A   1      42.899  30.008  28.807  1.00  0.00     0.167 HD
ATOM     34  C   UNL A   1      45.182  31.343  27.749  1.00  0.00     0.074 A 
ATOM     35  C   UNL A   1      46.443  31.587  27.080  1.00  0.00     0.031 C 
ATOM     36  C   UNL A   1      44.470  32.290  28.405  1.00  0.00     0.037 A 
BRANCH  23  37
ATOM     37  C   UNL A   1      39.189  30.237  30.898  1.00  0.00     0.064 A 
ATOM     38  C   UNL A   1      38.050  30.796  30.294  1.00  0.00     0.173 A 
ATOM     39  C   UNL A   1      39.169  30.051  32.288  1.00  0.00     0.173 A 
ATOM     40  F   UNL A   1      38.030  31.030  28.974  1.00  0.00    -0.203 F 
ATOM     41  C   UNL A   1      36.959  31.198  31.063  1.00  0.00     0.198 A 
ATOM     42  C   UNL A   1      38.066  30.428  33.048  1.00  0.00     0.198 A 
ATOM     43  F   UNL A   1      40.236  29.535  32.916  1.00  0.00    -0.203 F 
ATOM     44  F   UNL A   1      35.916  31.806  30.480  1.00  0.00    -0.200 F 
ATOM     45  C   UNL A   1      36.968  31.016  32.439  1.00  0.00     0.200 A 
ATOM     46  F   UNL A   1      38.080  30.252  34.377  1.00  0.00    -0.200 F 
ATOM     47  F   UNL A   1      35.932  31.430  33.180  1.00  0.00    -0.200 F 
ENDBRANCH  23  37
BRANCH  24  48
ATOM     48  C   UNL A   1      47.318  27.721  25.618  1.00  0.00     0.064 A 
ATOM     49  C   UNL A   1      48.484  27.345  26.304  1.00  0.00     0.173 A 
ATOM     50  C   UNL A   1      47.393  27.773  24.215  1.00  0.00     0.173 A 
ATOM     51  F   UNL A   1      48.492  27.311  27.644  1.00  0.00    -0.203 F 
ATOM     52  C   UNL A   1      49.667  27.050  25.621  1.00  0.00     0.198 A 
ATOM     53  C   UNL A   1      48.562  27.439  23.533  1.00  0.00     0.198 A 
ATOM     54  F   UNL A   1      46.323  28.146  23.499  1.00  0.00    -0.203 F 
ATOM     55  F   UNL A   1      50.779  26.751  26.307  1.00  0.00    -0.200 F 
ATOM     56  C   UNL A   1      49.702  27.087  24.236  1.00  0.00     0.200 A 
ATOM     57  F   UNL A   1      48.583  27.464  22.193  1.00  0.00    -0.200 F 
ATOM     58  F   UNL A   1      50.835  26.799  23.580  1.00  0.00    -0.200 F 
ENDBRANCH  24  48
BRANCH  36  59
ATOM     59  C   UNL A   1      45.062  33.665  28.485  1.00  0.00     0.064 A 
ATOM     60  C   UNL A   1      44.755  34.665  27.552  1.00  0.00     0.173 A 
ATOM     61  C   UNL A   1      45.912  33.995  29.552  1.00  0.00     0.173 A 
ATOM     62  F   UNL A   1      43.955  34.395  26.510  1.00  0.00    -0.203 F 
ATOM     63  C   UNL A   1      45.302  35.939  27.668  1.00  0.00     0.198 A 
ATOM     64  C   UNL A   1      46.428  35.279  29.685  1.00  0.00     0.198 A 
ATOM     65  F   UNL A   1      46.228  33.074  30.476  1.00  0.00    -0.203 F 
ATOM     66  F   UNL A   1      45.039  36.866  26.738  1.00  0.00    -0.200 F 
ATOM     67  C   UNL A   1      46.131  36.248  28.738  1.00  0.00     0.200 A 
ATOM     68  F   UNL A   1      47.212  35.579  30.729  1.00  0.00    -0.200 F 
ATOM     69  F   UNL A   1      46.648  37.478  28.854  1.00  0.00    -0.200 F 
ENDBRANCH  36  59
ENDBRANCH  10  11
ENDBRANCH   3   5
ENDBRANCH   2   3
ENDBRANCH   1   2
BRANCH   1  70
ATOM     70  C   UNL A   1      35.619  18.560  24.627  1.00  0.00     0.274 C 
BRANCH  70  71
ATOM     71  O   UNL A   1      34.147  19.188  24.895  1.00  0.00    -0.462 OA
BRANCH  71  72
ATOM     72  C   UNL A   1      33.565  20.458  24.783  1.00  0.00     0.309 C 
ATOM     73  O   UNL A   1      32.771  20.682  23.867  1.00  0.00    -0.252 OA
BRANCH  72  74
ATOM     74  C   UNL A   1      33.977  21.707  25.956  1.00  0.00     0.111 C 
ATOM     75  C   UNL A   1      35.514  21.856  25.862  1.00  0.00     0.016 C 
ATOM     76  C   UNL A   1      33.131  23.375  26.474  1.00  0.00     0.093 C 
ATOM     77  C   UNL A   1      35.942  22.977  24.949  1.00  0.00     0.001 C 
ATOM     78  C   UNL A   1      34.377  24.578  25.993  1.00  0.00     0.014 C 
ATOM     79  C   UNL A   1      35.828  24.235  25.753  1.00  0.00     0.001 C 
BRANCH  76  80
ATOM     80  C   UNL A   1      30.949  23.694  26.456  1.00  0.00     0.228 C 
ATOM     81  O   UNL A   1      29.999  23.560  27.267  1.00  0.00    -0.274 OA
ATOM     82  N   UNL A   1      30.126  24.250  25.184  1.00  0.00    -0.323 N 
ATOM     83  H   UNL A   1      29.146  24.182  25.253  1.00  0.00     0.170 HD
BRANCH  82  84
ATOM     84  C   UNL A   1      30.663  24.876  23.870  1.00  0.00     0.077 A 
ATOM     85  C   UNL A   1      30.381  26.621  24.196  1.00  0.00     0.031 A 
ATOM     86  C   UNL A   1      32.327  24.417  22.971  1.00  0.00     0.148 A 
ATOM     87  C   UNL A   1      31.587  27.804  23.699  1.00  0.00     0.023 A 
ATOM     88  C   UNL A   1      33.495  25.704  22.547  1.00  0.00     0.062 A 
ATOM     89  F   UNL A   1      32.552  23.539  22.019  1.00  0.00    -0.205 F 
ATOM     90  C   UNL A   1      33.083  27.349  22.899  1.00  0.00     0.044 A 
ATOM     91  Cl  UNL A   1      34.159  28.580  22.361  1.00  0.00    -0.084 Cl
ENDBRANCH  82  84
ENDBRANCH  76  80
ENDBRANCH  72  74
ENDBRANCH  71  72
ENDBRANCH  70  71
ENDBRANCH   1  70
TORSDOF 13
ENDMDL
MODEL 2
REMARK VINA RESULT:     -16.5      4.793      7.936
REMARK SMILES O=C(OCCOC(=O)[C@H]1CCCC[C@H]1C(=O)Nc1ccc(Cl)cc1F)c1ccc(-c2c3nc(c(-c4c(F)c(F)c(F)c(F)c4F)c4ccc([nH]4)c(-c4c(F)c(F)c(F)c(F)c4F)c4nc(c(-c5c(F)c(F)c(F)c(F)c5F)c5ccc2[nH]5)C=C4)C=C3)cc1
REMARK SMILES IDX 4 1 3 2 2 3 1 4 26 5 27 6 88 7 28 8 87 9 29 10 30 11 31 12
REMARK SMILES IDX 81 13 32 14 86 15 80 16 82 17 33 18 85 19 79 20 78 21 34 23
REMARK SMILES IDX 66 24 46 25 65 26 47 27 50 28 64 29 83 30 48 31 49 32 63 34
REMARK SMILES IDX 84 35 51 36 35 37 36 38 44 39 37 40 38 41 42 42 45 43 39 44
REMARK SMILES IDX 40 45 43 46 41 47 67 48 68 49 76 50 69 51 70 52 74 53 77 54
REMARK SMILES IDX 71 55 72 56 75 57 73 58 52 59 53 60 61 61 54 62 55 63 59 64
REMARK SMILES IDX 62 65 56 66 57 67 60 68 58 69 5 70 6 71 7 72 8 73 9 74 10 75
REMARK SMILES IDX 14 76 11 77 13 78 12 79 15 80 16 81 17 82 18 84 19 85 24 86
REMARK SMILES IDX 20 87 23 88 25 89 21 90 22 91
REMARK H PARENT 82 22 50 33 17 83
REMARK Flexibility Score: inf
ROOT
ATOM      1  C   UNL A   1      31.132  30.817  25.794  1.00  0.00     0.275 C 
ENDROOT
BRANCH   1   2
ATOM      2  O   UNL A   1      31.297  32.360  26.729  1.00  0.00    -0.458 OA
BRANCH   2   3
ATOM      3  C   UNL A   1      32.678  33.313  27.677  1.00  0.00     0.338 C 
ATOM      4  O   UNL A   1      32.542  34.370  28.309  1.00  0.00    -0.246 OA
BRANCH   3   5
ATOM      5  C   UNL A   1      34.374  32.655  27.632  1.00  0.00     0.060 A 
ATOM      6  C   UNL A   1      34.755  30.813  27.913  1.00  0.00     0.016 A 
ATOM      7  C   UNL A   1      35.655  33.781  28.127  1.00  0.00     0.016 A 
ATOM      8  C   UNL A   1      36.321  30.264  28.602  1.00  0.00     0.010 A 
ATOM      9  C   UNL A   1      37.237  33.152  28.656  1.00  0.00     0.010 A 
ATOM     10  C   UNL A   1      37.565  31.432  28.953  1.00  0.00    -0.014 A 
BRANCH  10  11
ATOM     11  C   UNL A   1      38.739  30.887  29.728  1.00  0.00     0.031 A 
ATOM     12  C   UNL A   1      38.911  31.189  31.201  1.00  0.00     0.074 A 
ATOM     13  C   UNL A   1      39.513  29.926  29.168  1.00  0.00     0.049 A 
ATOM     14  N   UNL A   1      39.698  30.611  32.082  1.00  0.00    -0.248 NA
ATOM     15  C   UNL A   1      38.079  32.245  31.783  1.00  0.00     0.031 C 
ATOM     16  C   UNL A   1      39.427  29.478  27.777  1.00  0.00     0.029 A 
ATOM     17  N   UNL A   1      40.487  29.105  29.697  1.00  0.00    -0.354 N 
ATOM     18  C   UNL A   1      39.417  31.219  33.304  1.00  0.00     0.074 A 
ATOM     19  C   UNL A   1      38.388  32.195  33.064  1.00  0.00     0.031 C 
ATOM     20  C   UNL A   1      40.209  28.404  27.594  1.00  0.00     0.029 A 
ATOM     21  C   UNL A   1      40.963  28.155  28.815  1.00  0.00     0.049 A 
ATOM     22  H   UNL A   1      40.814  29.189  30.622  1.00  0.00     0.167 HD
ATOM     23  C   UNL A   1      39.989  31.033  34.517  1.00  0.00     0.037 A 
ATOM     24  C   UNL A   1      41.923  27.216  28.952  1.00  0.00     0.037 A 
ATOM     25  C   UNL A   1      41.109  30.168  34.745  1.00  0.00     0.049 A 
ATOM     26  C   UNL A   1      42.656  27.143  30.265  1.00  0.00     0.074 A 
ATOM     27  C   UNL A   1      41.878  30.027  35.884  1.00  0.00     0.029 A 
ATOM     28  N   UNL A   1      41.648  29.326  33.782  1.00  0.00    -0.354 N 
ATOM     29  N   UNL A   1      42.407  27.774  31.387  1.00  0.00    -0.248 NA
ATOM     30  C   UNL A   1      43.827  26.256  30.325  1.00  0.00     0.031 C 
ATOM     31  C   UNL A   1      42.936  29.162  35.583  1.00  0.00     0.029 A 
ATOM     32  C   UNL A   1      42.768  28.693  34.289  1.00  0.00     0.049 A 
ATOM     33  H   UNL A   1      41.288  29.199  32.875  1.00  0.00     0.167 HD
ATOM     34  C   UNL A   1      43.375  27.352  32.288  1.00  0.00     0.074 A 
ATOM     35  C   UNL A   1      44.203  26.392  31.588  1.00  0.00     0.031 C 
ATOM     36  C   UNL A   1      43.566  27.730  33.575  1.00  0.00     0.037 A 
BRANCH  23  37
ATOM     37  C   UNL A   1      39.501  31.923  35.627  1.00  0.00     0.064 A 
ATOM     38  C   UNL A   1      40.080  33.176  35.891  1.00  0.00     0.173 A 
ATOM     39  C   UNL A   1      38.513  31.459  36.508  1.00  0.00     0.173 A 
ATOM     40  F   UNL A   1      41.055  33.651  35.103  1.00  0.00    -0.203 F 
ATOM     41  C   UNL A   1      39.718  33.905  37.024  1.00  0.00     0.198 A 
ATOM     42  C   UNL A   1      38.135  32.203  37.621  1.00  0.00     0.198 A 
ATOM     43  F   UNL A   1      37.939  30.263  36.309  1.00  0.00    -0.203 F 
ATOM     44  F   UNL A   1      40.341  35.057  37.306  1.00  0.00    -0.200 F 
ATOM     45  C   UNL A   1      38.748  33.417  37.889  1.00  0.00     0.200 A 
ATOM     46  F   UNL A   1      37.199  31.728  38.455  1.00  0.00    -0.200 F 
ATOM     47  F   UNL A   1      38.423  34.104  38.991  1.00  0.00    -0.200 F 
ENDBRANCH  23  37
BRANCH  24  48
ATOM     48  C   UNL A   1      42.307  26.322  27.813  1.00  0.00     0.064 A 
ATOM     49  C   UNL A   1      41.710  25.065  27.628  1.00  0.00     0.173 A 
ATOM     50  C   UNL A   1      43.320  26.686  26.909  1.00  0.00     0.173 A 
ATOM     51  F   UNL A   1      40.765  24.641  28.478  1.00  0.00    -0.203 F 
ATOM     52  C   UNL A   1      42.117  24.211  26.600  1.00  0.00     0.198 A 
ATOM     53  C   UNL A   1      43.697  25.851  25.858  1.00  0.00     0.198 A 
ATOM     54  F   UNL A   1      43.948  27.864  27.041  1.00  0.00    -0.203 F 
ATOM     55  F   UNL A   1      41.569  22.993  26.486  1.00  0.00    -0.200 F 
ATOM     56  C   UNL A   1      43.102  24.608  25.710  1.00  0.00     0.200 A 
ATOM     57  F   UNL A   1      44.641  26.249  24.994  1.00  0.00    -0.200 F 
ATOM     58  F   UNL A   1      43.489  23.792  24.720  1.00  0.00    -0.200 F 
ENDBRANCH  24  48
BRANCH  36  59
ATOM     59  C   UNL A   1      44.675  27.064  34.332  1.00  0.00     0.064 A 
ATOM     60  C   UNL A   1      44.488  25.857  35.021  1.00  0.00     0.173 A 
ATOM     61  C   UNL A   1      45.961  27.625  34.318  1.00  0.00     0.173 A 
ATOM     62  F   UNL A   1      43.274  25.288  35.070  1.00  0.00    -0.203 F 
ATOM     63  C   UNL A   1      45.544  25.252  35.694  1.00  0.00     0.198 A 
ATOM     64  C   UNL A   1      47.021  26.998  34.962  1.00  0.00     0.198 A 
ATOM     65  F   UNL A   1      46.192  28.774  33.665  1.00  0.00    -0.203 F 
ATOM     66  F   UNL A   1      45.334  24.127  36.391  1.00  0.00    -0.200 F 
ATOM     67  C   UNL A   1      46.811  25.817  35.657  1.00  0.00     0.200 A 
ATOM     68  F   UNL A   1      48.248  27.536  34.908  1.00  0.00    -0.200 F 
ATOM     69  F   UNL A   1      47.828  25.226  36.298  1.00  0.00    -0.200 F 
ENDBRANCH  36  59
ENDBRANCH  10  11
ENDBRANCH   3   5
ENDBRANCH   2   3
ENDBRANCH   1   2
BRANCH   1  70
ATOM     70  C   UNL A   1      32.275  29.429  25.621  1.00  0.00     0.274 C 
BRANCH  70  71
ATOM     71  O   UNL A   1      32.317  27.926  26.231  1.00  0.00    -0.462 OA
BRANCH  71  72
ATOM     72  C   UNL A   1      32.307  26.629  25.701  1.00  0.00     0.309 C 
ATOM     73  O   UNL A   1      31.298  25.932  25.823  1.00  0.00    -0.252 OA
BRANCH  72  74
ATOM     74  C   UNL A   1      33.737  26.022  24.869  1.00  0.00     0.111 C 
ATOM     75  C   UNL A   1      34.565  25.305  25.962  1.00  0.00     0.016 C 
ATOM     76  C   UNL A   1      34.019  25.221  23.123  1.00  0.00     0.093 C 
ATOM     77  C   UNL A   1      34.316  23.819  26.009  1.00  0.00     0.001 C 
ATOM     78  C   UNL A   1      34.595  23.578  23.567  1.00  0.00     0.014 C 
ATOM     79  C   UNL A   1      35.155  23.221  24.923  1.00  0.00     0.001 C 
BRANCH  76  80
ATOM     80  C   UNL A   1      32.834  25.740  21.337  1.00  0.00     0.228 C 
ATOM     81  O   UNL A   1      32.803  25.397  20.129  1.00  0.00    -0.274 OA
ATOM     82  N   UNL A   1      31.626  26.809  21.332  1.00  0.00    -0.323 N 
ATOM     83  H   UNL A   1      31.298  27.072  20.442  1.00  0.00     0.170 HD
BRANCH  82  84
ATOM     84  C   UNL A   1      30.910  27.481  22.534  1.00  0.00     0.077 A 
ATOM     85  C   UNL A   1      31.231  29.215  22.184  1.00  0.00     0.031 A 
ATOM     86  C   UNL A   1      29.137  27.045  23.209  1.00  0.00     0.148 A 
ATOM     87  C   UNL A   1      29.966  30.407  22.462  1.00  0.00     0.023 A 
ATOM     88  C   UNL A   1      27.919  28.338  23.416  1.00  0.00     0.062 A 
ATOM     89  F   UNL A   1      28.782  26.202  24.153  1.00  0.00    -0.205 F 
ATOM     90  C   UNL A   1      28.374  29.972  23.062  1.00  0.00     0.044 A 
ATOM     91  Cl  UNL A   1      27.231  31.215  23.397  1.00  0.00    -0.084 Cl
ENDBRANCH  82  84
ENDBRANCH  76  80
ENDBRANCH  72  74
ENDBRANCH  71  72
ENDBRANCH  70  71
ENDBRANCH   1  70
TORSDOF 13
ENDMDL
MODEL 3
REMARK VINA RESULT:     -16.5      1.143      2.081
REMARK SMILES O=C(OCCOC(=O)[C@H]1CCCC[C@H]1C(=O)Nc1ccc(Cl)cc1F)c1ccc(-c2c3nc(c(-c4c(F)c(F)c(F)c(F)c4F)c4ccc([nH]4)c(-c4c(F)c(F)c(F)c(F)c4F)c4nc(c(-c5c(F)c(F)c(F)c(F)c5F)c5ccc2[nH]5)C=C4)C=C3)cc1
REMARK SMILES IDX 4 1 3 2 2 3 1 4 26 5 27 6 88 7 28 8 87 9 29 10 30 11 31 12
REMARK SMILES IDX 81 13 32 14 86 15 80 16 82 17 33 18 85 19 79 20 78 21 34 23
REMARK SMILES IDX 66 24 46 25 65 26 47 27 50 28 64 29 83 30 48 31 49 32 63 34
REMARK SMILES IDX 84 35 51 36 35 37 36 38 44 39 37 40 38 41 42 42 45 43 39 44
REMARK SMILES IDX 40 45 43 46 41 47 67 48 68 49 76 50 69 51 70 52 74 53 77 54
REMARK SMILES IDX 71 55 72 56 75 57 73 58 52 59 53 60 61 61 54 62 55 63 59 64
REMARK SMILES IDX 62 65 56 66 57 67 60 68 58 69 5 70 6 71 7 72 8 73 9 74 10 75
REMARK SMILES IDX 14 76 11 77 13 78 12 79 15 80 16 81 17 82 18 84 19 85 24 86
REMARK SMILES IDX 20 87 23 88 25 89 21 90 22 91
REMARK H PARENT 82 22 50 33 17 83
REMARK Flexibility Score: inf
ROOT
ATOM      1  C   UNL A   1      36.376  18.369  25.001  1.00  0.00     0.275 C 
ENDROOT
BRANCH   1   2
ATOM      2  O   UNL A   1      37.750  19.537  24.830  1.00  0.00    -0.458 OA
BRANCH   2   3
ATOM      3  C   UNL A   1      39.416  19.921  25.719  1.00  0.00     0.338 C 
ATOM      4  O   UNL A   1      40.418  19.194  25.751  1.00  0.00    -0.246 OA
BRANCH   3   5
ATOM      5  C   UNL A   1      39.563  21.476  26.653  1.00  0.00     0.060 A 
ATOM      6  C   UNL A   1      38.678  23.070  26.115  1.00  0.00     0.016 A 
ATOM      7  C   UNL A   1      41.091  21.712  27.528  1.00  0.00     0.016 A 
ATOM      8  C   UNL A   1      39.337  24.697  26.501  1.00  0.00     0.010 A 
ATOM      9  C   UNL A   1      41.597  23.353  28.007  1.00  0.00     0.010 A 
ATOM     10  C   UNL A   1      40.783  24.834  27.462  1.00  0.00    -0.014 A 
BRANCH  10  11
ATOM     11  C   UNL A   1      41.361  26.226  27.533  1.00  0.00     0.031 A 
ATOM     12  C   UNL A   1      40.709  27.302  28.372  1.00  0.00     0.074 A 
ATOM     13  C   UNL A   1      42.603  26.452  27.040  1.00  0.00     0.049 A 
ATOM     14  N   UNL A   1      41.190  28.463  28.759  1.00  0.00    -0.248 NA
ATOM     15  C   UNL A   1      39.358  27.047  28.879  1.00  0.00     0.031 C 
ATOM     16  C   UNL A   1      43.391  25.492  26.264  1.00  0.00     0.029 A 
ATOM     17  N   UNL A   1      43.458  27.529  27.157  1.00  0.00    -0.354 N 
ATOM     18  C   UNL A   1      40.212  29.035  29.569  1.00  0.00     0.074 A 
ATOM     19  C   UNL A   1      39.119  28.102  29.634  1.00  0.00     0.031 C 
ATOM     20  C   UNL A   1      44.632  25.964  26.080  1.00  0.00     0.029 A 
ATOM     21  C   UNL A   1      44.706  27.319  26.605  1.00  0.00     0.049 A 
ATOM     22  H   UNL A   1      43.199  28.372  27.596  1.00  0.00     0.167 HD
ATOM     23  C   UNL A   1      40.184  30.246  30.172  1.00  0.00     0.037 A 
ATOM     24  C   UNL A   1      45.776  28.134  26.493  1.00  0.00     0.037 A 
ATOM     25  C   UNL A   1      41.200  31.243  30.004  1.00  0.00     0.049 A 
ATOM     26  C   UNL A   1      45.656  29.536  27.030  1.00  0.00     0.074 A 
ATOM     27  C   UNL A   1      41.200  32.560  30.421  1.00  0.00     0.029 A 
ATOM     28  N   UNL A   1      42.386  31.033  29.316  1.00  0.00    -0.354 N 
ATOM     29  N   UNL A   1      44.691  30.068  27.742  1.00  0.00    -0.248 NA
ATOM     30  C   UNL A   1      46.753  30.464  26.720  1.00  0.00     0.031 C 
ATOM     31  C   UNL A   1      42.351  33.171  29.911  1.00  0.00     0.029 A 
ATOM     32  C   UNL A   1      43.109  32.210  29.260  1.00  0.00     0.049 A 
ATOM     33  H   UNL A   1      42.671  30.174  28.926  1.00  0.00     0.167 HD
ATOM     34  C   UNL A   1      45.069  31.383  27.977  1.00  0.00     0.074 A 
ATOM     35  C   UNL A   1      46.364  31.561  27.353  1.00  0.00     0.031 C 
ATOM     36  C   UNL A   1      44.403  32.356  28.643  1.00  0.00     0.037 A 
BRANCH  23  37
ATOM     37  C   UNL A   1      38.923  30.591  30.917  1.00  0.00     0.064 A 
ATOM     38  C   UNL A   1      37.806  31.156  30.278  1.00  0.00     0.173 A 
ATOM     39  C   UNL A   1      38.881  30.456  32.312  1.00  0.00     0.173 A 
ATOM     40  F   UNL A   1      37.809  31.343  28.951  1.00  0.00    -0.203 F 
ATOM     41  C   UNL A   1      36.717  31.615  31.018  1.00  0.00     0.198 A 
ATOM     42  C   UNL A   1      37.779  30.889  33.044  1.00  0.00     0.198 A 
ATOM     43  F   UNL A   1      39.926  29.935  32.973  1.00  0.00    -0.203 F 
ATOM     44  F   UNL A   1      35.698  32.229  30.400  1.00  0.00    -0.200 F 
ATOM     45  C   UNL A   1      36.705  31.483  32.400  1.00  0.00     0.200 A 
ATOM     46  F   UNL A   1      37.772  30.762  34.378  1.00  0.00    -0.200 F 
ATOM     47  F   UNL A   1      35.671  31.951  33.112  1.00  0.00    -0.200 F 
ENDBRANCH  23  37
BRANCH  24  48
ATOM     48  C   UNL A   1      47.022  27.692  25.790  1.00  0.00     0.064 A 
ATOM     49  C   UNL A   1      47.138  27.742  24.391  1.00  0.00     0.173 A 
ATOM     50  C   UNL A   1      48.113  27.161  26.500  1.00  0.00     0.173 A 
ATOM     51  F   UNL A   1      46.120  28.202  23.651  1.00  0.00    -0.203 F 
ATOM     52  C   UNL A   1      48.280  27.271  23.738  1.00  0.00     0.198 A 
ATOM     53  C   UNL A   1      49.269  26.729  25.851  1.00  0.00     0.198 A 
ATOM     54  F   UNL A   1      48.061  27.064  27.837  1.00  0.00    -0.203 F 
ATOM     55  F   UNL A   1      48.335  27.278  22.399  1.00  0.00    -0.200 F 
ATOM     56  C   UNL A   1      49.348  26.774  24.469  1.00  0.00     0.200 A 
ATOM     57  F   UNL A   1      50.302  26.263  26.566  1.00  0.00    -0.200 F 
ATOM     58  F   UNL A   1      50.446  26.328  23.843  1.00  0.00    -0.200 F 
ENDBRANCH  24  48
BRANCH  36  59
ATOM     59  C   UNL A   1      45.083  33.684  28.785  1.00  0.00     0.064 A 
ATOM     60  C   UNL A   1      45.962  33.963  29.841  1.00  0.00     0.173 A 
ATOM     61  C   UNL A   1      44.884  34.675  27.811  1.00  0.00     0.173 A 
ATOM     62  F   UNL A   1      46.176  33.051  30.801  1.00  0.00    -0.203 F 
ATOM     63  C   UNL A   1      46.596  35.198  29.931  1.00  0.00     0.198 A 
ATOM     64  C   UNL A   1      45.548  35.894  27.886  1.00  0.00     0.198 A 
ATOM     65  F   UNL A   1      44.059  34.452  26.777  1.00  0.00    -0.203 F 
ATOM     66  F   UNL A   1      47.393  35.465  30.975  1.00  0.00    -0.200 F 
ATOM     67  C   UNL A   1      46.396  36.159  28.950  1.00  0.00     0.200 A 
ATOM     68  F   UNL A   1      45.367  36.812  26.926  1.00  0.00    -0.200 F 
ATOM     69  F   UNL A   1      47.016  37.343  29.034  1.00  0.00    -0.200 F 
ENDBRANCH  36  59
ENDBRANCH  10  11
ENDBRANCH   3   5
ENDBRANCH   2   3
ENDBRANCH   1   2
BRANCH   1  70
ATOM     70  C   UNL A   1      34.680  18.464  24.388  1.00  0.00     0.274 C 
BRANCH  70  71
ATOM     71  O   UNL A   1      33.387  19.356  24.794  1.00  0.00    -0.462 OA
BRANCH  71  72
ATOM     72  C   UNL A   1      32.975  20.678  24.580  1.00  0.00     0.309 C 
ATOM     73  O   UNL A   1      32.179  20.926  23.673  1.00  0.00    -0.252 OA
BRANCH  72  74
ATOM     74  C   UNL A   1      33.604  21.961  25.614  1.00  0.00     0.111 C 
ATOM     75  C   UNL A   1      35.113  22.041  25.282  1.00  0.00     0.016 C 
ATOM     76  C   UNL A   1      32.904  23.683  26.169  1.00  0.00     0.093 C 
ATOM     77  C   UNL A   1      35.434  23.103  24.260  1.00  0.00     0.001 C 
ATOM     78  C   UNL A   1      34.102  24.811  25.446  1.00  0.00     0.014 C 
ATOM     79  C   UNL A   1      35.487  24.399  25.008  1.00  0.00     0.001 C 
BRANCH  76  80
ATOM     80  C   UNL A   1      30.757  24.090  26.465  1.00  0.00     0.228 C 
ATOM     81  O   UNL A   1      29.854  23.710  27.251  1.00  0.00    -0.274 OA
ATOM     82  N   UNL A   1      29.899  25.118  25.564  1.00  0.00    -0.323 N 
ATOM     83  H   UNL A   1      28.923  25.077  25.690  1.00  0.00     0.170 HD
BRANCH  82  84
ATOM     84  C   UNL A   1      30.396  26.162  24.529  1.00  0.00     0.077 A 
ATOM     85  C   UNL A   1      28.872  26.493  23.635  1.00  0.00     0.031 A 
ATOM     86  C   UNL A   1      31.540  27.693  24.895  1.00  0.00     0.148 A 
ATOM     87  C   UNL A   1      28.494  28.140  23.142  1.00  0.00     0.023 A 
ATOM     88  C   UNL A   1      31.033  29.328  24.377  1.00  0.00     0.062 A 
ATOM     89  F   UNL A   1      32.849  27.797  24.834  1.00  0.00    -0.205 F 
ATOM     90  C   UNL A   1      29.548  29.499  23.502  1.00  0.00     0.044 A 
ATOM     91  Cl  UNL A   1      29.147  31.060  22.895  1.00  0.00    -0.084 Cl
ENDBRANCH  82  84
ENDBRANCH  76  80
ENDBRANCH  72  74
ENDBRANCH  71  72
ENDBRANCH  70  71
ENDBRANCH   1  70
TORSDOF 13
ENDMDL
