MODEL 1
REMARK VINA RESULT:     -11.7      0.000      0.000
REMARK SMILES CCc1cc(OC(F)(F)F)cc2c1O[C@@H](C(F)(F)F)C(C(=O)OCCOC(=O)c1ccc(-c3c4nc(c(-c5c(F)c(F)c(F)c(F)c5F)c5ccc([nH]5)c(-c5c(F)c(F)c(F)c(F)c5F)c5nc(c(-c6c(F)c(F)c(F)c(F)c6F)c6ccc3[nH]6)C=C5)C=C4)cc1)=C2
REMARK SMILES IDX 24 1 23 2 21 3 22 4 20 5 3 6 4 7 13 8 5 9 12 10 14 11 11 12
REMARK SMILES IDX 92 13 15 14 2 15 1 16 6 17 7 18 8 19 9 20 10 21 16 22 17 23
REMARK SMILES IDX 18 24 19 25 25 26 26 27 27 28 28 29 29 30 30 31 91 32 31 33
REMARK SMILES IDX 90 34 32 35 33 36 34 37 84 38 35 39 89 40 83 41 85 42 36 43
REMARK SMILES IDX 88 44 82 45 81 46 37 48 69 49 49 50 68 51 50 52 53 53 67 54
REMARK SMILES IDX 86 55 51 56 52 57 66 59 87 60 54 61 38 62 39 63 47 64 40 65
REMARK SMILES IDX 41 66 45 67 48 68 42 69 43 70 46 71 44 72 70 73 71 74 79 75
REMARK SMILES IDX 72 76 73 77 77 78 80 79 74 80 75 81 78 82 76 83 55 84 56 85
REMARK SMILES IDX 64 86 57 87 58 88 62 89 65 90 59 91 60 92 63 93 61 94
REMARK H PARENT 85 47 53 58
REMARK Flexibility Score: inf
ROOT
ATOM      1  C   UNL A   1      42.751  21.441  25.738  1.00  0.00     0.275 C 
ENDROOT
BRANCH   1   2
ATOM      2  O   UNL A   1      41.468  22.082  25.578  1.00  0.00    -0.459 OA
BRANCH   2   3
ATOM      3  C   UNL A   1      40.586  21.900  26.596  1.00  0.00     0.338 C 
ATOM      4  O   UNL A   1      40.877  21.557  27.725  1.00  0.00    -0.246 OA
BRANCH   3   5
ATOM      5  C   UNL A   1      39.198  22.227  26.189  1.00  0.00     0.087 C 
ATOM      6  C   UNL A   1      35.314  23.379  25.124  1.00  0.00    -0.002 A 
ATOM      7  C   UNL A   1      34.392  22.404  24.711  1.00  0.00     0.054 A 
ATOM      8  C   UNL A   1      36.581  22.969  25.561  1.00  0.00     0.131 A 
ATOM      9  C   UNL A   1      34.733  21.049  24.729  1.00  0.00     0.130 A 
ATOM     10  C   UNL A   1      36.959  21.624  25.535  1.00  0.00     0.021 A 
ATOM     11  O   UNL A   1      37.400  23.931  26.080  1.00  0.00    -0.475 OA
ATOM     12  C   UNL A   1      36.026  20.668  25.116  1.00  0.00     0.058 A 
ATOM     13  C   UNL A   1      38.304  21.247  25.968  1.00  0.00     0.027 C 
ATOM     14  C   UNL A   1      38.827  23.687  26.008  1.00  0.00     0.316 C 
BRANCH   6  15
ATOM     15  C   UNL A   1      34.940  24.843  25.062  1.00  0.00     0.036 C 
ATOM     16  C   UNL A   1      33.595  25.147  25.703  1.00  0.00     0.009 C 
ENDBRANCH   6  15
BRANCH   9  17
ATOM     17  O   UNL A   1      33.910  20.013  24.384  1.00  0.00    -0.406 OA
BRANCH  17  18
ATOM     18  C   UNL A   1      32.844  19.703  25.270  1.00  0.00     0.573 C 
ATOM     19  F   UNL A   1      33.183  19.943  26.555  1.00  0.00    -0.132 F 
ATOM     20  F   UNL A   1      31.737  20.411  24.958  1.00  0.00    -0.132 F 
ATOM     21  F   UNL A   1      32.550  18.389  25.153  1.00  0.00    -0.132 F 
ENDBRANCH  17  18
ENDBRANCH   9  17
BRANCH  14  22
ATOM     22  C   UNL A   1      39.501  24.742  26.908  1.00  0.00     0.430 C 
ATOM     23  F   UNL A   1      40.551  25.336  26.297  1.00  0.00    -0.167 F 
ATOM     24  F   UNL A   1      38.631  25.753  27.183  1.00  0.00    -0.167 F 
ATOM     25  F   UNL A   1      39.905  24.242  28.095  1.00  0.00    -0.167 F 
ENDBRANCH  14  22
ENDBRANCH   3   5
ENDBRANCH   2   3
ENDBRANCH   1   2
BRANCH   1  26
ATOM     26  C   UNL A   1      43.835  22.112  24.891  1.00  0.00     0.275 C 
BRANCH  26  27
ATOM     27  O   UNL A   1      43.540  23.503  24.666  1.00  0.00    -0.458 OA
BRANCH  27  28
ATOM     28  C   UNL A   1      44.454  24.368  25.165  1.00  0.00     0.338 C 
ATOM     29  O   UNL A   1      45.547  24.635  24.690  1.00  0.00    -0.246 OA
BRANCH  28  30
ATOM     30  C   UNL A   1      43.876  25.121  26.296  1.00  0.00     0.060 A 
ATOM     31  C   UNL A   1      43.839  26.512  26.174  1.00  0.00     0.016 A 
ATOM     32  C   UNL A   1      43.383  24.505  27.450  1.00  0.00     0.016 A 
ATOM     33  C   UNL A   1      43.243  27.293  27.162  1.00  0.00     0.010 A 
ATOM     34  C   UNL A   1      42.835  25.294  28.471  1.00  0.00     0.010 A 
ATOM     35  C   UNL A   1      42.750  26.690  28.325  1.00  0.00    -0.014 A 
BRANCH  35  36
ATOM     36  C   UNL A   1      42.234  27.544  29.419  1.00  0.00     0.031 A 
ATOM     37  C   UNL A   1      42.945  27.557  30.739  1.00  0.00     0.074 A 
ATOM     38  C   UNL A   1      41.164  28.336  29.221  1.00  0.00     0.049 A 
ATOM     39  N   UNL A   1      42.665  28.228  31.827  1.00  0.00    -0.248 NA
ATOM     40  C   UNL A   1      44.143  26.710  30.843  1.00  0.00     0.031 C 
ATOM     41  C   UNL A   1      40.433  28.470  27.964  1.00  0.00     0.029 A 
ATOM     42  N   UNL A   1      40.511  29.180  30.085  1.00  0.00    -0.354 N 
ATOM     43  C   UNL A   1      43.659  27.898  32.738  1.00  0.00     0.074 A 
ATOM     44  C   UNL A   1      44.539  26.953  32.084  1.00  0.00     0.031 C 
ATOM     45  C   UNL A   1      39.412  29.327  28.143  1.00  0.00     0.029 A 
ATOM     46  C   UNL A   1      39.405  29.781  29.534  1.00  0.00     0.049 A 
ATOM     47  H   UNL A   1      40.805  29.339  31.011  1.00  0.00     0.167 HD
ATOM     48  C   UNL A   1      43.822  28.344  34.006  1.00  0.00     0.037 A 
ATOM     49  C   UNL A   1      38.482  30.585  30.099  1.00  0.00     0.037 A 
ATOM     50  C   UNL A   1      42.927  29.253  34.672  1.00  0.00     0.049 A 
ATOM     51  C   UNL A   1      38.621  30.967  31.552  1.00  0.00     0.074 A 
ATOM     52  C   UNL A   1      43.000  29.745  35.963  1.00  0.00     0.029 A 
ATOM     53  N   UNL A   1      41.783  29.792  34.102  1.00  0.00    -0.354 N 
ATOM     54  N   UNL A   1      39.573  30.669  32.401  1.00  0.00    -0.248 NA
ATOM     55  C   UNL A   1      37.551  31.800  32.123  1.00  0.00     0.031 C 
ATOM     56  C   UNL A   1      41.872  30.540  36.194  1.00  0.00     0.029 A 
ATOM     57  C   UNL A   1      41.125  30.587  35.028  1.00  0.00     0.049 A 
ATOM     58  H   UNL A   1      41.483  29.634  33.179  1.00  0.00     0.167 HD
ATOM     59  C   UNL A   1      39.237  31.302  33.592  1.00  0.00     0.074 A 
ATOM     60  C   UNL A   1      37.996  32.008  33.355  1.00  0.00     0.031 C 
ATOM     61  C   UNL A   1      39.898  31.297  34.775  1.00  0.00     0.037 A 
BRANCH  48  62
ATOM     62  C   UNL A   1      44.996  27.817  34.773  1.00  0.00     0.064 A 
ATOM     63  C   UNL A   1      44.915  26.630  35.516  1.00  0.00     0.173 A 
ATOM     64  C   UNL A   1      46.225  28.493  34.741  1.00  0.00     0.173 A 
ATOM     65  F   UNL A   1      43.756  25.958  35.590  1.00  0.00    -0.203 F 
ATOM     66  C   UNL A   1      46.018  26.148  36.215  1.00  0.00     0.198 A 
ATOM     67  C   UNL A   1      47.333  27.994  35.421  1.00  0.00     0.198 A 
ATOM     68  F   UNL A   1      46.352  29.631  34.044  1.00  0.00    -0.203 F 
ATOM     69  F   UNL A   1      45.909  25.033  36.950  1.00  0.00    -0.200 F 
ATOM     70  C   UNL A   1      47.227  26.826  36.160  1.00  0.00     0.200 A 
ATOM     71  F   UNL A   1      48.502  28.646  35.361  1.00  0.00    -0.200 F 
ATOM     72  F   UNL A   1      48.290  26.358  36.830  1.00  0.00    -0.200 F 
ENDBRANCH  48  62
BRANCH  49  73
ATOM     73  C   UNL A   1      37.318  31.060  29.304  1.00  0.00     0.064 A 
ATOM     74  C   UNL A   1      37.225  32.393  28.881  1.00  0.00     0.173 A 
ATOM     75  C   UNL A   1      36.251  30.202  29.001  1.00  0.00     0.173 A 
ATOM     76  F   UNL A   1      38.204  33.261  29.176  1.00  0.00    -0.203 F 
ATOM     77  C   UNL A   1      36.097  32.854  28.203  1.00  0.00     0.198 A 
ATOM     78  C   UNL A   1      35.138  30.658  28.299  1.00  0.00     0.198 A 
ATOM     79  F   UNL A   1      36.285  28.921  29.395  1.00  0.00    -0.203 F 
ATOM     80  F   UNL A   1      36.006  34.147  27.862  1.00  0.00    -0.200 F 
ATOM     81  C   UNL A   1      35.056  31.986  27.909  1.00  0.00     0.200 A 
ATOM     82  F   UNL A   1      34.135  29.814  28.015  1.00  0.00    -0.200 F 
ATOM     83  F   UNL A   1      33.969  32.433  27.267  1.00  0.00    -0.200 F 
ENDBRANCH  49  73
BRANCH  61  84
ATOM     84  C   UNL A   1      39.322  32.115  35.896  1.00  0.00     0.064 A 
ATOM     85  C   UNL A   1      38.376  31.584  36.786  1.00  0.00     0.173 A 
ATOM     86  C   UNL A   1      39.762  33.430  36.113  1.00  0.00     0.173 A 
ATOM     87  F   UNL A   1      37.911  30.338  36.613  1.00  0.00    -0.203 F 
ATOM     88  C   UNL A   1      37.876  32.348  37.838  1.00  0.00     0.198 A 
ATOM     89  C   UNL A   1      39.283  34.180  37.184  1.00  0.00     0.198 A 
ATOM     90  F   UNL A   1      40.671  33.981  35.296  1.00  0.00    -0.203 F 
ATOM     91  F   UNL A   1      36.942  31.835  38.651  1.00  0.00    -0.200 F 
ATOM     92  C   UNL A   1      38.336  33.641  38.041  1.00  0.00     0.200 A 
ATOM     93  F   UNL A   1      39.739  35.423  37.387  1.00  0.00    -0.200 F 
ATOM     94  F   UNL A   1      37.863  34.370  39.062  1.00  0.00    -0.200 F 
ENDBRANCH  61  84
ENDBRANCH  35  36
ENDBRANCH  28  30
ENDBRANCH  27  28
ENDBRANCH  26  27
ENDBRANCH   1  26
TORSDOF 15
ENDMDL
MODEL 2
REMARK VINA RESULT:     -11.6      5.171     10.662
REMARK SMILES CCc1cc(OC(F)(F)F)cc2c1O[C@@H](C(F)(F)F)C(C(=O)OCCOC(=O)c1ccc(-c3c4nc(c(-c5c(F)c(F)c(F)c(F)c5F)c5ccc([nH]5)c(-c5c(F)c(F)c(F)c(F)c5F)c5nc(c(-c6c(F)c(F)c(F)c(F)c6F)c6ccc3[nH]6)C=C5)C=C4)cc1)=C2
REMARK SMILES IDX 24 1 23 2 21 3 22 4 20 5 3 6 4 7 13 8 5 9 12 10 14 11 11 12
REMARK SMILES IDX 92 13 15 14 2 15 1 16 6 17 7 18 8 19 9 20 10 21 16 22 17 23
REMARK SMILES IDX 18 24 19 25 25 26 26 27 27 28 28 29 29 30 30 31 91 32 31 33
REMARK SMILES IDX 90 34 32 35 33 36 34 37 84 38 35 39 89 40 83 41 85 42 36 43
REMARK SMILES IDX 88 44 82 45 81 46 37 48 69 49 49 50 68 51 50 52 53 53 67 54
REMARK SMILES IDX 86 55 51 56 52 57 66 59 87 60 54 61 38 62 39 63 47 64 40 65
REMARK SMILES IDX 41 66 45 67 48 68 42 69 43 70 46 71 44 72 70 73 71 74 79 75
REMARK SMILES IDX 72 76 73 77 77 78 80 79 74 80 75 81 78 82 76 83 55 84 56 85
REMARK SMILES IDX 64 86 57 87 58 88 62 89 65 90 59 91 60 92 63 93 61 94
REMARK H PARENT 85 47 53 58
REMARK Flexibility Score: inf
ROOT
ATOM      1  C   UNL A   1      34.421  33.583  30.395  1.00  0.00     0.275 C 
ENDROOT
BRANCH   1   2
ATOM      2  O   UNL A   1      34.364  32.306  29.724  1.00  0.00    -0.459 OA
BRANCH   2   3
ATOM      3  C   UNL A   1      34.781  32.299  28.431  1.00  0.00     0.338 C 
ATOM      4  O   UNL A   1      35.514  33.126  27.925  1.00  0.00    -0.246 OA
BRANCH   3   5
ATOM      5  C   UNL A   1      34.282  31.112  27.696  1.00  0.00     0.087 C 
ATOM      6  C   UNL A   1      33.080  27.643  25.678  1.00  0.00    -0.002 A 
ATOM      7  C   UNL A   1      31.935  27.677  24.867  1.00  0.00     0.054 A 
ATOM      8  C   UNL A   1      33.520  28.833  26.276  1.00  0.00     0.131 A 
ATOM      9  C   UNL A   1      31.241  28.873  24.665  1.00  0.00     0.130 A 
ATOM     10  C   UNL A   1      32.808  30.026  26.129  1.00  0.00     0.021 A 
ATOM     11  O   UNL A   1      34.709  28.788  26.945  1.00  0.00    -0.475 OA
ATOM     12  C   UNL A   1      31.666  30.037  25.320  1.00  0.00     0.058 A 
ATOM     13  C   UNL A   1      33.287  31.234  26.801  1.00  0.00     0.027 C 
ATOM     14  C   UNL A   1      34.907  29.763  27.999  1.00  0.00     0.316 C 
BRANCH   6  15
ATOM     15  C   UNL A   1      33.796  26.333  25.916  1.00  0.00     0.036 C 
ATOM     16  C   UNL A   1      33.851  25.446  24.682  1.00  0.00     0.009 C 
ENDBRANCH   6  15
BRANCH   9  17
ATOM     17  O   UNL A   1      30.138  29.032  23.873  1.00  0.00    -0.406 OA
BRANCH  17  18
ATOM     18  C   UNL A   1      30.330  28.979  22.466  1.00  0.00     0.573 C 
ATOM     19  F   UNL A   1      29.368  29.661  21.810  1.00  0.00    -0.132 F 
ATOM     20  F   UNL A   1      31.541  29.470  22.127  1.00  0.00    -0.132 F 
ATOM     21  F   UNL A   1      30.274  27.688  22.069  1.00  0.00    -0.132 F 
ENDBRANCH  17  18
ENDBRANCH   9  17
BRANCH  14  22
ATOM     22  C   UNL A   1      36.399  29.704  28.382  1.00  0.00     0.430 C 
ATOM     23  F   UNL A   1      36.585  29.764  29.720  1.00  0.00    -0.167 F 
ATOM     24  F   UNL A   1      36.938  28.513  28.000  1.00  0.00    -0.167 F 
ATOM     25  F   UNL A   1      37.134  30.669  27.789  1.00  0.00    -0.167 F 
ENDBRANCH  14  22
ENDBRANCH   3   5
ENDBRANCH   2   3
ENDBRANCH   1   2
BRANCH   1  26
ATOM     26  C   UNL A   1      34.403  33.429  31.918  1.00  0.00     0.275 C 
BRANCH  26  27
ATOM     27  O   UNL A   1      35.147  32.272  32.339  1.00  0.00    -0.458 OA
BRANCH  27  28
ATOM     28  C   UNL A   1      36.329  32.541  32.943  1.00  0.00     0.338 C 
ATOM     29  O   UNL A   1      36.492  32.981  34.071  1.00  0.00    -0.246 OA
BRANCH  28  30
ATOM     30  C   UNL A   1      37.446  32.045  32.116  1.00  0.00     0.060 A 
ATOM     31  C   UNL A   1      38.228  31.023  32.661  1.00  0.00     0.016 A 
ATOM     32  C   UNL A   1      37.741  32.551  30.847  1.00  0.00     0.016 A 
ATOM     33  C   UNL A   1      39.256  30.447  31.918  1.00  0.00     0.010 A 
ATOM     34  C   UNL A   1      38.811  32.012  30.121  1.00  0.00     0.010 A 
ATOM     35  C   UNL A   1      39.565  30.948  30.648  1.00  0.00    -0.014 A 
BRANCH  35  36
ATOM     36  C   UNL A   1      40.738  30.409  29.924  1.00  0.00     0.031 A 
ATOM     37  C   UNL A   1      41.916  31.301  29.666  1.00  0.00     0.074 A 
ATOM     38  C   UNL A   1      40.772  29.120  29.539  1.00  0.00     0.049 A 
ATOM     39  N   UNL A   1      43.042  31.035  29.054  1.00  0.00    -0.248 NA
ATOM     40  C   UNL A   1      41.818  32.676  30.182  1.00  0.00     0.031 C 
ATOM     41  C   UNL A   1      39.725  28.134  29.795  1.00  0.00     0.029 A 
ATOM     42  N   UNL A   1      41.732  28.423  28.847  1.00  0.00    -0.354 N 
ATOM     43  C   UNL A   1      43.792  32.201  29.124  1.00  0.00     0.074 A 
ATOM     44  C   UNL A   1      42.989  33.183  29.821  1.00  0.00     0.031 C 
ATOM     45  C   UNL A   1      40.088  26.961  29.246  1.00  0.00     0.029 A 
ATOM     46  C   UNL A   1      41.378  27.123  28.577  1.00  0.00     0.049 A 
ATOM     47  H   UNL A   1      42.591  28.817  28.569  1.00  0.00     0.167 HD
ATOM     48  C   UNL A   1      45.038  32.431  28.649  1.00  0.00     0.037 A 
ATOM     49  C   UNL A   1      42.017  26.183  27.853  1.00  0.00     0.037 A 
ATOM     50  C   UNL A   1      45.824  31.469  27.921  1.00  0.00     0.049 A 
ATOM     51  C   UNL A   1      43.351  26.507  27.228  1.00  0.00     0.074 A 
ATOM     52  C   UNL A   1      47.090  31.620  27.383  1.00  0.00     0.029 A 
ATOM     53  N   UNL A   1      45.408  30.182  27.613  1.00  0.00    -0.354 N 
ATOM     54  N   UNL A   1      44.064  27.603  27.315  1.00  0.00    -0.248 NA
ATOM     55  C   UNL A   1      43.969  25.458  26.403  1.00  0.00     0.031 C 
ATOM     56  C   UNL A   1      47.419  30.442  26.703  1.00  0.00     0.029 A 
ATOM     57  C   UNL A   1      46.381  29.539  26.865  1.00  0.00     0.049 A 
ATOM     58  H   UNL A   1      44.549  29.786  27.885  1.00  0.00     0.167 HD
ATOM     59  C   UNL A   1      45.224  27.365  26.588  1.00  0.00     0.074 A 
ATOM     60  C   UNL A   1      45.125  26.017  26.071  1.00  0.00     0.031 C 
ATOM     61  C   UNL A   1      46.277  28.191  26.368  1.00  0.00     0.037 A 
BRANCH  48  62
ATOM     62  C   UNL A   1      45.615  33.796  28.867  1.00  0.00     0.064 A 
ATOM     63  C   UNL A   1      46.429  34.082  29.972  1.00  0.00     0.173 A 
ATOM     64  C   UNL A   1      45.373  34.824  27.943  1.00  0.00     0.173 A 
ATOM     65  F   UNL A   1      46.675  33.136  30.892  1.00  0.00    -0.203 F 
ATOM     66  C   UNL A   1      46.966  35.354  30.155  1.00  0.00     0.198 A 
ATOM     67  C   UNL A   1      45.931  36.087  28.116  1.00  0.00     0.198 A 
ATOM     68  F   UNL A   1      44.601  34.599  26.870  1.00  0.00    -0.203 F 
ATOM     69  F   UNL A   1      47.710  35.616  31.238  1.00  0.00    -0.200 F 
ATOM     70  C   UNL A   1      46.723  36.352  29.223  1.00  0.00     0.200 A 
ATOM     71  F   UNL A   1      45.702  37.048  27.211  1.00  0.00    -0.200 F 
ATOM     72  F   UNL A   1      47.244  37.574  29.398  1.00  0.00    -0.200 F 
ENDBRANCH  48  62
BRANCH  49  73
ATOM     73  C   UNL A   1      41.392  24.851  27.641  1.00  0.00     0.064 A 
ATOM     74  C   UNL A   1      41.922  23.698  28.236  1.00  0.00     0.173 A 
ATOM     75  C   UNL A   1      40.284  24.698  26.794  1.00  0.00     0.173 A 
ATOM     76  F   UNL A   1      43.001  23.787  29.027  1.00  0.00    -0.203 F 
ATOM     77  C   UNL A   1      41.380  22.439  27.974  1.00  0.00     0.198 A 
ATOM     78  C   UNL A   1      39.727  23.443  26.555  1.00  0.00     0.198 A 
ATOM     79  F   UNL A   1      39.748  25.767  26.189  1.00  0.00    -0.203 F 
ATOM     80  F   UNL A   1      41.942  21.347  28.508  1.00  0.00    -0.200 F 
ATOM     81  C   UNL A   1      40.282  22.313  27.137  1.00  0.00     0.200 A 
ATOM     82  F   UNL A   1      38.663  23.327  25.748  1.00  0.00    -0.200 F 
ATOM     83  F   UNL A   1      39.769  21.104  26.878  1.00  0.00    -0.200 F 
ENDBRANCH  49  73
BRANCH  61  84
ATOM     84  C   UNL A   1      47.430  27.649  25.572  1.00  0.00     0.064 A 
ATOM     85  C   UNL A   1      47.453  27.713  24.171  1.00  0.00     0.173 A 
ATOM     86  C   UNL A   1      48.549  27.109  26.224  1.00  0.00     0.173 A 
ATOM     87  F   UNL A   1      46.402  28.207  23.500  1.00  0.00    -0.203 F 
ATOM     88  C   UNL A   1      48.546  27.234  23.451  1.00  0.00     0.198 A 
ATOM     89  C   UNL A   1      49.652  26.659  25.502  1.00  0.00     0.198 A 
ATOM     90  F   UNL A   1      48.581  27.033  27.562  1.00  0.00    -0.203 F 
ATOM     91  F   UNL A   1      48.529  27.266  22.111  1.00  0.00    -0.200 F 
ATOM     92  C   UNL A   1      49.646  26.716  24.117  1.00  0.00     0.200 A 
ATOM     93  F   UNL A   1      50.721  26.172  26.148  1.00  0.00    -0.200 F 
ATOM     94  F   UNL A   1      50.701  26.267  23.423  1.00  0.00    -0.200 F 
ENDBRANCH  61  84
ENDBRANCH  35  36
ENDBRANCH  28  30
ENDBRANCH  27  28
ENDBRANCH  26  27
ENDBRANCH   1  26
TORSDOF 15
ENDMDL
MODEL 3
REMARK VINA RESULT:     -11.5      3.835      9.291
REMARK SMILES CCc1cc(OC(F)(F)F)cc2c1O[C@@H](C(F)(F)F)C(C(=O)OCCOC(=O)c1ccc(-c3c4nc(c(-c5c(F)c(F)c(F)c(F)c5F)c5ccc([nH]5)c(-c5c(F)c(F)c(F)c(F)c5F)c5nc(c(-c6c(F)c(F)c(F)c(F)c6F)c6ccc3[nH]6)C=C5)C=C4)cc1)=C2
REMARK SMILES IDX 24 1 23 2 21 3 22 4 20 5 3 6 4 7 13 8 5 9 12 10 14 11 11 12
REMARK SMILES IDX 92 13 15 14 2 15 1 16 6 17 7 18 8 19 9 20 10 21 16 22 17 23
REMARK SMILES IDX 18 24 19 25 25 26 26 27 27 28 28 29 29 30 30 31 91 32 31 33
REMARK SMILES IDX 90 34 32 35 33 36 34 37 84 38 35 39 89 40 83 41 85 42 36 43
REMARK SMILES IDX 88 44 82 45 81 46 37 48 69 49 49 50 68 51 50 52 53 53 67 54
REMARK SMILES IDX 86 55 51 56 52 57 66 59 87 60 54 61 38 62 39 63 47 64 40 65
REMARK SMILES IDX 41 66 45 67 48 68 42 69 43 70 46 71 44 72 70 73 71 74 79 75
REMARK SMILES IDX 72 76 73 77 77 78 80 79 74 80 75 81 78 82 76 83 55 84 56 85
REMARK SMILES IDX 64 86 57 87 58 88 62 89 65 90 59 91 60 92 63 93 61 94
REMARK H PARENT 85 47 53 58
REMARK Flexibility Score: inf
ROOT
ATOM      1  C   UNL A   1      31.805  29.974  26.772  1.00  0.00     0.275 C 
ENDROOT
BRANCH   1   2
ATOM      2  O   UNL A   1      31.792  28.824  25.899  1.00  0.00    -0.459 OA
BRANCH   2   3
ATOM      3  C   UNL A   1      31.721  27.616  26.516  1.00  0.00     0.338 C 
ATOM      4  O   UNL A   1      31.177  27.402  27.582  1.00  0.00    -0.246 OA
BRANCH   3   5
ATOM      5  C   UNL A   1      32.342  26.543  25.703  1.00  0.00     0.087 C 
ATOM      6  C   UNL A   1      33.877  23.464  23.313  1.00  0.00    -0.002 A 
ATOM      7  C   UNL A   1      35.200  23.035  23.503  1.00  0.00     0.054 A 
ATOM      8  C   UNL A   1      33.350  24.433  24.178  1.00  0.00     0.131 A 
ATOM      9  C   UNL A   1      35.981  23.569  24.532  1.00  0.00     0.130 A 
ATOM     10  C   UNL A   1      34.132  25.017  25.177  1.00  0.00     0.021 A 
ATOM     11  O   UNL A   1      32.023  24.726  24.047  1.00  0.00    -0.475 OA
ATOM     12  C   UNL A   1      35.450  24.579  25.347  1.00  0.00     0.058 A 
ATOM     13  C   UNL A   1      33.549  26.050  26.033  1.00  0.00     0.027 C 
ATOM     14  C   UNL A   1      31.594  26.040  24.483  1.00  0.00     0.316 C 
BRANCH   6  15
ATOM     15  C   UNL A   1      33.061  22.902  22.171  1.00  0.00     0.036 C 
ATOM     16  C   UNL A   1      32.283  21.651  22.547  1.00  0.00     0.009 C 
ENDBRANCH   6  15
BRANCH   9  17
ATOM     17  O   UNL A   1      37.264  23.205  24.832  1.00  0.00    -0.406 OA
BRANCH  17  18
ATOM     18  C   UNL A   1      37.474  21.883  25.306  1.00  0.00     0.573 C 
ATOM     19  F   UNL A   1      37.560  21.001  24.287  1.00  0.00    -0.132 F 
ATOM     20  F   UNL A   1      38.593  21.813  26.057  1.00  0.00    -0.132 F 
ATOM     21  F   UNL A   1      36.425  21.527  26.079  1.00  0.00    -0.132 F 
ENDBRANCH  17  18
ENDBRANCH   9  17
BRANCH  14  22
ATOM     22  C   UNL A   1      30.052  26.013  24.515  1.00  0.00     0.430 C 
ATOM     23  F   UNL A   1      29.516  27.224  24.243  1.00  0.00    -0.167 F 
ATOM     24  F   UNL A   1      29.574  25.185  23.546  1.00  0.00    -0.167 F 
ATOM     25  F   UNL A   1      29.558  25.564  25.688  1.00  0.00    -0.167 F 
ENDBRANCH  14  22
ENDBRANCH   3   5
ENDBRANCH   2   3
ENDBRANCH   1   2
BRANCH   1  26
ATOM     26  C   UNL A   1      33.123  30.747  26.680  1.00  0.00     0.275 C 
BRANCH  26  27
ATOM     27  O   UNL A   1      34.185  30.059  27.366  1.00  0.00    -0.458 OA
BRANCH  27  28
ATOM     28  C   UNL A   1      34.808  30.781  28.326  1.00  0.00     0.338 C 
ATOM     29  O   UNL A   1      34.299  31.606  29.070  1.00  0.00    -0.246 OA
BRANCH  28  30
ATOM     30  C   UNL A   1      36.193  30.303  28.503  1.00  0.00     0.060 A 
ATOM     31  C   UNL A   1      36.552  29.868  29.782  1.00  0.00     0.016 A 
ATOM     32  C   UNL A   1      37.130  30.277  27.466  1.00  0.00     0.016 A 
ATOM     33  C   UNL A   1      37.816  29.333  30.017  1.00  0.00     0.010 A 
ATOM     34  C   UNL A   1      38.421  29.792  27.715  1.00  0.00     0.010 A 
ATOM     35  C   UNL A   1      38.765  29.305  28.989  1.00  0.00    -0.014 A 
BRANCH  35  36
ATOM     36  C   UNL A   1      40.142  28.849  29.288  1.00  0.00     0.031 A 
ATOM     37  C   UNL A   1      41.045  29.727  30.103  1.00  0.00     0.074 A 
ATOM     38  C   UNL A   1      40.568  27.642  28.874  1.00  0.00     0.049 A 
ATOM     39  N   UNL A   1      42.282  29.523  30.480  1.00  0.00    -0.248 NA
ATOM     40  C   UNL A   1      40.473  30.999  30.569  1.00  0.00     0.031 C 
ATOM     41  C   UNL A   1      39.763  26.668  28.141  1.00  0.00     0.029 A 
ATOM     42  N   UNL A   1      41.790  27.033  29.015  1.00  0.00    -0.354 N 
ATOM     43  C   UNL A   1      42.630  30.631  31.239  1.00  0.00     0.074 A 
ATOM     44  C   UNL A   1      41.483  31.514  31.255  1.00  0.00     0.031 C 
ATOM     45  C   UNL A   1      40.521  25.590  27.873  1.00  0.00     0.029 A 
ATOM     46  C   UNL A   1      41.870  25.811  28.394  1.00  0.00     0.049 A 
ATOM     47  H   UNL A   1      42.539  27.435  29.514  1.00  0.00     0.167 HD
ATOM     48  C   UNL A   1      43.802  30.889  31.866  1.00  0.00     0.037 A 
ATOM     49  C   UNL A   1      42.921  24.981  28.245  1.00  0.00     0.037 A 
ATOM     50  C   UNL A   1      44.957  30.032  31.819  1.00  0.00     0.049 A 
ATOM     51  C   UNL A   1      44.253  25.352  28.850  1.00  0.00     0.074 A 
ATOM     52  C   UNL A   1      46.196  30.221  32.407  1.00  0.00     0.029 A 
ATOM     53  N   UNL A   1      45.021  28.831  31.128  1.00  0.00    -0.354 N 
ATOM     54  N   UNL A   1      44.570  26.391  29.583  1.00  0.00    -0.248 NA
ATOM     55  C   UNL A   1      45.373  24.432  28.603  1.00  0.00     0.031 C 
ATOM     56  C   UNL A   1      47.027  29.161  32.028  1.00  0.00     0.029 A 
ATOM     57  C   UNL A   1      46.289  28.284  31.249  1.00  0.00     0.049 A 
ATOM     58  H   UNL A   1      44.277  28.429  30.626  1.00  0.00     0.167 HD
ATOM     59  C   UNL A   1      45.910  26.232  29.913  1.00  0.00     0.074 A 
ATOM     60  C   UNL A   1      46.347  24.994  29.305  1.00  0.00     0.031 C 
ATOM     61  C   UNL A   1      46.707  27.042  30.652  1.00  0.00     0.037 A 
BRANCH  48  62
ATOM     62  C   UNL A   1      43.905  32.176  32.625  1.00  0.00     0.064 A 
ATOM     63  C   UNL A   1      43.579  32.254  33.987  1.00  0.00     0.173 A 
ATOM     64  C   UNL A   1      44.364  33.339  31.990  1.00  0.00     0.173 A 
ATOM     65  F   UNL A   1      43.120  31.172  34.634  1.00  0.00    -0.203 F 
ATOM     66  C   UNL A   1      43.691  33.456  34.681  1.00  0.00     0.198 A 
ATOM     67  C   UNL A   1      44.498  34.534  32.693  1.00  0.00     0.198 A 
ATOM     68  F   UNL A   1      44.689  33.315  30.689  1.00  0.00    -0.203 F 
ATOM     69  F   UNL A   1      43.337  33.517  35.973  1.00  0.00    -0.200 F 
ATOM     70  C   UNL A   1      44.157  34.592  34.036  1.00  0.00     0.200 A 
ATOM     71  F   UNL A   1      44.956  35.628  32.070  1.00  0.00    -0.200 F 
ATOM     72  F   UNL A   1      44.268  35.746  34.706  1.00  0.00    -0.200 F 
ENDBRANCH  48  62
BRANCH  49  73
ATOM     73  C   UNL A   1      42.777  23.727  27.458  1.00  0.00     0.064 A 
ATOM     74  C   UNL A   1      42.370  22.532  28.067  1.00  0.00     0.173 A 
ATOM     75  C   UNL A   1      43.098  23.688  26.094  1.00  0.00     0.173 A 
ATOM     76  F   UNL A   1      42.085  22.509  29.377  1.00  0.00    -0.203 F 
ATOM     77  C   UNL A   1      42.310  21.341  27.344  1.00  0.00     0.198 A 
ATOM     78  C   UNL A   1      43.010  22.503  25.366  1.00  0.00     0.198 A 
ATOM     79  F   UNL A   1      43.506  24.801  25.467  1.00  0.00    -0.203 F 
ATOM     80  F   UNL A   1      41.975  20.200  27.962  1.00  0.00    -0.200 F 
ATOM     81  C   UNL A   1      42.626  21.328  25.994  1.00  0.00     0.200 A 
ATOM     82  F   UNL A   1      43.314  22.497  24.060  1.00  0.00    -0.200 F 
ATOM     83  F   UNL A   1      42.578  20.182  25.302  1.00  0.00    -0.200 F 
ENDBRANCH  49  73
BRANCH  61  84
ATOM     84  C   UNL A   1      48.123  26.597  30.888  1.00  0.00     0.064 A 
ATOM     85  C   UNL A   1      48.462  25.751  31.954  1.00  0.00     0.173 A 
ATOM     86  C   UNL A   1      49.143  26.980  30.003  1.00  0.00     0.173 A 
ATOM     87  F   UNL A   1      47.527  25.368  32.837  1.00  0.00    -0.203 F 
ATOM     88  C   UNL A   1      49.775  25.324  32.139  1.00  0.00     0.198 A 
ATOM     89  C   UNL A   1      50.448  26.527  30.174  1.00  0.00     0.198 A 
ATOM     90  F   UNL A   1      48.870  27.781  28.963  1.00  0.00    -0.203 F 
ATOM     91  F   UNL A   1      50.085  24.550  33.189  1.00  0.00    -0.200 F 
ATOM     92  C   UNL A   1      50.764  25.705  31.244  1.00  0.00     0.200 A 
ATOM     93  F   UNL A   1      51.399  26.883  29.300  1.00  0.00    -0.200 F 
ATOM     94  F   UNL A   1      52.025  25.282  31.417  1.00  0.00    -0.200 F 
ENDBRANCH  61  84
ENDBRANCH  35  36
ENDBRANCH  28  30
ENDBRANCH  27  28
ENDBRANCH  26  27
ENDBRANCH   1  26
TORSDOF 15
ENDMDL
