MODEL 1
REMARK VINA RESULT:     -11.0      0.000      0.000
REMARK SMILES O=C(Cc1ccn(C(F)F)c(=O)c1)OCCOC(=O)c1ccc(-c2c3nc(c(-c4c(F)c(F)c(F)c(F)c4F)c4ccc([nH]4)c(-c4c(F)c(F)c(F)c(F)c4F)c4nc(c(-c5c(F)c(F)c(F)c(F)c5F)c5ccc2[nH]5)C=C4)C=C3)cc1
REMARK SMILES IDX 15 1 14 2 2 3 1 4 3 5 4 6 5 7 13 8 6 9 11 10 7 11 12 12 8 13
REMARK SMILES IDX 9 14 10 15 16 16 17 17 18 18 19 19 20 20 21 21 82 22 22 23
REMARK SMILES IDX 81 24 23 25 24 26 25 27 75 28 26 29 80 30 74 31 76 32 27 33
REMARK SMILES IDX 79 34 73 35 72 36 28 38 60 39 40 40 59 41 41 42 44 43 58 44
REMARK SMILES IDX 77 45 42 46 43 47 57 49 78 50 45 51 29 52 30 53 38 54 31 55
REMARK SMILES IDX 32 56 36 57 39 58 33 59 34 60 37 61 35 62 61 63 62 64 70 65
REMARK SMILES IDX 63 66 64 67 68 68 71 69 65 70 66 71 69 72 67 73 46 74 47 75
REMARK SMILES IDX 55 76 48 77 49 78 53 79 56 80 50 81 51 82 54 83 52 84
REMARK H PARENT 76 37 44 48
REMARK Flexibility Score: inf
ROOT
ATOM      1  C   UNL A   1      43.980  21.632  25.441  1.00  0.00     0.274 C 
ENDROOT
BRANCH   1   2
ATOM      2  O   UNL A   1      42.663  21.039  25.486  1.00  0.00    -0.462 OA
BRANCH   2   3
ATOM      3  C   UNL A   1      42.010  20.718  26.629  1.00  0.00     0.310 C 
ATOM      4  O   UNL A   1      42.015  19.564  27.050  1.00  0.00    -0.252 OA
BRANCH   3   5
ATOM      5  C   UNL A   1      41.202  21.795  27.327  1.00  0.00     0.158 C 
BRANCH   5   6
ATOM      6  C   UNL A   1      39.948  22.226  26.629  1.00  0.00    -0.030 A 
ATOM      7  C   UNL A   1      39.472  23.580  26.812  1.00  0.00     0.023 A 
ATOM      8  C   UNL A   1      39.211  21.359  25.914  1.00  0.00     0.076 A 
ATOM      9  C   UNL A   1      38.297  23.953  26.288  1.00  0.00     0.095 A 
ATOM     10  C   UNL A   1      37.926  21.770  25.290  1.00  0.00     0.255 A 
ATOM     11  N   UNL A   1      37.528  23.069  25.550  1.00  0.00    -0.258 N 
ATOM     12  O   UNL A   1      37.317  20.943  24.620  1.00  0.00    -0.269 OA
BRANCH  11  13
ATOM     13  C   UNL A   1      36.258  23.473  25.009  1.00  0.00     0.451 C 
ATOM     14  F   UNL A   1      35.770  24.552  25.668  1.00  0.00    -0.185 F 
ATOM     15  F   UNL A   1      36.375  23.799  23.698  1.00  0.00    -0.185 F 
ENDBRANCH  11  13
ENDBRANCH   5   6
ENDBRANCH   3   5
ENDBRANCH   2   3
ENDBRANCH   1   2
BRANCH   1  16
ATOM     16  C   UNL A   1      44.125  22.612  24.275  1.00  0.00     0.275 C 
BRANCH  16  17
ATOM     17  O   UNL A   1      43.588  23.897  24.636  1.00  0.00    -0.458 OA
BRANCH  17  18
ATOM     18  C   UNL A   1      44.471  24.789  25.150  1.00  0.00     0.338 C 
ATOM     19  O   UNL A   1      45.554  25.096  24.685  1.00  0.00    -0.246 OA
BRANCH  18  20
ATOM     20  C   UNL A   1      43.813  25.527  26.257  1.00  0.00     0.060 A 
ATOM     21  C   UNL A   1      42.846  24.932  27.076  1.00  0.00     0.016 A 
ATOM     22  C   UNL A   1      44.122  26.884  26.411  1.00  0.00     0.016 A 
ATOM     23  C   UNL A   1      42.200  25.694  28.054  1.00  0.00     0.010 A 
ATOM     24  C   UNL A   1      43.472  27.646  27.384  1.00  0.00     0.010 A 
ATOM     25  C   UNL A   1      42.515  27.054  28.220  1.00  0.00    -0.014 A 
BRANCH  25  26
ATOM     26  C   UNL A   1      41.958  27.817  29.362  1.00  0.00     0.031 A 
ATOM     27  C   UNL A   1      40.725  28.658  29.232  1.00  0.00     0.074 A 
ATOM     28  C   UNL A   1      42.607  27.753  30.539  1.00  0.00     0.049 A 
ATOM     29  N   UNL A   1      40.115  29.369  30.148  1.00  0.00    -0.248 NA
ATOM     30  C   UNL A   1      40.092  28.711  27.907  1.00  0.00     0.031 C 
ATOM     31  C   UNL A   1      43.818  26.970  30.784  1.00  0.00     0.029 A 
ATOM     32  N   UNL A   1      42.344  28.353  31.743  1.00  0.00    -0.354 N 
ATOM     33  C   UNL A   1      39.012  29.932  29.523  1.00  0.00     0.074 A 
ATOM     34  C   UNL A   1      39.059  29.514  28.136  1.00  0.00     0.031 C 
ATOM     35  C   UNL A   1      44.189  27.129  32.064  1.00  0.00     0.029 A 
ATOM     36  C   UNL A   1      43.257  28.042  32.719  1.00  0.00     0.049 A 
ATOM     37  H   UNL A   1      41.575  28.949  31.893  1.00  0.00     0.167 HD
ATOM     38  C   UNL A   1      38.044  30.710  30.067  1.00  0.00     0.037 A 
ATOM     39  C   UNL A   1      43.339  28.450  33.999  1.00  0.00     0.037 A 
ATOM     40  C   UNL A   1      38.012  31.143  31.442  1.00  0.00     0.049 A 
ATOM     41  C   UNL A   1      42.294  29.377  34.550  1.00  0.00     0.074 A 
ATOM     42  C   UNL A   1      37.057  31.919  32.079  1.00  0.00     0.029 A 
ATOM     43  N   UNL A   1      38.981  30.852  32.390  1.00  0.00    -0.354 N 
ATOM     44  N   UNL A   1      41.232  29.867  33.961  1.00  0.00    -0.248 NA
ATOM     45  C   UNL A   1      42.461  29.804  35.946  1.00  0.00     0.031 C 
ATOM     46  C   UNL A   1      37.470  32.133  33.399  1.00  0.00     0.029 A 
ATOM     47  C   UNL A   1      38.658  31.451  33.598  1.00  0.00     0.049 A 
ATOM     48  H   UNL A   1      39.781  30.299  32.229  1.00  0.00     0.167 HD
ATOM     49  C   UNL A   1      40.588  30.638  34.919  1.00  0.00     0.074 A 
ATOM     50  C   UNL A   1      41.375  30.542  36.131  1.00  0.00     0.031 C 
ATOM     51  C   UNL A   1      39.447  31.357  34.801  1.00  0.00     0.037 A 
BRANCH  38  52
ATOM     52  C   UNL A   1      36.911  31.143  29.182  1.00  0.00     0.064 A 
ATOM     53  C   UNL A   1      35.878  30.258  28.846  1.00  0.00     0.173 A 
ATOM     54  C   UNL A   1      36.802  32.476  28.760  1.00  0.00     0.173 A 
ATOM     55  F   UNL A   1      35.939  28.973  29.222  1.00  0.00    -0.203 F 
ATOM     56  C   UNL A   1      34.774  30.692  28.115  1.00  0.00     0.198 A 
ATOM     57  C   UNL A   1      35.687  32.911  28.048  1.00  0.00     0.198 A 
ATOM     58  F   UNL A   1      37.760  33.364  29.065  1.00  0.00    -0.203 F 
ATOM     59  F   UNL A   1      33.803  29.826  27.790  1.00  0.00    -0.200 F 
ATOM     60  C   UNL A   1      34.674  32.019  27.726  1.00  0.00     0.200 A 
ATOM     61  F   UNL A   1      35.585  34.198  27.684  1.00  0.00    -0.200 F 
ATOM     62  F   UNL A   1      33.603  32.440  27.040  1.00  0.00    -0.200 F 
ENDBRANCH  38  52
BRANCH  39  63
ATOM     63  C   UNL A   1      44.440  27.946  34.854  1.00  0.00     0.064 A 
ATOM     64  C   UNL A   1      44.330  26.713  35.509  1.00  0.00     0.173 A 
ATOM     65  C   UNL A   1      45.629  28.673  35.015  1.00  0.00     0.173 A 
ATOM     66  F   UNL A   1      43.202  25.996  35.398  1.00  0.00    -0.203 F 
ATOM     67  C   UNL A   1      45.366  26.227  36.301  1.00  0.00     0.198 A 
ATOM     68  C   UNL A   1      46.673  28.175  35.788  1.00  0.00     0.198 A 
ATOM     69  F   UNL A   1      45.780  29.857  34.404  1.00  0.00    -0.203 F 
ATOM     70  F   UNL A   1      45.225  25.059  36.942  1.00  0.00    -0.200 F 
ATOM     71  C   UNL A   1      46.540  26.955  36.434  1.00  0.00     0.200 A 
ATOM     72  F   UNL A   1      47.810  28.874  35.904  1.00  0.00    -0.200 F 
ATOM     73  F   UNL A   1      47.541  26.481  37.188  1.00  0.00    -0.200 F 
ENDBRANCH  39  63
BRANCH  51  74
ATOM     74  C   UNL A   1      38.962  32.085  36.021  1.00  0.00     0.064 A 
ATOM     75  C   UNL A   1      38.151  31.456  36.976  1.00  0.00     0.173 A 
ATOM     76  C   UNL A   1      39.343  33.415  36.255  1.00  0.00     0.173 A 
ATOM     77  F   UNL A   1      37.747  30.189  36.789  1.00  0.00    -0.203 F 
ATOM     78  C   UNL A   1      37.720  32.138  38.111  1.00  0.00     0.198 A 
ATOM     79  C   UNL A   1      38.932  34.086  37.404  1.00  0.00     0.198 A 
ATOM     80  F   UNL A   1      40.122  34.061  35.375  1.00  0.00    -0.203 F 
ATOM     81  F   UNL A   1      36.909  31.531  38.988  1.00  0.00    -0.200 F 
ATOM     82  C   UNL A   1      38.116  33.449  38.327  1.00  0.00     0.200 A 
ATOM     83  F   UNL A   1      39.324  35.350  37.617  1.00  0.00    -0.200 F 
ATOM     84  F   UNL A   1      37.703  34.104  39.422  1.00  0.00    -0.200 F 
ENDBRANCH  51  74
ENDBRANCH  25  26
ENDBRANCH  18  20
ENDBRANCH  17  18
ENDBRANCH  16  17
ENDBRANCH   1  16
TORSDOF 13
ENDMDL
MODEL 2
REMARK VINA RESULT:     -10.6      0.719      7.725
REMARK SMILES O=C(Cc1ccn(C(F)F)c(=O)c1)OCCOC(=O)c1ccc(-c2c3nc(c(-c4c(F)c(F)c(F)c(F)c4F)c4ccc([nH]4)c(-c4c(F)c(F)c(F)c(F)c4F)c4nc(c(-c5c(F)c(F)c(F)c(F)c5F)c5ccc2[nH]5)C=C4)C=C3)cc1
REMARK SMILES IDX 15 1 14 2 2 3 1 4 3 5 4 6 5 7 13 8 6 9 11 10 7 11 12 12 8 13
REMARK SMILES IDX 9 14 10 15 16 16 17 17 18 18 19 19 20 20 21 21 82 22 22 23
REMARK SMILES IDX 81 24 23 25 24 26 25 27 75 28 26 29 80 30 74 31 76 32 27 33
REMARK SMILES IDX 79 34 73 35 72 36 28 38 60 39 40 40 59 41 41 42 44 43 58 44
REMARK SMILES IDX 77 45 42 46 43 47 57 49 78 50 45 51 29 52 30 53 38 54 31 55
REMARK SMILES IDX 32 56 36 57 39 58 33 59 34 60 37 61 35 62 61 63 62 64 70 65
REMARK SMILES IDX 63 66 64 67 68 68 71 69 65 70 66 71 69 72 67 73 46 74 47 75
REMARK SMILES IDX 55 76 48 77 49 78 53 79 56 80 50 81 51 82 54 83 52 84
REMARK H PARENT 76 37 44 48
REMARK Flexibility Score: inf
ROOT
ATOM      1  C   UNL A   1      44.044  21.276  25.347  1.00  0.00     0.274 C 
ENDROOT
BRANCH   1   2
ATOM      2  O   UNL A   1      43.387  20.044  24.980  1.00  0.00    -0.462 OA
BRANCH   2   3
ATOM      3  C   UNL A   1      42.827  19.185  25.865  1.00  0.00     0.310 C 
ATOM      4  O   UNL A   1      42.995  17.972  25.755  1.00  0.00    -0.252 OA
BRANCH   3   5
ATOM      5  C   UNL A   1      41.918  19.746  26.942  1.00  0.00     0.158 C 
BRANCH   5   6
ATOM      6  C   UNL A   1      40.704  20.477  26.455  1.00  0.00    -0.030 A 
ATOM      7  C   UNL A   1      40.519  21.862  26.832  1.00  0.00     0.023 A 
ATOM      8  C   UNL A   1      39.743  19.851  25.755  1.00  0.00     0.076 A 
ATOM      9  C   UNL A   1      39.390  22.502  26.501  1.00  0.00     0.095 A 
ATOM     10  C   UNL A   1      38.503  20.559  25.343  1.00  0.00     0.255 A 
ATOM     11  N   UNL A   1      38.392  21.867  25.780  1.00  0.00    -0.258 N 
ATOM     12  O   UNL A   1      37.679  19.944  24.675  1.00  0.00    -0.269 OA
BRANCH  11  13
ATOM     13  C   UNL A   1      37.174  22.556  25.448  1.00  0.00     0.451 C 
ATOM     14  F   UNL A   1      37.187  23.825  25.923  1.00  0.00    -0.185 F 
ATOM     15  F   UNL A   1      37.004  22.611  24.104  1.00  0.00    -0.185 F 
ENDBRANCH  11  13
ENDBRANCH   5   6
ENDBRANCH   3   5
ENDBRANCH   2   3
ENDBRANCH   1   2
BRANCH   1  16
ATOM     16  C   UNL A   1      43.983  22.313  24.223  1.00  0.00     0.275 C 
BRANCH  16  17
ATOM     17  O   UNL A   1      43.439  23.549  24.717  1.00  0.00    -0.458 OA
BRANCH  17  18
ATOM     18  C   UNL A   1      44.340  24.470  25.142  1.00  0.00     0.338 C 
ATOM     19  O   UNL A   1      45.372  24.795  24.583  1.00  0.00    -0.246 OA
BRANCH  18  20
ATOM     20  C   UNL A   1      43.759  25.210  26.290  1.00  0.00     0.060 A 
ATOM     21  C   UNL A   1      42.783  24.647  27.120  1.00  0.00     0.016 A 
ATOM     22  C   UNL A   1      44.153  26.541  26.475  1.00  0.00     0.016 A 
ATOM     23  C   UNL A   1      42.212  25.415  28.140  1.00  0.00     0.010 A 
ATOM     24  C   UNL A   1      43.578  27.308  27.490  1.00  0.00     0.010 A 
ATOM     25  C   UNL A   1      42.612  26.747  28.337  1.00  0.00    -0.014 A 
BRANCH  25  26
ATOM     26  C   UNL A   1      42.135  27.506  29.517  1.00  0.00     0.031 A 
ATOM     27  C   UNL A   1      42.823  27.427  30.846  1.00  0.00     0.074 A 
ATOM     28  C   UNL A   1      41.035  28.268  29.374  1.00  0.00     0.049 A 
ATOM     29  N   UNL A   1      42.526  28.045  31.962  1.00  0.00    -0.248 NA
ATOM     30  C   UNL A   1      43.994  26.545  30.938  1.00  0.00     0.031 C 
ATOM     31  C   UNL A   1      40.279  28.420  28.131  1.00  0.00     0.029 A 
ATOM     32  N   UNL A   1      40.362  29.053  30.275  1.00  0.00    -0.354 N 
ATOM     33  C   UNL A   1      43.487  27.652  32.883  1.00  0.00     0.074 A 
ATOM     34  C   UNL A   1      44.353  26.707  32.206  1.00  0.00     0.031 C 
ATOM     35  C   UNL A   1      39.252  29.256  28.343  1.00  0.00     0.029 A 
ATOM     36  C   UNL A   1      39.263  29.677  29.741  1.00  0.00     0.049 A 
ATOM     37  H   UNL A   1      40.641  29.158  31.213  1.00  0.00     0.167 HD
ATOM     38  C   UNL A   1      43.636  28.059  34.167  1.00  0.00     0.037 A 
ATOM     39  C   UNL A   1      38.362  30.496  30.314  1.00  0.00     0.037 A 
ATOM     40  C   UNL A   1      42.759  28.981  34.845  1.00  0.00     0.049 A 
ATOM     41  C   UNL A   1      38.509  30.865  31.762  1.00  0.00     0.074 A 
ATOM     42  C   UNL A   1      42.849  29.462  36.142  1.00  0.00     0.029 A 
ATOM     43  N   UNL A   1      41.626  29.555  34.290  1.00  0.00    -0.354 N 
ATOM     44  N   UNL A   1      39.446  30.521  32.610  1.00  0.00    -0.248 NA
ATOM     45  C   UNL A   1      37.474  31.739  32.329  1.00  0.00     0.031 C 
ATOM     46  C   UNL A   1      41.748  30.290  36.385  1.00  0.00     0.029 A 
ATOM     47  C   UNL A   1      40.997  30.365  35.225  1.00  0.00     0.049 A 
ATOM     48  H   UNL A   1      41.314  29.410  33.367  1.00  0.00     0.167 HD
ATOM     49  C   UNL A   1      39.131  31.157  33.803  1.00  0.00     0.074 A 
ATOM     50  C   UNL A   1      37.920  31.915  33.565  1.00  0.00     0.031 C 
ATOM     51  C   UNL A   1      39.789  31.114  34.986  1.00  0.00     0.037 A 
BRANCH  38  52
ATOM     52  C   UNL A   1      44.806  27.526  34.941  1.00  0.00     0.064 A 
ATOM     53  C   UNL A   1      46.022  28.222  34.985  1.00  0.00     0.173 A 
ATOM     54  C   UNL A   1      44.678  26.374  35.731  1.00  0.00     0.173 A 
ATOM     55  F   UNL A   1      46.195  29.326  34.243  1.00  0.00    -0.203 F 
ATOM     56  C   UNL A   1      47.071  27.782  35.789  1.00  0.00     0.198 A 
ATOM     57  C   UNL A   1      45.721  25.950  36.551  1.00  0.00     0.198 A 
ATOM     58  F   UNL A   1      43.531  25.679  35.732  1.00  0.00    -0.203 F 
ATOM     59  F   UNL A   1      48.231  28.455  35.804  1.00  0.00    -0.200 F 
ATOM     60  C   UNL A   1      46.916  26.653  36.579  1.00  0.00     0.200 A 
ATOM     61  F   UNL A   1      45.566  24.866  37.325  1.00  0.00    -0.200 F 
ATOM     62  F   UNL A   1      47.918  26.243  37.368  1.00  0.00    -0.200 F 
ENDBRANCH  38  52
BRANCH  39  63
ATOM     63  C   UNL A   1      37.257  31.049  29.495  1.00  0.00     0.064 A 
ATOM     64  C   UNL A   1      36.173  30.244  29.119  1.00  0.00     0.173 A 
ATOM     65  C   UNL A   1      37.249  32.393  29.093  1.00  0.00     0.173 A 
ATOM     66  F   UNL A   1      36.151  28.950  29.467  1.00  0.00    -0.203 F 
ATOM     67  C   UNL A   1      35.125  30.762  28.364  1.00  0.00     0.198 A 
ATOM     68  C   UNL A   1      36.189  32.914  28.358  1.00  0.00     0.198 A 
ATOM     69  F   UNL A   1      38.264  33.201  29.432  1.00  0.00    -0.203 F 
ATOM     70  F   UNL A   1      34.114  29.965  27.992  1.00  0.00    -0.200 F 
ATOM     71  C   UNL A   1      35.129  32.098  27.991  1.00  0.00     0.200 A 
ATOM     72  F   UNL A   1      36.190  34.207  28.009  1.00  0.00    -0.200 F 
ATOM     73  F   UNL A   1      34.114  32.597  27.272  1.00  0.00    -0.200 F 
ENDBRANCH  39  63
BRANCH  51  74
ATOM     74  C   UNL A   1      39.228  31.928  36.115  1.00  0.00     0.064 A 
ATOM     75  C   UNL A   1      39.626  33.255  36.331  1.00  0.00     0.173 A 
ATOM     76  C   UNL A   1      38.257  31.386  36.970  1.00  0.00     0.173 A 
ATOM     77  F   UNL A   1      40.564  33.813  35.551  1.00  0.00    -0.203 F 
ATOM     78  C   UNL A   1      39.087  34.003  37.375  1.00  0.00     0.198 A 
ATOM     79  C   UNL A   1      37.700  32.145  37.996  1.00  0.00     0.198 A 
ATOM     80  F   UNL A   1      37.838  30.122  36.804  1.00  0.00    -0.203 F 
ATOM     81  F   UNL A   1      39.514  35.256  37.588  1.00  0.00    -0.200 F 
ATOM     82  C   UNL A   1      38.121  33.450  38.201  1.00  0.00     0.200 A 
ATOM     83  F   UNL A   1      36.759  31.613  38.788  1.00  0.00    -0.200 F 
ATOM     84  F   UNL A   1      37.600  34.174  39.203  1.00  0.00    -0.200 F 
ENDBRANCH  51  74
ENDBRANCH  25  26
ENDBRANCH  18  20
ENDBRANCH  17  18
ENDBRANCH  16  17
ENDBRANCH   1  16
TORSDOF 13
ENDMDL
MODEL 3
REMARK VINA RESULT:     -10.4      5.037      9.342
REMARK SMILES O=C(Cc1ccn(C(F)F)c(=O)c1)OCCOC(=O)c1ccc(-c2c3nc(c(-c4c(F)c(F)c(F)c(F)c4F)c4ccc([nH]4)c(-c4c(F)c(F)c(F)c(F)c4F)c4nc(c(-c5c(F)c(F)c(F)c(F)c5F)c5ccc2[nH]5)C=C4)C=C3)cc1
REMARK SMILES IDX 15 1 14 2 2 3 1 4 3 5 4 6 5 7 13 8 6 9 11 10 7 11 12 12 8 13
REMARK SMILES IDX 9 14 10 15 16 16 17 17 18 18 19 19 20 20 21 21 82 22 22 23
REMARK SMILES IDX 81 24 23 25 24 26 25 27 75 28 26 29 80 30 74 31 76 32 27 33
REMARK SMILES IDX 79 34 73 35 72 36 28 38 60 39 40 40 59 41 41 42 44 43 58 44
REMARK SMILES IDX 77 45 42 46 43 47 57 49 78 50 45 51 29 52 30 53 38 54 31 55
REMARK SMILES IDX 32 56 36 57 39 58 33 59 34 60 37 61 35 62 61 63 62 64 70 65
REMARK SMILES IDX 63 66 64 67 68 68 71 69 65 70 66 71 69 72 67 73 46 74 47 75
REMARK SMILES IDX 55 76 48 77 49 78 53 79 56 80 50 81 51 82 54 83 52 84
REMARK H PARENT 76 37 44 48
REMARK Flexibility Score: inf
ROOT
ATOM      1  C   UNL A   1      36.182  22.814  24.003  1.00  0.00     0.274 C 
ENDROOT
BRANCH   1   2
ATOM      2  O   UNL A   1      34.814  22.826  24.465  1.00  0.00    -0.462 OA
BRANCH   2   3
ATOM      3  C   UNL A   1      33.737  22.656  23.662  1.00  0.00     0.310 C 
ATOM      4  O   UNL A   1      33.725  23.117  22.523  1.00  0.00    -0.252 OA
BRANCH   3   5
ATOM      5  C   UNL A   1      32.513  21.962  24.230  1.00  0.00     0.158 C 
BRANCH   5   6
ATOM      6  C   UNL A   1      32.551  20.464  24.222  1.00  0.00    -0.030 A 
ATOM      7  C   UNL A   1      32.813  19.762  25.460  1.00  0.00     0.023 A 
ATOM      8  C   UNL A   1      32.439  19.766  23.080  1.00  0.00     0.076 A 
ATOM      9  C   UNL A   1      32.960  18.430  25.456  1.00  0.00     0.095 A 
ATOM     10  C   UNL A   1      32.557  18.285  23.065  1.00  0.00     0.255 A 
ATOM     11  N   UNL A   1      32.847  17.700  24.285  1.00  0.00    -0.258 N 
ATOM     12  O   UNL A   1      32.410  17.702  21.997  1.00  0.00    -0.269 OA
BRANCH  11  13
ATOM     13  C   UNL A   1      33.029  16.273  24.288  1.00  0.00     0.451 C 
ATOM     14  F   UNL A   1      34.273  15.941  23.866  1.00  0.00    -0.185 F 
ATOM     15  F   UNL A   1      32.859  15.769  25.535  1.00  0.00    -0.185 F 
ENDBRANCH  11  13
ENDBRANCH   5   6
ENDBRANCH   3   5
ENDBRANCH   2   3
ENDBRANCH   1   2
BRANCH   1  16
ATOM     16  C   UNL A   1      36.932  21.565  24.470  1.00  0.00     0.275 C 
BRANCH  16  17
ATOM     17  O   UNL A   1      37.374  21.730  25.830  1.00  0.00    -0.458 OA
BRANCH  17  18
ATOM     18  C   UNL A   1      38.669  21.413  26.078  1.00  0.00     0.338 C 
ATOM     19  O   UNL A   1      39.227  20.361  25.821  1.00  0.00    -0.246 OA
BRANCH  18  20
ATOM     20  C   UNL A   1      39.386  22.641  26.503  1.00  0.00     0.060 A 
ATOM     21  C   UNL A   1      40.468  22.600  27.392  1.00  0.00     0.016 A 
ATOM     22  C   UNL A   1      38.893  23.873  26.056  1.00  0.00     0.016 A 
ATOM     23  C   UNL A   1      41.059  23.792  27.821  1.00  0.00     0.010 A 
ATOM     24  C   UNL A   1      39.480  25.063  26.491  1.00  0.00     0.010 A 
ATOM     25  C   UNL A   1      40.574  25.031  27.367  1.00  0.00    -0.014 A 
BRANCH  25  26
ATOM     26  C   UNL A   1      41.303  26.282  27.686  1.00  0.00     0.031 A 
ATOM     27  C   UNL A   1      42.730  26.496  27.285  1.00  0.00     0.074 A 
ATOM     28  C   UNL A   1      40.647  27.234  28.375  1.00  0.00     0.049 A 
ATOM     29  N   UNL A   1      43.490  27.545  27.483  1.00  0.00    -0.248 NA
ATOM     30  C   UNL A   1      43.393  25.397  26.569  1.00  0.00     0.031 C 
ATOM     31  C   UNL A   1      39.258  27.137  28.821  1.00  0.00     0.029 A 
ATOM     32  N   UNL A   1      41.059  28.464  28.819  1.00  0.00    -0.354 N 
ATOM     33  C   UNL A   1      44.711  27.248  26.894  1.00  0.00     0.074 A 
ATOM     34  C   UNL A   1      44.605  25.901  26.367  1.00  0.00     0.031 C 
ATOM     35  C   UNL A   1      38.927  28.264  29.468  1.00  0.00     0.029 A 
ATOM     36  C   UNL A   1      40.087  29.151  29.503  1.00  0.00     0.049 A 
ATOM     37  H   UNL A   1      41.964  28.820  28.663  1.00  0.00     0.167 HD
ATOM     38  C   UNL A   1      45.808  28.037  26.791  1.00  0.00     0.037 A 
ATOM     39  C   UNL A   1      40.125  30.358  30.094  1.00  0.00     0.037 A 
ATOM     40  C   UNL A   1      45.919  29.367  27.337  1.00  0.00     0.049 A 
ATOM     41  C   UNL A   1      41.383  31.176  30.032  1.00  0.00     0.074 A 
ATOM     42  C   UNL A   1      46.991  30.243  27.262  1.00  0.00     0.029 A 
ATOM     43  N   UNL A   1      44.933  30.012  28.067  1.00  0.00    -0.354 N 
ATOM     44  N   UNL A   1      42.516  30.903  29.435  1.00  0.00    -0.248 NA
ATOM     45  C   UNL A   1      41.363  32.472  30.724  1.00  0.00     0.031 C 
ATOM     46  C   UNL A   1      46.669  31.398  27.983  1.00  0.00     0.029 A 
ATOM     47  C   UNL A   1      45.380  31.262  28.469  1.00  0.00     0.049 A 
ATOM     48  H   UNL A   1      44.045  29.637  28.271  1.00  0.00     0.167 HD
ATOM     49  C   UNL A   1      43.336  32.001  29.656  1.00  0.00     0.074 A 
ATOM     50  C   UNL A   1      42.565  32.949  30.433  1.00  0.00     0.031 C 
ATOM     51  C   UNL A   1      44.612  32.201  29.246  1.00  0.00     0.037 A 
BRANCH  38  52
ATOM     52  C   UNL A   1      46.993  27.499  26.043  1.00  0.00     0.064 A 
ATOM     53  C   UNL A   1      47.108  27.663  24.656  1.00  0.00     0.173 A 
ATOM     54  C   UNL A   1      48.068  26.914  26.729  1.00  0.00     0.173 A 
ATOM     55  F   UNL A   1      46.105  28.211  23.956  1.00  0.00    -0.203 F 
ATOM     56  C   UNL A   1      48.257  27.258  23.980  1.00  0.00     0.198 A 
ATOM     57  C   UNL A   1      49.224  26.531  26.054  1.00  0.00     0.198 A 
ATOM     58  F   UNL A   1      48.011  26.745  28.059  1.00  0.00    -0.203 F 
ATOM     59  F   UNL A   1      48.340  27.410  22.651  1.00  0.00    -0.200 F 
ATOM     60  C   UNL A   1      49.318  26.703  24.680  1.00  0.00     0.200 A 
ATOM     61  F   UNL A   1      50.255  26.007  26.733  1.00  0.00    -0.200 F 
ATOM     62  F   UNL A   1      50.430  26.333  24.032  1.00  0.00    -0.200 F 
ENDBRANCH  38  52
BRANCH  39  63
ATOM     63  C   UNL A   1      38.911  30.878  30.768  1.00  0.00     0.064 A 
ATOM     64  C   UNL A   1      38.725  30.696  32.145  1.00  0.00     0.173 A 
ATOM     65  C   UNL A   1      37.928  31.583  30.058  1.00  0.00     0.173 A 
ATOM     66  F   UNL A   1      39.630  30.011  32.857  1.00  0.00    -0.203 F 
ATOM     67  C   UNL A   1      37.595  31.196  32.787  1.00  0.00     0.198 A 
ATOM     68  C   UNL A   1      36.811  32.102  30.706  1.00  0.00     0.198 A 
ATOM     69  F   UNL A   1      38.066  31.784  28.740  1.00  0.00    -0.203 F 
ATOM     70  F   UNL A   1      37.425  30.983  34.099  1.00  0.00    -0.200 F 
ATOM     71  C   UNL A   1      36.643  31.905  32.069  1.00  0.00     0.200 A 
ATOM     72  F   UNL A   1      35.900  32.797  30.013  1.00  0.00    -0.200 F 
ATOM     73  F   UNL A   1      35.561  32.393  32.690  1.00  0.00    -0.200 F 
ENDBRANCH  39  63
BRANCH  51  74
ATOM     74  C   UNL A   1      45.254  33.507  29.612  1.00  0.00     0.064 A 
ATOM     75  C   UNL A   1      45.993  33.655  30.794  1.00  0.00     0.173 A 
ATOM     76  C   UNL A   1      45.159  34.613  28.754  1.00  0.00     0.173 A 
ATOM     77  F   UNL A   1      46.100  32.632  31.656  1.00  0.00    -0.203 F 
ATOM     78  C   UNL A   1      46.595  34.869  31.115  1.00  0.00     0.198 A 
ATOM     79  C   UNL A   1      45.784  35.818  29.065  1.00  0.00     0.198 A 
ATOM     80  F   UNL A   1      44.467  34.523  27.608  1.00  0.00    -0.203 F 
ATOM     81  F   UNL A   1      47.261  35.000  32.271  1.00  0.00    -0.200 F 
ATOM     82  C   UNL A   1      46.496  35.946  30.247  1.00  0.00     0.200 A 
ATOM     83  F   UNL A   1      45.696  36.855  28.220  1.00  0.00    -0.200 F 
ATOM     84  F   UNL A   1      47.080  37.113  30.556  1.00  0.00    -0.200 F 
ENDBRANCH  51  74
ENDBRANCH  25  26
ENDBRANCH  18  20
ENDBRANCH  17  18
ENDBRANCH  16  17
ENDBRANCH   1  16
TORSDOF 13
ENDMDL
