MODEL 1
REMARK VINA RESULT:     -11.2      0.000      0.000
REMARK SMILES CCCOc1cc(NC[C@H]2CC[C@@H](C(=O)OCCOC(=O)c3ccc(-c4c5nc(c(-c6c(F)c(F)c(F)c(F)c6F)c6ccc([nH]6)c(-c6c(F)c(F)c(F)c(F)c6F)c6nc(c(-c7c(F)c(F)c(F)c(F)c7F)c7ccc4[nH]7)C=C6)C=C5)cc3)O2)ncn1
REMARK SMILES IDX 14 1 15 2 13 3 10 4 11 5 85 6 12 7 9 8 8 9 7 11 5 12 6 13
REMARK SMILES IDX 88 14 87 15 86 16 4 17 3 18 2 19 1 20 16 21 17 22 18 23
REMARK SMILES IDX 19 24 20 25 21 26 22 27 23 28 84 29 24 30 83 31 25 32 26 33
REMARK SMILES IDX 27 34 77 35 28 36 82 37 76 38 78 39 29 40 81 41 75 42 74 43
REMARK SMILES IDX 30 45 62 46 42 47 61 48 43 49 46 50 60 51 79 52 44 53 45 54
REMARK SMILES IDX 59 56 80 57 47 58 31 59 32 60 40 61 33 62 34 63 38 64 41 65
REMARK SMILES IDX 35 66 36 67 39 68 37 69 63 70 64 71 72 72 65 73 66 74 70 75
REMARK SMILES IDX 73 76 67 77 68 78 71 79 69 80 48 81 49 82 57 83 50 84 51 85
REMARK SMILES IDX 55 86 58 87 52 88 53 89 56 90 54 91
REMARK H PARENT 8 10 78 44 46 55
REMARK Flexibility Score: inf
ROOT
ATOM      1  C   UNL A   1      35.014  22.548  23.923  1.00  0.00     0.335 C 
ATOM      2  O   UNL A   1      35.555  23.312  23.130  1.00  0.00    -0.249 OA
ENDROOT
BRANCH   1   3
ATOM      3  C   UNL A   1      33.576  22.042  23.743  1.00  0.00     0.228 C 
ATOM      4  C   UNL A   1      31.488  22.711  24.608  1.00  0.00     0.138 C 
ATOM      5  C   UNL A   1      31.372  22.526  23.101  1.00  0.00     0.037 C 
ATOM      6  O   UNL A   1      32.771  22.123  24.931  1.00  0.00    -0.361 OA
ATOM      7  C   UNL A   1      32.793  22.728  22.636  1.00  0.00     0.047 C 
BRANCH   4   8
ATOM      8  C   UNL A   1      31.478  24.168  25.127  1.00  0.00     0.146 C 
BRANCH   8   9
ATOM      9  N   UNL A   1      30.252  24.879  24.822  1.00  0.00    -0.367 N 
ATOM     10  H   UNL A   1      29.422  24.611  25.279  1.00  0.00     0.162 HD
BRANCH   9  11
ATOM     11  C   UNL A   1      30.205  25.919  23.914  1.00  0.00     0.133 A 
ATOM     12  C   UNL A   1      29.130  27.839  23.127  1.00  0.00     0.218 A 
ATOM     13  C   UNL A   1      29.074  26.703  23.894  1.00  0.00     0.115 A 
ATOM     14  N   UNL A   1      30.149  28.164  22.325  1.00  0.00    -0.202 NA
ATOM     15  C   UNL A   1      31.171  27.303  22.365  1.00  0.00     0.228 A 
ATOM     16  N   UNL A   1      31.271  26.218  23.156  1.00  0.00    -0.219 NA
BRANCH  12  17
ATOM     17  O   UNL A   1      28.075  28.718  23.196  1.00  0.00    -0.478 OA
BRANCH  17  18
ATOM     18  C   UNL A   1      28.371  29.911  22.449  1.00  0.00     0.231 C 
BRANCH  18  19
ATOM     19  C   UNL A   1      27.655  31.128  23.051  1.00  0.00     0.038 C 
ATOM     20  C   UNL A   1      28.402  32.440  22.828  1.00  0.00     0.007 C 
ENDBRANCH  18  19
ENDBRANCH  17  18
ENDBRANCH  12  17
ENDBRANCH   9  11
ENDBRANCH   8   9
ENDBRANCH   4   8
ENDBRANCH   1   3
BRANCH   1  21
ATOM     21  O   UNL A   1      35.615  22.039  25.035  1.00  0.00    -0.460 OA
BRANCH  21  22
ATOM     22  C   UNL A   1      35.905  20.625  25.016  1.00  0.00     0.274 C 
BRANCH  22  23
ATOM     23  C   UNL A   1      37.411  20.353  25.009  1.00  0.00     0.275 C 
BRANCH  23  24
ATOM     24  O   UNL A   1      38.157  21.516  25.410  1.00  0.00    -0.458 OA
BRANCH  24  25
ATOM     25  C   UNL A   1      39.275  21.250  26.126  1.00  0.00     0.338 C 
ATOM     26  O   UNL A   1      39.836  20.175  26.242  1.00  0.00    -0.246 OA
BRANCH  25  27
ATOM     27  C   UNL A   1      39.816  22.498  26.688  1.00  0.00     0.060 A 
ATOM     28  C   UNL A   1      39.350  23.701  26.155  1.00  0.00     0.016 A 
ATOM     29  C   UNL A   1      40.822  22.498  27.657  1.00  0.00     0.016 A 
ATOM     30  C   UNL A   1      39.896  24.909  26.566  1.00  0.00     0.010 A 
ATOM     31  C   UNL A   1      41.372  23.717  28.075  1.00  0.00     0.010 A 
ATOM     32  C   UNL A   1      40.923  24.927  27.518  1.00  0.00    -0.014 A 
BRANCH  32  33
ATOM     33  C   UNL A   1      41.534  26.229  27.868  1.00  0.00     0.031 A 
ATOM     34  C   UNL A   1      42.917  26.563  27.391  1.00  0.00     0.074 A 
ATOM     35  C   UNL A   1      40.807  27.142  28.537  1.00  0.00     0.049 A 
ATOM     36  N   UNL A   1      43.595  27.675  27.529  1.00  0.00    -0.248 NA
ATOM     37  C   UNL A   1      43.635  25.506  26.662  1.00  0.00     0.031 C 
ATOM     38  C   UNL A   1      39.443  26.938  29.022  1.00  0.00     0.029 A 
ATOM     39  N   UNL A   1      41.108  28.428  28.906  1.00  0.00    -0.354 N 
ATOM     40  C   UNL A   1      44.814  27.454  26.906  1.00  0.00     0.074 A 
ATOM     41  C   UNL A   1      44.799  26.091  26.417  1.00  0.00     0.031 C 
ATOM     42  C   UNL A   1      39.016  28.068  29.610  1.00  0.00     0.029 A 
ATOM     43  C   UNL A   1      40.084  29.062  29.563  1.00  0.00     0.049 A 
ATOM     44  H   UNL A   1      41.975  28.855  28.718  1.00  0.00     0.167 HD
ATOM     45  C   UNL A   1      45.849  28.315  26.749  1.00  0.00     0.037 A 
ATOM     46  C   UNL A   1      40.017  30.309  30.067  1.00  0.00     0.037 A 
ATOM     47  C   UNL A   1      45.859  29.672  27.229  1.00  0.00     0.049 A 
ATOM     48  C   UNL A   1      41.191  31.234  29.900  1.00  0.00     0.074 A 
ATOM     49  C   UNL A   1      46.857  30.624  27.114  1.00  0.00     0.029 A 
ATOM     50  N   UNL A   1      44.815  30.272  27.919  1.00  0.00    -0.354 N 
ATOM     51  N   UNL A   1      42.334  31.021  29.296  1.00  0.00    -0.248 NA
ATOM     52  C   UNL A   1      41.058  32.579  30.478  1.00  0.00     0.031 C 
ATOM     53  C   UNL A   1      46.434  31.787  27.765  1.00  0.00     0.029 A 
ATOM     54  C   UNL A   1      45.152  31.576  28.248  1.00  0.00     0.049 A 
ATOM     55  H   UNL A   1      43.961  29.836  28.141  1.00  0.00     0.167 HD
ATOM     56  C   UNL A   1      43.048  32.206  29.402  1.00  0.00     0.074 A 
ATOM     57  C   UNL A   1      42.200  33.142  30.110  1.00  0.00     0.031 C 
ATOM     58  C   UNL A   1      44.296  32.494  28.955  1.00  0.00     0.037 A 
BRANCH  45  59
ATOM     59  C   UNL A   1      47.069  27.803  26.043  1.00  0.00     0.064 A 
ATOM     60  C   UNL A   1      48.162  27.275  26.748  1.00  0.00     0.173 A 
ATOM     61  C   UNL A   1      47.133  27.808  24.641  1.00  0.00     0.173 A 
ATOM     62  F   UNL A   1      48.154  27.260  28.090  1.00  0.00    -0.203 F 
ATOM     63  C   UNL A   1      49.282  26.792  26.076  1.00  0.00     0.198 A 
ATOM     64  C   UNL A   1      48.244  27.301  23.972  1.00  0.00     0.198 A 
ATOM     65  F   UNL A   1      46.113  28.298  23.921  1.00  0.00    -0.203 F 
ATOM     66  F   UNL A   1      50.330  26.328  26.770  1.00  0.00    -0.200 F 
ATOM     67  C   UNL A   1      49.319  26.799  24.690  1.00  0.00     0.200 A 
ATOM     68  F   UNL A   1      48.274  27.301  22.632  1.00  0.00    -0.200 F 
ATOM     69  F   UNL A   1      50.395  26.329  24.045  1.00  0.00    -0.200 F 
ENDBRANCH  45  59
BRANCH  46  70
ATOM     70  C   UNL A   1      38.787  30.757  30.766  1.00  0.00     0.064 A 
ATOM     71  C   UNL A   1      37.715  31.315  30.058  1.00  0.00     0.173 A 
ATOM     72  C   UNL A   1      38.662  30.640  32.158  1.00  0.00     0.173 A 
ATOM     73  F   UNL A   1      37.797  31.469  28.729  1.00  0.00    -0.203 F 
ATOM     74  C   UNL A   1      36.569  31.755  30.718  1.00  0.00     0.198 A 
ATOM     75  C   UNL A   1      37.506  31.055  32.814  1.00  0.00     0.198 A 
ATOM     76  F   UNL A   1      39.662  30.113  32.880  1.00  0.00    -0.203 F 
ATOM     77  F   UNL A   1      35.575  32.325  30.023  1.00  0.00    -0.200 F 
ATOM     78  C   UNL A   1      36.463  31.619  32.095  1.00  0.00     0.200 A 
ATOM     79  F   UNL A   1      37.405  30.915  34.143  1.00  0.00    -0.200 F 
ATOM     80  F   UNL A   1      35.361  32.040  32.729  1.00  0.00    -0.200 F 
ENDBRANCH  46  70
BRANCH  58  81
ATOM     81  C   UNL A   1      44.802  33.885  29.202  1.00  0.00     0.064 A 
ATOM     82  C   UNL A   1      44.582  34.920  28.280  1.00  0.00     0.173 A 
ATOM     83  C   UNL A   1      45.508  34.187  30.375  1.00  0.00     0.173 A 
ATOM     84  F   UNL A   1      43.925  34.676  27.136  1.00  0.00    -0.203 F 
ATOM     85  C   UNL A   1      45.083  36.198  28.509  1.00  0.00     0.198 A 
ATOM     86  C   UNL A   1      45.983  35.474  30.613  1.00  0.00     0.198 A 
ATOM     87  F   UNL A   1      45.739  33.235  31.291  1.00  0.00    -0.203 F 
ATOM     88  F   UNL A   1      44.909  37.158  27.589  1.00  0.00    -0.200 F 
ATOM     89  C   UNL A   1      45.778  36.475  29.677  1.00  0.00     0.200 A 
ATOM     90  F   UNL A   1      46.647  35.744  31.746  1.00  0.00    -0.200 F 
ATOM     91  F   UNL A   1      46.263  37.706  29.892  1.00  0.00    -0.200 F 
ENDBRANCH  58  81
ENDBRANCH  32  33
ENDBRANCH  25  27
ENDBRANCH  24  25
ENDBRANCH  23  24
ENDBRANCH  22  23
ENDBRANCH  21  22
ENDBRANCH   1  21
TORSDOF 17
ENDMDL
MODEL 2
REMARK VINA RESULT:     -11.1      5.866     11.393
REMARK SMILES CCCOc1cc(NC[C@H]2CC[C@@H](C(=O)OCCOC(=O)c3ccc(-c4c5nc(c(-c6c(F)c(F)c(F)c(F)c6F)c6ccc([nH]6)c(-c6c(F)c(F)c(F)c(F)c6F)c6nc(c(-c7c(F)c(F)c(F)c(F)c7F)c7ccc4[nH]7)C=C6)C=C5)cc3)O2)ncn1
REMARK SMILES IDX 14 1 15 2 13 3 10 4 11 5 85 6 12 7 9 8 8 9 7 11 5 12 6 13
REMARK SMILES IDX 88 14 87 15 86 16 4 17 3 18 2 19 1 20 16 21 17 22 18 23
REMARK SMILES IDX 19 24 20 25 21 26 22 27 23 28 84 29 24 30 83 31 25 32 26 33
REMARK SMILES IDX 27 34 77 35 28 36 82 37 76 38 78 39 29 40 81 41 75 42 74 43
REMARK SMILES IDX 30 45 62 46 42 47 61 48 43 49 46 50 60 51 79 52 44 53 45 54
REMARK SMILES IDX 59 56 80 57 47 58 31 59 32 60 40 61 33 62 34 63 38 64 41 65
REMARK SMILES IDX 35 66 36 67 39 68 37 69 63 70 64 71 72 72 65 73 66 74 70 75
REMARK SMILES IDX 73 76 67 77 68 78 71 79 69 80 48 81 49 82 57 83 50 84 51 85
REMARK SMILES IDX 55 86 58 87 52 88 53 89 56 90 54 91
REMARK H PARENT 8 10 78 44 46 55
REMARK Flexibility Score: inf
ROOT
ATOM      1  C   UNL A   1      32.929  35.939  29.712  1.00  0.00     0.335 C 
ATOM      2  O   UNL A   1      32.152  36.453  28.914  1.00  0.00    -0.249 OA
ENDROOT
BRANCH   1   3
ATOM      3  C   UNL A   1      32.786  36.097  31.233  1.00  0.00     0.228 C 
ATOM      4  C   UNL A   1      34.041  35.339  33.079  1.00  0.00     0.138 C 
ATOM      5  C   UNL A   1      33.746  36.824  33.247  1.00  0.00     0.037 C 
ATOM      6  O   UNL A   1      33.183  34.938  31.984  1.00  0.00    -0.361 OA
ATOM      7  C   UNL A   1      33.536  37.279  31.824  1.00  0.00     0.047 C 
BRANCH   4   8
ATOM      8  C   UNL A   1      35.496  34.963  32.717  1.00  0.00     0.146 C 
BRANCH   8   9
ATOM      9  N   UNL A   1      35.616  33.658  32.096  1.00  0.00    -0.367 N 
ATOM     10  H   UNL A   1      35.123  33.482  31.262  1.00  0.00     0.162 HD
BRANCH   9  11
ATOM     11  C   UNL A   1      36.397  32.652  32.632  1.00  0.00     0.133 A 
ATOM     12  C   UNL A   1      37.873  31.940  34.300  1.00  0.00     0.218 A 
ATOM     13  C   UNL A   1      37.256  32.984  33.656  1.00  0.00     0.115 A 
ATOM     14  N   UNL A   1      37.782  30.659  33.928  1.00  0.00    -0.202 NA
ATOM     15  C   UNL A   1      36.976  30.450  32.882  1.00  0.00     0.228 A 
ATOM     16  N   UNL A   1      36.240  31.379  32.242  1.00  0.00    -0.219 NA
BRANCH  12  17
ATOM     17  O   UNL A   1      38.624  32.222  35.415  1.00  0.00    -0.478 OA
BRANCH  17  18
ATOM     18  C   UNL A   1      38.142  31.473  36.543  1.00  0.00     0.231 C 
BRANCH  18  19
ATOM     19  C   UNL A   1      38.165  32.324  37.820  1.00  0.00     0.038 C 
ATOM     20  C   UNL A   1      37.041  33.354  37.880  1.00  0.00     0.007 C 
ENDBRANCH  18  19
ENDBRANCH  17  18
ENDBRANCH  12  17
ENDBRANCH   9  11
ENDBRANCH   8   9
ENDBRANCH   4   8
ENDBRANCH   1   3
BRANCH   1  21
ATOM     21  O   UNL A   1      33.987  35.154  29.363  1.00  0.00    -0.460 OA
BRANCH  21  22
ATOM     22  C   UNL A   1      33.724  34.118  28.393  1.00  0.00     0.274 C 
BRANCH  22  23
ATOM     23  C   UNL A   1      34.404  32.801  28.770  1.00  0.00     0.275 C 
BRANCH  23  24
ATOM     24  O   UNL A   1      34.730  32.025  27.603  1.00  0.00    -0.458 OA
BRANCH  24  25
ATOM     25  C   UNL A   1      34.626  30.685  27.769  1.00  0.00     0.338 C 
ATOM     26  O   UNL A   1      33.629  30.000  27.626  1.00  0.00    -0.246 OA
BRANCH  25  27
ATOM     27  C   UNL A   1      35.953  30.114  28.055  1.00  0.00     0.060 A 
ATOM     28  C   UNL A   1      36.113  29.423  29.257  1.00  0.00     0.016 A 
ATOM     29  C   UNL A   1      37.045  30.322  27.211  1.00  0.00     0.016 A 
ATOM     30  C   UNL A   1      37.363  28.953  29.636  1.00  0.00     0.010 A 
ATOM     31  C   UNL A   1      38.307  29.846  27.590  1.00  0.00     0.010 A 
ATOM     32  C   UNL A   1      38.473  29.174  28.814  1.00  0.00    -0.014 A 
BRANCH  32  33
ATOM     33  C   UNL A   1      39.802  28.729  29.292  1.00  0.00     0.031 A 
ATOM     34  C   UNL A   1      40.500  29.486  30.384  1.00  0.00     0.074 A 
ATOM     35  C   UNL A   1      40.334  27.594  28.805  1.00  0.00     0.049 A 
ATOM     36  N   UNL A   1      41.629  29.213  30.989  1.00  0.00    -0.248 NA
ATOM     37  C   UNL A   1      39.842  30.712  30.860  1.00  0.00     0.031 C 
ATOM     38  C   UNL A   1      39.730  26.761  27.765  1.00  0.00     0.029 A 
ATOM     39  N   UNL A   1      41.491  26.936  29.134  1.00  0.00    -0.354 N 
ATOM     40  C   UNL A   1      41.817  30.230  31.914  1.00  0.00     0.074 A 
ATOM     41  C   UNL A   1      40.703  31.144  31.771  1.00  0.00     0.031 C 
ATOM     42  C   UNL A   1      40.513  25.691  27.554  1.00  0.00     0.029 A 
ATOM     43  C   UNL A   1      41.682  25.777  28.425  1.00  0.00     0.049 A 
ATOM     44  H   UNL A   1      42.124  27.263  29.814  1.00  0.00     0.167 HD
ATOM     45  C   UNL A   1      42.824  30.381  32.809  1.00  0.00     0.037 A 
ATOM     46  C   UNL A   1      42.688  24.884  28.476  1.00  0.00     0.037 A 
ATOM     47  C   UNL A   1      43.926  29.466  32.955  1.00  0.00     0.049 A 
ATOM     48  C   UNL A   1      43.805  25.091  29.462  1.00  0.00     0.074 A 
ATOM     49  C   UNL A   1      44.991  29.529  33.836  1.00  0.00     0.029 A 
ATOM     50  N   UNL A   1      44.104  28.318  32.197  1.00  0.00    -0.354 N 
ATOM     51  N   UNL A   1      43.966  26.047  30.343  1.00  0.00    -0.248 NA
ATOM     52  C   UNL A   1      44.877  24.085  29.464  1.00  0.00     0.031 C 
ATOM     53  C   UNL A   1      45.833  28.440  33.588  1.00  0.00     0.029 A 
ATOM     54  C   UNL A   1      45.269  27.672  32.581  1.00  0.00     0.049 A 
ATOM     55  H   UNL A   1      43.492  28.007  31.492  1.00  0.00     0.167 HD
ATOM     56  C   UNL A   1      45.141  25.750  31.018  1.00  0.00     0.074 A 
ATOM     57  C   UNL A   1      45.643  24.511  30.458  1.00  0.00     0.031 C 
ATOM     58  C   UNL A   1      45.754  26.441  32.011  1.00  0.00     0.037 A 
BRANCH  45  59
ATOM     59  C   UNL A   1      42.787  31.596  33.687  1.00  0.00     0.064 A 
ATOM     60  C   UNL A   1      43.393  32.801  33.302  1.00  0.00     0.173 A 
ATOM     61  C   UNL A   1      42.108  31.564  34.915  1.00  0.00     0.173 A 
ATOM     62  F   UNL A   1      44.065  32.878  32.144  1.00  0.00    -0.203 F 
ATOM     63  C   UNL A   1      43.339  33.924  34.125  1.00  0.00     0.198 A 
ATOM     64  C   UNL A   1      42.035  32.695  35.723  1.00  0.00     0.198 A 
ATOM     65  F   UNL A   1      41.510  30.436  35.326  1.00  0.00    -0.203 F 
ATOM     66  F   UNL A   1      43.957  35.054  33.756  1.00  0.00    -0.200 F 
ATOM     67  C   UNL A   1      42.655  33.872  35.331  1.00  0.00     0.200 A 
ATOM     68  F   UNL A   1      41.366  32.645  36.883  1.00  0.00    -0.200 F 
ATOM     69  F   UNL A   1      42.599  34.954  36.118  1.00  0.00    -0.200 F 
ENDBRANCH  45  59
BRANCH  46  70
ATOM     70  C   UNL A   1      42.676  23.706  27.574  1.00  0.00     0.064 A 
ATOM     71  C   UNL A   1      42.212  22.460  28.016  1.00  0.00     0.173 A 
ATOM     72  C   UNL A   1      43.134  23.802  26.252  1.00  0.00     0.173 A 
ATOM     73  F   UNL A   1      41.786  22.314  29.279  1.00  0.00    -0.203 F 
ATOM     74  C   UNL A   1      42.221  21.350  27.174  1.00  0.00     0.198 A 
ATOM     75  C   UNL A   1      43.118  22.698  25.403  1.00  0.00     0.198 A 
ATOM     76  F   UNL A   1      43.589  24.973  25.782  1.00  0.00    -0.203 F 
ATOM     77  F   UNL A   1      41.812  20.159  27.635  1.00  0.00    -0.200 F 
ATOM     78  C   UNL A   1      42.668  21.471  25.867  1.00  0.00     0.200 A 
ATOM     79  F   UNL A   1      43.543  22.822  24.138  1.00  0.00    -0.200 F 
ATOM     80  F   UNL A   1      42.675  20.404  25.057  1.00  0.00    -0.200 F 
ENDBRANCH  46  70
BRANCH  58  81
ATOM     81  C   UNL A   1      47.019  25.855  32.567  1.00  0.00     0.064 A 
ATOM     82  C   UNL A   1      48.276  26.187  32.039  1.00  0.00     0.173 A 
ATOM     83  C   UNL A   1      46.973  24.957  33.644  1.00  0.00     0.173 A 
ATOM     84  F   UNL A   1      48.370  27.029  30.999  1.00  0.00    -0.203 F 
ATOM     85  C   UNL A   1      49.438  25.613  32.547  1.00  0.00     0.198 A 
ATOM     86  C   UNL A   1      48.141  24.407  34.167  1.00  0.00     0.198 A 
ATOM     87  F   UNL A   1      45.797  24.613  34.189  1.00  0.00    -0.203 F 
ATOM     88  F   UNL A   1      50.623  25.901  31.991  1.00  0.00    -0.200 F 
ATOM     89  C   UNL A   1      49.370  24.727  33.612  1.00  0.00     0.200 A 
ATOM     90  F   UNL A   1      48.075  23.558  35.202  1.00  0.00    -0.200 F 
ATOM     91  F   UNL A   1      50.490  24.173  34.096  1.00  0.00    -0.200 F 
ENDBRANCH  58  81
ENDBRANCH  32  33
ENDBRANCH  25  27
ENDBRANCH  24  25
ENDBRANCH  23  24
ENDBRANCH  22  23
ENDBRANCH  21  22
ENDBRANCH   1  21
TORSDOF 17
ENDMDL
MODEL 3
REMARK VINA RESULT:     -11.0      1.252      2.243
REMARK SMILES CCCOc1cc(NC[C@H]2CC[C@@H](C(=O)OCCOC(=O)c3ccc(-c4c5nc(c(-c6c(F)c(F)c(F)c(F)c6F)c6ccc([nH]6)c(-c6c(F)c(F)c(F)c(F)c6F)c6nc(c(-c7c(F)c(F)c(F)c(F)c7F)c7ccc4[nH]7)C=C6)C=C5)cc3)O2)ncn1
REMARK SMILES IDX 14 1 15 2 13 3 10 4 11 5 85 6 12 7 9 8 8 9 7 11 5 12 6 13
REMARK SMILES IDX 88 14 87 15 86 16 4 17 3 18 2 19 1 20 16 21 17 22 18 23
REMARK SMILES IDX 19 24 20 25 21 26 22 27 23 28 84 29 24 30 83 31 25 32 26 33
REMARK SMILES IDX 27 34 77 35 28 36 82 37 76 38 78 39 29 40 81 41 75 42 74 43
REMARK SMILES IDX 30 45 62 46 42 47 61 48 43 49 46 50 60 51 79 52 44 53 45 54
REMARK SMILES IDX 59 56 80 57 47 58 31 59 32 60 40 61 33 62 34 63 38 64 41 65
REMARK SMILES IDX 35 66 36 67 39 68 37 69 63 70 64 71 72 72 65 73 66 74 70 75
REMARK SMILES IDX 73 76 67 77 68 78 71 79 69 80 48 81 49 82 57 83 50 84 51 85
REMARK SMILES IDX 55 86 58 87 52 88 53 89 56 90 54 91
REMARK H PARENT 8 10 78 44 46 55
REMARK Flexibility Score: inf
ROOT
ATOM      1  C   UNL A   1      34.245  22.949  23.473  1.00  0.00     0.335 C 
ATOM      2  O   UNL A   1      34.824  23.320  22.457  1.00  0.00    -0.249 OA
ENDROOT
BRANCH   1   3
ATOM      3  C   UNL A   1      32.719  22.809  23.559  1.00  0.00     0.228 C 
ATOM      4  C   UNL A   1      31.127  23.288  25.231  1.00  0.00     0.138 C 
ATOM      5  C   UNL A   1      30.650  23.863  23.904  1.00  0.00     0.037 C 
ATOM      6  O   UNL A   1      32.235  22.433  24.860  1.00  0.00    -0.361 OA
ATOM      7  C   UNL A   1      31.941  24.048  23.145  1.00  0.00     0.047 C 
BRANCH   4   8
ATOM      8  C   UNL A   1      31.629  24.304  26.282  1.00  0.00     0.146 C 
BRANCH   8   9
ATOM      9  N   UNL A   1      30.721  25.416  26.487  1.00  0.00    -0.367 N 
ATOM     10  H   UNL A   1      29.785  25.227  26.726  1.00  0.00     0.162 HD
BRANCH   9  11
ATOM     11  C   UNL A   1      31.122  26.732  26.360  1.00  0.00     0.133 A 
ATOM     12  C   UNL A   1      31.227  28.674  25.062  1.00  0.00     0.218 A 
ATOM     13  C   UNL A   1      31.010  27.320  25.120  1.00  0.00     0.115 A 
ATOM     14  N   UNL A   1      31.644  29.420  26.090  1.00  0.00    -0.202 NA
ATOM     15  C   UNL A   1      31.787  28.742  27.234  1.00  0.00     0.228 A 
ATOM     16  N   UNL A   1      31.502  27.442  27.433  1.00  0.00    -0.219 NA
BRANCH  12  17
ATOM     17  O   UNL A   1      30.983  29.317  23.873  1.00  0.00    -0.478 OA
BRANCH  17  18
ATOM     18  C   UNL A   1      31.714  28.688  22.807  1.00  0.00     0.231 C 
BRANCH  18  19
ATOM     19  C   UNL A   1      33.214  28.997  22.910  1.00  0.00     0.038 C 
ATOM     20  C   UNL A   1      34.075  28.125  22.001  1.00  0.00     0.007 C 
ENDBRANCH  18  19
ENDBRANCH  17  18
ENDBRANCH  12  17
ENDBRANCH   9  11
ENDBRANCH   8   9
ENDBRANCH   4   8
ENDBRANCH   1   3
BRANCH   1  21
ATOM     21  O   UNL A   1      34.871  22.595  24.630  1.00  0.00    -0.460 OA
BRANCH  21  22
ATOM     22  C   UNL A   1      35.531  21.311  24.636  1.00  0.00     0.274 C 
BRANCH  22  23
ATOM     23  C   UNL A   1      37.054  21.454  24.647  1.00  0.00     0.275 C 
BRANCH  23  24
ATOM     24  O   UNL A   1      37.556  21.623  25.984  1.00  0.00    -0.458 OA
BRANCH  24  25
ATOM     25  C   UNL A   1      38.896  21.465  26.109  1.00  0.00     0.338 C 
ATOM     26  O   UNL A   1      39.562  20.515  25.740  1.00  0.00    -0.246 OA
BRANCH  25  27
ATOM     27  C   UNL A   1      39.491  22.686  26.676  1.00  0.00     0.060 A 
ATOM     28  C   UNL A   1      39.049  23.912  26.175  1.00  0.00     0.016 A 
ATOM     29  C   UNL A   1      40.522  22.639  27.615  1.00  0.00     0.016 A 
ATOM     30  C   UNL A   1      39.645  25.096  26.590  1.00  0.00     0.010 A 
ATOM     31  C   UNL A   1      41.122  23.832  28.038  1.00  0.00     0.010 A 
ATOM     32  C   UNL A   1      40.697  25.065  27.513  1.00  0.00    -0.014 A 
BRANCH  32  33
ATOM     33  C   UNL A   1      41.358  26.341  27.867  1.00  0.00     0.031 A 
ATOM     34  C   UNL A   1      42.753  26.623  27.389  1.00  0.00     0.074 A 
ATOM     35  C   UNL A   1      40.669  27.279  28.540  1.00  0.00     0.049 A 
ATOM     36  N   UNL A   1      43.473  27.708  27.529  1.00  0.00    -0.248 NA
ATOM     37  C   UNL A   1      43.428  25.542  26.654  1.00  0.00     0.031 C 
ATOM     38  C   UNL A   1      39.298  27.127  29.027  1.00  0.00     0.029 A 
ATOM     39  N   UNL A   1      41.019  28.551  28.913  1.00  0.00    -0.354 N 
ATOM     40  C   UNL A   1      44.682  27.441  26.904  1.00  0.00     0.074 A 
ATOM     41  C   UNL A   1      44.614  26.082  26.410  1.00  0.00     0.031 C 
ATOM     42  C   UNL A   1      38.916  28.270  29.619  1.00  0.00     0.029 A 
ATOM     43  C   UNL A   1      40.022  29.222  29.574  1.00  0.00     0.049 A 
ATOM     44  H   UNL A   1      41.902  28.945  28.725  1.00  0.00     0.167 HD
ATOM     45  C   UNL A   1      45.750  28.262  26.748  1.00  0.00     0.037 A 
ATOM     46  C   UNL A   1      40.004  30.468  30.083  1.00  0.00     0.037 A 
ATOM     47  C   UNL A   1      45.813  29.617  27.233  1.00  0.00     0.049 A 
ATOM     48  C   UNL A   1      41.212  31.348  29.917  1.00  0.00     0.074 A 
ATOM     49  C   UNL A   1      46.847  30.529  27.119  1.00  0.00     0.029 A 
ATOM     50  N   UNL A   1      44.793  30.254  27.927  1.00  0.00    -0.354 N 
ATOM     51  N   UNL A   1      42.345  31.093  29.310  1.00  0.00    -0.248 NA
ATOM     52  C   UNL A   1      41.132  32.695  30.500  1.00  0.00     0.031 C 
ATOM     53  C   UNL A   1      46.469  31.706  27.775  1.00  0.00     0.029 A 
ATOM     54  C   UNL A   1      45.181  31.543  28.260  1.00  0.00     0.049 A 
ATOM     55  H   UNL A   1      43.924  29.851  28.148  1.00  0.00     0.167 HD
ATOM     56  C   UNL A   1      43.105  32.249  29.419  1.00  0.00     0.074 A 
ATOM     57  C   UNL A   1      42.294  33.215  30.133  1.00  0.00     0.031 C 
ATOM     58  C   UNL A   1      44.362  32.490  28.972  1.00  0.00     0.037 A 
BRANCH  45  59
ATOM     59  C   UNL A   1      46.948  27.706  26.038  1.00  0.00     0.064 A 
ATOM     60  C   UNL A   1      47.049  27.726  24.639  1.00  0.00     0.173 A 
ATOM     61  C   UNL A   1      48.024  27.178  26.768  1.00  0.00     0.173 A 
ATOM     62  F   UNL A   1      46.042  28.209  23.896  1.00  0.00    -0.203 F 
ATOM     63  C   UNL A   1      48.175  27.217  23.996  1.00  0.00     0.198 A 
ATOM     64  C   UNL A   1      49.158  26.692  26.123  1.00  0.00     0.198 A 
ATOM     65  F   UNL A   1      47.977  27.140  28.108  1.00  0.00    -0.203 F 
ATOM     66  F   UNL A   1      48.234  27.210  22.657  1.00  0.00    -0.200 F 
ATOM     67  C   UNL A   1      49.230  26.707  24.738  1.00  0.00     0.200 A 
ATOM     68  F   UNL A   1      50.180  26.208  26.841  1.00  0.00    -0.200 F 
ATOM     69  F   UNL A   1      50.315  26.223  24.118  1.00  0.00    -0.200 F 
ENDBRANCH  45  59
BRANCH  46  70
ATOM     70  C   UNL A   1      38.793  30.961  30.785  1.00  0.00     0.064 A 
ATOM     71  C   UNL A   1      38.678  30.871  32.178  1.00  0.00     0.173 A 
ATOM     72  C   UNL A   1      37.723  31.526  30.075  1.00  0.00     0.173 A 
ATOM     73  F   UNL A   1      39.664  30.317  32.898  1.00  0.00    -0.203 F 
ATOM     74  C   UNL A   1      37.531  31.314  32.835  1.00  0.00     0.198 A 
ATOM     75  C   UNL A   1      36.589  31.993  30.735  1.00  0.00     0.198 A 
ATOM     76  F   UNL A   1      37.786  31.633  28.739  1.00  0.00    -0.203 F 
ATOM     77  F   UNL A   1      37.428  31.178  34.164  1.00  0.00    -0.200 F 
ATOM     78  C   UNL A   1      36.490  31.880  32.113  1.00  0.00     0.200 A 
ATOM     79  F   UNL A   1      35.589  32.547  30.034  1.00  0.00    -0.200 F 
ATOM     80  F   UNL A   1      35.389  32.308  32.745  1.00  0.00    -0.200 F 
ENDBRANCH  46  70
BRANCH  58  81
ATOM     81  C   UNL A   1      44.922  33.860  29.222  1.00  0.00     0.064 A 
ATOM     82  C   UNL A   1      44.791  34.890  28.279  1.00  0.00     0.173 A 
ATOM     83  C   UNL A   1      45.590  34.146  30.421  1.00  0.00     0.173 A 
ATOM     84  F   UNL A   1      44.174  34.660  27.110  1.00  0.00    -0.203 F 
ATOM     85  C   UNL A   1      45.341  36.148  28.513  1.00  0.00     0.198 A 
ATOM     86  C   UNL A   1      46.114  35.414  30.664  1.00  0.00     0.198 A 
ATOM     87  F   UNL A   1      45.736  33.198  31.359  1.00  0.00    -0.203 F 
ATOM     88  F   UNL A   1      45.253  37.100  27.574  1.00  0.00    -0.200 F 
ATOM     89  C   UNL A   1      45.998  36.409  29.706  1.00  0.00     0.200 A 
ATOM     90  F   UNL A   1      46.741  35.669  31.821  1.00  0.00    -0.200 F 
ATOM     91  F   UNL A   1      46.530  37.619  29.927  1.00  0.00    -0.200 F 
ENDBRANCH  58  81
ENDBRANCH  32  33
ENDBRANCH  25  27
ENDBRANCH  24  25
ENDBRANCH  23  24
ENDBRANCH  22  23
ENDBRANCH  21  22
ENDBRANCH   1  21
TORSDOF 17
ENDMDL
