MODEL 1
REMARK VINA RESULT:     -10.9      0.000      0.000
REMARK SMILES CCC(CC)([NH2+]Cc1ccc(I)cc1)C(=O)OCCOC(=O)c1ccc(-c2c3nc(c(-c4c(F)c(F)c(F)c(F)c4F)c4ccc([nH]4)c(-c4c(F)c(F)c(F)c(F)c4F)c4nc(c(-c5c(F)c(F)c(F)c(F)c5F)c5ccc2[nH]5)C=C4)C=C3)cc1
REMARK SMILES IDX 18 1 17 2 15 3 16 4 3 5 2 6 1 7 4 8 5 9 6 10 7 13 8 14 9 15
REMARK SMILES IDX 14 16 10 17 13 18 11 19 12 20 19 21 20 22 21 23 22 24 23 25
REMARK SMILES IDX 24 26 85 27 25 28 84 29 26 30 27 31 28 32 78 33 29 34 83 35
REMARK SMILES IDX 77 36 79 37 30 38 82 39 76 40 75 41 31 43 63 44 43 45 62 46
REMARK SMILES IDX 44 47 47 48 61 49 80 50 45 51 46 52 60 54 81 55 48 56 32 57
REMARK SMILES IDX 33 58 41 59 34 60 35 61 39 62 42 63 36 64 37 65 40 66 38 67
REMARK SMILES IDX 64 68 65 69 73 70 66 71 67 72 71 73 74 74 68 75 69 76 72 77
REMARK SMILES IDX 70 78 49 79 50 80 58 81 51 82 52 83 56 84 59 85 53 86 54 87
REMARK SMILES IDX 57 88 55 89
REMARK H PARENT 6 11 6 12 79 42 47 53
REMARK Flexibility Score: inf
ROOT
ATOM      1  C   UNL A   1      42.170  19.165  26.080  1.00  0.00     0.274 C 
ENDROOT
BRANCH   1   2
ATOM      2  O   UNL A   1      42.848  20.044  25.155  1.00  0.00    -0.457 OA
BRANCH   2   3
ATOM      3  C   UNL A   1      44.201  20.136  25.289  1.00  0.00     0.368 C 
ATOM      4  O   UNL A   1      44.937  19.155  25.316  1.00  0.00    -0.245 OA
BRANCH   3   5
ATOM      5  C   UNL A   1      44.726  21.605  25.409  1.00  0.00     0.194 C 
BRANCH   5   6
ATOM      6  C   UNL A   1      43.888  22.523  24.467  1.00  0.00     0.077 C 
ATOM      7  C   UNL A   1      42.900  23.471  25.144  1.00  0.00     0.011 C 
ENDBRANCH   5   6
BRANCH   5   8
ATOM      8  C   UNL A   1      46.217  21.599  24.957  1.00  0.00     0.077 C 
ATOM      9  C   UNL A   1      46.667  22.756  24.078  1.00  0.00     0.011 C 
ENDBRANCH   5   8
BRANCH   5  10
ATOM     10  N   UNL A   1      44.506  22.213  26.757  1.00  0.00    -0.328 N 
ATOM     11  H   UNL A   1      44.494  21.440  27.422  1.00  0.00     0.347 HD
ATOM     12  H   UNL A   1      43.651  22.752  26.617  1.00  0.00     0.347 HD
BRANCH  10  13
ATOM     13  C   UNL A   1      45.418  23.213  27.305  1.00  0.00     0.298 C 
BRANCH  13  14
ATOM     14  C   UNL A   1      45.097  23.677  28.698  1.00  0.00     0.006 A 
ATOM     15  C   UNL A   1      45.728  24.809  29.234  1.00  0.00     0.010 A 
ATOM     16  C   UNL A   1      44.189  22.962  29.493  1.00  0.00     0.010 A 
ATOM     17  C   UNL A   1      45.494  25.188  30.557  1.00  0.00     0.015 A 
ATOM     18  C   UNL A   1      43.975  23.323  30.823  1.00  0.00     0.015 A 
ATOM     19  C   UNL A   1      44.635  24.431  31.352  1.00  0.00     0.013 A 
ATOM     20  I   UNL A   1      44.356  24.939  33.346  1.00  0.00    -0.044 I 
ENDBRANCH  13  14
ENDBRANCH  10  13
ENDBRANCH   5  10
ENDBRANCH   3   5
ENDBRANCH   2   3
ENDBRANCH   1   2
BRANCH   1  21
ATOM     21  C   UNL A   1      40.704  19.569  26.162  1.00  0.00     0.275 C 
BRANCH  21  22
ATOM     22  O   UNL A   1      40.679  20.869  26.771  1.00  0.00    -0.458 OA
BRANCH  22  23
ATOM     23  C   UNL A   1      39.651  21.669  26.420  1.00  0.00     0.338 C 
ATOM     24  O   UNL A   1      38.649  21.378  25.796  1.00  0.00    -0.246 OA
BRANCH  23  25
ATOM     25  C   UNL A   1      39.899  22.994  27.009  1.00  0.00     0.060 A 
ATOM     26  C   UNL A   1      39.298  24.111  26.427  1.00  0.00     0.016 A 
ATOM     27  C   UNL A   1      40.815  23.148  28.045  1.00  0.00     0.016 A 
ATOM     28  C   UNL A   1      39.686  25.392  26.809  1.00  0.00     0.010 A 
ATOM     29  C   UNL A   1      41.138  24.436  28.487  1.00  0.00     0.010 A 
ATOM     30  C   UNL A   1      40.621  25.572  27.835  1.00  0.00    -0.014 A 
BRANCH  30  31
ATOM     31  C   UNL A   1      41.167  26.928  28.124  1.00  0.00     0.031 A 
ATOM     32  C   UNL A   1      42.587  27.246  27.729  1.00  0.00     0.074 A 
ATOM     33  C   UNL A   1      40.410  27.897  28.678  1.00  0.00     0.049 A 
ATOM     34  N   UNL A   1      43.335  28.269  28.057  1.00  0.00    -0.248 NA
ATOM     35  C   UNL A   1      43.258  26.269  26.857  1.00  0.00     0.031 C 
ATOM     36  C   UNL A   1      38.996  27.778  29.031  1.00  0.00     0.029 A 
ATOM     37  N   UNL A   1      40.731  29.188  29.025  1.00  0.00    -0.354 N 
ATOM     38  C   UNL A   1      44.584  28.016  27.503  1.00  0.00     0.074 A 
ATOM     39  C   UNL A   1      44.490  26.751  26.806  1.00  0.00     0.031 C 
ATOM     40  C   UNL A   1      38.561  28.956  29.505  1.00  0.00     0.029 A 
ATOM     41  C   UNL A   1      39.682  29.890  29.567  1.00  0.00     0.049 A 
ATOM     42  H   UNL A   1      41.627  29.573  28.898  1.00  0.00     0.167 HD
ATOM     43  C   UNL A   1      45.709  28.766  27.576  1.00  0.00     0.037 A 
ATOM     44  C   UNL A   1      39.638  31.132  30.088  1.00  0.00     0.037 A 
ATOM     45  C   UNL A   1      45.780  30.064  28.192  1.00  0.00     0.049 A 
ATOM     46  C   UNL A   1      40.899  31.952  30.154  1.00  0.00     0.074 A 
ATOM     47  C   UNL A   1      46.876  30.899  28.328  1.00  0.00     0.029 A 
ATOM     48  N   UNL A   1      44.697  30.732  28.743  1.00  0.00    -0.354 N 
ATOM     49  N   UNL A   1      42.102  31.659  29.726  1.00  0.00    -0.248 NA
ATOM     50  C   UNL A   1      40.798  33.268  30.801  1.00  0.00     0.031 C 
ATOM     51  C   UNL A   1      46.458  32.067  28.976  1.00  0.00     0.029 A 
ATOM     52  C   UNL A   1      45.097  31.971  29.214  1.00  0.00     0.049 A 
ATOM     53  H   UNL A   1      43.780  30.377  28.793  1.00  0.00     0.167 HD
ATOM     54  C   UNL A   1      42.895  32.756  30.035  1.00  0.00     0.074 A 
ATOM     55  C   UNL A   1      42.033  33.730  30.671  1.00  0.00     0.031 C 
ATOM     56  C   UNL A   1      44.221  32.936  29.822  1.00  0.00     0.037 A 
BRANCH  43  57
ATOM     57  C   UNL A   1      46.966  28.178  27.012  1.00  0.00     0.064 A 
ATOM     58  C   UNL A   1      47.927  27.557  27.821  1.00  0.00     0.173 A 
ATOM     59  C   UNL A   1      47.202  28.228  25.629  1.00  0.00     0.173 A 
ATOM     60  F   UNL A   1      47.756  27.502  29.151  1.00  0.00    -0.203 F 
ATOM     61  C   UNL A   1      49.092  27.030  27.269  1.00  0.00     0.198 A 
ATOM     62  C   UNL A   1      48.355  27.677  25.078  1.00  0.00     0.198 A 
ATOM     63  F   UNL A   1      46.312  28.810  24.812  1.00  0.00    -0.203 F 
ATOM     64  F   UNL A   1      50.021  26.483  28.065  1.00  0.00    -0.200 F 
ATOM     65  C   UNL A   1      49.302  27.085  25.899  1.00  0.00     0.200 A 
ATOM     66  F   UNL A   1      48.551  27.725  23.753  1.00  0.00    -0.200 F 
ATOM     67  F   UNL A   1      50.424  26.576  25.370  1.00  0.00    -0.200 F 
ENDBRANCH  43  57
BRANCH  44  68
ATOM     68  C   UNL A   1      38.360  31.674  30.617  1.00  0.00     0.064 A 
ATOM     69  C   UNL A   1      37.985  31.457  31.951  1.00  0.00     0.173 A 
ATOM     70  C   UNL A   1      37.478  32.398  29.801  1.00  0.00     0.173 A 
ATOM     71  F   UNL A   1      38.781  30.744  32.762  1.00  0.00    -0.203 F 
ATOM     72  C   UNL A   1      36.773  31.932  32.444  1.00  0.00     0.198 A 
ATOM     73  C   UNL A   1      36.278  32.897  30.304  1.00  0.00     0.198 A 
ATOM     74  F   UNL A   1      37.786  32.626  28.517  1.00  0.00    -0.203 F 
ATOM     75  F   UNL A   1      36.418  31.672  33.710  1.00  0.00    -0.200 F 
ATOM     76  C   UNL A   1      35.923  32.658  31.623  1.00  0.00     0.200 A 
ATOM     77  F   UNL A   1      35.466  33.605  29.509  1.00  0.00    -0.200 F 
ATOM     78  F   UNL A   1      34.757  33.117  32.098  1.00  0.00    -0.200 F 
ENDBRANCH  44  68
BRANCH  56  79
ATOM     79  C   UNL A   1      44.810  34.251  30.238  1.00  0.00     0.064 A 
ATOM     80  C   UNL A   1      44.772  35.371  29.395  1.00  0.00     0.173 A 
ATOM     81  C   UNL A   1      45.390  34.398  31.506  1.00  0.00     0.173 A 
ATOM     82  F   UNL A   1      44.241  35.273  28.167  1.00  0.00    -0.203 F 
ATOM     83  C   UNL A   1      45.317  36.586  29.799  1.00  0.00     0.198 A 
ATOM     84  C   UNL A   1      45.914  35.621  31.915  1.00  0.00     0.198 A 
ATOM     85  F   UNL A   1      45.444  33.357  32.349  1.00  0.00    -0.203 F 
ATOM     86  F   UNL A   1      45.309  37.633  28.962  1.00  0.00    -0.200 F 
ATOM     87  C   UNL A   1      45.883  36.711  31.059  1.00  0.00     0.200 A 
ATOM     88  F   UNL A   1      46.454  35.743  33.136  1.00  0.00    -0.200 F 
ATOM     89  F   UNL A   1      46.407  37.884  31.446  1.00  0.00    -0.200 F 
ENDBRANCH  56  79
ENDBRANCH  30  31
ENDBRANCH  23  25
ENDBRANCH  22  23
ENDBRANCH  21  22
ENDBRANCH   1  21
TORSDOF 16
ENDMDL
MODEL 2
REMARK VINA RESULT:     -10.9      5.591      8.973
REMARK SMILES CCC(CC)([NH2+]Cc1ccc(I)cc1)C(=O)OCCOC(=O)c1ccc(-c2c3nc(c(-c4c(F)c(F)c(F)c(F)c4F)c4ccc([nH]4)c(-c4c(F)c(F)c(F)c(F)c4F)c4nc(c(-c5c(F)c(F)c(F)c(F)c5F)c5ccc2[nH]5)C=C4)C=C3)cc1
REMARK SMILES IDX 18 1 17 2 15 3 16 4 3 5 2 6 1 7 4 8 5 9 6 10 7 13 8 14 9 15
REMARK SMILES IDX 14 16 10 17 13 18 11 19 12 20 19 21 20 22 21 23 22 24 23 25
REMARK SMILES IDX 24 26 85 27 25 28 84 29 26 30 27 31 28 32 78 33 29 34 83 35
REMARK SMILES IDX 77 36 79 37 30 38 82 39 76 40 75 41 31 43 63 44 43 45 62 46
REMARK SMILES IDX 44 47 47 48 61 49 80 50 45 51 46 52 60 54 81 55 48 56 32 57
REMARK SMILES IDX 33 58 41 59 34 60 35 61 39 62 42 63 36 64 37 65 40 66 38 67
REMARK SMILES IDX 64 68 65 69 73 70 66 71 67 72 71 73 74 74 68 75 69 76 72 77
REMARK SMILES IDX 70 78 49 79 50 80 58 81 51 82 52 83 56 84 59 85 53 86 54 87
REMARK SMILES IDX 57 88 55 89
REMARK H PARENT 6 11 6 12 79 42 47 53
REMARK Flexibility Score: inf
ROOT
ATOM      1  C   UNL A   1      32.619  29.339  24.896  1.00  0.00     0.274 C 
ENDROOT
BRANCH   1   2
ATOM      2  O   UNL A   1      32.159  27.990  25.133  1.00  0.00    -0.457 OA
BRANCH   2   3
ATOM      3  C   UNL A   1      33.122  27.045  25.319  1.00  0.00     0.368 C 
ATOM      4  O   UNL A   1      34.068  27.199  26.085  1.00  0.00    -0.245 OA
BRANCH   3   5
ATOM      5  C   UNL A   1      32.913  25.751  24.464  1.00  0.00     0.194 C 
BRANCH   5   6
ATOM      6  C   UNL A   1      32.753  26.153  22.966  1.00  0.00     0.077 C 
ATOM      7  C   UNL A   1      31.379  25.916  22.342  1.00  0.00     0.011 C 
ENDBRANCH   5   6
BRANCH   5   8
ATOM      8  C   UNL A   1      31.609  25.068  24.975  1.00  0.00     0.077 C 
ATOM      9  C   UNL A   1      31.716  24.280  26.272  1.00  0.00     0.011 C 
ENDBRANCH   5   8
BRANCH   5  10
ATOM     10  N   UNL A   1      34.102  24.845  24.447  1.00  0.00    -0.328 N 
ATOM     11  H   UNL A   1      34.099  24.349  25.338  1.00  0.00     0.347 HD
ATOM     12  H   UNL A   1      34.866  25.491  24.248  1.00  0.00     0.347 HD
BRANCH  10  13
ATOM     13  C   UNL A   1      34.276  23.829  23.412  1.00  0.00     0.298 C 
BRANCH  13  14
ATOM     14  C   UNL A   1      33.883  22.434  23.812  1.00  0.00     0.006 A 
ATOM     15  C   UNL A   1      34.720  21.667  24.633  1.00  0.00     0.010 A 
ATOM     16  C   UNL A   1      32.690  21.870  23.337  1.00  0.00     0.010 A 
ATOM     17  C   UNL A   1      34.396  20.342  24.933  1.00  0.00     0.015 A 
ATOM     18  C   UNL A   1      32.378  20.539  23.612  1.00  0.00     0.015 A 
ATOM     19  C   UNL A   1      33.237  19.778  24.403  1.00  0.00     0.013 A 
ATOM     20  I   UNL A   1      32.799  17.781  24.771  1.00  0.00    -0.044 I 
ENDBRANCH  13  14
ENDBRANCH  10  13
ENDBRANCH   5  10
ENDBRANCH   3   5
ENDBRANCH   2   3
ENDBRANCH   1   2
BRANCH   1  21
ATOM     21  C   UNL A   1      31.798  30.298  25.747  1.00  0.00     0.275 C 
BRANCH  21  22
ATOM     22  O   UNL A   1      32.477  30.399  27.008  1.00  0.00    -0.458 OA
BRANCH  22  23
ATOM     23  C   UNL A   1      33.114  31.563  27.248  1.00  0.00     0.338 C 
ATOM     24  O   UNL A   1      32.669  32.693  27.181  1.00  0.00    -0.246 OA
BRANCH  23  25
ATOM     25  C   UNL A   1      34.474  31.239  27.708  1.00  0.00     0.060 A 
ATOM     26  C   UNL A   1      34.793  29.907  27.977  1.00  0.00     0.016 A 
ATOM     27  C   UNL A   1      35.385  32.252  27.991  1.00  0.00     0.016 A 
ATOM     28  C   UNL A   1      35.983  29.591  28.626  1.00  0.00     0.010 A 
ATOM     29  C   UNL A   1      36.618  31.922  28.564  1.00  0.00     0.010 A 
ATOM     30  C   UNL A   1      36.906  30.595  28.941  1.00  0.00    -0.014 A 
BRANCH  30  31
ATOM     31  C   UNL A   1      38.093  30.286  29.787  1.00  0.00     0.031 A 
ATOM     32  C   UNL A   1      39.205  29.447  29.209  1.00  0.00     0.074 A 
ATOM     33  C   UNL A   1      38.227  30.780  31.033  1.00  0.00     0.049 A 
ATOM     34  N   UNL A   1      40.223  28.884  29.810  1.00  0.00    -0.248 NA
ATOM     35  C   UNL A   1      39.153  29.199  27.760  1.00  0.00     0.031 C 
ATOM     36  C   UNL A   1      37.286  31.680  31.700  1.00  0.00     0.029 A 
ATOM     37  N   UNL A   1      39.228  30.603  31.959  1.00  0.00    -0.354 N 
ATOM     38  C   UNL A   1      40.880  28.150  28.829  1.00  0.00     0.074 A 
ATOM     39  C   UNL A   1      40.155  28.350  27.593  1.00  0.00     0.031 C 
ATOM     40  C   UNL A   1      37.774  32.009  32.907  1.00  0.00     0.029 A 
ATOM     41  C   UNL A   1      39.018  31.280  33.135  1.00  0.00     0.049 A 
ATOM     42  H   UNL A   1      40.021  30.044  31.793  1.00  0.00     0.167 HD
ATOM     43  C   UNL A   1      41.982  27.374  28.951  1.00  0.00     0.037 A 
ATOM     44  C   UNL A   1      39.730  31.285  34.279  1.00  0.00     0.037 A 
ATOM     45  C   UNL A   1      42.754  27.244  30.158  1.00  0.00     0.049 A 
ATOM     46  C   UNL A   1      40.956  30.418  34.393  1.00  0.00     0.074 A 
ATOM     47  C   UNL A   1      43.880  26.472  30.387  1.00  0.00     0.029 A 
ATOM     48  N   UNL A   1      42.497  27.935  31.332  1.00  0.00    -0.354 N 
ATOM     49  N   UNL A   1      41.508  29.641  33.493  1.00  0.00    -0.248 NA
ATOM     50  C   UNL A   1      41.643  30.412  35.692  1.00  0.00     0.031 C 
ATOM     51  C   UNL A   1      44.297  26.686  31.706  1.00  0.00     0.029 A 
ATOM     52  C   UNL A   1      43.448  27.615  32.286  1.00  0.00     0.049 A 
ATOM     53  H   UNL A   1      41.750  28.561  31.467  1.00  0.00     0.167 HD
ATOM     54  C   UNL A   1      42.612  29.068  34.111  1.00  0.00     0.074 A 
ATOM     55  C   UNL A   1      42.664  29.602  35.455  1.00  0.00     0.031 C 
ATOM     56  C   UNL A   1      43.498  28.172  33.611  1.00  0.00     0.037 A 
BRANCH  43  57
ATOM     57  C   UNL A   1      42.391  26.568  27.756  1.00  0.00     0.064 A 
ATOM     58  C   UNL A   1      41.824  25.318  27.470  1.00  0.00     0.173 A 
ATOM     59  C   UNL A   1      43.364  27.067  26.876  1.00  0.00     0.173 A 
ATOM     60  F   UNL A   1      40.906  24.790  28.293  1.00  0.00    -0.203 F 
ATOM     61  C   UNL A   1      42.234  24.586  26.358  1.00  0.00     0.198 A 
ATOM     62  C   UNL A   1      43.752  26.344  25.752  1.00  0.00     0.198 A 
ATOM     63  F   UNL A   1      43.936  28.258  27.106  1.00  0.00    -0.203 F 
ATOM     64  F   UNL A   1      41.714  23.373  26.127  1.00  0.00    -0.200 F 
ATOM     65  C   UNL A   1      43.192  25.102  25.498  1.00  0.00     0.200 A 
ATOM     66  F   UNL A   1      44.673  26.849  24.918  1.00  0.00    -0.200 F 
ATOM     67  F   UNL A   1      43.584  24.396  24.428  1.00  0.00    -0.200 F 
ENDBRANCH  43  57
BRANCH  44  68
ATOM     68  C   UNL A   1      39.288  32.117  35.428  1.00  0.00     0.064 A 
ATOM     69  C   UNL A   1      39.703  33.451  35.550  1.00  0.00     0.173 A 
ATOM     70  C   UNL A   1      38.465  31.594  36.436  1.00  0.00     0.173 A 
ATOM     71  F   UNL A   1      40.516  33.986  34.627  1.00  0.00    -0.203 F 
ATOM     72  C   UNL A   1      39.321  34.226  36.643  1.00  0.00     0.198 A 
ATOM     73  C   UNL A   1      38.060  32.379  37.514  1.00  0.00     0.198 A 
ATOM     74  F   UNL A   1      38.047  30.322  36.370  1.00  0.00    -0.203 F 
ATOM     75  F   UNL A   1      39.768  35.483  36.759  1.00  0.00    -0.200 F 
ATOM     76  C   UNL A   1      38.494  33.692  37.620  1.00  0.00     0.200 A 
ATOM     77  F   UNL A   1      37.255  31.862  38.451  1.00  0.00    -0.200 F 
ATOM     78  F   UNL A   1      38.126  34.439  38.671  1.00  0.00    -0.200 F 
ENDBRANCH  44  68
BRANCH  56  79
ATOM     79  C   UNL A   1      44.623  27.748  34.507  1.00  0.00     0.064 A 
ATOM     80  C   UNL A   1      45.833  28.455  34.549  1.00  0.00     0.173 A 
ATOM     81  C   UNL A   1      44.474  26.640  35.354  1.00  0.00     0.173 A 
ATOM     82  F   UNL A   1      46.026  29.511  33.745  1.00  0.00    -0.203 F 
ATOM     83  C   UNL A   1      46.865  28.052  35.391  1.00  0.00     0.198 A 
ATOM     84  C   UNL A   1      45.501  26.254  36.212  1.00  0.00     0.198 A 
ATOM     85  F   UNL A   1      43.333  25.936  35.352  1.00  0.00    -0.203 F 
ATOM     86  F   UNL A   1      48.029  28.715  35.387  1.00  0.00    -0.200 F 
ATOM     87  C   UNL A   1      46.696  26.956  36.225  1.00  0.00     0.200 A 
ATOM     88  F   UNL A   1      45.334  25.199  37.021  1.00  0.00    -0.200 F 
ATOM     89  F   UNL A   1      47.692  26.570  37.036  1.00  0.00    -0.200 F 
ENDBRANCH  56  79
ENDBRANCH  30  31
ENDBRANCH  23  25
ENDBRANCH  22  23
ENDBRANCH  21  22
ENDBRANCH   1  21
TORSDOF 16
ENDMDL
MODEL 3
REMARK VINA RESULT:     -10.9      5.046     11.636
REMARK SMILES CCC(CC)([NH2+]Cc1ccc(I)cc1)C(=O)OCCOC(=O)c1ccc(-c2c3nc(c(-c4c(F)c(F)c(F)c(F)c4F)c4ccc([nH]4)c(-c4c(F)c(F)c(F)c(F)c4F)c4nc(c(-c5c(F)c(F)c(F)c(F)c5F)c5ccc2[nH]5)C=C4)C=C3)cc1
REMARK SMILES IDX 18 1 17 2 15 3 16 4 3 5 2 6 1 7 4 8 5 9 6 10 7 13 8 14 9 15
REMARK SMILES IDX 14 16 10 17 13 18 11 19 12 20 19 21 20 22 21 23 22 24 23 25
REMARK SMILES IDX 24 26 85 27 25 28 84 29 26 30 27 31 28 32 78 33 29 34 83 35
REMARK SMILES IDX 77 36 79 37 30 38 82 39 76 40 75 41 31 43 63 44 43 45 62 46
REMARK SMILES IDX 44 47 47 48 61 49 80 50 45 51 46 52 60 54 81 55 48 56 32 57
REMARK SMILES IDX 33 58 41 59 34 60 35 61 39 62 42 63 36 64 37 65 40 66 38 67
REMARK SMILES IDX 64 68 65 69 73 70 66 71 67 72 71 73 74 74 68 75 69 76 72 77
REMARK SMILES IDX 70 78 49 79 50 80 58 81 51 82 52 83 56 84 59 85 53 86 54 87
REMARK SMILES IDX 57 88 55 89
REMARK H PARENT 6 11 6 12 79 42 47 53
REMARK Flexibility Score: inf
ROOT
ATOM      1  C   UNL A   1      33.304  35.066  29.569  1.00  0.00     0.274 C 
ENDROOT
BRANCH   1   2
ATOM      2  O   UNL A   1      34.586  34.583  30.031  1.00  0.00    -0.457 OA
BRANCH   2   3
ATOM      3  C   UNL A   1      34.595  33.945  31.234  1.00  0.00     0.368 C 
ATOM      4  O   UNL A   1      34.041  32.866  31.421  1.00  0.00    -0.245 OA
BRANCH   3   5
ATOM      5  C   UNL A   1      35.370  34.715  32.353  1.00  0.00     0.194 C 
BRANCH   5   6
ATOM      6  C   UNL A   1      35.165  33.979  33.713  1.00  0.00     0.077 C 
ATOM      7  C   UNL A   1      36.359  33.964  34.665  1.00  0.00     0.011 C 
ENDBRANCH   5   6
BRANCH   5   8
ATOM      8  C   UNL A   1      34.765  36.149  32.428  1.00  0.00     0.077 C 
ATOM      9  C   UNL A   1      33.960  36.484  33.675  1.00  0.00     0.011 C 
ENDBRANCH   5   8
BRANCH   5  10
ATOM     10  N   UNL A   1      36.855  34.695  32.178  1.00  0.00    -0.328 N 
ATOM     11  H   UNL A   1      37.213  34.001  32.833  1.00  0.00     0.347 HD
ATOM     12  H   UNL A   1      37.105  35.674  32.317  1.00  0.00     0.347 HD
BRANCH  10  13
ATOM     13  C   UNL A   1      37.471  34.397  30.887  1.00  0.00     0.298 C 
BRANCH  13  14
ATOM     14  C   UNL A   1      38.970  34.495  30.855  1.00  0.00     0.006 A 
ATOM     15  C   UNL A   1      39.644  34.702  29.644  1.00  0.00     0.010 A 
ATOM     16  C   UNL A   1      39.716  34.344  32.033  1.00  0.00     0.010 A 
ATOM     17  C   UNL A   1      41.039  34.706  29.603  1.00  0.00     0.015 A 
ATOM     18  C   UNL A   1      41.110  34.321  31.990  1.00  0.00     0.015 A 
ATOM     19  C   UNL A   1      41.766  34.494  30.773  1.00  0.00     0.013 A 
ATOM     20  I   UNL A   1      43.839  34.409  30.699  1.00  0.00    -0.044 I 
ENDBRANCH  13  14
ENDBRANCH  10  13
ENDBRANCH   5  10
ENDBRANCH   3   5
ENDBRANCH   2   3
ENDBRANCH   1   2
BRANCH   1  21
ATOM     21  C   UNL A   1      32.854  34.219  28.386  1.00  0.00     0.275 C 
BRANCH  21  22
ATOM     22  O   UNL A   1      34.027  33.549  27.901  1.00  0.00    -0.458 OA
BRANCH  22  23
ATOM     23  C   UNL A   1      33.905  32.225  27.679  1.00  0.00     0.338 C 
ATOM     24  O   UNL A   1      32.964  31.625  27.195  1.00  0.00    -0.246 OA
BRANCH  23  25
ATOM     25  C   UNL A   1      35.181  31.592  28.051  1.00  0.00     0.060 A 
ATOM     26  C   UNL A   1      35.183  30.243  28.410  1.00  0.00     0.016 A 
ATOM     27  C   UNL A   1      36.341  32.353  28.167  1.00  0.00     0.016 A 
ATOM     28  C   UNL A   1      36.317  29.675  28.983  1.00  0.00     0.010 A 
ATOM     29  C   UNL A   1      37.505  31.755  28.661  1.00  0.00     0.010 A 
ATOM     30  C   UNL A   1      37.489  30.426  29.129  1.00  0.00    -0.014 A 
BRANCH  30  31
ATOM     31  C   UNL A   1      38.642  29.877  29.897  1.00  0.00     0.031 A 
ATOM     32  C   UNL A   1      38.812  30.270  31.343  1.00  0.00     0.074 A 
ATOM     33  C   UNL A   1      39.505  28.995  29.354  1.00  0.00     0.049 A 
ATOM     34  N   UNL A   1      39.833  30.089  32.142  1.00  0.00    -0.248 NA
ATOM     35  C   UNL A   1      37.682  30.976  31.966  1.00  0.00     0.031 C 
ATOM     36  C   UNL A   1      39.424  28.446  28.001  1.00  0.00     0.029 A 
ATOM     37  N   UNL A   1      40.618  28.393  29.890  1.00  0.00    -0.354 N 
ATOM     38  C   UNL A   1      39.501  30.730  33.329  1.00  0.00     0.074 A 
ATOM     39  C   UNL A   1      38.179  31.292  33.152  1.00  0.00     0.031 C 
ATOM     40  C   UNL A   1      40.416  27.558  27.828  1.00  0.00     0.029 A 
ATOM     41  C   UNL A   1      41.252  27.536  29.025  1.00  0.00     0.049 A 
ATOM     42  H   UNL A   1      40.931  28.560  30.808  1.00  0.00     0.167 HD
ATOM     43  C   UNL A   1      40.235  30.845  34.461  1.00  0.00     0.037 A 
ATOM     44  C   UNL A   1      42.397  26.839  29.167  1.00  0.00     0.037 A 
ATOM     45  C   UNL A   1      41.509  30.213  34.670  1.00  0.00     0.049 A 
ATOM     46  C   UNL A   1      43.195  26.978  30.436  1.00  0.00     0.074 A 
ATOM     47  C   UNL A   1      42.338  30.279  35.777  1.00  0.00     0.029 A 
ATOM     48  N   UNL A   1      42.124  29.366  33.761  1.00  0.00    -0.354 N 
ATOM     49  N   UNL A   1      42.927  27.675  31.512  1.00  0.00    -0.248 NA
ATOM     50  C   UNL A   1      44.471  26.250  30.496  1.00  0.00     0.031 C 
ATOM     51  C   UNL A   1      43.462  29.482  35.531  1.00  0.00     0.029 A 
ATOM     52  C   UNL A   1      43.317  28.896  34.284  1.00  0.00     0.049 A 
ATOM     53  H   UNL A   1      41.765  29.133  32.874  1.00  0.00     0.167 HD
ATOM     54  C   UNL A   1      43.988  27.458  32.382  1.00  0.00     0.074 A 
ATOM     55  C   UNL A   1      44.896  26.548  31.715  1.00  0.00     0.031 C 
ATOM     56  C   UNL A   1      44.196  27.974  33.617  1.00  0.00     0.037 A 
BRANCH  43  57
ATOM     57  C   UNL A   1      39.693  31.728  35.545  1.00  0.00     0.064 A 
ATOM     58  C   UNL A   1      38.684  31.301  36.419  1.00  0.00     0.173 A 
ATOM     59  C   UNL A   1      40.208  33.023  35.715  1.00  0.00     0.173 A 
ATOM     60  F   UNL A   1      38.146  30.080  36.284  1.00  0.00    -0.203 F 
ATOM     61  C   UNL A   1      38.192  32.148  37.409  1.00  0.00     0.198 A 
ATOM     62  C   UNL A   1      39.732  33.857  36.721  1.00  0.00     0.198 A 
ATOM     63  F   UNL A   1      41.175  33.476  34.904  1.00  0.00    -0.203 F 
ATOM     64  F   UNL A   1      37.194  31.739  38.204  1.00  0.00    -0.200 F 
ATOM     65  C   UNL A   1      38.720  33.422  37.563  1.00  0.00     0.200 A 
ATOM     66  F   UNL A   1      40.250  35.084  36.872  1.00  0.00    -0.200 F 
ATOM     67  F   UNL A   1      38.246  34.236  38.517  1.00  0.00    -0.200 F 
ENDBRANCH  43  57
BRANCH  44  68
ATOM     68  C   UNL A   1      42.879  25.965  28.066  1.00  0.00     0.064 A 
ATOM     69  C   UNL A   1      42.470  24.627  27.980  1.00  0.00     0.173 A 
ATOM     70  C   UNL A   1      43.772  26.438  27.094  1.00  0.00     0.173 A 
ATOM     71  F   UNL A   1      41.640  24.120  28.905  1.00  0.00    -0.203 F 
ATOM     72  C   UNL A   1      42.945  23.792  26.972  1.00  0.00     0.198 A 
ATOM     73  C   UNL A   1      44.225  25.610  26.069  1.00  0.00     0.198 A 
ATOM     74  F   UNL A   1      44.200  27.708  27.136  1.00  0.00    -0.203 F 
ATOM     75  F   UNL A   1      42.574  22.505  26.939  1.00  0.00    -0.200 F 
ATOM     76  C   UNL A   1      43.817  24.286  26.013  1.00  0.00     0.200 A 
ATOM     77  F   UNL A   1      45.060  26.094  25.140  1.00  0.00    -0.200 F 
ATOM     78  F   UNL A   1      44.273  23.483  25.041  1.00  0.00    -0.200 F 
ENDBRANCH  44  68
BRANCH  56  79
ATOM     79  C   UNL A   1      45.429  27.532  34.346  1.00  0.00     0.064 A 
ATOM     80  C   UNL A   1      46.641  28.226  34.226  1.00  0.00     0.173 A 
ATOM     81  C   UNL A   1      45.387  26.417  35.197  1.00  0.00     0.173 A 
ATOM     82  F   UNL A   1      46.732  29.287  33.411  1.00  0.00    -0.203 F 
ATOM     83  C   UNL A   1      47.775  27.806  34.914  1.00  0.00     0.198 A 
ATOM     84  C   UNL A   1      46.518  26.014  35.902  1.00  0.00     0.198 A 
ATOM     85  F   UNL A   1      44.249  25.725  35.348  1.00  0.00    -0.203 F 
ATOM     86  F   UNL A   1      48.935  28.458  34.754  1.00  0.00    -0.200 F 
ATOM     87  C   UNL A   1      47.711  26.704  35.755  1.00  0.00     0.200 A 
ATOM     88  F   UNL A   1      46.453  24.954  36.719  1.00  0.00    -0.200 F 
ATOM     89  F   UNL A   1      48.805  26.302  36.418  1.00  0.00    -0.200 F 
ENDBRANCH  56  79
ENDBRANCH  30  31
ENDBRANCH  23  25
ENDBRANCH  22  23
ENDBRANCH  21  22
ENDBRANCH   1  21
TORSDOF 16
ENDMDL
