MODEL 1
REMARK VINA RESULT:     -11.9      0.000      0.000
REMARK SMILES O=C(OCCOC(=O)c1cc(-c2ccc(F)c(C(F)(F)F)c2)cnc1O)c1ccc(-c2c3nc(c(-c4c(F)c(F)c(F)c(F)c4F)c4ccc([nH]4)c(-c4c(F)c(F)c(F)c(F)c4F)c4nc(c(-c5c(F)c(F)c(F)c(F)c5F)c5ccc2[nH]5)C=C4)C=C3)cc1
REMARK SMILES IDX 4 1 3 2 2 3 1 4 27 5 28 6 89 7 29 8 88 9 30 10 31 11 32 12
REMARK SMILES IDX 82 13 33 14 87 15 81 16 83 17 34 18 86 19 80 20 79 21 35 23
REMARK SMILES IDX 67 24 47 25 66 26 48 27 51 28 65 29 84 30 49 31 50 32 64 34
REMARK SMILES IDX 85 35 52 36 36 37 37 38 45 39 38 40 39 41 43 42 46 43 40 44
REMARK SMILES IDX 41 45 44 46 42 47 68 48 69 49 77 50 70 51 71 52 75 53 78 54
REMARK SMILES IDX 72 55 73 56 76 57 74 58 53 59 54 60 62 61 55 62 56 63 60 64
REMARK SMILES IDX 63 65 57 66 58 67 61 68 59 69 5 70 6 71 7 72 8 73 9 74 10 75
REMARK SMILES IDX 25 76 11 77 24 78 23 79 26 80 12 82 13 83 22 84 14 85 17 86
REMARK SMILES IDX 15 87 16 88 18 89 19 90 20 91 21 92
REMARK H PARENT 83 22 51 33 26 81
REMARK Flexibility Score: inf
ROOT
ATOM      1  C   UNL A   1      34.322  32.835  28.085  1.00  0.00     0.275 C 
ENDROOT
BRANCH   1   2
ATOM      2  O   UNL A   1      33.796  31.499  28.084  1.00  0.00    -0.458 OA
BRANCH   2   3
ATOM      3  C   UNL A   1      34.404  30.337  27.760  1.00  0.00     0.338 C 
ATOM      4  O   UNL A   1      33.772  29.477  27.150  1.00  0.00    -0.246 OA
BRANCH   3   5
ATOM      5  C   UNL A   1      35.755  29.959  28.275  1.00  0.00     0.060 A 
ATOM      6  C   UNL A   1      36.805  30.138  27.367  1.00  0.00     0.016 A 
ATOM      7  C   UNL A   1      36.074  29.511  29.558  1.00  0.00     0.016 A 
ATOM      8  C   UNL A   1      38.113  29.767  27.690  1.00  0.00     0.010 A 
ATOM      9  C   UNL A   1      37.397  29.164  29.895  1.00  0.00     0.010 A 
ATOM     10  C   UNL A   1      38.429  29.266  28.957  1.00  0.00    -0.014 A 
BRANCH  10  11
ATOM     11  C   UNL A   1      39.851  28.965  29.275  1.00  0.00     0.031 A 
ATOM     12  C   UNL A   1      40.662  29.833  30.197  1.00  0.00     0.074 A 
ATOM     13  C   UNL A   1      40.392  27.830  28.791  1.00  0.00     0.049 A 
ATOM     14  N   UNL A   1      41.833  29.592  30.737  1.00  0.00    -0.248 NA
ATOM     15  C   UNL A   1      40.086  31.125  30.578  1.00  0.00     0.031 C 
ATOM     16  C   UNL A   1      39.710  26.896  27.894  1.00  0.00     0.029 A 
ATOM     17  N   UNL A   1      41.619  27.252  29.005  1.00  0.00    -0.354 N 
ATOM     18  C   UNL A   1      42.091  30.671  31.574  1.00  0.00     0.074 A 
ATOM     19  C   UNL A   1      40.986  31.591  31.431  1.00  0.00     0.031 C 
ATOM     20  C   UNL A   1      40.504  25.840  27.674  1.00  0.00     0.029 A 
ATOM     21  C   UNL A   1      41.774  26.048  28.364  1.00  0.00     0.049 A 
ATOM     22  H   UNL A   1      42.318  27.660  29.564  1.00  0.00     0.167 HD
ATOM     23  C   UNL A   1      43.151  30.870  32.394  1.00  0.00     0.037 A 
ATOM     24  C   UNL A   1      42.826  25.207  28.317  1.00  0.00     0.037 A 
ATOM     25  C   UNL A   1      44.294  30.001  32.467  1.00  0.00     0.049 A 
ATOM     26  C   UNL A   1      44.068  25.547  29.085  1.00  0.00     0.074 A 
ATOM     27  C   UNL A   1      45.423  30.121  33.259  1.00  0.00     0.029 A 
ATOM     28  N   UNL A   1      44.475  28.873  31.680  1.00  0.00    -0.354 N 
ATOM     29  N   UNL A   1      44.268  26.526  29.933  1.00  0.00    -0.248 NA
ATOM     30  C   UNL A   1      45.238  24.683  28.877  1.00  0.00     0.031 C 
ATOM     31  C   UNL A   1      46.320  29.112  32.892  1.00  0.00     0.029 A 
ATOM     32  C   UNL A   1      45.729  28.332  31.910  1.00  0.00     0.049 A 
ATOM     33  H   UNL A   1      43.809  28.511  31.051  1.00  0.00     0.167 HD
ATOM     34  C   UNL A   1      45.584  26.406  30.354  1.00  0.00     0.074 A 
ATOM     35  C   UNL A   1      46.130  25.240  29.688  1.00  0.00     0.031 C 
ATOM     36  C   UNL A   1      46.273  27.194  31.213  1.00  0.00     0.037 A 
BRANCH  23  37
ATOM     37  C   UNL A   1      43.144  32.098  33.257  1.00  0.00     0.064 A 
ATOM     38  C   UNL A   1      43.578  33.337  32.764  1.00  0.00     0.173 A 
ATOM     39  C   UNL A   1      42.637  32.049  34.563  1.00  0.00     0.173 A 
ATOM     40  F   UNL A   1      44.062  33.437  31.516  1.00  0.00    -0.203 F 
ATOM     41  C   UNL A   1      43.516  34.483  33.554  1.00  0.00     0.198 A 
ATOM     42  C   UNL A   1      42.560  33.200  35.344  1.00  0.00     0.198 A 
ATOM     43  F   UNL A   1      42.200  30.890  35.076  1.00  0.00    -0.203 F 
ATOM     44  F   UNL A   1      43.950  35.655  33.071  1.00  0.00    -0.200 F 
ATOM     45  C   UNL A   1      43.002  34.414  34.841  1.00  0.00     0.200 A 
ATOM     46  F   UNL A   1      42.049  33.136  36.582  1.00  0.00    -0.200 F 
ATOM     47  F   UNL A   1      42.930  35.519  35.596  1.00  0.00    -0.200 F 
ENDBRANCH  23  37
BRANCH  24  48
ATOM     48  C   UNL A   1      42.726  23.981  27.486  1.00  0.00     0.064 A 
ATOM     49  C   UNL A   1      43.070  23.994  26.130  1.00  0.00     0.173 A 
ATOM     50  C   UNL A   1      42.372  22.748  28.059  1.00  0.00     0.173 A 
ATOM     51  F   UNL A   1      43.391  25.151  25.532  1.00  0.00    -0.203 F 
ATOM     52  C   UNL A   1      43.088  22.817  25.382  1.00  0.00     0.198 A 
ATOM     53  C   UNL A   1      42.417  21.570  27.320  1.00  0.00     0.198 A 
ATOM     54  F   UNL A   1      42.032  22.685  29.356  1.00  0.00    -0.203 F 
ATOM     55  F   UNL A   1      43.416  22.856  24.084  1.00  0.00    -0.200 F 
ATOM     56  C   UNL A   1      42.777  21.605  25.982  1.00  0.00     0.200 A 
ATOM     57  F   UNL A   1      42.135  20.400  27.910  1.00  0.00    -0.200 F 
ATOM     58  F   UNL A   1      42.829  20.470  25.272  1.00  0.00    -0.200 F 
ENDBRANCH  24  48
BRANCH  36  59
ATOM     59  C   UNL A   1      47.715  26.863  31.454  1.00  0.00     0.064 A 
ATOM     60  C   UNL A   1      48.081  25.882  32.387  1.00  0.00     0.173 A 
ATOM     61  C   UNL A   1      48.728  27.457  30.688  1.00  0.00     0.173 A 
ATOM     62  F   UNL A   1      47.149  25.296  33.152  1.00  0.00    -0.203 F 
ATOM     63  C   UNL A   1      49.413  25.509  32.545  1.00  0.00     0.198 A 
ATOM     64  C   UNL A   1      50.055  27.064  30.831  1.00  0.00     0.198 A 
ATOM     65  F   UNL A   1      48.425  28.395  29.778  1.00  0.00    -0.203 F 
ATOM     66  F   UNL A   1      49.745  24.583  33.455  1.00  0.00    -0.200 F 
ATOM     67  C   UNL A   1      50.397  26.092  31.758  1.00  0.00     0.200 A 
ATOM     68  F   UNL A   1      51.002  27.617  30.060  1.00  0.00    -0.200 F 
ATOM     69  F   UNL A   1      51.675  25.715  31.895  1.00  0.00    -0.200 F 
ENDBRANCH  36  59
ENDBRANCH  10  11
ENDBRANCH   3   5
ENDBRANCH   2   3
ENDBRANCH   1   2
BRANCH   1  70
ATOM     70  C   UNL A   1      33.260  33.930  27.999  1.00  0.00     0.275 C 
BRANCH  70  71
ATOM     71  O   UNL A   1      32.709  34.299  29.276  1.00  0.00    -0.458 OA
BRANCH  71  72
ATOM     72  C   UNL A   1      32.868  35.605  29.630  1.00  0.00     0.343 C 
ATOM     73  O   UNL A   1      32.456  36.578  29.024  1.00  0.00    -0.246 OA
BRANCH  72  74
ATOM     74  C   UNL A   1      33.562  35.682  30.926  1.00  0.00     0.122 A 
ATOM     75  C   UNL A   1      34.300  34.572  31.372  1.00  0.00     0.031 A 
ATOM     76  C   UNL A   1      33.547  36.826  31.713  1.00  0.00     0.225 A 
ATOM     77  C   UNL A   1      35.050  34.653  32.554  1.00  0.00     0.001 A 
ATOM     78  N   UNL A   1      34.219  36.926  32.873  1.00  0.00    -0.221 NA
ATOM     79  C   UNL A   1      34.958  35.857  33.257  1.00  0.00     0.124 A 
BRANCH  76  80
ATOM     80  O   UNL A   1      32.873  37.967  31.385  1.00  0.00    -0.493 OA
ATOM     81  H   UNL A   1      31.937  37.964  31.347  1.00  0.00     0.295 HD
ENDBRANCH  76  80
BRANCH  77  82
ATOM     82  C   UNL A   1      35.952  33.584  33.015  1.00  0.00    -0.016 A 
ATOM     83  C   UNL A   1      36.072  32.385  32.300  1.00  0.00     0.012 A 
ATOM     84  C   UNL A   1      36.641  33.684  34.238  1.00  0.00     0.025 A 
ATOM     85  C   UNL A   1      36.832  31.322  32.801  1.00  0.00     0.040 A 
ATOM     86  C   UNL A   1      37.371  32.608  34.776  1.00  0.00     0.092 A 
ATOM     87  C   UNL A   1      37.463  31.439  34.036  1.00  0.00     0.135 A 
ATOM     88  F   UNL A   1      38.153  30.396  34.513  1.00  0.00    -0.206 F 
BRANCH  86  89
ATOM     89  C   UNL A   1      38.010  32.684  36.131  1.00  0.00     0.419 C 
ATOM     90  F   UNL A   1      39.360  32.505  36.094  1.00  0.00    -0.166 F 
ATOM     91  F   UNL A   1      37.796  33.869  36.761  1.00  0.00    -0.166 F 
ATOM     92  F   UNL A   1      37.547  31.724  36.986  1.00  0.00    -0.166 F 
ENDBRANCH  86  89
ENDBRANCH  77  82
ENDBRANCH  72  74
ENDBRANCH  71  72
ENDBRANCH  70  71
ENDBRANCH   1  70
TORSDOF 14
ENDMDL
MODEL 2
REMARK VINA RESULT:     -11.8      0.576      7.235
REMARK SMILES O=C(OCCOC(=O)c1cc(-c2ccc(F)c(C(F)(F)F)c2)cnc1O)c1ccc(-c2c3nc(c(-c4c(F)c(F)c(F)c(F)c4F)c4ccc([nH]4)c(-c4c(F)c(F)c(F)c(F)c4F)c4nc(c(-c5c(F)c(F)c(F)c(F)c5F)c5ccc2[nH]5)C=C4)C=C3)cc1
REMARK SMILES IDX 4 1 3 2 2 3 1 4 27 5 28 6 89 7 29 8 88 9 30 10 31 11 32 12
REMARK SMILES IDX 82 13 33 14 87 15 81 16 83 17 34 18 86 19 80 20 79 21 35 23
REMARK SMILES IDX 67 24 47 25 66 26 48 27 51 28 65 29 84 30 49 31 50 32 64 34
REMARK SMILES IDX 85 35 52 36 36 37 37 38 45 39 38 40 39 41 43 42 46 43 40 44
REMARK SMILES IDX 41 45 44 46 42 47 68 48 69 49 77 50 70 51 71 52 75 53 78 54
REMARK SMILES IDX 72 55 73 56 76 57 74 58 53 59 54 60 62 61 55 62 56 63 60 64
REMARK SMILES IDX 63 65 57 66 58 67 61 68 59 69 5 70 6 71 7 72 8 73 9 74 10 75
REMARK SMILES IDX 25 76 11 77 24 78 23 79 26 80 12 82 13 83 22 84 14 85 17 86
REMARK SMILES IDX 15 87 16 88 18 89 19 90 20 91 21 92
REMARK H PARENT 83 22 51 33 26 81
REMARK Flexibility Score: inf
ROOT
ATOM      1  C   UNL A   1      34.438  32.791  28.107  1.00  0.00     0.275 C 
ENDROOT
BRANCH   1   2
ATOM      2  O   UNL A   1      33.861  31.596  27.557  1.00  0.00    -0.458 OA
BRANCH   2   3
ATOM      3  C   UNL A   1      34.364  30.342  27.511  1.00  0.00     0.338 C 
ATOM      4  O   UNL A   1      33.672  29.433  27.057  1.00  0.00    -0.246 OA
BRANCH   3   5
ATOM      5  C   UNL A   1      35.654  29.963  28.162  1.00  0.00     0.060 A 
ATOM      6  C   UNL A   1      36.783  30.063  27.342  1.00  0.00     0.016 A 
ATOM      7  C   UNL A   1      35.848  29.583  29.492  1.00  0.00     0.016 A 
ATOM      8  C   UNL A   1      38.047  29.681  27.798  1.00  0.00     0.010 A 
ATOM      9  C   UNL A   1      37.127  29.224  29.962  1.00  0.00     0.010 A 
ATOM     10  C   UNL A   1      38.238  29.247  29.113  1.00  0.00    -0.014 A 
BRANCH  10  11
ATOM     11  C   UNL A   1      39.619  28.931  29.572  1.00  0.00     0.031 A 
ATOM     12  C   UNL A   1      40.336  27.683  29.138  1.00  0.00     0.074 A 
ATOM     13  C   UNL A   1      40.270  29.840  30.323  1.00  0.00     0.049 A 
ATOM     14  N   UNL A   1      41.603  27.371  29.275  1.00  0.00    -0.248 NA
ATOM     15  C   UNL A   1      39.543  26.662  28.450  1.00  0.00     0.031 C 
ATOM     16  C   UNL A   1      39.691  31.095  30.804  1.00  0.00     0.029 A 
ATOM     17  N   UNL A   1      41.561  29.869  30.788  1.00  0.00    -0.354 N 
ATOM     18  C   UNL A   1      41.764  26.154  28.625  1.00  0.00     0.074 A 
ATOM     19  C   UNL A   1      40.461  25.757  28.142  1.00  0.00     0.031 C 
ATOM     20  C   UNL A   1      40.634  31.794  31.450  1.00  0.00     0.029 A 
ATOM     21  C   UNL A   1      41.866  31.012  31.484  1.00  0.00     0.049 A 
ATOM     22  H   UNL A   1      42.206  29.140  30.636  1.00  0.00     0.167 HD
ATOM     23  C   UNL A   1      42.899  25.437  28.442  1.00  0.00     0.037 A 
ATOM     24  C   UNL A   1      43.005  31.387  32.100  1.00  0.00     0.037 A 
ATOM     25  C   UNL A   1      44.177  25.786  29.002  1.00  0.00     0.049 A 
ATOM     26  C   UNL A   1      44.199  30.483  32.045  1.00  0.00     0.074 A 
ATOM     27  C   UNL A   1      45.384  25.120  28.881  1.00  0.00     0.029 A 
ATOM     28  N   UNL A   1      44.400  26.873  29.833  1.00  0.00    -0.354 N 
ATOM     29  N   UNL A   1      44.361  29.376  31.362  1.00  0.00    -0.248 NA
ATOM     30  C   UNL A   1      45.360  30.861  32.861  1.00  0.00     0.031 C 
ATOM     31  C   UNL A   1      46.318  25.760  29.704  1.00  0.00     0.029 A 
ATOM     32  C   UNL A   1      45.706  26.855  30.295  1.00  0.00     0.049 A 
ATOM     33  H   UNL A   1      43.730  27.558  30.059  1.00  0.00     0.167 HD
ATOM     34  C   UNL A   1      45.634  28.920  31.668  1.00  0.00     0.074 A 
ATOM     35  C   UNL A   1      46.214  29.884  32.581  1.00  0.00     0.031 C 
ATOM     36  C   UNL A   1      46.259  27.800  31.232  1.00  0.00     0.037 A 
BRANCH  23  37
ATOM     37  C   UNL A   1      42.806  24.181  27.628  1.00  0.00     0.064 A 
ATOM     38  C   UNL A   1      43.066  24.185  26.249  1.00  0.00     0.173 A 
ATOM     39  C   UNL A   1      42.523  22.952  28.241  1.00  0.00     0.173 A 
ATOM     40  F   UNL A   1      43.352  25.334  25.619  1.00  0.00    -0.203 F 
ATOM     41  C   UNL A   1      43.032  23.004  25.511  1.00  0.00     0.198 A 
ATOM     42  C   UNL A   1      42.508  21.771  27.503  1.00  0.00     0.198 A 
ATOM     43  F   UNL A   1      42.279  22.894  29.558  1.00  0.00    -0.203 F 
ATOM     44  F   UNL A   1      43.267  23.030  24.191  1.00  0.00    -0.200 F 
ATOM     45  C   UNL A   1      42.759  21.798  26.140  1.00  0.00     0.200 A 
ATOM     46  F   UNL A   1      42.258  20.603  28.114  1.00  0.00    -0.200 F 
ATOM     47  F   UNL A   1      42.739  20.660  25.431  1.00  0.00    -0.200 F 
ENDBRANCH  23  37
BRANCH  24  48
ATOM     48  C   UNL A   1      43.029  32.679  32.833  1.00  0.00     0.064 A 
ATOM     49  C   UNL A   1      43.316  33.880  32.175  1.00  0.00     0.173 A 
ATOM     50  C   UNL A   1      42.672  32.745  34.189  1.00  0.00     0.173 A 
ATOM     51  F   UNL A   1      43.686  33.865  30.885  1.00  0.00    -0.203 F 
ATOM     52  C   UNL A   1      43.222  35.102  32.839  1.00  0.00     0.198 A 
ATOM     53  C   UNL A   1      42.550  33.967  34.844  1.00  0.00     0.198 A 
ATOM     54  F   UNL A   1      42.389  31.620  34.864  1.00  0.00    -0.203 F 
ATOM     55  F   UNL A   1      43.506  36.239  32.189  1.00  0.00    -0.200 F 
ATOM     56  C   UNL A   1      42.824  35.146  34.168  1.00  0.00     0.200 A 
ATOM     57  F   UNL A   1      42.146  34.004  36.121  1.00  0.00    -0.200 F 
ATOM     58  F   UNL A   1      42.698  36.323  34.795  1.00  0.00    -0.200 F 
ENDBRANCH  24  48
BRANCH  36  59
ATOM     59  C   UNL A   1      47.629  27.517  31.768  1.00  0.00     0.064 A 
ATOM     60  C   UNL A   1      47.810  26.660  32.863  1.00  0.00     0.173 A 
ATOM     61  C   UNL A   1      48.771  28.025  31.132  1.00  0.00     0.173 A 
ATOM     62  F   UNL A   1      46.748  26.160  33.512  1.00  0.00    -0.203 F 
ATOM     63  C   UNL A   1      49.087  26.323  33.304  1.00  0.00     0.198 A 
ATOM     64  C   UNL A   1      50.046  27.667  31.560  1.00  0.00     0.198 A 
ATOM     65  F   UNL A   1      48.648  28.843  30.076  1.00  0.00    -0.203 F 
ATOM     66  F   UNL A   1      49.238  25.518  34.364  1.00  0.00    -0.200 F 
ATOM     67  C   UNL A   1      50.203  26.818  32.644  1.00  0.00     0.200 A 
ATOM     68  F   UNL A   1      51.124  28.133  30.912  1.00  0.00    -0.200 F 
ATOM     69  F   UNL A   1      51.432  26.474  33.055  1.00  0.00    -0.200 F 
ENDBRANCH  36  59
ENDBRANCH  10  11
ENDBRANCH   3   5
ENDBRANCH   2   3
ENDBRANCH   1   2
BRANCH   1  70
ATOM     70  C   UNL A   1      33.537  34.022  28.017  1.00  0.00     0.275 C 
BRANCH  70  71
ATOM     71  O   UNL A   1      32.831  34.308  29.237  1.00  0.00    -0.458 OA
BRANCH  71  72
ATOM     72  C   UNL A   1      32.880  35.605  29.656  1.00  0.00     0.343 C 
ATOM     73  O   UNL A   1      32.384  36.568  29.098  1.00  0.00    -0.246 OA
BRANCH  72  74
ATOM     74  C   UNL A   1      33.572  35.676  30.953  1.00  0.00     0.122 A 
ATOM     75  C   UNL A   1      34.303  34.562  31.400  1.00  0.00     0.031 A 
ATOM     76  C   UNL A   1      33.560  36.819  31.742  1.00  0.00     0.225 A 
ATOM     77  C   UNL A   1      35.050  34.638  32.583  1.00  0.00     0.001 A 
ATOM     78  N   UNL A   1      34.229  36.914  32.904  1.00  0.00    -0.221 NA
ATOM     79  C   UNL A   1      34.963  35.841  33.288  1.00  0.00     0.124 A 
BRANCH  76  80
ATOM     80  O   UNL A   1      32.892  37.963  31.414  1.00  0.00    -0.493 OA
ATOM     81  H   UNL A   1      33.326  38.635  30.926  1.00  0.00     0.295 HD
ENDBRANCH  76  80
BRANCH  77  82
ATOM     82  C   UNL A   1      35.946  33.564  33.045  1.00  0.00    -0.016 A 
ATOM     83  C   UNL A   1      35.965  32.317  32.405  1.00  0.00     0.012 A 
ATOM     84  C   UNL A   1      36.734  33.714  34.202  1.00  0.00     0.025 A 
ATOM     85  C   UNL A   1      36.723  31.258  32.917  1.00  0.00     0.040 A 
ATOM     86  C   UNL A   1      37.463  32.645  34.754  1.00  0.00     0.092 A 
ATOM     87  C   UNL A   1      37.454  31.428  34.089  1.00  0.00     0.135 A 
ATOM     88  F   UNL A   1      38.141  30.389  34.581  1.00  0.00    -0.206 F 
BRANCH  86  89
ATOM     89  C   UNL A   1      38.210  32.780  36.048  1.00  0.00     0.419 C 
ATOM     90  F   UNL A   1      37.889  31.816  36.953  1.00  0.00    -0.166 F 
ATOM     91  F   UNL A   1      39.561  32.730  35.896  1.00  0.00    -0.166 F 
ATOM     92  F   UNL A   1      37.956  33.964  36.682  1.00  0.00    -0.166 F 
ENDBRANCH  86  89
ENDBRANCH  77  82
ENDBRANCH  72  74
ENDBRANCH  71  72
ENDBRANCH  70  71
ENDBRANCH   1  70
TORSDOF 14
ENDMDL
MODEL 3
REMARK VINA RESULT:     -11.7      3.425      7.109
REMARK SMILES O=C(OCCOC(=O)c1cc(-c2ccc(F)c(C(F)(F)F)c2)cnc1O)c1ccc(-c2c3nc(c(-c4c(F)c(F)c(F)c(F)c4F)c4ccc([nH]4)c(-c4c(F)c(F)c(F)c(F)c4F)c4nc(c(-c5c(F)c(F)c(F)c(F)c5F)c5ccc2[nH]5)C=C4)C=C3)cc1
REMARK SMILES IDX 4 1 3 2 2 3 1 4 27 5 28 6 89 7 29 8 88 9 30 10 31 11 32 12
REMARK SMILES IDX 82 13 33 14 87 15 81 16 83 17 34 18 86 19 80 20 79 21 35 23
REMARK SMILES IDX 67 24 47 25 66 26 48 27 51 28 65 29 84 30 49 31 50 32 64 34
REMARK SMILES IDX 85 35 52 36 36 37 37 38 45 39 38 40 39 41 43 42 46 43 40 44
REMARK SMILES IDX 41 45 44 46 42 47 68 48 69 49 77 50 70 51 71 52 75 53 78 54
REMARK SMILES IDX 72 55 73 56 76 57 74 58 53 59 54 60 62 61 55 62 56 63 60 64
REMARK SMILES IDX 63 65 57 66 58 67 61 68 59 69 5 70 6 71 7 72 8 73 9 74 10 75
REMARK SMILES IDX 25 76 11 77 24 78 23 79 26 80 12 82 13 83 22 84 14 85 17 86
REMARK SMILES IDX 15 87 16 88 18 89 19 90 20 91 21 92
REMARK H PARENT 83 22 51 33 26 81
REMARK Flexibility Score: inf
ROOT
ATOM      1  C   UNL A   1      31.559  32.405  27.091  1.00  0.00     0.275 C 
ENDROOT
BRANCH   1   2
ATOM      2  O   UNL A   1      32.387  33.576  27.163  1.00  0.00    -0.458 OA
BRANCH   2   3
ATOM      3  C   UNL A   1      32.985  34.140  28.235  1.00  0.00     0.338 C 
ATOM      4  O   UNL A   1      32.528  35.182  28.700  1.00  0.00    -0.246 OA
BRANCH   3   5
ATOM      5  C   UNL A   1      34.296  33.666  28.773  1.00  0.00     0.060 A 
ATOM      6  C   UNL A   1      34.235  32.488  29.527  1.00  0.00     0.016 A 
ATOM      7  C   UNL A   1      35.552  34.235  28.557  1.00  0.00     0.016 A 
ATOM      8  C   UNL A   1      35.373  31.963  30.143  1.00  0.00     0.010 A 
ATOM      9  C   UNL A   1      36.705  33.691  29.156  1.00  0.00     0.010 A 
ATOM     10  C   UNL A   1      36.626  32.561  29.976  1.00  0.00    -0.014 A 
BRANCH  10  11
ATOM     11  C   UNL A   1      37.818  31.914  30.588  1.00  0.00     0.031 A 
ATOM     12  C   UNL A   1      38.252  32.211  31.996  1.00  0.00     0.074 A 
ATOM     13  C   UNL A   1      38.468  30.966  29.883  1.00  0.00     0.049 A 
ATOM     14  N   UNL A   1      39.130  31.581  32.738  1.00  0.00    -0.248 NA
ATOM     15  C   UNL A   1      37.613  33.347  32.666  1.00  0.00     0.031 C 
ATOM     16  C   UNL A   1      38.142  30.576  28.511  1.00  0.00     0.029 A 
ATOM     17  N   UNL A   1      39.509  30.141  30.226  1.00  0.00    -0.354 N 
ATOM     18  C   UNL A   1      39.089  32.202  33.981  1.00  0.00     0.074 A 
ATOM     19  C   UNL A   1      38.143  33.290  33.879  1.00  0.00     0.031 C 
ATOM     20  C   UNL A   1      38.930  29.556  28.147  1.00  0.00     0.029 A 
ATOM     21  C   UNL A   1      39.857  29.259  29.234  1.00  0.00     0.049 A 
ATOM     22  H   UNL A   1      39.961  30.178  31.100  1.00  0.00     0.167 HD
ATOM     23  C   UNL A   1      39.773  31.886  35.107  1.00  0.00     0.037 A 
ATOM     24  C   UNL A   1      40.827  28.324  29.191  1.00  0.00     0.037 A 
ATOM     25  C   UNL A   1      40.782  30.863  35.183  1.00  0.00     0.049 A 
ATOM     26  C   UNL A   1      41.703  28.123  30.391  1.00  0.00     0.074 A 
ATOM     27  C   UNL A   1      41.537  30.473  36.275  1.00  0.00     0.029 A 
ATOM     28  N   UNL A   1      41.210  30.101  34.106  1.00  0.00    -0.354 N 
ATOM     29  N   UNL A   1      41.601  28.659  31.582  1.00  0.00    -0.248 NA
ATOM     30  C   UNL A   1      42.841  27.206  30.239  1.00  0.00     0.031 C 
ATOM     31  C   UNL A   1      42.477  29.533  35.839  1.00  0.00     0.029 A 
ATOM     32  C   UNL A   1      42.272  29.298  34.488  1.00  0.00     0.049 A 
ATOM     33  H   UNL A   1      40.816  30.127  33.204  1.00  0.00     0.167 HD
ATOM     34  C   UNL A   1      42.661  28.156  32.321  1.00  0.00     0.074 A 
ATOM     35  C   UNL A   1      43.383  27.249  31.451  1.00  0.00     0.031 C 
ATOM     36  C   UNL A   1      43.004  28.427  33.603  1.00  0.00     0.037 A 
BRANCH  23  37
ATOM     37  C   UNL A   1      39.481  32.679  36.346  1.00  0.00     0.064 A 
ATOM     38  C   UNL A   1      40.161  33.873  36.624  1.00  0.00     0.173 A 
ATOM     39  C   UNL A   1      38.466  32.279  37.227  1.00  0.00     0.173 A 
ATOM     40  F   UNL A   1      41.134  34.304  35.805  1.00  0.00    -0.203 F 
ATOM     41  C   UNL A   1      39.844  34.633  37.748  1.00  0.00     0.198 A 
ATOM     42  C   UNL A   1      38.139  33.050  38.340  1.00  0.00     0.198 A 
ATOM     43  F   UNL A   1      37.778  31.150  36.999  1.00  0.00    -0.203 F 
ATOM     44  F   UNL A   1      40.517  35.764  38.006  1.00  0.00    -0.200 F 
ATOM     45  C   UNL A   1      38.831  34.223  38.601  1.00  0.00     0.200 A 
ATOM     46  F   UNL A   1      37.149  32.661  39.156  1.00  0.00    -0.200 F 
ATOM     47  F   UNL A   1      38.517  34.961  39.676  1.00  0.00    -0.200 F 
ENDBRANCH  23  37
BRANCH  24  48
ATOM     48  C   UNL A   1      41.008  27.539  27.944  1.00  0.00     0.064 A 
ATOM     49  C   UNL A   1      41.732  28.053  26.862  1.00  0.00     0.173 A 
ATOM     50  C   UNL A   1      40.537  26.219  27.848  1.00  0.00     0.173 A 
ATOM     51  F   UNL A   1      42.181  29.316  26.897  1.00  0.00    -0.203 F 
ATOM     52  C   UNL A   1      42.000  27.269  25.741  1.00  0.00     0.198 A 
ATOM     53  C   UNL A   1      40.829  25.428  26.740  1.00  0.00     0.198 A 
ATOM     54  F   UNL A   1      39.836  25.682  28.858  1.00  0.00    -0.203 F 
ATOM     55  F   UNL A   1      42.692  27.784  24.716  1.00  0.00    -0.200 F 
ATOM     56  C   UNL A   1      41.563  25.952  25.688  1.00  0.00     0.200 A 
ATOM     57  F   UNL A   1      40.421  24.152  26.705  1.00  0.00    -0.200 F 
ATOM     58  F   UNL A   1      41.852  25.189  24.626  1.00  0.00    -0.200 F 
ENDBRANCH  24  48
BRANCH  36  59
ATOM     59  C   UNL A   1      44.241  27.778  34.143  1.00  0.00     0.064 A 
ATOM     60  C   UNL A   1      45.467  28.459  34.146  1.00  0.00     0.173 A 
ATOM     61  C   UNL A   1      44.188  26.513  34.744  1.00  0.00     0.173 A 
ATOM     62  F   UNL A   1      45.571  29.667  33.572  1.00  0.00    -0.203 F 
ATOM     63  C   UNL A   1      46.597  27.894  34.731  1.00  0.00     0.198 A 
ATOM     64  C   UNL A   1      45.313  25.961  35.349  1.00  0.00     0.198 A 
ATOM     65  F   UNL A   1      43.036  25.826  34.771  1.00  0.00    -0.203 F 
ATOM     66  F   UNL A   1      47.764  28.553  34.706  1.00  0.00    -0.200 F 
ATOM     67  C   UNL A   1      46.516  26.651  35.342  1.00  0.00     0.200 A 
ATOM     68  F   UNL A   1      45.230  24.767  35.952  1.00  0.00    -0.200 F 
ATOM     69  F   UNL A   1      47.599  26.118  35.925  1.00  0.00    -0.200 F 
ENDBRANCH  36  59
ENDBRANCH  10  11
ENDBRANCH   3   5
ENDBRANCH   2   3
ENDBRANCH   1   2
BRANCH   1  70
ATOM     70  C   UNL A   1      32.264  31.169  26.534  1.00  0.00     0.275 C 
BRANCH  70  71
ATOM     71  O   UNL A   1      32.464  30.132  27.511  1.00  0.00    -0.458 OA
BRANCH  71  72
ATOM     72  C   UNL A   1      33.538  29.319  27.295  1.00  0.00     0.343 C 
ATOM     73  O   UNL A   1      34.708  29.596  27.487  1.00  0.00    -0.246 OA
BRANCH  72  74
ATOM     74  C   UNL A   1      33.070  27.995  26.856  1.00  0.00     0.122 A 
ATOM     75  C   UNL A   1      33.915  27.202  26.059  1.00  0.00     0.031 A 
ATOM     76  C   UNL A   1      31.836  27.478  27.228  1.00  0.00     0.225 A 
ATOM     77  C   UNL A   1      33.534  25.899  25.708  1.00  0.00     0.001 A 
ATOM     78  N   UNL A   1      31.419  26.250  26.876  1.00  0.00    -0.221 NA
ATOM     79  C   UNL A   1      32.271  25.491  26.146  1.00  0.00     0.124 A 
BRANCH  76  80
ATOM     80  O   UNL A   1      30.934  28.148  28.003  1.00  0.00    -0.493 OA
ATOM     81  H   UNL A   1      30.409  28.829  27.630  1.00  0.00     0.295 HD
ENDBRANCH  76  80
BRANCH  77  82
ATOM     82  C   UNL A   1      34.417  24.963  24.993  1.00  0.00    -0.016 A 
ATOM     83  C   UNL A   1      34.118  24.546  23.688  1.00  0.00     0.012 A 
ATOM     84  C   UNL A   1      35.528  24.375  25.625  1.00  0.00     0.025 A 
ATOM     85  C   UNL A   1      34.886  23.564  23.053  1.00  0.00     0.040 A 
ATOM     86  C   UNL A   1      36.281  23.354  25.017  1.00  0.00     0.092 A 
ATOM     87  C   UNL A   1      35.951  22.970  23.726  1.00  0.00     0.135 A 
ATOM     88  F   UNL A   1      36.648  22.006  23.113  1.00  0.00    -0.206 F 
BRANCH  86  89
ATOM     89  C   UNL A   1      37.394  22.653  25.740  1.00  0.00     0.419 C 
ATOM     90  F   UNL A   1      37.067  21.389  26.125  1.00  0.00    -0.166 F 
ATOM     91  F   UNL A   1      38.531  22.548  25.001  1.00  0.00    -0.166 F 
ATOM     92  F   UNL A   1      37.761  23.293  26.889  1.00  0.00    -0.166 F 
ENDBRANCH  86  89
ENDBRANCH  77  82
ENDBRANCH  72  74
ENDBRANCH  71  72
ENDBRANCH  70  71
ENDBRANCH   1  70
TORSDOF 14
ENDMDL
