MODEL 1
REMARK VINA RESULT:     -12.7      0.000      0.000
REMARK SMILES Cc1ccccc1OCC[NH+]1CCC(CC(=O)OCCOC(=O)c2ccc(-c3c4nc(c(-c5c(F)c(F)c(F)c(F)c5F)c5ccc([nH]5)c(-c5c(F)c(F)c(F)c(F)c5F)c5nc(c(-c6c(F)c(F)c(F)c(F)c6F)c6ccc3[nH]6)C=C5)C=C4)cc2)CC1
REMARK SMILES IDX 18 1 16 2 17 3 15 4 14 5 11 6 12 7 88 8 13 10 87 11 10 12
REMARK SMILES IDX 9 13 8 14 7 15 1 16 2 17 3 18 4 19 6 20 5 21 19 22 20 23
REMARK SMILES IDX 21 24 22 25 23 26 24 27 25 28 86 29 26 30 85 31 27 32 28 33
REMARK SMILES IDX 29 34 79 35 30 36 84 37 78 38 80 39 31 40 83 41 77 42 76 43
REMARK SMILES IDX 32 45 64 46 44 47 63 48 45 49 48 50 62 51 81 52 46 53 47 54
REMARK SMILES IDX 61 56 82 57 49 58 33 59 34 60 42 61 35 62 36 63 40 64 43 65
REMARK SMILES IDX 37 66 38 67 41 68 39 69 65 70 66 71 74 72 67 73 68 74 72 75
REMARK SMILES IDX 75 76 69 77 70 78 73 79 71 80 50 81 51 82 59 83 52 84 53 85
REMARK SMILES IDX 57 86 60 87 54 88 55 89 58 90 56 91
REMARK H PARENT 11 9 80 44 48 55
REMARK Flexibility Score: inf
ROOT
ATOM      1  O   UNL A   1      31.464  29.191  25.970  1.00  0.00    -0.462 OA
ENDROOT
BRANCH   1   2
ATOM      2  C   UNL A   1      31.101  28.648  24.778  1.00  0.00     0.306 C 
ATOM      3  O   UNL A   1      30.888  29.269  23.764  1.00  0.00    -0.252 OA
BRANCH   2   4
ATOM      4  C   UNL A   1      31.019  27.144  24.906  1.00  0.00     0.126 C 
BRANCH   4   5
ATOM      5  C   UNL A   1      30.981  26.385  23.554  1.00  0.00     0.011 C 
ATOM      6  N   UNL A   1      32.427  24.030  23.033  1.00  0.00    -0.332 N 
ATOM      7  C   UNL A   1      32.655  25.103  22.075  1.00  0.00     0.262 C 
ATOM      8  C   UNL A   1      30.991  23.792  23.110  1.00  0.00     0.262 C 
ATOM      9  H   UNL A   1      32.741  24.308  23.963  1.00  0.00     0.348 HD
ATOM     10  C   UNL A   1      32.362  26.352  22.857  1.00  0.00     0.066 C 
ATOM     11  C   UNL A   1      30.293  25.006  23.743  1.00  0.00     0.066 C 
BRANCH   6  12
ATOM     12  C   UNL A   1      33.256  22.852  22.780  1.00  0.00     0.304 C 
BRANCH  12  13
ATOM     13  C   UNL A   1      33.045  21.758  23.861  1.00  0.00     0.290 C 
BRANCH  13  14
ATOM     14  O   UNL A   1      33.585  22.177  25.127  1.00  0.00    -0.487 OA
BRANCH  14  15
ATOM     15  C   UNL A   1      34.954  22.237  25.143  1.00  0.00     0.122 A 
ATOM     16  C   UNL A   1      34.809  24.727  25.628  1.00  0.00     0.048 C 
ATOM     17  C   UNL A   1      35.577  23.455  25.432  1.00  0.00    -0.009 A 
ATOM     18  C   UNL A   1      36.976  23.498  25.510  1.00  0.00     0.007 A 
ATOM     19  C   UNL A   1      37.741  22.344  25.342  1.00  0.00     0.001 A 
ATOM     20  C   UNL A   1      35.716  21.072  25.005  1.00  0.00     0.047 A 
ATOM     21  C   UNL A   1      37.110  21.128  25.102  1.00  0.00     0.004 A 
ENDBRANCH  14  15
ENDBRANCH  13  14
ENDBRANCH  12  13
ENDBRANCH   6  12
ENDBRANCH   4   5
ENDBRANCH   2   4
ENDBRANCH   1   2
BRANCH   1  22
ATOM     22  C   UNL A   1      32.576  30.077  25.943  1.00  0.00     0.274 C 
BRANCH  22  23
ATOM     23  C   UNL A   1      33.499  29.732  27.112  1.00  0.00     0.275 C 
BRANCH  23  24
ATOM     24  O   UNL A   1      34.797  30.411  27.198  1.00  0.00    -0.458 OA
BRANCH  24  25
ATOM     25  C   UNL A   1      35.507  30.811  28.288  1.00  0.00     0.338 C 
ATOM     26  O   UNL A   1      35.129  31.725  29.008  1.00  0.00    -0.246 OA
BRANCH  25  27
ATOM     27  C   UNL A   1      36.760  30.093  28.600  1.00  0.00     0.060 A 
ATOM     28  C   UNL A   1      36.869  29.319  29.771  1.00  0.00     0.016 A 
ATOM     29  C   UNL A   1      37.778  30.091  27.660  1.00  0.00     0.016 A 
ATOM     30  C   UNL A   1      37.937  28.424  29.928  1.00  0.00     0.010 A 
ATOM     31  C   UNL A   1      38.750  29.121  27.750  1.00  0.00     0.010 A 
ATOM     32  C   UNL A   1      38.859  28.297  28.888  1.00  0.00    -0.014 A 
BRANCH  32  33
ATOM     33  C   UNL A   1      40.121  27.558  28.953  1.00  0.00     0.031 A 
ATOM     34  C   UNL A   1      40.344  26.144  28.571  1.00  0.00     0.074 A 
ATOM     35  C   UNL A   1      41.162  28.365  29.259  1.00  0.00     0.049 A 
ATOM     36  N   UNL A   1      41.454  25.518  28.791  1.00  0.00    -0.248 NA
ATOM     37  C   UNL A   1      39.362  25.288  27.924  1.00  0.00     0.031 C 
ATOM     38  C   UNL A   1      42.591  28.162  29.101  1.00  0.00     0.029 A 
ATOM     39  N   UNL A   1      41.062  29.587  29.947  1.00  0.00    -0.354 N 
ATOM     40  C   UNL A   1      41.437  24.311  28.123  1.00  0.00     0.074 A 
ATOM     41  C   UNL A   1      40.085  24.195  27.632  1.00  0.00     0.031 C 
ATOM     42  C   UNL A   1      43.232  29.023  29.912  1.00  0.00     0.029 A 
ATOM     43  C   UNL A   1      42.215  29.674  30.730  1.00  0.00     0.049 A 
ATOM     44  H   UNL A   1      40.331  30.244  29.889  1.00  0.00     0.167 HD
ATOM     45  C   UNL A   1      42.612  23.622  27.995  1.00  0.00     0.037 A 
ATOM     46  C   UNL A   1      42.100  29.573  32.086  1.00  0.00     0.037 A 
ATOM     47  C   UNL A   1      43.651  24.257  28.803  1.00  0.00     0.049 A 
ATOM     48  C   UNL A   1      42.894  28.413  32.620  1.00  0.00     0.074 A 
ATOM     49  C   UNL A   1      44.650  25.165  28.497  1.00  0.00     0.029 A 
ATOM     50  N   UNL A   1      43.540  24.232  30.187  1.00  0.00    -0.354 N 
ATOM     51  N   UNL A   1      43.099  27.309  31.958  1.00  0.00    -0.248 NA
ATOM     52  C   UNL A   1      43.553  28.435  33.919  1.00  0.00     0.031 C 
ATOM     53  C   UNL A   1      45.086  25.751  29.710  1.00  0.00     0.029 A 
ATOM     54  C   UNL A   1      44.376  25.174  30.750  1.00  0.00     0.049 A 
ATOM     55  H   UNL A   1      42.950  23.628  30.695  1.00  0.00     0.167 HD
ATOM     56  C   UNL A   1      43.958  26.521  32.674  1.00  0.00     0.074 A 
ATOM     57  C   UNL A   1      44.188  27.252  33.906  1.00  0.00     0.031 C 
ATOM     58  C   UNL A   1      44.450  25.346  32.189  1.00  0.00     0.037 A 
BRANCH  45  59
ATOM     59  C   UNL A   1      42.933  22.520  26.997  1.00  0.00     0.064 A 
ATOM     60  C   UNL A   1      42.297  21.255  27.100  1.00  0.00     0.173 A 
ATOM     61  C   UNL A   1      43.873  22.610  25.956  1.00  0.00     0.173 A 
ATOM     62  F   UNL A   1      41.325  21.026  27.992  1.00  0.00    -0.203 F 
ATOM     63  C   UNL A   1      42.636  20.162  26.296  1.00  0.00     0.198 A 
ATOM     64  C   UNL A   1      44.231  21.506  25.165  1.00  0.00     0.198 A 
ATOM     65  F   UNL A   1      44.443  23.773  25.631  1.00  0.00    -0.203 F 
ATOM     66  F   UNL A   1      42.006  18.990  26.464  1.00  0.00    -0.200 F 
ATOM     67  C   UNL A   1      43.622  20.280  25.343  1.00  0.00     0.200 A 
ATOM     68  F   UNL A   1      45.173  21.643  24.221  1.00  0.00    -0.200 F 
ATOM     69  F   UNL A   1      43.969  19.227  24.590  1.00  0.00    -0.200 F 
ENDBRANCH  45  59
BRANCH  46  70
ATOM     70  C   UNL A   1      40.776  30.027  32.617  1.00  0.00     0.064 A 
ATOM     71  C   UNL A   1      40.448  31.399  32.531  1.00  0.00     0.173 A 
ATOM     72  C   UNL A   1      39.726  29.140  32.887  1.00  0.00     0.173 A 
ATOM     73  F   UNL A   1      41.406  32.300  32.259  1.00  0.00    -0.203 F 
ATOM     74  C   UNL A   1      39.129  31.845  32.612  1.00  0.00     0.198 A 
ATOM     75  C   UNL A   1      38.405  29.594  32.987  1.00  0.00     0.198 A 
ATOM     76  F   UNL A   1      39.954  27.823  32.980  1.00  0.00    -0.203 F 
ATOM     77  F   UNL A   1      38.850  33.143  32.425  1.00  0.00    -0.200 F 
ATOM     78  C   UNL A   1      38.106  30.940  32.824  1.00  0.00     0.200 A 
ATOM     79  F   UNL A   1      37.409  28.717  33.179  1.00  0.00    -0.200 F 
ATOM     80  F   UNL A   1      36.832  31.356  32.845  1.00  0.00    -0.200 F 
ENDBRANCH  46  70
BRANCH  58  81
ATOM     81  C   UNL A   1      45.158  24.306  33.007  1.00  0.00     0.064 A 
ATOM     82  C   UNL A   1      46.451  24.490  33.524  1.00  0.00     0.173 A 
ATOM     83  C   UNL A   1      44.476  23.147  33.447  1.00  0.00     0.173 A 
ATOM     84  F   UNL A   1      47.149  25.605  33.270  1.00  0.00    -0.203 F 
ATOM     85  C   UNL A   1      47.043  23.553  34.371  1.00  0.00     0.198 A 
ATOM     86  C   UNL A   1      45.050  22.243  34.337  1.00  0.00     0.198 A 
ATOM     87  F   UNL A   1      43.224  22.875  33.051  1.00  0.00    -0.203 F 
ATOM     88  F   UNL A   1      48.293  23.755  34.807  1.00  0.00    -0.200 F 
ATOM     89  C   UNL A   1      46.339  22.438  34.787  1.00  0.00     0.200 A 
ATOM     90  F   UNL A   1      44.336  21.195  34.774  1.00  0.00    -0.200 F 
ATOM     91  F   UNL A   1      46.894  21.566  35.639  1.00  0.00    -0.200 F 
ENDBRANCH  58  81
ENDBRANCH  32  33
ENDBRANCH  25  27
ENDBRANCH  24  25
ENDBRANCH  23  24
ENDBRANCH  22  23
ENDBRANCH   1  22
TORSDOF 16
ENDMDL
MODEL 2
REMARK VINA RESULT:     -12.5      3.723     10.136
REMARK SMILES Cc1ccccc1OCC[NH+]1CCC(CC(=O)OCCOC(=O)c2ccc(-c3c4nc(c(-c5c(F)c(F)c(F)c(F)c5F)c5ccc([nH]5)c(-c5c(F)c(F)c(F)c(F)c5F)c5nc(c(-c6c(F)c(F)c(F)c(F)c6F)c6ccc3[nH]6)C=C5)C=C4)cc2)CC1
REMARK SMILES IDX 18 1 16 2 17 3 15 4 14 5 11 6 12 7 88 8 13 10 87 11 10 12
REMARK SMILES IDX 9 13 8 14 7 15 1 16 2 17 3 18 4 19 6 20 5 21 19 22 20 23
REMARK SMILES IDX 21 24 22 25 23 26 24 27 25 28 86 29 26 30 85 31 27 32 28 33
REMARK SMILES IDX 29 34 79 35 30 36 84 37 78 38 80 39 31 40 83 41 77 42 76 43
REMARK SMILES IDX 32 45 64 46 44 47 63 48 45 49 48 50 62 51 81 52 46 53 47 54
REMARK SMILES IDX 61 56 82 57 49 58 33 59 34 60 42 61 35 62 36 63 40 64 43 65
REMARK SMILES IDX 37 66 38 67 41 68 39 69 65 70 66 71 74 72 67 73 68 74 72 75
REMARK SMILES IDX 75 76 69 77 70 78 73 79 71 80 50 81 51 82 59 83 52 84 53 85
REMARK SMILES IDX 57 86 60 87 54 88 55 89 58 90 56 91
REMARK H PARENT 11 9 80 44 48 55
REMARK Flexibility Score: inf
ROOT
ATOM      1  O   UNL A   1      35.382  22.877  24.964  1.00  0.00    -0.462 OA
ENDROOT
BRANCH   1   2
ATOM      2  C   UNL A   1      35.087  23.562  23.828  1.00  0.00     0.306 C 
ATOM      3  O   UNL A   1      35.489  23.286  22.722  1.00  0.00    -0.252 OA
BRANCH   2   4
ATOM      4  C   UNL A   1      34.165  24.716  24.151  1.00  0.00     0.126 C 
BRANCH   4   5
ATOM      5  C   UNL A   1      32.742  24.591  23.547  1.00  0.00     0.011 C 
ATOM      6  N   UNL A   1      31.163  26.786  22.776  1.00  0.00    -0.332 N 
ATOM      7  C   UNL A   1      30.516  25.875  23.710  1.00  0.00     0.262 C 
ATOM      8  C   UNL A   1      31.624  26.009  21.634  1.00  0.00     0.262 C 
ATOM      9  H   UNL A   1      31.984  27.215  23.206  1.00  0.00     0.348 HD
ATOM     10  C   UNL A   1      31.661  25.239  24.445  1.00  0.00     0.066 C 
ATOM     11  C   UNL A   1      32.754  25.060  22.068  1.00  0.00     0.066 C 
BRANCH   6  12
ATOM     12  C   UNL A   1      30.348  27.958  22.463  1.00  0.00     0.304 C 
BRANCH  12  13
ATOM     13  C   UNL A   1      30.054  28.810  23.728  1.00  0.00     0.290 C 
BRANCH  13  14
ATOM     14  O   UNL A   1      31.174  29.651  24.051  1.00  0.00    -0.487 OA
BRANCH  14  15
ATOM     15  C   UNL A   1      32.031  29.094  24.964  1.00  0.00     0.122 A 
ATOM     16  C   UNL A   1      33.814  28.952  23.160  1.00  0.00     0.048 C 
ATOM     17  C   UNL A   1      33.337  28.788  24.571  1.00  0.00    -0.009 A 
ATOM     18  C   UNL A   1      34.229  28.277  25.525  1.00  0.00     0.007 A 
ATOM     19  C   UNL A   1      33.841  28.109  26.853  1.00  0.00     0.001 A 
ATOM     20  C   UNL A   1      31.648  28.957  26.302  1.00  0.00     0.047 A 
ATOM     21  C   UNL A   1      32.553  28.461  27.245  1.00  0.00     0.004 A 
ENDBRANCH  14  15
ENDBRANCH  13  14
ENDBRANCH  12  13
ENDBRANCH   6  12
ENDBRANCH   4   5
ENDBRANCH   2   4
ENDBRANCH   1   2
BRANCH   1  22
ATOM     22  C   UNL A   1      36.099  23.596  25.959  1.00  0.00     0.274 C 
BRANCH  22  23
ATOM     23  C   UNL A   1      37.573  23.642  25.554  1.00  0.00     0.275 C 
BRANCH  23  24
ATOM     24  O   UNL A   1      38.566  23.064  26.469  1.00  0.00    -0.458 OA
BRANCH  24  25
ATOM     25  C   UNL A   1      39.836  23.460  26.748  1.00  0.00     0.338 C 
ATOM     26  O   UNL A   1      40.799  22.725  26.570  1.00  0.00    -0.246 OA
BRANCH  25  27
ATOM     27  C   UNL A   1      40.037  24.829  27.265  1.00  0.00     0.060 A 
ATOM     28  C   UNL A   1      40.458  25.864  26.407  1.00  0.00     0.016 A 
ATOM     29  C   UNL A   1      39.682  25.106  28.575  1.00  0.00     0.016 A 
ATOM     30  C   UNL A   1      40.378  27.200  26.822  1.00  0.00     0.010 A 
ATOM     31  C   UNL A   1      39.478  26.418  28.935  1.00  0.00     0.010 A 
ATOM     32  C   UNL A   1      39.844  27.477  28.081  1.00  0.00    -0.014 A 
BRANCH  32  33
ATOM     33  C   UNL A   1      39.855  28.783  28.744  1.00  0.00     0.031 A 
ATOM     34  C   UNL A   1      38.810  29.830  28.663  1.00  0.00     0.074 A 
ATOM     35  C   UNL A   1      40.885  28.897  29.614  1.00  0.00     0.049 A 
ATOM     36  N   UNL A   1      38.956  31.014  29.161  1.00  0.00    -0.248 NA
ATOM     37  C   UNL A   1      37.517  29.671  28.018  1.00  0.00     0.031 C 
ATOM     38  C   UNL A   1      41.097  29.829  30.706  1.00  0.00     0.029 A 
ATOM     39  N   UNL A   1      42.085  28.166  29.546  1.00  0.00    -0.354 N 
ATOM     40  C   UNL A   1      37.743  31.672  29.134  1.00  0.00     0.074 A 
ATOM     41  C   UNL A   1      36.884  30.803  28.366  1.00  0.00     0.031 C 
ATOM     42  C   UNL A   1      42.409  29.840  31.004  1.00  0.00     0.029 A 
ATOM     43  C   UNL A   1      43.082  29.039  29.988  1.00  0.00     0.049 A 
ATOM     44  H   UNL A   1      42.198  27.235  29.250  1.00  0.00     0.167 HD
ATOM     45  C   UNL A   1      37.613  32.825  29.859  1.00  0.00     0.037 A 
ATOM     46  C   UNL A   1      43.998  29.502  29.088  1.00  0.00     0.037 A 
ATOM     47  C   UNL A   1      38.914  33.234  30.382  1.00  0.00     0.049 A 
ATOM     48  C   UNL A   1      43.964  31.001  28.992  1.00  0.00     0.074 A 
ATOM     49  C   UNL A   1      39.533  33.044  31.605  1.00  0.00     0.029 A 
ATOM     50  N   UNL A   1      39.897  33.652  29.494  1.00  0.00    -0.354 N 
ATOM     51  N   UNL A   1      42.887  31.715  29.162  1.00  0.00    -0.248 NA
ATOM     52  C   UNL A   1      45.153  31.806  28.745  1.00  0.00     0.031 C 
ATOM     53  C   UNL A   1      40.919  33.272  31.427  1.00  0.00     0.029 A 
ATOM     54  C   UNL A   1      41.133  33.633  30.107  1.00  0.00     0.049 A 
ATOM     55  H   UNL A   1      39.736  33.924  28.561  1.00  0.00     0.167 HD
ATOM     56  C   UNL A   1      43.228  33.039  29.133  1.00  0.00     0.074 A 
ATOM     57  C   UNL A   1      44.648  33.047  28.837  1.00  0.00     0.031 C 
ATOM     58  C   UNL A   1      42.331  34.032  29.392  1.00  0.00     0.037 A 
BRANCH  45  59
ATOM     59  C   UNL A   1      36.322  33.491  30.310  1.00  0.00     0.064 A 
ATOM     60  C   UNL A   1      35.470  34.115  29.360  1.00  0.00     0.173 A 
ATOM     61  C   UNL A   1      35.880  33.601  31.639  1.00  0.00     0.173 A 
ATOM     62  F   UNL A   1      35.708  34.041  28.044  1.00  0.00    -0.203 F 
ATOM     63  C   UNL A   1      34.336  34.851  29.719  1.00  0.00     0.198 A 
ATOM     64  C   UNL A   1      34.756  34.361  32.002  1.00  0.00     0.198 A 
ATOM     65  F   UNL A   1      36.485  32.940  32.630  1.00  0.00    -0.203 F 
ATOM     66  F   UNL A   1      33.590  35.431  28.767  1.00  0.00    -0.200 F 
ATOM     67  C   UNL A   1      33.992  34.995  31.043  1.00  0.00     0.200 A 
ATOM     68  F   UNL A   1      34.415  34.469  33.294  1.00  0.00    -0.200 F 
ATOM     69  F   UNL A   1      32.922  35.724  31.392  1.00  0.00    -0.200 F 
ENDBRANCH  45  59
BRANCH  46  70
ATOM     70  C   UNL A   1      44.244  28.570  27.942  1.00  0.00     0.064 A 
ATOM     71  C   UNL A   1      44.881  27.336  28.199  1.00  0.00     0.173 A 
ATOM     72  C   UNL A   1      43.596  28.705  26.707  1.00  0.00     0.173 A 
ATOM     73  F   UNL A   1      45.508  27.138  29.371  1.00  0.00    -0.203 F 
ATOM     74  C   UNL A   1      44.789  26.264  27.313  1.00  0.00     0.198 A 
ATOM     75  C   UNL A   1      43.522  27.631  25.811  1.00  0.00     0.198 A 
ATOM     76  F   UNL A   1      42.965  29.843  26.390  1.00  0.00    -0.203 F 
ATOM     77  F   UNL A   1      45.322  25.078  27.640  1.00  0.00    -0.200 F 
ATOM     78  C   UNL A   1      44.095  26.407  26.126  1.00  0.00     0.200 A 
ATOM     79  F   UNL A   1      42.838  27.762  24.665  1.00  0.00    -0.200 F 
ATOM     80  F   UNL A   1      43.954  25.362  25.297  1.00  0.00    -0.200 F 
ENDBRANCH  46  70
BRANCH  58  81
ATOM     81  C   UNL A   1      42.552  35.490  29.107  1.00  0.00     0.064 A 
ATOM     82  C   UNL A   1      41.967  36.152  28.016  1.00  0.00     0.173 A 
ATOM     83  C   UNL A   1      43.230  36.312  30.038  1.00  0.00     0.173 A 
ATOM     84  F   UNL A   1      41.204  35.496  27.132  1.00  0.00    -0.203 F 
ATOM     85  C   UNL A   1      42.102  37.529  27.836  1.00  0.00     0.198 A 
ATOM     86  C   UNL A   1      43.314  37.693  29.883  1.00  0.00     0.198 A 
ATOM     87  F   UNL A   1      43.804  35.803  31.138  1.00  0.00    -0.203 F 
ATOM     88  F   UNL A   1      41.557  38.109  26.758  1.00  0.00    -0.200 F 
ATOM     89  C   UNL A   1      42.762  38.300  28.774  1.00  0.00     0.200 A 
ATOM     90  F   UNL A   1      43.911  38.433  30.828  1.00  0.00    -0.200 F 
ATOM     91  F   UNL A   1      42.847  39.627  28.621  1.00  0.00    -0.200 F 
ENDBRANCH  58  81
ENDBRANCH  32  33
ENDBRANCH  25  27
ENDBRANCH  24  25
ENDBRANCH  23  24
ENDBRANCH  22  23
ENDBRANCH   1  22
TORSDOF 16
ENDMDL
MODEL 3
REMARK VINA RESULT:     -12.5      3.759     10.134
REMARK SMILES Cc1ccccc1OCC[NH+]1CCC(CC(=O)OCCOC(=O)c2ccc(-c3c4nc(c(-c5c(F)c(F)c(F)c(F)c5F)c5ccc([nH]5)c(-c5c(F)c(F)c(F)c(F)c5F)c5nc(c(-c6c(F)c(F)c(F)c(F)c6F)c6ccc3[nH]6)C=C5)C=C4)cc2)CC1
REMARK SMILES IDX 18 1 16 2 17 3 15 4 14 5 11 6 12 7 88 8 13 10 87 11 10 12
REMARK SMILES IDX 9 13 8 14 7 15 1 16 2 17 3 18 4 19 6 20 5 21 19 22 20 23
REMARK SMILES IDX 21 24 22 25 23 26 24 27 25 28 86 29 26 30 85 31 27 32 28 33
REMARK SMILES IDX 29 34 79 35 30 36 84 37 78 38 80 39 31 40 83 41 77 42 76 43
REMARK SMILES IDX 32 45 64 46 44 47 63 48 45 49 48 50 62 51 81 52 46 53 47 54
REMARK SMILES IDX 61 56 82 57 49 58 33 59 34 60 42 61 35 62 36 63 40 64 43 65
REMARK SMILES IDX 37 66 38 67 41 68 39 69 65 70 66 71 74 72 67 73 68 74 72 75
REMARK SMILES IDX 75 76 69 77 70 78 73 79 71 80 50 81 51 82 59 83 52 84 53 85
REMARK SMILES IDX 57 86 60 87 54 88 55 89 58 90 56 91
REMARK H PARENT 11 9 80 44 48 55
REMARK Flexibility Score: inf
ROOT
ATOM      1  O   UNL A   1      35.075  22.663  25.685  1.00  0.00    -0.462 OA
ENDROOT
BRANCH   1   2
ATOM      2  C   UNL A   1      34.779  21.342  25.567  1.00  0.00     0.306 C 
ATOM      3  O   UNL A   1      35.462  20.520  25.004  1.00  0.00    -0.252 OA
BRANCH   2   4
ATOM      4  C   UNL A   1      33.468  21.049  26.262  1.00  0.00     0.126 C 
BRANCH   4   5
ATOM      5  C   UNL A   1      32.211  21.548  25.503  1.00  0.00     0.011 C 
ATOM      6  N   UNL A   1      32.157  23.859  23.902  1.00  0.00    -0.332 N 
ATOM      7  C   UNL A   1      31.139  23.822  24.942  1.00  0.00     0.262 C 
ATOM      8  C   UNL A   1      32.044  22.639  23.115  1.00  0.00     0.262 C 
ATOM      9  H   UNL A   1      33.090  23.871  24.316  1.00  0.00     0.348 HD
ATOM     10  C   UNL A   1      31.735  22.935  25.998  1.00  0.00     0.066 C 
ATOM     11  C   UNL A   1      32.437  21.425  23.972  1.00  0.00     0.066 C 
BRANCH   6  12
ATOM     12  C   UNL A   1      32.154  25.110  23.145  1.00  0.00     0.304 C 
BRANCH  12  13
ATOM     13  C   UNL A   1      30.970  26.027  23.553  1.00  0.00     0.290 C 
BRANCH  13  14
ATOM     14  O   UNL A   1      31.396  27.396  23.664  1.00  0.00    -0.487 OA
BRANCH  14  15
ATOM     15  C   UNL A   1      32.048  27.671  24.838  1.00  0.00     0.122 A 
ATOM     16  C   UNL A   1      34.028  28.536  23.501  1.00  0.00     0.048 C 
ATOM     17  C   UNL A   1      33.310  28.271  24.790  1.00  0.00    -0.009 A 
ATOM     18  C   UNL A   1      33.945  28.608  25.993  1.00  0.00     0.007 A 
ATOM     19  C   UNL A   1      33.322  28.390  27.221  1.00  0.00     0.001 A 
ATOM     20  C   UNL A   1      31.406  27.480  26.066  1.00  0.00     0.047 A 
ATOM     21  C   UNL A   1      32.045  27.837  27.257  1.00  0.00     0.004 A 
ENDBRANCH  14  15
ENDBRANCH  13  14
ENDBRANCH  12  13
ENDBRANCH   6  12
ENDBRANCH   4   5
ENDBRANCH   2   4
ENDBRANCH   1   2
BRANCH   1  22
ATOM     22  C   UNL A   1      36.248  23.105  25.013  1.00  0.00     0.274 C 
BRANCH  22  23
ATOM     23  C   UNL A   1      37.201  23.706  26.046  1.00  0.00     0.275 C 
BRANCH  23  24
ATOM     24  O   UNL A   1      38.621  23.343  25.979  1.00  0.00    -0.458 OA
BRANCH  24  25
ATOM     25  C   UNL A   1      39.624  23.553  26.874  1.00  0.00     0.338 C 
ATOM     26  O   UNL A   1      40.367  22.652  27.238  1.00  0.00    -0.246 OA
BRANCH  25  27
ATOM     27  C   UNL A   1      39.812  24.923  27.394  1.00  0.00     0.060 A 
ATOM     28  C   UNL A   1      40.322  25.940  26.565  1.00  0.00     0.016 A 
ATOM     29  C   UNL A   1      39.358  25.219  28.669  1.00  0.00     0.016 A 
ATOM     30  C   UNL A   1      40.238  27.282  26.962  1.00  0.00     0.010 A 
ATOM     31  C   UNL A   1      39.154  26.538  29.002  1.00  0.00     0.010 A 
ATOM     32  C   UNL A   1      39.611  27.582  28.171  1.00  0.00    -0.014 A 
BRANCH  32  33
ATOM     33  C   UNL A   1      39.596  28.894  28.823  1.00  0.00     0.031 A 
ATOM     34  C   UNL A   1      38.561  29.944  28.683  1.00  0.00     0.074 A 
ATOM     35  C   UNL A   1      40.583  29.011  29.740  1.00  0.00     0.049 A 
ATOM     36  N   UNL A   1      38.688  31.132  29.177  1.00  0.00    -0.248 NA
ATOM     37  C   UNL A   1      37.300  29.785  27.979  1.00  0.00     0.031 C 
ATOM     38  C   UNL A   1      40.748  29.951  30.833  1.00  0.00     0.029 A 
ATOM     39  N   UNL A   1      41.782  28.274  29.736  1.00  0.00    -0.354 N 
ATOM     40  C   UNL A   1      37.482  31.795  29.086  1.00  0.00     0.074 A 
ATOM     41  C   UNL A   1      36.656  30.923  28.286  1.00  0.00     0.031 C 
ATOM     42  C   UNL A   1      42.044  29.959  31.193  1.00  0.00     0.029 A 
ATOM     43  C   UNL A   1      42.761  29.146  30.217  1.00  0.00     0.049 A 
ATOM     44  H   UNL A   1      41.904  27.339  29.453  1.00  0.00     0.167 HD
ATOM     45  C   UNL A   1      37.322  32.955  29.795  1.00  0.00     0.037 A 
ATOM     46  C   UNL A   1      43.721  29.597  29.358  1.00  0.00     0.037 A 
ATOM     47  C   UNL A   1      38.600  33.363  30.375  1.00  0.00     0.049 A 
ATOM     48  C   UNL A   1      43.700  31.096  29.247  1.00  0.00     0.074 A 
ATOM     49  C   UNL A   1      39.158  33.181  31.628  1.00  0.00     0.029 A 
ATOM     50  N   UNL A   1      39.626  33.769  29.531  1.00  0.00    -0.354 N 
ATOM     51  N   UNL A   1      42.618  31.816  29.359  1.00  0.00    -0.248 NA
ATOM     52  C   UNL A   1      44.903  31.893  29.050  1.00  0.00     0.031 C 
ATOM     53  C   UNL A   1      40.553  33.402  31.515  1.00  0.00     0.029 A 
ATOM     54  C   UNL A   1      40.831  33.750  30.203  1.00  0.00     0.049 A 
ATOM     55  H   UNL A   1      39.511  34.033  28.590  1.00  0.00     0.167 HD
ATOM     56  C   UNL A   1      42.967  33.138  29.335  1.00  0.00     0.074 A 
ATOM     57  C   UNL A   1      44.400  33.137  29.108  1.00  0.00     0.031 C 
ATOM     58  C   UNL A   1      42.063  34.137  29.542  1.00  0.00     0.037 A 
BRANCH  45  59
ATOM     59  C   UNL A   1      36.015  33.631  30.177  1.00  0.00     0.064 A 
ATOM     60  C   UNL A   1      35.184  34.199  29.175  1.00  0.00     0.173 A 
ATOM     61  C   UNL A   1      35.537  33.803  31.487  1.00  0.00     0.173 A 
ATOM     62  F   UNL A   1      35.458  34.062  27.872  1.00  0.00    -0.203 F 
ATOM     63  C   UNL A   1      34.035  34.942  29.467  1.00  0.00     0.198 A 
ATOM     64  C   UNL A   1      34.398  34.569  31.782  1.00  0.00     0.198 A 
ATOM     65  F   UNL A   1      36.120  33.197  32.526  1.00  0.00    -0.203 F 
ATOM     66  F   UNL A   1      33.310  35.466  28.468  1.00  0.00    -0.200 F 
ATOM     67  C   UNL A   1      33.654  35.148  30.773  1.00  0.00     0.200 A 
ATOM     68  F   UNL A   1      34.022  34.738  33.058  1.00  0.00    -0.200 F 
ATOM     69  F   UNL A   1      32.570  35.884  31.057  1.00  0.00    -0.200 F 
ENDBRANCH  45  59
BRANCH  46  70
ATOM     70  C   UNL A   1      44.017  28.654  28.233  1.00  0.00     0.064 A 
ATOM     71  C   UNL A   1      44.623  27.414  28.532  1.00  0.00     0.173 A 
ATOM     72  C   UNL A   1      43.439  28.788  26.963  1.00  0.00     0.173 A 
ATOM     73  F   UNL A   1      45.183  27.216  29.738  1.00  0.00    -0.203 F 
ATOM     74  C   UNL A   1      44.566  26.336  27.649  1.00  0.00     0.198 A 
ATOM     75  C   UNL A   1      43.400  27.709  26.072  1.00  0.00     0.198 A 
ATOM     76  F   UNL A   1      42.840  29.932  26.605  1.00  0.00    -0.203 F 
ATOM     77  F   UNL A   1      45.065  25.146  28.013  1.00  0.00    -0.200 F 
ATOM     78  C   UNL A   1      43.939  26.480  26.425  1.00  0.00     0.200 A 
ATOM     79  F   UNL A   1      42.780  27.840  24.889  1.00  0.00    -0.200 F 
ATOM     80  F   UNL A   1      43.830  25.430  25.597  1.00  0.00    -0.200 F 
ENDBRANCH  46  70
BRANCH  58  81
ATOM     81  C   UNL A   1      42.305  35.591  29.256  1.00  0.00     0.064 A 
ATOM     82  C   UNL A   1      43.137  36.397  30.049  1.00  0.00     0.173 A 
ATOM     83  C   UNL A   1      41.838  36.178  28.055  1.00  0.00     0.173 A 
ATOM     84  F   UNL A   1      43.730  35.914  31.149  1.00  0.00    -0.203 F 
ATOM     85  C   UNL A   1      43.430  37.716  29.700  1.00  0.00     0.198 A 
ATOM     86  C   UNL A   1      42.180  37.474  27.683  1.00  0.00     0.198 A 
ATOM     87  F   UNL A   1      41.064  35.499  27.197  1.00  0.00    -0.203 F 
ATOM     88  F   UNL A   1      44.197  38.458  30.510  1.00  0.00    -0.200 F 
ATOM     89  C   UNL A   1      42.964  38.249  28.513  1.00  0.00     0.200 A 
ATOM     90  F   UNL A   1      41.765  37.960  26.505  1.00  0.00    -0.200 F 
ATOM     91  F   UNL A   1      43.289  39.499  28.159  1.00  0.00    -0.200 F 
ENDBRANCH  58  81
ENDBRANCH  32  33
ENDBRANCH  25  27
ENDBRANCH  24  25
ENDBRANCH  23  24
ENDBRANCH  22  23
ENDBRANCH   1  22
TORSDOF 16
ENDMDL
