MODEL 1
REMARK VINA RESULT:     -11.1      0.000      0.000
REMARK SMILES O=C(CCCCCN1C(=O)[C@@H]2CC=CC[C@H]2C1=O)OCCOC(=O)c1ccc(-c2c3nc(c(-c4c(F)c(F)c(F)c(F)c4F)c4ccc([nH]4)c(-c4c(F)c(F)c(F)c(F)c4F)c4nc(c(-c5c(F)c(F)c(F)c(F)c5F)c5ccc2[nH]5)C=C4)C=C3)cc1
REMARK SMILES IDX 19 1 2 2 1 3 3 4 4 5 5 6 6 7 7 8 8 9 9 10 17 11 10 12 11 13
REMARK SMILES IDX 16 14 18 15 12 16 15 17 13 18 14 19 20 20 21 21 22 22 23 23
REMARK SMILES IDX 24 24 25 25 26 26 87 27 27 28 86 29 28 30 29 31 30 32 80 33
REMARK SMILES IDX 31 34 85 35 79 36 81 37 32 38 84 39 78 40 77 41 33 43 65 44
REMARK SMILES IDX 45 45 64 46 46 47 49 48 63 49 82 50 47 51 48 52 62 54 83 55
REMARK SMILES IDX 50 56 34 57 35 58 43 59 36 60 37 61 41 62 44 63 38 64 39 65
REMARK SMILES IDX 42 66 40 67 66 68 67 69 75 70 68 71 69 72 73 73 76 74 70 75
REMARK SMILES IDX 71 76 74 77 72 78 51 79 52 80 60 81 53 82 54 83 58 84 61 85
REMARK SMILES IDX 55 86 56 87 59 88 57 89
REMARK H PARENT 81 42 49 53
REMARK Flexibility Score: inf
ROOT
ATOM      1  O   UNL A   1      32.395  30.346  26.765  1.00  0.00    -0.462 OA
ENDROOT
BRANCH   1   2
ATOM      2  C   UNL A   1      32.719  29.411  25.833  1.00  0.00     0.305 C 
ATOM      3  O   UNL A   1      32.920  29.708  24.661  1.00  0.00    -0.252 OA
BRANCH   2   4
ATOM      4  C   UNL A   1      32.623  27.973  26.304  1.00  0.00     0.123 C 
BRANCH   4   5
ATOM      5  C   UNL A   1      33.917  27.178  26.165  1.00  0.00     0.012 C 
BRANCH   5   6
ATOM      6  C   UNL A   1      33.715  25.685  25.903  1.00  0.00     0.002 C 
BRANCH   6   7
ATOM      7  C   UNL A   1      34.314  25.149  24.589  1.00  0.00     0.022 C 
BRANCH   7   8
ATOM      8  C   UNL A   1      33.315  24.578  23.580  1.00  0.00     0.128 C 
BRANCH   8   9
ATOM      9  N   UNL A   1      32.188  25.451  23.350  1.00  0.00    -0.282 N 
ATOM     10  C   UNL A   1      32.222  26.568  22.544  1.00  0.00     0.233 C 
ATOM     11  C   UNL A   1      30.951  25.253  23.921  1.00  0.00     0.233 C 
ATOM     12  O   UNL A   1      33.171  27.009  21.917  1.00  0.00    -0.274 OA
ATOM     13  C   UNL A   1      30.827  27.106  22.493  1.00  0.00     0.095 C 
ATOM     14  C   UNL A   1      30.237  26.558  23.786  1.00  0.00     0.095 C 
ATOM     15  O   UNL A   1      30.555  24.271  24.525  1.00  0.00    -0.274 OA
ATOM     16  C   UNL A   1      30.632  28.608  22.465  1.00  0.00     0.041 C 
ATOM     17  C   UNL A   1      28.728  26.618  23.715  1.00  0.00     0.041 C 
ATOM     18  C   UNL A   1      29.186  28.926  22.795  1.00  0.00    -0.030 C 
ATOM     19  C   UNL A   1      28.327  28.027  23.318  1.00  0.00    -0.030 C 
ENDBRANCH   8   9
ENDBRANCH   7   8
ENDBRANCH   6   7
ENDBRANCH   5   6
ENDBRANCH   4   5
ENDBRANCH   2   4
ENDBRANCH   1   2
BRANCH   1  20
ATOM     20  C   UNL A   1      31.439  31.352  26.389  1.00  0.00     0.274 C 
BRANCH  20  21
ATOM     21  C   UNL A   1      31.722  32.713  27.033  1.00  0.00     0.275 C 
BRANCH  21  22
ATOM     22  O   UNL A   1      33.113  33.060  26.931  1.00  0.00    -0.458 OA
BRANCH  22  23
ATOM     23  C   UNL A   1      33.641  33.555  28.081  1.00  0.00     0.338 C 
ATOM     24  O   UNL A   1      33.112  34.337  28.848  1.00  0.00    -0.246 OA
BRANCH  23  25
ATOM     25  C   UNL A   1      34.919  32.872  28.388  1.00  0.00     0.060 A 
ATOM     26  C   UNL A   1      34.849  31.522  28.750  1.00  0.00     0.016 A 
ATOM     27  C   UNL A   1      36.154  33.526  28.341  1.00  0.00     0.016 A 
ATOM     28  C   UNL A   1      36.002  30.839  29.133  1.00  0.00     0.010 A 
ATOM     29  C   UNL A   1      37.313  32.840  28.728  1.00  0.00     0.010 A 
ATOM     30  C   UNL A   1      37.233  31.508  29.168  1.00  0.00    -0.014 A 
BRANCH  30  31
ATOM     31  C   UNL A   1      38.377  30.864  29.858  1.00  0.00     0.031 A 
ATOM     32  C   UNL A   1      38.631  31.208  31.301  1.00  0.00     0.074 A 
ATOM     33  C   UNL A   1      39.145  29.948  29.242  1.00  0.00     0.049 A 
ATOM     34  N   UNL A   1      39.512  30.714  32.133  1.00  0.00    -0.248 NA
ATOM     35  C   UNL A   1      37.770  32.250  31.883  1.00  0.00     0.031 C 
ATOM     36  C   UNL A   1      38.995  29.511  27.858  1.00  0.00     0.029 A 
ATOM     37  N   UNL A   1      40.206  29.217  29.717  1.00  0.00    -0.354 N 
ATOM     38  C   UNL A   1      39.300  31.371  33.337  1.00  0.00     0.074 A 
ATOM     39  C   UNL A   1      38.242  32.332  33.117  1.00  0.00     0.031 C 
ATOM     40  C   UNL A   1      39.932  28.582  27.592  1.00  0.00     0.029 A 
ATOM     41  C   UNL A   1      40.750  28.370  28.785  1.00  0.00     0.049 A 
ATOM     42  H   UNL A   1      40.543  29.293  30.639  1.00  0.00     0.167 HD
ATOM     43  C   UNL A   1      39.918  31.180  34.527  1.00  0.00     0.037 A 
ATOM     44  C   UNL A   1      41.791  27.520  28.888  1.00  0.00     0.037 A 
ATOM     45  C   UNL A   1      40.977  30.235  34.751  1.00  0.00     0.049 A 
ATOM     46  C   UNL A   1      42.513  27.378  30.204  1.00  0.00     0.074 A 
ATOM     47  C   UNL A   1      41.648  29.953  35.928  1.00  0.00     0.029 A 
ATOM     48  N   UNL A   1      41.531  29.427  33.771  1.00  0.00    -0.354 N 
ATOM     49  N   UNL A   1      42.265  27.957  31.354  1.00  0.00    -0.248 NA
ATOM     50  C   UNL A   1      43.657  26.453  30.236  1.00  0.00     0.031 C 
ATOM     51  C   UNL A   1      42.641  29.007  35.649  1.00  0.00     0.029 A 
ATOM     52  C   UNL A   1      42.557  28.667  34.308  1.00  0.00     0.049 A 
ATOM     53  H   UNL A   1      41.239  29.398  32.831  1.00  0.00     0.167 HD
ATOM     54  C   UNL A   1      43.196  27.444  32.250  1.00  0.00     0.074 A 
ATOM     55  C   UNL A   1      44.011  26.503  31.512  1.00  0.00     0.031 C 
ATOM     56  C   UNL A   1      43.355  27.726  33.566  1.00  0.00     0.037 A 
BRANCH  43  57
ATOM     57  C   UNL A   1      39.461  32.028  35.674  1.00  0.00     0.064 A 
ATOM     58  C   UNL A   1      38.468  31.588  36.562  1.00  0.00     0.173 A 
ATOM     59  C   UNL A   1      40.025  33.293  35.891  1.00  0.00     0.173 A 
ATOM     60  F   UNL A   1      37.886  30.392  36.385  1.00  0.00    -0.203 F 
ATOM     61  C   UNL A   1      38.036  32.397  37.609  1.00  0.00     0.198 A 
ATOM     62  C   UNL A   1      39.608  34.089  36.954  1.00  0.00     0.198 A 
ATOM     63  F   UNL A   1      40.979  33.759  35.070  1.00  0.00    -0.203 F 
ATOM     64  F   UNL A   1      37.051  31.978  38.416  1.00  0.00    -0.200 F 
ATOM     65  C   UNL A   1      38.609  33.645  37.806  1.00  0.00     0.200 A 
ATOM     66  F   UNL A   1      40.167  35.293  37.148  1.00  0.00    -0.200 F 
ATOM     67  F   UNL A   1      38.190  34.423  38.813  1.00  0.00    -0.200 F 
ENDBRANCH  43  57
BRANCH  44  68
ATOM     68  C   UNL A   1      42.208  26.715  27.713  1.00  0.00     0.064 A 
ATOM     69  C   UNL A   1      41.641  25.458  27.461  1.00  0.00     0.173 A 
ATOM     70  C   UNL A   1      43.198  27.175  26.833  1.00  0.00     0.173 A 
ATOM     71  F   UNL A   1      40.712  24.964  28.292  1.00  0.00    -0.203 F 
ATOM     72  C   UNL A   1      42.059  24.685  26.380  1.00  0.00     0.198 A 
ATOM     73  C   UNL A   1      43.599  26.411  25.739  1.00  0.00     0.198 A 
ATOM     74  F   UNL A   1      43.776  28.368  27.037  1.00  0.00    -0.203 F 
ATOM     75  F   UNL A   1      41.532  23.469  26.185  1.00  0.00    -0.200 F 
ATOM     76  C   UNL A   1      43.035  25.165  25.518  1.00  0.00     0.200 A 
ATOM     77  F   UNL A   1      44.538  26.879  24.906  1.00  0.00    -0.200 F 
ATOM     78  F   UNL A   1      43.438  24.419  24.479  1.00  0.00    -0.200 F 
ENDBRANCH  44  68
BRANCH  56  79
ATOM     79  C   UNL A   1      44.428  26.984  34.310  1.00  0.00     0.064 A 
ATOM     80  C   UNL A   1      45.718  27.512  34.460  1.00  0.00     0.173 A 
ATOM     81  C   UNL A   1      44.144  25.755  34.926  1.00  0.00     0.173 A 
ATOM     82  F   UNL A   1      46.042  28.676  33.880  1.00  0.00    -0.203 F 
ATOM     83  C   UNL A   1      46.691  26.826  35.184  1.00  0.00     0.198 A 
ATOM     84  C   UNL A   1      45.111  25.086  35.670  1.00  0.00     0.198 A 
ATOM     85  F   UNL A   1      42.922  25.210  34.818  1.00  0.00    -0.203 F 
ATOM     86  F   UNL A   1      47.928  27.331  35.284  1.00  0.00    -0.200 F 
ATOM     87  C   UNL A   1      46.385  25.619  35.794  1.00  0.00     0.200 A 
ATOM     88  F   UNL A   1      44.810  23.924  36.269  1.00  0.00    -0.200 F 
ATOM     89  F   UNL A   1      47.320  24.966  36.498  1.00  0.00    -0.200 F 
ENDBRANCH  56  79
ENDBRANCH  30  31
ENDBRANCH  23  25
ENDBRANCH  22  23
ENDBRANCH  21  22
ENDBRANCH  20  21
ENDBRANCH   1  20
TORSDOF 16
ENDMDL
MODEL 2
REMARK VINA RESULT:     -11.1      3.910      9.034
REMARK SMILES O=C(CCCCCN1C(=O)[C@@H]2CC=CC[C@H]2C1=O)OCCOC(=O)c1ccc(-c2c3nc(c(-c4c(F)c(F)c(F)c(F)c4F)c4ccc([nH]4)c(-c4c(F)c(F)c(F)c(F)c4F)c4nc(c(-c5c(F)c(F)c(F)c(F)c5F)c5ccc2[nH]5)C=C4)C=C3)cc1
REMARK SMILES IDX 19 1 2 2 1 3 3 4 4 5 5 6 6 7 7 8 8 9 9 10 17 11 10 12 11 13
REMARK SMILES IDX 16 14 18 15 12 16 15 17 13 18 14 19 20 20 21 21 22 22 23 23
REMARK SMILES IDX 24 24 25 25 26 26 87 27 27 28 86 29 28 30 29 31 30 32 80 33
REMARK SMILES IDX 31 34 85 35 79 36 81 37 32 38 84 39 78 40 77 41 33 43 65 44
REMARK SMILES IDX 45 45 64 46 46 47 49 48 63 49 82 50 47 51 48 52 62 54 83 55
REMARK SMILES IDX 50 56 34 57 35 58 43 59 36 60 37 61 41 62 44 63 38 64 39 65
REMARK SMILES IDX 42 66 40 67 66 68 67 69 75 70 68 71 69 72 73 73 76 74 70 75
REMARK SMILES IDX 71 76 74 77 72 78 51 79 52 80 60 81 53 82 54 83 58 84 61 85
REMARK SMILES IDX 55 86 56 87 59 88 57 89
REMARK H PARENT 81 42 49 53
REMARK Flexibility Score: inf
ROOT
ATOM      1  O   UNL A   1      42.162  21.517  25.461  1.00  0.00    -0.462 OA
ENDROOT
BRANCH   1   2
ATOM      2  C   UNL A   1      41.278  20.829  26.230  1.00  0.00     0.305 C 
ATOM      3  O   UNL A   1      41.295  19.606  26.299  1.00  0.00    -0.252 OA
BRANCH   2   4
ATOM      4  C   UNL A   1      40.166  21.663  26.835  1.00  0.00     0.123 C 
BRANCH   4   5
ATOM      5  C   UNL A   1      39.618  22.746  25.912  1.00  0.00     0.012 C 
BRANCH   5   6
ATOM      6  C   UNL A   1      38.692  23.751  26.598  1.00  0.00     0.002 C 
BRANCH   6   7
ATOM      7  C   UNL A   1      37.234  23.765  26.102  1.00  0.00     0.022 C 
BRANCH   7   8
ATOM      8  C   UNL A   1      36.981  23.111  24.742  1.00  0.00     0.128 C 
BRANCH   8   9
ATOM      9  N   UNL A   1      36.013  22.041  24.805  1.00  0.00    -0.282 N 
ATOM     10  C   UNL A   1      36.338  20.709  24.942  1.00  0.00     0.233 C 
ATOM     11  C   UNL A   1      34.654  22.247  24.735  1.00  0.00     0.233 C 
ATOM     12  O   UNL A   1      37.449  20.213  25.018  1.00  0.00    -0.274 OA
ATOM     13  C   UNL A   1      35.047  19.964  25.083  1.00  0.00     0.095 C 
ATOM     14  C   UNL A   1      34.067  20.913  24.408  1.00  0.00     0.095 C 
ATOM     15  O   UNL A   1      34.054  23.306  24.796  1.00  0.00    -0.274 OA
ATOM     16  C   UNL A   1      34.927  18.597  24.440  1.00  0.00     0.041 C 
ATOM     17  C   UNL A   1      32.657  20.558  24.823  1.00  0.00     0.041 C 
ATOM     18  C   UNL A   1      33.464  18.206  24.379  1.00  0.00    -0.030 C 
ATOM     19  C   UNL A   1      32.452  19.074  24.587  1.00  0.00    -0.030 C 
ENDBRANCH   8   9
ENDBRANCH   7   8
ENDBRANCH   6   7
ENDBRANCH   5   6
ENDBRANCH   4   5
ENDBRANCH   2   4
ENDBRANCH   1   2
BRANCH   1  20
ATOM     20  C   UNL A   1      43.561  21.353  25.752  1.00  0.00     0.274 C 
BRANCH  20  21
ATOM     21  C   UNL A   1      44.448  22.341  24.987  1.00  0.00     0.275 C 
BRANCH  21  22
ATOM     22  O   UNL A   1      43.730  23.542  24.658  1.00  0.00    -0.458 OA
BRANCH  22  23
ATOM     23  C   UNL A   1      44.376  24.683  25.015  1.00  0.00     0.338 C 
ATOM     24  O   UNL A   1      45.424  25.100  24.559  1.00  0.00    -0.246 OA
BRANCH  23  25
ATOM     25  C   UNL A   1      43.534  25.474  25.941  1.00  0.00     0.060 A 
ATOM     26  C   UNL A   1      43.966  26.771  26.245  1.00  0.00     0.016 A 
ATOM     27  C   UNL A   1      42.363  24.969  26.514  1.00  0.00     0.016 A 
ATOM     28  C   UNL A   1      43.269  27.541  27.173  1.00  0.00     0.010 A 
ATOM     29  C   UNL A   1      41.663  25.743  27.448  1.00  0.00     0.010 A 
ATOM     30  C   UNL A   1      42.139  27.014  27.814  1.00  0.00    -0.014 A 
BRANCH  30  31
ATOM     31  C   UNL A   1      41.597  27.717  29.001  1.00  0.00     0.031 A 
ATOM     32  C   UNL A   1      42.318  27.570  30.314  1.00  0.00     0.074 A 
ATOM     33  C   UNL A   1      40.522  28.520  28.913  1.00  0.00     0.049 A 
ATOM     34  N   UNL A   1      42.085  28.152  31.463  1.00  0.00    -0.248 NA
ATOM     35  C   UNL A   1      43.458  26.641  30.330  1.00  0.00     0.031 C 
ATOM     36  C   UNL A   1      39.745  28.765  27.702  1.00  0.00     0.029 A 
ATOM     37  N   UNL A   1      39.904  29.283  29.874  1.00  0.00    -0.354 N 
ATOM     38  C   UNL A   1      43.057  27.674  32.330  1.00  0.00     0.074 A 
ATOM     39  C   UNL A   1      43.853  26.718  31.591  1.00  0.00     0.031 C 
ATOM     40  C   UNL A   1      38.751  29.624  27.990  1.00  0.00     0.029 A 
ATOM     41  C   UNL A   1      38.818  29.978  29.408  1.00  0.00     0.049 A 
ATOM     42  H   UNL A   1      40.212  29.326  30.808  1.00  0.00     0.167 HD
ATOM     43  C   UNL A   1      43.282  28.012  33.622  1.00  0.00     0.037 A 
ATOM     44  C   UNL A   1      37.976  30.808  30.055  1.00  0.00     0.037 A 
ATOM     45  C   UNL A   1      42.489  28.951  34.366  1.00  0.00     0.049 A 
ATOM     46  C   UNL A   1      38.201  31.112  31.514  1.00  0.00     0.074 A 
ATOM     47  C   UNL A   1      42.654  29.377  35.673  1.00  0.00     0.029 A 
ATOM     48  N   UNL A   1      41.370  29.601  33.872  1.00  0.00    -0.354 N 
ATOM     49  N   UNL A   1      39.160  30.704  32.310  1.00  0.00    -0.248 NA
ATOM     50  C   UNL A   1      37.226  32.004  32.163  1.00  0.00     0.031 C 
ATOM     51  C   UNL A   1      41.606  30.249  35.984  1.00  0.00     0.029 A 
ATOM     52  C   UNL A   1      40.815  30.402  34.857  1.00  0.00     0.049 A 
ATOM     53  H   UNL A   1      41.020  29.508  32.956  1.00  0.00     0.167 HD
ATOM     54  C   UNL A   1      38.925  31.312  33.537  1.00  0.00     0.074 A 
ATOM     55  C   UNL A   1      37.735  32.122  33.382  1.00  0.00     0.031 C 
ATOM     56  C   UNL A   1      39.636  31.212  34.687  1.00  0.00     0.037 A 
BRANCH  43  57
ATOM     57  C   UNL A   1      44.431  27.342  34.311  1.00  0.00     0.064 A 
ATOM     58  C   UNL A   1      44.299  26.070  34.888  1.00  0.00     0.173 A 
ATOM     59  C   UNL A   1      45.679  27.976  34.391  1.00  0.00     0.173 A 
ATOM     60  F   UNL A   1      43.120  25.431  34.852  1.00  0.00    -0.203 F 
ATOM     61  C   UNL A   1      45.368  25.470  35.547  1.00  0.00     0.198 A 
ATOM     62  C   UNL A   1      46.753  27.362  35.030  1.00  0.00     0.198 A 
ATOM     63  F   UNL A   1      45.856  29.193  33.855  1.00  0.00    -0.203 F 
ATOM     64  F   UNL A   1      45.207  24.276  36.135  1.00  0.00    -0.200 F 
ATOM     65  C   UNL A   1      46.595  26.114  35.614  1.00  0.00     0.200 A 
ATOM     66  F   UNL A   1      47.940  27.983  35.089  1.00  0.00    -0.200 F 
ATOM     67  F   UNL A   1      47.622  25.537  36.251  1.00  0.00    -0.200 F 
ENDBRANCH  43  57
BRANCH  44  68
ATOM     68  C   UNL A   1      36.845  31.432  29.325  1.00  0.00     0.064 A 
ATOM     69  C   UNL A   1      36.840  32.804  29.036  1.00  0.00     0.173 A 
ATOM     70  C   UNL A   1      35.736  30.675  28.921  1.00  0.00     0.173 A 
ATOM     71  F   UNL A   1      37.866  33.574  29.429  1.00  0.00    -0.203 F 
ATOM     72  C   UNL A   1      35.762  33.398  28.384  1.00  0.00     0.198 A 
ATOM     73  C   UNL A   1      34.668  31.265  28.249  1.00  0.00     0.198 A 
ATOM     74  F   UNL A   1      35.690  29.360  29.181  1.00  0.00    -0.203 F 
ATOM     75  F   UNL A   1      35.762  34.719  28.158  1.00  0.00    -0.200 F 
ATOM     76  C   UNL A   1      34.678  32.627  27.987  1.00  0.00     0.200 A 
ATOM     77  F   UNL A   1      33.625  30.518  27.863  1.00  0.00    -0.200 F 
ATOM     78  F   UNL A   1      33.640  33.199  27.362  1.00  0.00    -0.200 F 
ENDBRANCH  44  68
BRANCH  56  79
ATOM     79  C   UNL A   1      39.172  32.022  35.863  1.00  0.00     0.064 A 
ATOM     80  C   UNL A   1      39.559  33.359  36.033  1.00  0.00     0.173 A 
ATOM     81  C   UNL A   1      38.287  31.468  36.801  1.00  0.00     0.173 A 
ATOM     82  F   UNL A   1      40.413  33.929  35.171  1.00  0.00    -0.203 F 
ATOM     83  C   UNL A   1      39.091  34.107  37.112  1.00  0.00     0.198 A 
ATOM     84  C   UNL A   1      37.801  32.226  37.862  1.00  0.00     0.198 A 
ATOM     85  F   UNL A   1      37.881  30.195  36.679  1.00  0.00    -0.203 F 
ATOM     86  F   UNL A   1      39.502  35.371  37.275  1.00  0.00    -0.200 F 
ATOM     87  C   UNL A   1      38.207  33.543  38.019  1.00  0.00     0.200 A 
ATOM     88  F   UNL A   1      36.938  31.683  38.733  1.00  0.00    -0.200 F 
ATOM     89  F   UNL A   1      37.751  34.268  39.051  1.00  0.00    -0.200 F 
ENDBRANCH  56  79
ENDBRANCH  30  31
ENDBRANCH  23  25
ENDBRANCH  22  23
ENDBRANCH  21  22
ENDBRANCH  20  21
ENDBRANCH   1  20
TORSDOF 16
ENDMDL
MODEL 3
REMARK VINA RESULT:     -11.0      1.257      3.109
REMARK SMILES O=C(CCCCCN1C(=O)[C@@H]2CC=CC[C@H]2C1=O)OCCOC(=O)c1ccc(-c2c3nc(c(-c4c(F)c(F)c(F)c(F)c4F)c4ccc([nH]4)c(-c4c(F)c(F)c(F)c(F)c4F)c4nc(c(-c5c(F)c(F)c(F)c(F)c5F)c5ccc2[nH]5)C=C4)C=C3)cc1
REMARK SMILES IDX 19 1 2 2 1 3 3 4 4 5 5 6 6 7 7 8 8 9 9 10 17 11 10 12 11 13
REMARK SMILES IDX 16 14 18 15 12 16 15 17 13 18 14 19 20 20 21 21 22 22 23 23
REMARK SMILES IDX 24 24 25 25 26 26 87 27 27 28 86 29 28 30 29 31 30 32 80 33
REMARK SMILES IDX 31 34 85 35 79 36 81 37 32 38 84 39 78 40 77 41 33 43 65 44
REMARK SMILES IDX 45 45 64 46 46 47 49 48 63 49 82 50 47 51 48 52 62 54 83 55
REMARK SMILES IDX 50 56 34 57 35 58 43 59 36 60 37 61 41 62 44 63 38 64 39 65
REMARK SMILES IDX 42 66 40 67 66 68 67 69 75 70 68 71 69 72 73 73 76 74 70 75
REMARK SMILES IDX 71 76 74 77 72 78 51 79 52 80 60 81 53 82 54 83 58 84 61 85
REMARK SMILES IDX 55 86 56 87 59 88 57 89
REMARK H PARENT 81 42 49 53
REMARK Flexibility Score: inf
ROOT
ATOM      1  O   UNL A   1      32.147  29.661  27.218  1.00  0.00    -0.462 OA
ENDROOT
BRANCH   1   2
ATOM      2  C   UNL A   1      31.715  28.377  27.099  1.00  0.00     0.305 C 
ATOM      3  O   UNL A   1      31.067  27.829  27.983  1.00  0.00    -0.252 OA
BRANCH   2   4
ATOM      4  C   UNL A   1      32.252  27.627  25.897  1.00  0.00     0.123 C 
BRANCH   4   5
ATOM      5  C   UNL A   1      32.399  26.123  26.107  1.00  0.00     0.012 C 
BRANCH   5   6
ATOM      6  C   UNL A   1      31.234  25.293  25.566  1.00  0.00     0.002 C 
BRANCH   6   7
ATOM      7  C   UNL A   1      31.137  25.195  24.032  1.00  0.00     0.022 C 
BRANCH   7   8
ATOM      8  C   UNL A   1      31.288  23.793  23.438  1.00  0.00     0.128 C 
BRANCH   8   9
ATOM      9  N   UNL A   1      32.591  23.219  23.679  1.00  0.00    -0.282 N 
ATOM     10  C   UNL A   1      32.823  22.134  24.497  1.00  0.00     0.233 C 
ATOM     11  C   UNL A   1      33.747  23.703  23.108  1.00  0.00     0.233 C 
ATOM     12  O   UNL A   1      32.009  21.500  25.147  1.00  0.00    -0.274 OA
ATOM     13  C   UNL A   1      34.276  21.801  24.369  1.00  0.00     0.095 C 
ATOM     14  C   UNL A   1      34.861  23.135  23.924  1.00  0.00     0.095 C 
ATOM     15  O   UNL A   1      33.852  24.522  22.211  1.00  0.00    -0.274 OA
ATOM     16  C   UNL A   1      35.021  21.328  25.601  1.00  0.00     0.041 C 
ATOM     17  C   UNL A   1      36.231  22.908  23.323  1.00  0.00     0.041 C 
ATOM     18  C   UNL A   1      36.512  21.416  25.342  1.00  0.00    -0.030 C 
ATOM     19  C   UNL A   1      37.049  22.090  24.305  1.00  0.00    -0.030 C 
ENDBRANCH   8   9
ENDBRANCH   7   8
ENDBRANCH   6   7
ENDBRANCH   5   6
ENDBRANCH   4   5
ENDBRANCH   2   4
ENDBRANCH   1   2
BRANCH   1  20
ATOM     20  C   UNL A   1      31.615  30.627  26.296  1.00  0.00     0.274 C 
BRANCH  20  21
ATOM     21  C   UNL A   1      31.927  32.072  26.700  1.00  0.00     0.275 C 
BRANCH  21  22
ATOM     22  O   UNL A   1      32.749  32.119  27.878  1.00  0.00    -0.458 OA
BRANCH  22  23
ATOM     23  C   UNL A   1      33.714  33.075  27.836  1.00  0.00     0.338 C 
ATOM     24  O   UNL A   1      33.548  34.271  27.687  1.00  0.00    -0.246 OA
BRANCH  23  25
ATOM     25  C   UNL A   1      35.029  32.484  28.175  1.00  0.00     0.060 A 
ATOM     26  C   UNL A   1      35.078  31.096  28.349  1.00  0.00     0.016 A 
ATOM     27  C   UNL A   1      36.184  33.256  28.336  1.00  0.00     0.016 A 
ATOM     28  C   UNL A   1      36.263  30.483  28.751  1.00  0.00     0.010 A 
ATOM     29  C   UNL A   1      37.374  32.639  28.741  1.00  0.00     0.010 A 
ATOM     30  C   UNL A   1      37.405  31.257  28.994  1.00  0.00    -0.014 A 
BRANCH  30  31
ATOM     31  C   UNL A   1      38.552  30.638  29.703  1.00  0.00     0.031 A 
ATOM     32  C   UNL A   1      38.787  31.005  31.143  1.00  0.00     0.074 A 
ATOM     33  C   UNL A   1      39.336  29.724  29.107  1.00  0.00     0.049 A 
ATOM     34  N   UNL A   1      39.668  30.535  31.990  1.00  0.00    -0.248 NA
ATOM     35  C   UNL A   1      37.908  32.044  31.703  1.00  0.00     0.031 C 
ATOM     36  C   UNL A   1      39.205  29.265  27.728  1.00  0.00     0.029 A 
ATOM     37  N   UNL A   1      40.402  29.013  29.602  1.00  0.00    -0.354 N 
ATOM     38  C   UNL A   1      39.436  31.205  33.183  1.00  0.00     0.074 A 
ATOM     39  C   UNL A   1      38.367  32.150  32.940  1.00  0.00     0.031 C 
ATOM     40  C   UNL A   1      40.156  28.345  27.484  1.00  0.00     0.029 A 
ATOM     41  C   UNL A   1      40.967  28.161  28.688  1.00  0.00     0.049 A 
ATOM     42  H   UNL A   1      40.731  29.106  30.526  1.00  0.00     0.167 HD
ATOM     43  C   UNL A   1      40.045  31.039  34.381  1.00  0.00     0.037 A 
ATOM     44  C   UNL A   1      42.017  27.326  28.812  1.00  0.00     0.037 A 
ATOM     45  C   UNL A   1      41.114  30.112  34.628  1.00  0.00     0.049 A 
ATOM     46  C   UNL A   1      42.728  27.212  30.136  1.00  0.00     0.074 A 
ATOM     47  C   UNL A   1      41.778  29.855  35.815  1.00  0.00     0.029 A 
ATOM     48  N   UNL A   1      41.687  29.298  33.664  1.00  0.00    -0.354 N 
ATOM     49  N   UNL A   1      42.463  27.803  31.276  1.00  0.00    -0.248 NA
ATOM     50  C   UNL A   1      43.884  26.302  30.191  1.00  0.00     0.031 C 
ATOM     51  C   UNL A   1      42.785  28.918  35.558  1.00  0.00     0.029 A 
ATOM     52  C   UNL A   1      42.718  28.559  34.222  1.00  0.00     0.049 A 
ATOM     53  H   UNL A   1      41.404  29.251  32.722  1.00  0.00     0.167 HD
ATOM     54  C   UNL A   1      43.392  27.316  32.187  1.00  0.00     0.074 A 
ATOM     55  C   UNL A   1      44.226  26.375  31.470  1.00  0.00     0.031 C 
ATOM     56  C   UNL A   1      43.535  27.617  33.500  1.00  0.00     0.037 A 
BRANCH  43  57
ATOM     57  C   UNL A   1      39.567  31.898  35.512  1.00  0.00     0.064 A 
ATOM     58  C   UNL A   1      40.094  33.179  35.733  1.00  0.00     0.173 A 
ATOM     59  C   UNL A   1      38.569  31.437  36.382  1.00  0.00     0.173 A 
ATOM     60  F   UNL A   1      41.064  33.657  34.938  1.00  0.00    -0.203 F 
ATOM     61  C   UNL A   1      39.659  33.956  36.803  1.00  0.00     0.198 A 
ATOM     62  C   UNL A   1      38.119  32.226  37.436  1.00  0.00     0.198 A 
ATOM     63  F   UNL A   1      38.033  30.218  36.212  1.00  0.00    -0.203 F 
ATOM     64  F   UNL A   1      40.212  35.157  37.026  1.00  0.00    -0.200 F 
ATOM     65  C   UNL A   1      38.670  33.481  37.651  1.00  0.00     0.200 A 
ATOM     66  F   UNL A   1      37.158  31.769  38.252  1.00  0.00    -0.200 F 
ATOM     67  F   UNL A   1      38.254  34.229  38.682  1.00  0.00    -0.200 F 
ENDBRANCH  43  57
BRANCH  44  68
ATOM     68  C   UNL A   1      42.455  26.510  27.652  1.00  0.00     0.064 A 
ATOM     69  C   UNL A   1      41.891  25.251  27.400  1.00  0.00     0.173 A 
ATOM     70  C   UNL A   1      43.463  26.961  26.787  1.00  0.00     0.173 A 
ATOM     71  F   UNL A   1      40.946  24.766  28.218  1.00  0.00    -0.203 F 
ATOM     72  C   UNL A   1      42.329  24.469  26.334  1.00  0.00     0.198 A 
ATOM     73  C   UNL A   1      43.884  26.187  25.708  1.00  0.00     0.198 A 
ATOM     74  F   UNL A   1      44.038  28.155  26.992  1.00  0.00    -0.203 F 
ATOM     75  F   UNL A   1      41.804  23.251  26.140  1.00  0.00    -0.200 F 
ATOM     76  C   UNL A   1      43.322  24.939  25.487  1.00  0.00     0.200 A 
ATOM     77  F   UNL A   1      44.839  26.646  24.889  1.00  0.00    -0.200 F 
ATOM     78  F   UNL A   1      43.744  24.184  24.462  1.00  0.00    -0.200 F 
ENDBRANCH  44  68
BRANCH  56  79
ATOM     79  C   UNL A   1      44.610  26.900  34.264  1.00  0.00     0.064 A 
ATOM     80  C   UNL A   1      44.382  25.651  34.857  1.00  0.00     0.173 A 
ATOM     81  C   UNL A   1      45.899  27.447  34.357  1.00  0.00     0.173 A 
ATOM     82  F   UNL A   1      43.164  25.092  34.808  1.00  0.00    -0.203 F 
ATOM     83  C   UNL A   1      45.402  24.983  35.533  1.00  0.00     0.198 A 
ATOM     84  C   UNL A   1      46.922  26.765  35.009  1.00  0.00     0.198 A 
ATOM     85  F   UNL A   1      46.171  28.638  33.800  1.00  0.00    -0.203 F 
ATOM     86  F   UNL A   1      45.152  23.806  36.124  1.00  0.00    -0.200 F 
ATOM     87  C   UNL A   1      46.672  25.536  35.601  1.00  0.00     0.200 A 
ATOM     88  F   UNL A   1      48.152  27.296  35.065  1.00  0.00    -0.200 F 
ATOM     89  F   UNL A   1      47.653  24.887  36.243  1.00  0.00    -0.200 F 
ENDBRANCH  56  79
ENDBRANCH  30  31
ENDBRANCH  23  25
ENDBRANCH  22  23
ENDBRANCH  21  22
ENDBRANCH  20  21
ENDBRANCH   1  20
TORSDOF 16
ENDMDL
