MODEL 1
REMARK VINA RESULT:     -11.6      0.000      0.000
REMARK SMILES CC[C@]1(C(=O)OCCOC(=O)c2ccc(-c3c4nc(c(-c5c(F)c(F)c(F)c(F)c5F)c5ccc([nH]5)c(-c5c(F)c(F)c(F)c(F)c5F)c5nc(c(-c6c(F)c(F)c(F)c(F)c6F)c6ccc3[nH]6)C=C5)C=C4)cc2)CCN(C(=O)[C@]2(C)CCCO2)C1
REMARK SMILES IDX 7 1 6 2 4 3 5 4 3 5 75 6 86 7 76 8 77 9 2 10 1 11 78 12
REMARK SMILES IDX 79 13 80 14 82 15 85 16 81 17 83 18 84 19 8 20 9 21 10 22
REMARK SMILES IDX 11 23 12 24 13 25 74 26 14 27 73 28 15 29 16 30 17 31 67 32
REMARK SMILES IDX 18 33 72 34 66 35 68 36 19 37 71 38 65 39 64 40 20 42 52 43
REMARK SMILES IDX 32 44 51 45 33 46 36 47 50 48 69 49 34 50 35 51 49 53 70 54
REMARK SMILES IDX 37 55 21 56 22 57 30 58 23 59 24 60 28 61 31 62 25 63 26 64
REMARK SMILES IDX 29 65 27 66 53 67 54 68 62 69 55 70 56 71 60 72 63 73 57 74
REMARK SMILES IDX 58 75 61 76 59 77 38 78 39 79 47 80 40 81 41 82 45 83 48 84
REMARK SMILES IDX 42 85 43 86 46 87 44 88
REMARK H PARENT 68 41 36 52
REMARK Flexibility Score: inf
ROOT
ATOM      1  C   UNL A   1      31.269  28.577  25.132  1.00  0.00     0.274 C 
ENDROOT
BRANCH   1   2
ATOM      2  O   UNL A   1      32.351  27.756  25.619  1.00  0.00    -0.462 OA
BRANCH   2   3
ATOM      3  C   UNL A   1      32.061  26.478  25.988  1.00  0.00     0.314 C 
ATOM      4  O   UNL A   1      31.252  26.190  26.859  1.00  0.00    -0.252 OA
BRANCH   3   5
ATOM      5  C   UNL A   1      32.903  25.445  25.231  1.00  0.00     0.087 C 
ATOM      6  C   UNL A   1      34.427  25.631  25.439  1.00  0.00     0.042 C 
ATOM      7  C   UNL A   1      32.647  24.084  25.889  1.00  0.00     0.138 C 
ATOM      8  C   UNL A   1      34.977  24.221  25.331  1.00  0.00     0.121 C 
ATOM      9  N   UNL A   1      33.930  23.394  25.895  1.00  0.00    -0.339 N 
BRANCH   5  10
ATOM     10  C   UNL A   1      32.637  25.434  23.698  1.00  0.00     0.017 C 
ATOM     11  C   UNL A   1      31.520  24.542  23.173  1.00  0.00     0.005 C 
ENDBRANCH   5  10
BRANCH   9  12
ATOM     12  C   UNL A   1      34.018  22.096  26.351  1.00  0.00     0.254 C 
ATOM     13  O   UNL A   1      34.145  21.878  27.561  1.00  0.00    -0.272 OA
BRANCH  12  14
ATOM     14  C   UNL A   1      34.081  20.931  25.317  1.00  0.00     0.144 C 
ATOM     15  C   UNL A   1      33.484  21.387  23.975  1.00  0.00     0.048 C 
ATOM     16  O   UNL A   1      33.363  19.750  25.707  1.00  0.00    -0.365 OA
ATOM     17  C   UNL A   1      35.551  20.522  25.132  1.00  0.00     0.053 C 
ATOM     18  C   UNL A   1      32.422  20.363  23.640  1.00  0.00     0.032 C 
ATOM     19  C   UNL A   1      32.741  19.198  24.544  1.00  0.00     0.162 C 
ENDBRANCH  12  14
ENDBRANCH   9  12
ENDBRANCH   3   5
ENDBRANCH   2   3
ENDBRANCH   1   2
BRANCH   1  20
ATOM     20  C   UNL A   1      31.562  30.041  25.446  1.00  0.00     0.275 C 
BRANCH  20  21
ATOM     21  O   UNL A   1      32.916  30.133  25.919  1.00  0.00    -0.458 OA
BRANCH  21  22
ATOM     22  C   UNL A   1      33.169  31.086  26.842  1.00  0.00     0.338 C 
ATOM     23  O   UNL A   1      32.436  32.002  27.184  1.00  0.00    -0.246 OA
BRANCH  22  24
ATOM     24  C   UNL A   1      34.489  30.830  27.451  1.00  0.00     0.060 A 
ATOM     25  C   UNL A   1      34.890  29.519  27.699  1.00  0.00     0.016 A 
ATOM     26  C   UNL A   1      35.287  31.888  27.884  1.00  0.00     0.016 A 
ATOM     27  C   UNL A   1      36.024  29.263  28.466  1.00  0.00     0.010 A 
ATOM     28  C   UNL A   1      36.491  31.623  28.552  1.00  0.00     0.010 A 
ATOM     29  C   UNL A   1      36.858  30.307  28.892  1.00  0.00    -0.014 A 
BRANCH  29  30
ATOM     30  C   UNL A   1      38.065  30.016  29.726  1.00  0.00     0.031 A 
ATOM     31  C   UNL A   1      39.213  29.216  29.159  1.00  0.00     0.074 A 
ATOM     32  C   UNL A   1      38.173  30.499  30.981  1.00  0.00     0.049 A 
ATOM     33  N   UNL A   1      40.261  28.719  29.771  1.00  0.00    -0.248 NA
ATOM     34  C   UNL A   1      39.172  28.923  27.718  1.00  0.00     0.031 C 
ATOM     35  C   UNL A   1      37.174  31.322  31.665  1.00  0.00     0.029 A 
ATOM     36  N   UNL A   1      39.190  30.391  31.900  1.00  0.00    -0.354 N 
ATOM     37  C   UNL A   1      40.953  27.990  28.812  1.00  0.00     0.074 A 
ATOM     38  C   UNL A   1      40.216  28.120  27.573  1.00  0.00     0.031 C 
ATOM     39  C   UNL A   1      37.657  31.708  32.855  1.00  0.00     0.029 A 
ATOM     40  C   UNL A   1      38.956  31.078  33.067  1.00  0.00     0.049 A 
ATOM     41  H   UNL A   1      40.010  29.870  31.738  1.00  0.00     0.167 HD
ATOM     42  C   UNL A   1      42.094  27.273  28.953  1.00  0.00     0.037 A 
ATOM     43  C   UNL A   1      39.681  31.168  34.199  1.00  0.00     0.037 A 
ATOM     44  C   UNL A   1      42.880  27.211  30.159  1.00  0.00     0.049 A 
ATOM     45  C   UNL A   1      40.958  30.387  34.322  1.00  0.00     0.074 A 
ATOM     46  C   UNL A   1      44.053  26.513  30.392  1.00  0.00     0.029 A 
ATOM     47  N   UNL A   1      42.589  27.901  31.325  1.00  0.00    -0.354 N 
ATOM     48  N   UNL A   1      41.545  29.617  33.440  1.00  0.00    -0.248 NA
ATOM     49  C   UNL A   1      41.656  30.463  35.614  1.00  0.00     0.031 C 
ATOM     50  C   UNL A   1      44.463  26.767  31.706  1.00  0.00     0.029 A 
ATOM     51  C   UNL A   1      43.561  27.647  32.280  1.00  0.00     0.049 A 
ATOM     52  H   UNL A   1      41.807  28.485  31.456  1.00  0.00     0.167 HD
ATOM     53  C   UNL A   1      42.670  29.107  34.071  1.00  0.00     0.074 A 
ATOM     54  C   UNL A   1      42.709  29.686  35.398  1.00  0.00     0.031 C 
ATOM     55  C   UNL A   1      43.581  28.221  33.599  1.00  0.00     0.037 A 
BRANCH  42  56
ATOM     56  C   UNL A   1      42.552  26.460  27.778  1.00  0.00     0.064 A 
ATOM     57  C   UNL A   1      42.030  25.189  27.503  1.00  0.00     0.173 A 
ATOM     58  C   UNL A   1      43.504  26.986  26.890  1.00  0.00     0.173 A 
ATOM     59  F   UNL A   1      41.131  24.634  28.330  1.00  0.00    -0.203 F 
ATOM     60  C   UNL A   1      42.459  24.465  26.392  1.00  0.00     0.198 A 
ATOM     61  C   UNL A   1      43.912  26.272  25.768  1.00  0.00     0.198 A 
ATOM     62  F   UNL A   1      44.030  28.201  27.106  1.00  0.00    -0.203 F 
ATOM     63  F   UNL A   1      41.978  23.235  26.169  1.00  0.00    -0.200 F 
ATOM     64  C   UNL A   1      43.394  25.010  25.522  1.00  0.00     0.200 A 
ATOM     65  F   UNL A   1      44.806  26.804  24.924  1.00  0.00    -0.200 F 
ATOM     66  F   UNL A   1      43.799  24.314  24.451  1.00  0.00    -0.200 F 
ENDBRANCH  42  56
BRANCH  43  67
ATOM     67  C   UNL A   1      39.191  32.002  35.327  1.00  0.00     0.064 A 
ATOM     68  C   UNL A   1      38.419  31.441  36.353  1.00  0.00     0.173 A 
ATOM     69  C   UNL A   1      39.487  33.370  35.405  1.00  0.00     0.173 A 
ATOM     70  F   UNL A   1      38.082  30.144  36.306  1.00  0.00    -0.203 F 
ATOM     71  C   UNL A   1      37.958  32.219  37.413  1.00  0.00     0.198 A 
ATOM     72  C   UNL A   1      39.052  34.140  36.481  1.00  0.00     0.198 A 
ATOM     73  F   UNL A   1      40.218  33.956  34.444  1.00  0.00    -0.203 F 
ATOM     74  F   UNL A   1      37.188  31.668  38.362  1.00  0.00    -0.200 F 
ATOM     75  C   UNL A   1      38.283  33.566  37.481  1.00  0.00     0.200 A 
ATOM     76  F   UNL A   1      39.380  35.438  36.548  1.00  0.00    -0.200 F 
ATOM     77  F   UNL A   1      37.849  34.311  38.506  1.00  0.00    -0.200 F 
ENDBRANCH  43  67
BRANCH  55  78
ATOM     78  C   UNL A   1      44.690  27.829  34.528  1.00  0.00     0.064 A 
ATOM     79  C   UNL A   1      45.887  28.558  34.577  1.00  0.00     0.173 A 
ATOM     80  C   UNL A   1      44.555  26.721  35.376  1.00  0.00     0.173 A 
ATOM     81  F   UNL A   1      46.067  29.615  33.772  1.00  0.00    -0.203 F 
ATOM     82  C   UNL A   1      46.922  28.175  35.426  1.00  0.00     0.198 A 
ATOM     83  C   UNL A   1      45.584  26.354  36.239  1.00  0.00     0.198 A 
ATOM     84  F   UNL A   1      43.429  25.994  35.366  1.00  0.00    -0.203 F 
ATOM     85  F   UNL A   1      48.075  28.857  35.425  1.00  0.00    -0.200 F 
ATOM     86  C   UNL A   1      46.768  27.076  36.258  1.00  0.00     0.200 A 
ATOM     87  F   UNL A   1      45.434  25.295  37.047  1.00  0.00    -0.200 F 
ATOM     88  F   UNL A   1      47.768  26.704  37.070  1.00  0.00    -0.200 F 
ENDBRANCH  55  78
ENDBRANCH  29  30
ENDBRANCH  22  24
ENDBRANCH  21  22
ENDBRANCH  20  21
ENDBRANCH   1  20
TORSDOF 14
ENDMDL
MODEL 2
REMARK VINA RESULT:     -11.5      3.956      9.572
REMARK SMILES CC[C@]1(C(=O)OCCOC(=O)c2ccc(-c3c4nc(c(-c5c(F)c(F)c(F)c(F)c5F)c5ccc([nH]5)c(-c5c(F)c(F)c(F)c(F)c5F)c5nc(c(-c6c(F)c(F)c(F)c(F)c6F)c6ccc3[nH]6)C=C5)C=C4)cc2)CCN(C(=O)[C@]2(C)CCCO2)C1
REMARK SMILES IDX 7 1 6 2 4 3 5 4 3 5 75 6 86 7 76 8 77 9 2 10 1 11 78 12
REMARK SMILES IDX 79 13 80 14 82 15 85 16 81 17 83 18 84 19 8 20 9 21 10 22
REMARK SMILES IDX 11 23 12 24 13 25 74 26 14 27 73 28 15 29 16 30 17 31 67 32
REMARK SMILES IDX 18 33 72 34 66 35 68 36 19 37 71 38 65 39 64 40 20 42 52 43
REMARK SMILES IDX 32 44 51 45 33 46 36 47 50 48 69 49 34 50 35 51 49 53 70 54
REMARK SMILES IDX 37 55 21 56 22 57 30 58 23 59 24 60 28 61 31 62 25 63 26 64
REMARK SMILES IDX 29 65 27 66 53 67 54 68 62 69 55 70 56 71 60 72 63 73 57 74
REMARK SMILES IDX 58 75 61 76 59 77 38 78 39 79 47 80 40 81 41 82 45 83 48 84
REMARK SMILES IDX 42 85 43 86 46 87 44 88
REMARK H PARENT 68 41 36 52
REMARK Flexibility Score: inf
ROOT
ATOM      1  C   UNL A   1      34.762  20.699  25.473  1.00  0.00     0.274 C 
ENDROOT
BRANCH   1   2
ATOM      2  O   UNL A   1      33.904  20.937  24.337  1.00  0.00    -0.462 OA
BRANCH   2   3
ATOM      3  C   UNL A   1      32.665  21.450  24.575  1.00  0.00     0.314 C 
ATOM      4  O   UNL A   1      31.753  20.813  25.082  1.00  0.00    -0.252 OA
BRANCH   3   5
ATOM      5  C   UNL A   1      32.526  22.895  24.084  1.00  0.00     0.087 C 
ATOM      6  C   UNL A   1      31.264  23.124  23.215  1.00  0.00     0.042 C 
ATOM      7  C   UNL A   1      32.237  23.765  25.313  1.00  0.00     0.138 C 
ATOM      8  C   UNL A   1      30.893  24.568  23.494  1.00  0.00     0.121 C 
ATOM      9  N   UNL A   1      31.268  24.761  24.880  1.00  0.00    -0.339 N 
BRANCH   5  10
ATOM     10  C   UNL A   1      33.753  23.392  23.267  1.00  0.00     0.017 C 
ATOM     11  C   UNL A   1      34.871  24.104  24.019  1.00  0.00     0.005 C 
ENDBRANCH   5  10
BRANCH   9  12
ATOM     12  C   UNL A   1      30.861  25.756  25.744  1.00  0.00     0.254 C 
ATOM     13  O   UNL A   1      29.904  25.560  26.500  1.00  0.00    -0.272 OA
BRANCH  12  14
ATOM     14  C   UNL A   1      31.543  27.156  25.663  1.00  0.00     0.144 C 
ATOM     15  C   UNL A   1      33.047  26.993  25.387  1.00  0.00     0.048 C 
ATOM     16  O   UNL A   1      31.426  27.945  26.857  1.00  0.00    -0.365 OA
ATOM     17  C   UNL A   1      30.880  27.956  24.531  1.00  0.00     0.053 C 
ATOM     18  C   UNL A   1      33.742  27.771  26.483  1.00  0.00     0.032 C 
ATOM     19  C   UNL A   1      32.655  28.649  27.052  1.00  0.00     0.162 C 
ENDBRANCH  12  14
ENDBRANCH   9  12
ENDBRANCH   3   5
ENDBRANCH   2   3
ENDBRANCH   1   2
BRANCH   1  20
ATOM     20  C   UNL A   1      36.209  20.598  25.001  1.00  0.00     0.275 C 
BRANCH  20  21
ATOM     21  O   UNL A   1      36.984  21.565  25.730  1.00  0.00    -0.458 OA
BRANCH  21  22
ATOM     22  C   UNL A   1      38.310  21.328  25.825  1.00  0.00     0.338 C 
ATOM     23  O   UNL A   1      38.913  20.326  25.469  1.00  0.00    -0.246 OA
BRANCH  22  24
ATOM     24  C   UNL A   1      38.975  22.518  26.391  1.00  0.00     0.060 A 
ATOM     25  C   UNL A   1      38.466  23.786  26.118  1.00  0.00     0.016 A 
ATOM     26  C   UNL A   1      40.168  22.393  27.101  1.00  0.00     0.016 A 
ATOM     27  C   UNL A   1      39.194  24.924  26.456  1.00  0.00     0.010 A 
ATOM     28  C   UNL A   1      40.838  23.542  27.544  1.00  0.00     0.010 A 
ATOM     29  C   UNL A   1      40.384  24.827  27.192  1.00  0.00    -0.014 A 
BRANCH  29  30
ATOM     30  C   UNL A   1      41.161  26.058  27.535  1.00  0.00     0.031 A 
ATOM     31  C   UNL A   1      40.566  27.112  28.437  1.00  0.00     0.074 A 
ATOM     32  C   UNL A   1      42.421  26.231  27.085  1.00  0.00     0.049 A 
ATOM     33  N   UNL A   1      41.009  28.315  28.713  1.00  0.00    -0.248 NA
ATOM     34  C   UNL A   1      39.301  26.777  29.108  1.00  0.00     0.031 C 
ATOM     35  C   UNL A   1      43.158  25.292  26.238  1.00  0.00     0.029 A 
ATOM     36  N   UNL A   1      43.320  27.248  27.301  1.00  0.00    -0.354 N 
ATOM     37  C   UNL A   1      40.040  28.905  29.515  1.00  0.00     0.074 A 
ATOM     38  C   UNL A   1      38.991  27.924  29.697  1.00  0.00     0.031 C 
ATOM     39  C   UNL A   1      44.413  25.734  26.072  1.00  0.00     0.029 A 
ATOM     40  C   UNL A   1      44.544  27.038  26.713  1.00  0.00     0.049 A 
ATOM     41  H   UNL A   1      43.107  28.053  27.828  1.00  0.00     0.167 HD
ATOM     42  C   UNL A   1      40.022  30.151  30.047  1.00  0.00     0.037 A 
ATOM     43  C   UNL A   1      45.643  27.816  26.659  1.00  0.00     0.037 A 
ATOM     44  C   UNL A   1      41.101  31.101  29.945  1.00  0.00     0.049 A 
ATOM     45  C   UNL A   1      45.611  29.184  27.281  1.00  0.00     0.074 A 
ATOM     46  C   UNL A   1      41.173  32.386  30.456  1.00  0.00     0.029 A 
ATOM     47  N   UNL A   1      42.311  30.855  29.316  1.00  0.00    -0.354 N 
ATOM     48  N   UNL A   1      44.646  29.767  27.947  1.00  0.00    -0.248 NA
ATOM     49  C   UNL A   1      46.813  30.013  27.113  1.00  0.00     0.031 C 
ATOM     50  C   UNL A   1      42.421  32.924  30.121  1.00  0.00     0.029 A 
ATOM     51  C   UNL A   1      43.137  31.963  29.427  1.00  0.00     0.049 A 
ATOM     52  H   UNL A   1      42.549  30.016  28.856  1.00  0.00     0.167 HD
ATOM     53  C   UNL A   1      45.115  31.032  28.265  1.00  0.00     0.074 A 
ATOM     54  C   UNL A   1      46.468  31.120  27.756  1.00  0.00     0.031 C 
ATOM     55  C   UNL A   1      44.475  32.041  28.906  1.00  0.00     0.037 A 
BRANCH  42  56
ATOM     56  C   UNL A   1      38.777  30.582  30.764  1.00  0.00     0.064 A 
ATOM     57  C   UNL A   1      38.662  30.520  32.159  1.00  0.00     0.173 A 
ATOM     58  C   UNL A   1      37.696  31.106  30.037  1.00  0.00     0.173 A 
ATOM     59  F   UNL A   1      39.660  30.012  32.898  1.00  0.00    -0.203 F 
ATOM     60  C   UNL A   1      37.500  30.948  32.800  1.00  0.00     0.198 A 
ATOM     61  C   UNL A   1      36.547  31.556  30.682  1.00  0.00     0.198 A 
ATOM     62  F   UNL A   1      37.759  31.192  28.700  1.00  0.00    -0.203 F 
ATOM     63  F   UNL A   1      37.394  30.842  34.132  1.00  0.00    -0.200 F 
ATOM     64  C   UNL A   1      36.448  31.472  32.062  1.00  0.00     0.200 A 
ATOM     65  F   UNL A   1      35.537  32.070  29.968  1.00  0.00    -0.200 F 
ATOM     66  F   UNL A   1      35.335  31.888  32.682  1.00  0.00    -0.200 F 
ENDBRANCH  42  56
BRANCH  43  67
ATOM     67  C   UNL A   1      46.857  27.335  25.951  1.00  0.00     0.064 A 
ATOM     68  C   UNL A   1      47.858  26.634  26.637  1.00  0.00     0.173 A 
ATOM     69  C   UNL A   1      47.040  27.561  24.580  1.00  0.00     0.173 A 
ATOM     70  F   UNL A   1      47.744  26.422  27.957  1.00  0.00    -0.203 F 
ATOM     71  C   UNL A   1      48.999  26.180  25.977  1.00  0.00     0.198 A 
ATOM     72  C   UNL A   1      48.166  27.080  23.915  1.00  0.00     0.198 A 
ATOM     73  F   UNL A   1      46.114  28.233  23.880  1.00  0.00    -0.203 F 
ATOM     74  F   UNL A   1      49.960  25.546  26.664  1.00  0.00    -0.200 F 
ATOM     75  C   UNL A   1      49.147  26.396  24.615  1.00  0.00     0.200 A 
ATOM     76  F   UNL A   1      48.298  27.279  22.597  1.00  0.00    -0.200 F 
ATOM     77  F   UNL A   1      50.238  25.949  23.979  1.00  0.00    -0.200 F 
ENDBRANCH  43  67
BRANCH  55  78
ATOM     78  C   UNL A   1      45.235  33.320  29.088  1.00  0.00     0.064 A 
ATOM     79  C   UNL A   1      45.173  34.343  28.131  1.00  0.00     0.173 A 
ATOM     80  C   UNL A   1      46.026  33.526  30.226  1.00  0.00     0.173 A 
ATOM     81  F   UNL A   1      44.442  34.183  27.018  1.00  0.00    -0.203 F 
ATOM     82  C   UNL A   1      45.899  35.520  28.295  1.00  0.00     0.198 A 
ATOM     83  C   UNL A   1      46.734  34.712  30.397  1.00  0.00     0.198 A 
ATOM     84  F   UNL A   1      46.116  32.578  31.169  1.00  0.00    -0.203 F 
ATOM     85  F   UNL A   1      45.863  36.466  27.347  1.00  0.00    -0.200 F 
ATOM     86  C   UNL A   1      46.676  35.704  29.429  1.00  0.00     0.200 A 
ATOM     87  F   UNL A   1      47.481  34.894  31.495  1.00  0.00    -0.200 F 
ATOM     88  F   UNL A   1      47.380  36.835  29.583  1.00  0.00    -0.200 F 
ENDBRANCH  55  78
ENDBRANCH  29  30
ENDBRANCH  22  24
ENDBRANCH  21  22
ENDBRANCH  20  21
ENDBRANCH   1  20
TORSDOF 14
ENDMDL
MODEL 3
REMARK VINA RESULT:     -11.5      0.839      2.314
REMARK SMILES CC[C@]1(C(=O)OCCOC(=O)c2ccc(-c3c4nc(c(-c5c(F)c(F)c(F)c(F)c5F)c5ccc([nH]5)c(-c5c(F)c(F)c(F)c(F)c5F)c5nc(c(-c6c(F)c(F)c(F)c(F)c6F)c6ccc3[nH]6)C=C5)C=C4)cc2)CCN(C(=O)[C@]2(C)CCCO2)C1
REMARK SMILES IDX 7 1 6 2 4 3 5 4 3 5 75 6 86 7 76 8 77 9 2 10 1 11 78 12
REMARK SMILES IDX 79 13 80 14 82 15 85 16 81 17 83 18 84 19 8 20 9 21 10 22
REMARK SMILES IDX 11 23 12 24 13 25 74 26 14 27 73 28 15 29 16 30 17 31 67 32
REMARK SMILES IDX 18 33 72 34 66 35 68 36 19 37 71 38 65 39 64 40 20 42 52 43
REMARK SMILES IDX 32 44 51 45 33 46 36 47 50 48 69 49 34 50 35 51 49 53 70 54
REMARK SMILES IDX 37 55 21 56 22 57 30 58 23 59 24 60 28 61 31 62 25 63 26 64
REMARK SMILES IDX 29 65 27 66 53 67 54 68 62 69 55 70 56 71 60 72 63 73 57 74
REMARK SMILES IDX 58 75 61 76 59 77 38 78 39 79 47 80 40 81 41 82 45 83 48 84
REMARK SMILES IDX 42 85 43 86 46 87 44 88
REMARK H PARENT 68 41 36 52
REMARK Flexibility Score: inf
ROOT
ATOM      1  C   UNL A   1      31.068  29.088  25.018  1.00  0.00     0.274 C 
ENDROOT
BRANCH   1   2
ATOM      2  O   UNL A   1      31.984  28.872  23.924  1.00  0.00    -0.462 OA
BRANCH   2   3
ATOM      3  C   UNL A   1      31.818  27.750  23.170  1.00  0.00     0.314 C 
ATOM      4  O   UNL A   1      31.004  27.657  22.263  1.00  0.00    -0.252 OA
BRANCH   3   5
ATOM      5  C   UNL A   1      32.725  26.601  23.623  1.00  0.00     0.087 C 
ATOM      6  C   UNL A   1      33.745  27.021  24.710  1.00  0.00     0.042 C 
ATOM      7  C   UNL A   1      31.843  25.597  24.374  1.00  0.00     0.138 C 
ATOM      8  C   UNL A   1      33.943  25.756  25.524  1.00  0.00     0.121 C 
ATOM      9  N   UNL A   1      32.645  25.114  25.489  1.00  0.00    -0.339 N 
BRANCH   5  10
ATOM     10  C   UNL A   1      33.524  25.948  22.458  1.00  0.00     0.017 C 
ATOM     11  C   UNL A   1      33.035  24.610  21.917  1.00  0.00     0.005 C 
ENDBRANCH   5  10
BRANCH   9  12
ATOM     12  C   UNL A   1      32.158  24.125  26.318  1.00  0.00     0.254 C 
ATOM     13  O   UNL A   1      31.399  24.421  27.247  1.00  0.00    -0.272 OA
BRANCH  12  14
ATOM     14  C   UNL A   1      32.675  22.665  26.142  1.00  0.00     0.144 C 
ATOM     15  C   UNL A   1      33.722  22.610  25.017  1.00  0.00     0.048 C 
ATOM     16  O   UNL A   1      31.658  21.710  25.805  1.00  0.00    -0.365 OA
ATOM     17  C   UNL A   1      33.299  22.205  27.469  1.00  0.00     0.053 C 
ATOM     18  C   UNL A   1      33.232  21.543  24.064  1.00  0.00     0.032 C 
ATOM     19  C   UNL A   1      32.207  20.780  24.868  1.00  0.00     0.162 C 
ENDBRANCH  12  14
ENDBRANCH   9  12
ENDBRANCH   3   5
ENDBRANCH   2   3
ENDBRANCH   1   2
BRANCH   1  20
ATOM     20  C   UNL A   1      31.383  30.423  25.686  1.00  0.00     0.275 C 
BRANCH  20  21
ATOM     21  O   UNL A   1      32.616  30.279  26.412  1.00  0.00    -0.458 OA
BRANCH  21  22
ATOM     22  C   UNL A   1      33.108  31.396  26.990  1.00  0.00     0.338 C 
ATOM     23  O   UNL A   1      32.565  32.487  27.082  1.00  0.00    -0.246 OA
BRANCH  22  24
ATOM     24  C   UNL A   1      34.430  31.095  27.574  1.00  0.00     0.060 A 
ATOM     25  C   UNL A   1      34.779  29.773  27.842  1.00  0.00     0.016 A 
ATOM     26  C   UNL A   1      35.285  32.125  27.963  1.00  0.00     0.016 A 
ATOM     27  C   UNL A   1      35.919  29.483  28.587  1.00  0.00     0.010 A 
ATOM     28  C   UNL A   1      36.492  31.821  28.608  1.00  0.00     0.010 A 
ATOM     29  C   UNL A   1      36.809  30.498  28.968  1.00  0.00    -0.014 A 
BRANCH  29  30
ATOM     30  C   UNL A   1      38.022  30.172  29.779  1.00  0.00     0.031 A 
ATOM     31  C   UNL A   1      39.148  29.363  29.182  1.00  0.00     0.074 A 
ATOM     32  C   UNL A   1      38.156  30.630  31.041  1.00  0.00     0.049 A 
ATOM     33  N   UNL A   1      40.196  28.838  29.769  1.00  0.00    -0.248 NA
ATOM     34  C   UNL A   1      39.082  29.097  27.737  1.00  0.00     0.031 C 
ATOM     35  C   UNL A   1      37.182  31.457  31.754  1.00  0.00     0.029 A 
ATOM     36  N   UNL A   1      39.184  30.488  31.944  1.00  0.00    -0.354 N 
ATOM     37  C   UNL A   1      40.862  28.115  28.788  1.00  0.00     0.074 A 
ATOM     38  C   UNL A   1      40.111  28.280  27.562  1.00  0.00     0.031 C 
ATOM     39  C   UNL A   1      37.688  31.813  32.944  1.00  0.00     0.029 A 
ATOM     40  C   UNL A   1      38.978  31.158  33.126  1.00  0.00     0.049 A 
ATOM     41  H   UNL A   1      39.993  29.957  31.760  1.00  0.00     0.167 HD
ATOM     42  C   UNL A   1      41.993  27.376  28.899  1.00  0.00     0.037 A 
ATOM     43  C   UNL A   1      39.720  31.215  34.249  1.00  0.00     0.037 A 
ATOM     44  C   UNL A   1      42.795  27.280  30.092  1.00  0.00     0.049 A 
ATOM     45  C   UNL A   1      40.986  30.410  34.340  1.00  0.00     0.074 A 
ATOM     46  C   UNL A   1      43.959  26.558  30.296  1.00  0.00     0.029 A 
ATOM     47  N   UNL A   1      42.532  27.953  31.276  1.00  0.00    -0.354 N 
ATOM     48  N   UNL A   1      41.547  29.647  33.436  1.00  0.00    -0.248 NA
ATOM     49  C   UNL A   1      41.703  30.451  35.623  1.00  0.00     0.031 C 
ATOM     50  C   UNL A   1      44.392  26.781  31.608  1.00  0.00     0.029 A 
ATOM     51  C   UNL A   1      43.513  27.665  32.212  1.00  0.00     0.049 A 
ATOM     52  H   UNL A   1      41.762  28.547  31.428  1.00  0.00     0.167 HD
ATOM     53  C   UNL A   1      42.672  29.106  34.041  1.00  0.00     0.074 A 
ATOM     54  C   UNL A   1      42.739  29.661  35.377  1.00  0.00     0.031 C 
ATOM     55  C   UNL A   1      43.561  28.214  33.541  1.00  0.00     0.037 A 
BRANCH  42  56
ATOM     56  C   UNL A   1      42.421  26.577  27.704  1.00  0.00     0.064 A 
ATOM     57  C   UNL A   1      43.372  27.053  26.792  1.00  0.00     0.173 A 
ATOM     58  C   UNL A   1      41.894  25.292  27.495  1.00  0.00     0.173 A 
ATOM     59  F   UNL A   1      43.894  28.280  26.938  1.00  0.00    -0.203 F 
ATOM     60  C   UNL A   1      43.766  26.279  25.702  1.00  0.00     0.198 A 
ATOM     61  C   UNL A   1      42.307  24.513  26.419  1.00  0.00     0.198 A 
ATOM     62  F   UNL A   1      40.983  24.790  28.342  1.00  0.00    -0.203 F 
ATOM     63  F   UNL A   1      44.647  26.768  24.818  1.00  0.00    -0.200 F 
ATOM     64  C   UNL A   1      43.239  25.008  25.521  1.00  0.00     0.200 A 
ATOM     65  F   UNL A   1      41.805  23.282  26.252  1.00  0.00    -0.200 F 
ATOM     66  F   UNL A   1      43.625  24.264  24.475  1.00  0.00    -0.200 F 
ENDBRANCH  42  56
BRANCH  43  67
ATOM     67  C   UNL A   1      39.261  32.036  35.399  1.00  0.00     0.064 A 
ATOM     68  C   UNL A   1      39.635  33.382  35.516  1.00  0.00     0.173 A 
ATOM     69  C   UNL A   1      38.439  31.496  36.399  1.00  0.00     0.173 A 
ATOM     70  F   UNL A   1      40.446  33.933  34.603  1.00  0.00    -0.203 F 
ATOM     71  C   UNL A   1      39.206  34.155  36.593  1.00  0.00     0.198 A 
ATOM     72  C   UNL A   1      37.987  32.279  37.459  1.00  0.00     0.198 A 
ATOM     73  F   UNL A   1      38.059  30.211  36.336  1.00  0.00    -0.203 F 
ATOM     74  F   UNL A   1      39.609  35.429  36.703  1.00  0.00    -0.200 F 
ATOM     75  C   UNL A   1      38.374  33.605  37.558  1.00  0.00     0.200 A 
ATOM     76  F   UNL A   1      37.173  31.747  38.380  1.00  0.00    -0.200 F 
ATOM     77  F   UNL A   1      37.954  34.353  38.587  1.00  0.00    -0.200 F 
ENDBRANCH  43  67
BRANCH  55  78
ATOM     78  C   UNL A   1      44.676  27.787  34.446  1.00  0.00     0.064 A 
ATOM     79  C   UNL A   1      44.549  26.662  35.274  1.00  0.00     0.173 A 
ATOM     80  C   UNL A   1      45.881  28.502  34.483  1.00  0.00     0.173 A 
ATOM     81  F   UNL A   1      43.408  25.958  35.284  1.00  0.00    -0.203 F 
ATOM     82  C   UNL A   1      45.581  26.285  36.129  1.00  0.00     0.198 A 
ATOM     83  C   UNL A   1      46.918  28.109  35.324  1.00  0.00     0.198 A 
ATOM     84  F   UNL A   1      46.051  29.583  33.708  1.00  0.00    -0.203 F 
ATOM     85  F   UNL A   1      45.421  25.235  36.946  1.00  0.00    -0.200 F 
ATOM     86  C   UNL A   1      46.765  27.006  36.151  1.00  0.00     0.200 A 
ATOM     87  F   UNL A   1      48.065  28.802  35.342  1.00  0.00    -0.200 F 
ATOM     88  F   UNL A   1      47.755  26.645  36.979  1.00  0.00    -0.200 F 
ENDBRANCH  55  78
ENDBRANCH  29  30
ENDBRANCH  22  24
ENDBRANCH  21  22
ENDBRANCH  20  21
ENDBRANCH   1  20
TORSDOF 14
ENDMDL
