MODEL 1
REMARK VINA RESULT:     -11.6      0.000      0.000
REMARK SMILES Cc1cc(NC[C@H](C)[NH+](C)C)cc(C(=O)OCCOC(=O)c2ccc(-c3c4nc(c(-c5c(F)c(F)c(F)c(F)c5F)c5ccc([nH]5)c(-c5c(F)c(F)c(F)c(F)c5F)c5nc(c(-c6c(F)c(F)c(F)c(F)c6F)c6ccc3[nH]6)C=C5)C=C4)cc2)c1N
REMARK SMILES IDX 17 1 16 2 14 3 15 4 13 5 1 6 2 7 3 8 85 9 4 10 12 11 86 12
REMARK SMILES IDX 5 15 6 17 7 18 8 19 9 20 10 21 11 22 18 24 19 25 20 26 21 27
REMARK SMILES IDX 22 28 23 29 84 30 24 31 83 32 25 33 26 34 27 35 77 36 28 37
REMARK SMILES IDX 82 38 76 39 78 40 29 41 81 42 75 43 74 44 30 46 62 47 42 48
REMARK SMILES IDX 61 49 43 50 46 51 60 52 79 53 44 54 45 55 59 57 80 58 47 59
REMARK SMILES IDX 31 60 32 61 40 62 33 63 34 64 38 65 41 66 35 67 36 68 39 69
REMARK SMILES IDX 37 70 63 71 64 72 72 73 65 74 66 75 70 76 73 77 67 78 68 79
REMARK SMILES IDX 71 80 69 81 48 82 49 83 57 84 50 85 51 86 55 87 58 88 52 89
REMARK SMILES IDX 53 90 56 91 54 92
REMARK H PARENT 86 13 86 14 5 16 9 23 78 45 46 56
REMARK Flexibility Score: inf
ROOT
ATOM      1  C   UNL A   1      33.546  29.009  24.573  1.00  0.00     0.275 C 
ENDROOT
BRANCH   1   2
ATOM      2  O   UNL A   1      33.493  29.100  23.134  1.00  0.00    -0.458 OA
BRANCH   2   3
ATOM      3  C   UNL A   1      32.958  28.037  22.472  1.00  0.00     0.340 C 
ATOM      4  O   UNL A   1      33.544  27.288  21.714  1.00  0.00    -0.246 OA
BRANCH   3   5
ATOM      5  C   UNL A   1      31.523  27.878  22.843  1.00  0.00     0.085 A 
ATOM      6  C   UNL A   1      28.104  29.425  22.175  1.00  0.00     0.047 C 
ATOM      7  C   UNL A   1      29.210  28.571  22.737  1.00  0.00    -0.025 A 
ATOM      8  C   UNL A   1      28.873  27.470  23.545  1.00  0.00     0.031 A 
ATOM      9  C   UNL A   1      30.565  28.848  22.479  1.00  0.00     0.049 A 
ATOM     10  C   UNL A   1      29.843  26.606  24.060  1.00  0.00     0.035 A 
ATOM     11  C   UNL A   1      31.156  26.777  23.628  1.00  0.00     0.043 A 
BRANCH   9  12
ATOM     12  N   UNL A   1      30.915  29.995  21.768  1.00  0.00    -0.398 N 
ATOM     13  H   UNL A   1      30.230  30.488  21.261  1.00  0.00     0.156 HD
ATOM     14  H   UNL A   1      31.847  30.312  21.773  1.00  0.00     0.156 HD
ENDBRANCH   9  12
BRANCH  10  15
ATOM     15  N   UNL A   1      29.460  25.603  24.929  1.00  0.00    -0.379 N 
ATOM     16  H   UNL A   1      28.593  25.159  24.783  1.00  0.00     0.160 HD
BRANCH  15  17
ATOM     17  C   UNL A   1      30.283  25.175  26.053  1.00  0.00     0.177 C 
BRANCH  17  18
ATOM     18  C   UNL A   1      30.747  23.695  25.920  1.00  0.00     0.199 C 
ATOM     19  C   UNL A   1      29.905  22.832  26.875  1.00  0.00     0.077 C 
BRANCH  18  20
ATOM     20  N   UNL A   1      32.191  23.401  26.094  1.00  0.00    -0.336 N 
ATOM     21  C   UNL A   1      33.048  24.549  25.803  1.00  0.00     0.332 C 
ATOM     22  C   UNL A   1      32.541  22.844  27.400  1.00  0.00     0.332 C 
ATOM     23  H   UNL A   1      32.367  22.675  25.399  1.00  0.00     0.347 HD
ENDBRANCH  18  20
ENDBRANCH  17  18
ENDBRANCH  15  17
ENDBRANCH  10  15
ENDBRANCH   3   5
ENDBRANCH   2   3
ENDBRANCH   1   2
BRANCH   1  24
ATOM     24  C   UNL A   1      32.559  29.985  25.211  1.00  0.00     0.275 C 
BRANCH  24  25
ATOM     25  O   UNL A   1      32.765  29.996  26.633  1.00  0.00    -0.458 OA
BRANCH  25  26
ATOM     26  C   UNL A   1      33.260  31.138  27.162  1.00  0.00     0.338 C 
ATOM     27  O   UNL A   1      32.705  32.224  27.235  1.00  0.00    -0.246 OA
BRANCH  26  28
ATOM     28  C   UNL A   1      34.614  30.887  27.694  1.00  0.00     0.060 A 
ATOM     29  C   UNL A   1      34.989  29.588  28.013  1.00  0.00     0.016 A 
ATOM     30  C   UNL A   1      35.469  31.942  28.006  1.00  0.00     0.016 A 
ATOM     31  C   UNL A   1      36.157  29.347  28.734  1.00  0.00     0.010 A 
ATOM     32  C   UNL A   1      36.700  31.682  28.627  1.00  0.00     0.010 A 
ATOM     33  C   UNL A   1      37.047  30.382  29.043  1.00  0.00    -0.014 A 
BRANCH  33  34
ATOM     34  C   UNL A   1      38.276  30.116  29.860  1.00  0.00     0.031 A 
ATOM     35  C   UNL A   1      39.394  29.274  29.291  1.00  0.00     0.074 A 
ATOM     36  C   UNL A   1      38.440  30.648  31.091  1.00  0.00     0.049 A 
ATOM     37  N   UNL A   1      40.409  28.712  29.902  1.00  0.00    -0.248 NA
ATOM     38  C   UNL A   1      39.357  29.018  27.843  1.00  0.00     0.031 C 
ATOM     39  C   UNL A   1      37.501  31.544  31.767  1.00  0.00     0.029 A 
ATOM     40  N   UNL A   1      39.475  30.525  31.994  1.00  0.00    -0.354 N 
ATOM     41  C   UNL A   1      41.073  27.968  28.933  1.00  0.00     0.074 A 
ATOM     42  C   UNL A   1      40.357  28.160  27.691  1.00  0.00     0.031 C 
ATOM     43  C   UNL A   1      38.026  31.940  32.936  1.00  0.00     0.029 A 
ATOM     44  C   UNL A   1      39.275  31.221  33.162  1.00  0.00     0.049 A 
ATOM     45  H   UNL A   1      40.281  29.988  31.818  1.00  0.00     0.167 HD
ATOM     46  C   UNL A   1      42.174  27.190  29.073  1.00  0.00     0.037 A 
ATOM     47  C   UNL A   1      39.971  31.236  34.317  1.00  0.00     0.037 A 
ATOM     48  C   UNL A   1      42.939  27.074  30.289  1.00  0.00     0.049 A 
ATOM     49  C   UNL A   1      41.174  30.346  34.459  1.00  0.00     0.074 A 
ATOM     50  C   UNL A   1      44.067  26.309  30.531  1.00  0.00     0.029 A 
ATOM     51  N   UNL A   1      42.672  27.770  31.458  1.00  0.00    -0.354 N 
ATOM     52  N   UNL A   1      41.722  29.548  33.577  1.00  0.00    -0.248 NA
ATOM     53  C   UNL A   1      41.835  30.332  35.773  1.00  0.00     0.031 C 
ATOM     54  C   UNL A   1      44.466  26.518  31.856  1.00  0.00     0.029 A 
ATOM     55  C   UNL A   1      43.614  27.449  32.424  1.00  0.00     0.049 A 
ATOM     56  H   UNL A   1      41.925  28.398  31.583  1.00  0.00     0.167 HD
ATOM     57  C   UNL A   1      42.791  28.942  34.222  1.00  0.00     0.074 A 
ATOM     58  C   UNL A   1      42.834  29.486  35.563  1.00  0.00     0.031 C 
ATOM     59  C   UNL A   1      43.650  28.007  33.751  1.00  0.00     0.037 A 
BRANCH  46  60
ATOM     60  C   UNL A   1      42.605  26.365  27.893  1.00  0.00     0.064 A 
ATOM     61  C   UNL A   1      42.055  25.105  27.618  1.00  0.00     0.173 A 
ATOM     62  C   UNL A   1      43.553  26.876  26.992  1.00  0.00     0.173 A 
ATOM     63  F   UNL A   1      41.155  24.564  28.453  1.00  0.00    -0.203 F 
ATOM     64  C   UNL A   1      42.455  24.379  26.498  1.00  0.00     0.198 A 
ATOM     65  C   UNL A   1      43.927  26.162  25.857  1.00  0.00     0.198 A 
ATOM     66  F   UNL A   1      44.103  28.082  27.201  1.00  0.00    -0.203 F 
ATOM     67  F   UNL A   1      41.947  23.158  26.276  1.00  0.00    -0.200 F 
ATOM     68  C   UNL A   1      43.383  24.910  25.614  1.00  0.00     0.200 A 
ATOM     69  F   UNL A   1      44.811  26.687  24.996  1.00  0.00    -0.200 F 
ATOM     70  F   UNL A   1      43.754  24.216  24.530  1.00  0.00    -0.200 F 
ENDBRANCH  46  60
BRANCH  47  71
ATOM     71  C   UNL A   1      39.495  32.058  35.464  1.00  0.00     0.064 A 
ATOM     72  C   UNL A   1      38.576  31.550  36.392  1.00  0.00     0.173 A 
ATOM     73  C   UNL A   1      39.943  33.376  35.651  1.00  0.00     0.173 A 
ATOM     74  F   UNL A   1      38.088  30.310  36.240  1.00  0.00    -0.203 F 
ATOM     75  C   UNL A   1      38.120  32.328  37.456  1.00  0.00     0.198 A 
ATOM     76  C   UNL A   1      39.519  34.138  36.736  1.00  0.00     0.198 A 
ATOM     77  F   UNL A   1      40.816  33.918  34.787  1.00  0.00    -0.203 F 
ATOM     78  F   UNL A   1      37.204  31.834  38.300  1.00  0.00    -0.200 F 
ATOM     79  C   UNL A   1      38.601  33.617  37.633  1.00  0.00     0.200 A 
ATOM     80  F   UNL A   1      40.001  35.376  36.911  1.00  0.00    -0.200 F 
ATOM     81  F   UNL A   1      38.172  34.359  38.663  1.00  0.00    -0.200 F 
ENDBRANCH  47  71
BRANCH  59  82
ATOM     82  C   UNL A   1      44.733  27.542  34.679  1.00  0.00     0.064 A 
ATOM     83  C   UNL A   1      44.572  26.407  35.487  1.00  0.00     0.173 A 
ATOM     84  C   UNL A   1      45.954  28.230  34.745  1.00  0.00     0.173 A 
ATOM     85  F   UNL A   1      43.417  25.727  35.473  1.00  0.00    -0.203 F 
ATOM     86  C   UNL A   1      45.585  25.993  36.348  1.00  0.00     0.198 A 
ATOM     87  C   UNL A   1      46.975  27.797  35.586  1.00  0.00     0.198 A 
ATOM     88  F   UNL A   1      46.159  29.319  33.989  1.00  0.00    -0.203 F 
ATOM     89  F   UNL A   1      45.392  24.935  37.148  1.00  0.00    -0.200 F 
ATOM     90  C   UNL A   1      46.787  26.684  36.392  1.00  0.00     0.200 A 
ATOM     91  F   UNL A   1      48.140  28.460  35.621  1.00  0.00    -0.200 F 
ATOM     92  F   UNL A   1      47.762  26.283  37.220  1.00  0.00    -0.200 F 
ENDBRANCH  59  82
ENDBRANCH  33  34
ENDBRANCH  26  28
ENDBRANCH  25  26
ENDBRANCH  24  25
ENDBRANCH   1  24
TORSDOF 16
ENDMDL
MODEL 2
REMARK VINA RESULT:     -11.5      1.322      3.041
REMARK SMILES Cc1cc(NC[C@H](C)[NH+](C)C)cc(C(=O)OCCOC(=O)c2ccc(-c3c4nc(c(-c5c(F)c(F)c(F)c(F)c5F)c5ccc([nH]5)c(-c5c(F)c(F)c(F)c(F)c5F)c5nc(c(-c6c(F)c(F)c(F)c(F)c6F)c6ccc3[nH]6)C=C5)C=C4)cc2)c1N
REMARK SMILES IDX 17 1 16 2 14 3 15 4 13 5 1 6 2 7 3 8 85 9 4 10 12 11 86 12
REMARK SMILES IDX 5 15 6 17 7 18 8 19 9 20 10 21 11 22 18 24 19 25 20 26 21 27
REMARK SMILES IDX 22 28 23 29 84 30 24 31 83 32 25 33 26 34 27 35 77 36 28 37
REMARK SMILES IDX 82 38 76 39 78 40 29 41 81 42 75 43 74 44 30 46 62 47 42 48
REMARK SMILES IDX 61 49 43 50 46 51 60 52 79 53 44 54 45 55 59 57 80 58 47 59
REMARK SMILES IDX 31 60 32 61 40 62 33 63 34 64 38 65 41 66 35 67 36 68 39 69
REMARK SMILES IDX 37 70 63 71 64 72 72 73 65 74 66 75 70 76 73 77 67 78 68 79
REMARK SMILES IDX 71 80 69 81 48 82 49 83 57 84 50 85 51 86 55 87 58 88 52 89
REMARK SMILES IDX 53 90 56 91 54 92
REMARK H PARENT 86 13 86 14 5 16 9 23 78 45 46 56
REMARK Flexibility Score: inf
ROOT
ATOM      1  C   UNL A   1      31.219  29.370  24.230  1.00  0.00     0.275 C 
ENDROOT
BRANCH   1   2
ATOM      2  O   UNL A   1      30.297  28.268  24.108  1.00  0.00    -0.458 OA
BRANCH   2   3
ATOM      3  C   UNL A   1      30.728  27.183  23.406  1.00  0.00     0.340 C 
ATOM      4  O   UNL A   1      30.664  27.029  22.202  1.00  0.00    -0.246 OA
BRANCH   3   5
ATOM      5  C   UNL A   1      31.351  26.195  24.333  1.00  0.00     0.085 A 
ATOM      6  C   UNL A   1      30.408  23.410  26.758  1.00  0.00     0.047 C 
ATOM      7  C   UNL A   1      31.194  24.423  25.969  1.00  0.00    -0.025 A 
ATOM      8  C   UNL A   1      32.598  24.354  25.986  1.00  0.00     0.031 A 
ATOM      9  C   UNL A   1      30.563  25.435  25.223  1.00  0.00     0.049 A 
ATOM     10  C   UNL A   1      33.392  25.229  25.239  1.00  0.00     0.035 A 
ATOM     11  C   UNL A   1      32.748  26.088  24.352  1.00  0.00     0.043 A 
BRANCH   9  12
ATOM     12  N   UNL A   1      29.177  25.578  25.283  1.00  0.00    -0.398 N 
ATOM     13  H   UNL A   1      28.621  24.848  25.639  1.00  0.00     0.156 HD
ATOM     14  H   UNL A   1      28.754  26.410  24.969  1.00  0.00     0.156 HD
ENDBRANCH   9  12
BRANCH  10  15
ATOM     15  N   UNL A   1      34.765  25.178  25.376  1.00  0.00    -0.379 N 
ATOM     16  H   UNL A   1      35.224  25.932  25.810  1.00  0.00     0.160 HD
BRANCH  15  17
ATOM     17  C   UNL A   1      35.564  24.053  24.904  1.00  0.00     0.177 C 
BRANCH  17  18
ATOM     18  C   UNL A   1      36.281  23.305  26.066  1.00  0.00     0.199 C 
ATOM     19  C   UNL A   1      37.764  23.714  26.067  1.00  0.00     0.077 C 
BRANCH  18  20
ATOM     20  N   UNL A   1      36.151  21.829  26.126  1.00  0.00    -0.336 N 
ATOM     21  C   UNL A   1      34.762  21.377  26.174  1.00  0.00     0.332 C 
ATOM     22  C   UNL A   1      36.865  21.114  25.069  1.00  0.00     0.332 C 
ATOM     23  H   UNL A   1      36.604  21.590  27.009  1.00  0.00     0.347 HD
ENDBRANCH  18  20
ENDBRANCH  17  18
ENDBRANCH  15  17
ENDBRANCH  10  15
ENDBRANCH   3   5
ENDBRANCH   2   3
ENDBRANCH   1   2
BRANCH   1  24
ATOM     24  C   UNL A   1      31.642  29.559  25.686  1.00  0.00     0.275 C 
BRANCH  24  25
ATOM     25  O   UNL A   1      32.868  30.310  25.723  1.00  0.00    -0.458 OA
BRANCH  25  26
ATOM     26  C   UNL A   1      33.059  31.099  26.805  1.00  0.00     0.338 C 
ATOM     27  O   UNL A   1      32.263  31.882  27.302  1.00  0.00    -0.246 OA
BRANCH  26  28
ATOM     28  C   UNL A   1      34.407  30.860  27.356  1.00  0.00     0.060 A 
ATOM     29  C   UNL A   1      34.806  29.560  27.636  1.00  0.00     0.016 A 
ATOM     30  C   UNL A   1      35.230  31.922  27.722  1.00  0.00     0.016 A 
ATOM     31  C   UNL A   1      35.964  29.319  28.373  1.00  0.00     0.010 A 
ATOM     32  C   UNL A   1      36.455  31.668  28.359  1.00  0.00     0.010 A 
ATOM     33  C   UNL A   1      36.823  30.362  28.736  1.00  0.00    -0.014 A 
BRANCH  33  34
ATOM     34  C   UNL A   1      38.042  30.095  29.569  1.00  0.00     0.031 A 
ATOM     35  C   UNL A   1      39.175  29.268  29.008  1.00  0.00     0.074 A 
ATOM     36  C   UNL A   1      38.184  30.615  30.808  1.00  0.00     0.049 A 
ATOM     37  N   UNL A   1      40.184  28.706  29.627  1.00  0.00    -0.248 NA
ATOM     38  C   UNL A   1      39.161  29.029  27.556  1.00  0.00     0.031 C 
ATOM     39  C   UNL A   1      37.229  31.497  31.480  1.00  0.00     0.029 A 
ATOM     40  N   UNL A   1      39.206  30.488  31.725  1.00  0.00    -0.354 N 
ATOM     41  C   UNL A   1      40.868  27.978  28.660  1.00  0.00     0.074 A 
ATOM     42  C   UNL A   1      40.169  28.178  27.410  1.00  0.00     0.031 C 
ATOM     43  C   UNL A   1      37.733  31.882  32.661  1.00  0.00     0.029 A 
ATOM     44  C   UNL A   1      38.983  31.170  32.898  1.00  0.00     0.049 A 
ATOM     45  H   UNL A   1      40.018  29.958  31.555  1.00  0.00     0.167 HD
ATOM     46  C   UNL A   1      41.972  27.205  28.808  1.00  0.00     0.037 A 
ATOM     47  C   UNL A   1      39.661  31.176  34.063  1.00  0.00     0.037 A 
ATOM     48  C   UNL A   1      42.719  27.081  30.034  1.00  0.00     0.049 A 
ATOM     49  C   UNL A   1      40.869  30.292  34.214  1.00  0.00     0.074 A 
ATOM     50  C   UNL A   1      43.849  26.320  30.285  1.00  0.00     0.029 A 
ATOM     51  N   UNL A   1      42.430  27.762  31.207  1.00  0.00    -0.354 N 
ATOM     52  N   UNL A   1      41.436  29.509  33.331  1.00  0.00    -0.248 NA
ATOM     53  C   UNL A   1      41.510  30.268  35.537  1.00  0.00     0.031 C 
ATOM     54  C   UNL A   1      44.226  26.517  31.617  1.00  0.00     0.029 A 
ATOM     55  C   UNL A   1      43.359  27.436  32.184  1.00  0.00     0.049 A 
ATOM     56  H   UNL A   1      41.676  28.383  31.328  1.00  0.00     0.167 HD
ATOM     57  C   UNL A   1      42.498  28.902  33.985  1.00  0.00     0.074 A 
ATOM     58  C   UNL A   1      42.518  29.431  35.333  1.00  0.00     0.031 C 
ATOM     59  C   UNL A   1      43.371  27.978  33.517  1.00  0.00     0.037 A 
BRANCH  46  60
ATOM     60  C   UNL A   1      42.426  26.397  27.626  1.00  0.00     0.064 A 
ATOM     61  C   UNL A   1      43.450  26.826  26.771  1.00  0.00     0.173 A 
ATOM     62  C   UNL A   1      41.854  25.137  27.380  1.00  0.00     0.173 A 
ATOM     63  F   UNL A   1      44.022  28.026  26.953  1.00  0.00    -0.203 F 
ATOM     64  C   UNL A   1      43.869  26.037  25.702  1.00  0.00     0.198 A 
ATOM     65  C   UNL A   1      42.296  24.337  26.330  1.00  0.00     0.198 A 
ATOM     66  F   UNL A   1      40.877  24.672  28.173  1.00  0.00    -0.203 F 
ATOM     67  F   UNL A   1      44.822  26.486  24.872  1.00  0.00    -0.200 F 
ATOM     68  C   UNL A   1      43.299  24.791  25.487  1.00  0.00     0.200 A 
ATOM     69  F   UNL A   1      41.755  23.126  26.136  1.00  0.00    -0.200 F 
ATOM     70  F   UNL A   1      43.714  24.028  24.466  1.00  0.00    -0.200 F 
ENDBRANCH  46  60
BRANCH  47  71
ATOM     71  C   UNL A   1      39.163  31.982  35.212  1.00  0.00     0.064 A 
ATOM     72  C   UNL A   1      39.426  33.356  35.305  1.00  0.00     0.173 A 
ATOM     73  C   UNL A   1      38.421  31.393  36.249  1.00  0.00     0.173 A 
ATOM     74  F   UNL A   1      40.161  33.962  34.361  1.00  0.00    -0.203 F 
ATOM     75  C   UNL A   1      38.973  34.106  36.390  1.00  0.00     0.198 A 
ATOM     76  C   UNL A   1      37.934  32.150  37.310  1.00  0.00     0.198 A 
ATOM     77  F   UNL A   1      38.148  30.080  36.217  1.00  0.00    -0.203 F 
ATOM     78  F   UNL A   1      39.280  35.407  36.478  1.00  0.00    -0.200 F 
ATOM     79  C   UNL A   1      38.217  33.504  37.385  1.00  0.00     0.200 A 
ATOM     80  F   UNL A   1      37.189  31.566  38.259  1.00  0.00    -0.200 F 
ATOM     81  F   UNL A   1      37.770  34.227  38.421  1.00  0.00    -0.200 F 
ENDBRANCH  47  71
BRANCH  59  82
ATOM     82  C   UNL A   1      44.444  27.511  34.456  1.00  0.00     0.064 A 
ATOM     83  C   UNL A   1      45.664  28.193  34.576  1.00  0.00     0.173 A 
ATOM     84  C   UNL A   1      44.239  26.381  35.261  1.00  0.00     0.173 A 
ATOM     85  F   UNL A   1      45.913  29.268  33.815  1.00  0.00    -0.203 F 
ATOM     86  C   UNL A   1      46.651  27.742  35.448  1.00  0.00     0.198 A 
ATOM     87  C   UNL A   1      45.217  25.949  36.152  1.00  0.00     0.198 A 
ATOM     88  F   UNL A   1      43.087  25.696  35.186  1.00  0.00    -0.203 F 
ATOM     89  F   UNL A   1      47.829  28.379  35.510  1.00  0.00    -0.200 F 
ATOM     90  C   UNL A   1      46.425  26.626  36.239  1.00  0.00     0.200 A 
ATOM     91  F   UNL A   1      44.993  24.876  36.923  1.00  0.00    -0.200 F 
ATOM     92  F   UNL A   1      47.376  26.194  37.079  1.00  0.00    -0.200 F 
ENDBRANCH  59  82
ENDBRANCH  33  34
ENDBRANCH  26  28
ENDBRANCH  25  26
ENDBRANCH  24  25
ENDBRANCH   1  24
TORSDOF 16
ENDMDL
MODEL 3
REMARK VINA RESULT:     -11.4      4.604      9.710
REMARK SMILES Cc1cc(NC[C@H](C)[NH+](C)C)cc(C(=O)OCCOC(=O)c2ccc(-c3c4nc(c(-c5c(F)c(F)c(F)c(F)c5F)c5ccc([nH]5)c(-c5c(F)c(F)c(F)c(F)c5F)c5nc(c(-c6c(F)c(F)c(F)c(F)c6F)c6ccc3[nH]6)C=C5)C=C4)cc2)c1N
REMARK SMILES IDX 17 1 16 2 14 3 15 4 13 5 1 6 2 7 3 8 85 9 4 10 12 11 86 12
REMARK SMILES IDX 5 15 6 17 7 18 8 19 9 20 10 21 11 22 18 24 19 25 20 26 21 27
REMARK SMILES IDX 22 28 23 29 84 30 24 31 83 32 25 33 26 34 27 35 77 36 28 37
REMARK SMILES IDX 82 38 76 39 78 40 29 41 81 42 75 43 74 44 30 46 62 47 42 48
REMARK SMILES IDX 61 49 43 50 46 51 60 52 79 53 44 54 45 55 59 57 80 58 47 59
REMARK SMILES IDX 31 60 32 61 40 62 33 63 34 64 38 65 41 66 35 67 36 68 39 69
REMARK SMILES IDX 37 70 63 71 64 72 72 73 65 74 66 75 70 76 73 77 67 78 68 79
REMARK SMILES IDX 71 80 69 81 48 82 49 83 57 84 50 85 51 86 55 87 58 88 52 89
REMARK SMILES IDX 53 90 56 91 54 92
REMARK H PARENT 86 13 86 14 5 16 9 23 78 45 46 56
REMARK Flexibility Score: inf
ROOT
ATOM      1  C   UNL A   1      36.163  22.626  23.847  1.00  0.00     0.275 C 
ENDROOT
BRANCH   1   2
ATOM      2  O   UNL A   1      35.360  23.234  24.880  1.00  0.00    -0.458 OA
BRANCH   2   3
ATOM      3  C   UNL A   1      34.019  23.308  24.651  1.00  0.00     0.340 C 
ATOM      4  O   UNL A   1      33.182  22.494  24.993  1.00  0.00    -0.246 OA
BRANCH   3   5
ATOM      5  C   UNL A   1      33.694  24.579  23.944  1.00  0.00     0.085 A 
ATOM      6  C   UNL A   1      32.153  25.848  20.697  1.00  0.00     0.047 C 
ATOM      7  C   UNL A   1      32.845  25.792  22.033  1.00  0.00    -0.025 A 
ATOM      8  C   UNL A   1      33.074  26.991  22.730  1.00  0.00     0.031 A 
ATOM      9  C   UNL A   1      33.269  24.575  22.598  1.00  0.00     0.049 A 
ATOM     10  C   UNL A   1      33.665  27.011  23.996  1.00  0.00     0.035 A 
ATOM     11  C   UNL A   1      33.891  25.788  24.623  1.00  0.00     0.043 A 
BRANCH   9  12
ATOM     12  N   UNL A   1      33.142  23.391  21.871  1.00  0.00    -0.398 N 
ATOM     13  H   UNL A   1      33.942  22.869  21.637  1.00  0.00     0.156 HD
ATOM     14  H   UNL A   1      32.251  23.078  21.592  1.00  0.00     0.156 HD
ENDBRANCH   9  12
BRANCH  10  15
ATOM     15  N   UNL A   1      33.957  28.226  24.585  1.00  0.00    -0.379 N 
ATOM     16  H   UNL A   1      34.831  28.640  24.403  1.00  0.00     0.160 HD
BRANCH  15  17
ATOM     17  C   UNL A   1      33.025  28.920  25.465  1.00  0.00     0.177 C 
BRANCH  17  18
ATOM     18  C   UNL A   1      33.292  28.621  26.969  1.00  0.00     0.199 C 
ATOM     19  C   UNL A   1      31.966  28.199  27.626  1.00  0.00     0.077 C 
BRANCH  18  20
ATOM     20  N   UNL A   1      33.959  29.671  27.777  1.00  0.00    -0.336 N 
ATOM     21  C   UNL A   1      35.416  29.550  27.783  1.00  0.00     0.332 C 
ATOM     22  C   UNL A   1      33.580  31.039  27.425  1.00  0.00     0.332 C 
ATOM     23  H   UNL A   1      33.612  29.496  28.721  1.00  0.00     0.347 HD
ENDBRANCH  18  20
ENDBRANCH  17  18
ENDBRANCH  15  17
ENDBRANCH  10  15
ENDBRANCH   3   5
ENDBRANCH   2   3
ENDBRANCH   1   2
BRANCH   1  24
ATOM     24  C   UNL A   1      36.909  21.409  24.392  1.00  0.00     0.275 C 
BRANCH  24  25
ATOM     25  O   UNL A   1      37.366  21.698  25.723  1.00  0.00    -0.458 OA
BRANCH  25  26
ATOM     26  C   UNL A   1      38.672  21.454  25.979  1.00  0.00     0.338 C 
ATOM     27  O   UNL A   1      39.293  20.428  25.750  1.00  0.00    -0.246 OA
BRANCH  26  28
ATOM     28  C   UNL A   1      39.290  22.658  26.570  1.00  0.00     0.060 A 
ATOM     29  C   UNL A   1      38.851  23.913  26.171  1.00  0.00     0.016 A 
ATOM     30  C   UNL A   1      40.392  22.554  27.416  1.00  0.00     0.016 A 
ATOM     31  C   UNL A   1      39.566  25.057  26.523  1.00  0.00     0.010 A 
ATOM     32  C   UNL A   1      41.038  23.717  27.864  1.00  0.00     0.010 A 
ATOM     33  C   UNL A   1      40.663  24.989  27.388  1.00  0.00    -0.014 A 
BRANCH  33  34
ATOM     34  C   UNL A   1      41.453  26.220  27.721  1.00  0.00     0.031 A 
ATOM     35  C   UNL A   1      40.848  27.291  28.598  1.00  0.00     0.074 A 
ATOM     36  C   UNL A   1      42.723  26.387  27.293  1.00  0.00     0.049 A 
ATOM     37  N   UNL A   1      41.240  28.527  28.796  1.00  0.00    -0.248 NA
ATOM     38  C   UNL A   1      39.631  26.928  29.341  1.00  0.00     0.031 C 
ATOM     39  C   UNL A   1      43.493  25.425  26.503  1.00  0.00     0.029 A 
ATOM     40  N   UNL A   1      43.605  27.430  27.480  1.00  0.00    -0.354 N 
ATOM     41  C   UNL A   1      40.272  29.109  29.608  1.00  0.00     0.074 A 
ATOM     42  C   UNL A   1      39.281  28.090  29.878  1.00  0.00     0.031 C 
ATOM     43  C   UNL A   1      44.739  25.886  26.331  1.00  0.00     0.029 A 
ATOM     44  C   UNL A   1      44.825  27.236  26.876  1.00  0.00     0.049 A 
ATOM     45  H   UNL A   1      43.382  28.237  27.997  1.00  0.00     0.167 HD
ATOM     46  C   UNL A   1      40.214  30.380  30.075  1.00  0.00     0.037 A 
ATOM     47  C   UNL A   1      45.875  28.066  26.711  1.00  0.00     0.037 A 
ATOM     48  C   UNL A   1      41.247  31.365  29.882  1.00  0.00     0.049 A 
ATOM     49  C   UNL A   1      45.780  29.480  27.215  1.00  0.00     0.074 A 
ATOM     50  C   UNL A   1      41.279  32.681  30.312  1.00  0.00     0.029 A 
ATOM     51  N   UNL A   1      42.448  31.132  29.227  1.00  0.00    -0.354 N 
ATOM     52  N   UNL A   1      44.807  30.059  27.872  1.00  0.00    -0.248 NA
ATOM     53  C   UNL A   1      46.916  30.365  26.920  1.00  0.00     0.031 C 
ATOM     54  C   UNL A   1      42.486  33.252  29.893  1.00  0.00     0.029 A 
ATOM     55  C   UNL A   1      43.225  32.280  29.242  1.00  0.00     0.049 A 
ATOM     56  H   UNL A   1      42.708  30.278  28.814  1.00  0.00     0.167 HD
ATOM     57  C   UNL A   1      45.212  31.371  28.074  1.00  0.00     0.074 A 
ATOM     58  C   UNL A   1      46.534  31.496  27.496  1.00  0.00     0.031 C 
ATOM     59  C   UNL A   1      44.543  32.386  28.672  1.00  0.00     0.037 A 
BRANCH  46  60
ATOM     60  C   UNL A   1      38.974  30.801  30.812  1.00  0.00     0.064 A 
ATOM     61  C   UNL A   1      38.855  30.691  32.204  1.00  0.00     0.173 A 
ATOM     62  C   UNL A   1      37.905  31.377  30.108  1.00  0.00     0.173 A 
ATOM     63  F   UNL A   1      39.842  30.136  32.925  1.00  0.00    -0.203 F 
ATOM     64  C   UNL A   1      37.703  31.119  32.861  1.00  0.00     0.198 A 
ATOM     65  C   UNL A   1      36.768  31.834  30.769  1.00  0.00     0.198 A 
ATOM     66  F   UNL A   1      37.970  31.516  28.775  1.00  0.00    -0.203 F 
ATOM     67  F   UNL A   1      37.593  30.966  34.188  1.00  0.00    -0.200 F 
ATOM     68  C   UNL A   1      36.665  31.698  32.145  1.00  0.00     0.200 A 
ATOM     69  F   UNL A   1      35.774  32.408  30.077  1.00  0.00    -0.200 F 
ATOM     70  F   UNL A   1      35.564  32.123  32.781  1.00  0.00    -0.200 F 
ENDBRANCH  46  60
BRANCH  47  71
ATOM     71  C   UNL A   1      47.077  27.608  25.959  1.00  0.00     0.064 A 
ATOM     72  C   UNL A   1      47.143  27.710  24.562  1.00  0.00     0.173 A 
ATOM     73  C   UNL A   1      48.181  27.048  26.621  1.00  0.00     0.173 A 
ATOM     74  F   UNL A   1      46.101  28.203  23.877  1.00  0.00    -0.203 F 
ATOM     75  C   UNL A   1      48.262  27.265  23.859  1.00  0.00     0.198 A 
ATOM     76  C   UNL A   1      49.314  26.643  25.922  1.00  0.00     0.198 A 
ATOM     77  F   UNL A   1      48.168  26.917  27.956  1.00  0.00    -0.203 F 
ATOM     78  F   UNL A   1      48.279  27.329  22.521  1.00  0.00    -0.200 F 
ATOM     79  C   UNL A   1      49.352  26.743  24.541  1.00  0.00     0.200 A 
ATOM     80  F   UNL A   1      50.370  26.155  26.589  1.00  0.00    -0.200 F 
ATOM     81  F   UNL A   1      50.432  26.328  23.866  1.00  0.00    -0.200 F 
ENDBRANCH  47  71
BRANCH  59  82
ATOM     82  C   UNL A   1      45.245  33.708  28.766  1.00  0.00     0.064 A 
ATOM     83  C   UNL A   1      45.088  34.695  27.781  1.00  0.00     0.173 A 
ATOM     84  C   UNL A   1      46.068  33.998  29.864  1.00  0.00     0.173 A 
ATOM     85  F   UNL A   1      44.326  34.458  26.704  1.00  0.00    -0.203 F 
ATOM     86  C   UNL A   1      45.752  35.915  27.880  1.00  0.00     0.198 A 
ATOM     87  C   UNL A   1      46.708  35.229  29.974  1.00  0.00     0.198 A 
ATOM     88  F   UNL A   1      46.247  33.089  30.834  1.00  0.00    -0.203 F 
ATOM     89  F   UNL A   1      45.628  36.825  26.904  1.00  0.00    -0.200 F 
ATOM     90  C   UNL A   1      46.556  36.183  28.978  1.00  0.00     0.200 A 
ATOM     91  F   UNL A   1      47.477  35.490  31.040  1.00  0.00    -0.200 F 
ATOM     92  F   UNL A   1      47.193  37.358  29.072  1.00  0.00    -0.200 F 
ENDBRANCH  59  82
ENDBRANCH  33  34
ENDBRANCH  26  28
ENDBRANCH  25  26
ENDBRANCH  24  25
ENDBRANCH   1  24
TORSDOF 16
ENDMDL
