MODEL 1
REMARK VINA RESULT:     -12.3      0.000      0.000
REMARK SMILES COc1cc(/C=C2/SC(=O)N(c3ccc(C)c(C)c3)C2=O)ccc1OCCC(=O)OCCOC(=O)c1ccc(-c2c3nc(c(-c4c(F)c(F)c(F)c(F)c4F)c4ccc([nH]4)c(-c4c(F)c(F)c(F)c(F)c4F)c4nc(c(-c5c(F)c(F)c(F)c(F)c5F)c5ccc2[nH]5)C=C4)C=C3)cc1
REMARK SMILES IDX 30 1 28 2 29 3 27 4 26 5 25 6 24 7 3 8 4 9 5 10 23 11 22 12
REMARK SMILES IDX 2 13 1 14 6 15 7 16 8 17 20 18 9 19 11 20 21 21 10 22 12 23
REMARK SMILES IDX 13 24 19 25 14 26 17 27 15 28 18 29 16 30 31 31 32 32 33 33
REMARK SMILES IDX 34 34 35 35 36 36 37 37 98 38 38 39 97 40 39 41 40 42 41 43
REMARK SMILES IDX 91 44 42 45 96 46 90 47 92 48 43 49 95 50 89 51 88 52 44 54
REMARK SMILES IDX 76 55 56 56 75 57 57 58 60 59 74 60 93 61 58 62 59 63 73 65
REMARK SMILES IDX 94 66 61 67 45 68 46 69 54 70 47 71 48 72 52 73 55 74 49 75
REMARK SMILES IDX 50 76 53 77 51 78 77 79 78 80 86 81 79 82 80 83 84 84 87 85
REMARK SMILES IDX 81 86 82 87 85 88 83 89 62 90 63 91 71 92 64 93 65 94 69 95
REMARK SMILES IDX 72 96 66 97 67 98 70 99 68 100
REMARK H PARENT 92 53 60 64
REMARK Flexibility Score: inf
ROOT
ATOM      1  O   UNL A   1      34.467  33.875  28.960  1.00  0.00    -0.462 OA
ENDROOT
BRANCH   1   2
ATOM      2  C   UNL A   1      34.701  32.796  28.176  1.00  0.00     0.309 C 
ATOM      3  O   UNL A   1      35.768  32.552  27.626  1.00  0.00    -0.252 OA
BRANCH   2   4
ATOM      4  C   UNL A   1      33.449  31.975  27.940  1.00  0.00     0.164 C 
BRANCH   4   5
ATOM      5  C   UNL A   1      33.644  30.667  27.180  1.00  0.00     0.241 C 
BRANCH   5   6
ATOM      6  O   UNL A   1      32.813  30.483  26.019  1.00  0.00    -0.489 OA
BRANCH   6   7
ATOM      7  C   UNL A   1      32.185  29.269  26.003  1.00  0.00     0.161 A 
ATOM      8  C   UNL A   1      31.541  28.755  24.877  1.00  0.00     0.161 A 
ATOM      9  C   UNL A   1      31.043  27.451  24.908  1.00  0.00     0.058 A 
ATOM     10  C   UNL A   1      31.104  26.695  26.095  1.00  0.00    -0.020 A 
ATOM     11  C   UNL A   1      32.177  28.555  27.203  1.00  0.00     0.051 A 
ATOM     12  C   UNL A   1      31.644  27.267  27.251  1.00  0.00     0.012 A 
BRANCH   8  13
ATOM     13  O   UNL A   1      31.145  29.578  23.856  1.00  0.00    -0.493 OA
ATOM     14  C   UNL A   1      29.907  29.226  23.262  1.00  0.00     0.278 C 
ENDBRANCH   8  13
BRANCH  10  15
ATOM     15  C   UNL A   1      30.480  25.367  26.193  1.00  0.00     0.029 C 
ATOM     16  C   UNL A   1      31.155  24.233  25.961  1.00  0.00     0.083 C 
ATOM     17  S   UNL A   1      30.481  22.649  26.009  1.00  0.00    -0.022 SA
ATOM     18  C   UNL A   1      32.590  24.154  25.595  1.00  0.00     0.272 C 
ATOM     19  C   UNL A   1      32.031  21.888  25.624  1.00  0.00     0.298 C 
ATOM     20  N   UNL A   1      33.013  22.842  25.604  1.00  0.00    -0.236 N 
ATOM     21  O   UNL A   1      33.255  25.113  25.227  1.00  0.00    -0.268 OA
ATOM     22  O   UNL A   1      32.121  20.686  25.425  1.00  0.00    -0.260 OA
BRANCH  20  23
ATOM     23  C   UNL A   1      34.377  22.594  25.338  1.00  0.00     0.053 A 
ATOM     24  C   UNL A   1      34.752  21.316  24.906  1.00  0.00     0.027 A 
ATOM     25  C   UNL A   1      35.357  23.514  25.707  1.00  0.00     0.030 A 
ATOM     26  C   UNL A   1      36.092  20.948  24.873  1.00  0.00     0.006 A 
ATOM     27  C   UNL A   1      36.708  23.127  25.751  1.00  0.00    -0.046 A 
ATOM     28  C   UNL A   1      37.080  21.835  25.318  1.00  0.00    -0.048 A 
ATOM     29  C   UNL A   1      37.709  24.079  26.345  1.00  0.00     0.044 C 
ATOM     30  C   UNL A   1      38.490  21.314  25.376  1.00  0.00     0.044 C 
ENDBRANCH  20  23
ENDBRANCH  10  15
ENDBRANCH   6   7
ENDBRANCH   5   6
ENDBRANCH   4   5
ENDBRANCH   2   4
ENDBRANCH   1   2
BRANCH   1  31
ATOM     31  C   UNL A   1      34.062  35.103  28.322  1.00  0.00     0.274 C 
BRANCH  31  32
ATOM     32  C   UNL A   1      33.204  35.990  29.216  1.00  0.00     0.275 C 
BRANCH  32  33
ATOM     33  O   UNL A   1      32.626  35.195  30.258  1.00  0.00    -0.458 OA
BRANCH  33  34
ATOM     34  C   UNL A   1      32.712  35.703  31.503  1.00  0.00     0.338 C 
ATOM     35  O   UNL A   1      32.100  36.640  31.983  1.00  0.00    -0.246 OA
BRANCH  34  36
ATOM     36  C   UNL A   1      33.770  34.981  32.218  1.00  0.00     0.060 A 
ATOM     37  C   UNL A   1      33.496  33.800  32.914  1.00  0.00     0.016 A 
ATOM     38  C   UNL A   1      35.059  35.509  32.172  1.00  0.00     0.016 A 
ATOM     39  C   UNL A   1      34.533  33.115  33.542  1.00  0.00     0.010 A 
ATOM     40  C   UNL A   1      36.100  34.805  32.767  1.00  0.00     0.010 A 
ATOM     41  C   UNL A   1      35.846  33.595  33.434  1.00  0.00    -0.014 A 
BRANCH  41  42
ATOM     42  C   UNL A   1      36.996  32.782  33.885  1.00  0.00     0.031 A 
ATOM     43  C   UNL A   1      37.699  33.102  35.165  1.00  0.00     0.074 A 
ATOM     44  C   UNL A   1      37.460  31.834  33.051  1.00  0.00     0.049 A 
ATOM     45  N   UNL A   1      38.834  32.640  35.619  1.00  0.00    -0.248 NA
ATOM     46  C   UNL A   1      37.046  34.081  36.047  1.00  0.00     0.031 C 
ATOM     47  C   UNL A   1      36.841  31.459  31.777  1.00  0.00     0.029 A 
ATOM     48  N   UNL A   1      38.575  31.040  33.126  1.00  0.00    -0.354 N 
ATOM     49  C   UNL A   1      39.043  33.280  36.832  1.00  0.00     0.074 A 
ATOM     50  C   UNL A   1      37.924  34.176  37.036  1.00  0.00     0.031 C 
ATOM     51  C   UNL A   1      37.590  30.519  31.184  1.00  0.00     0.029 A 
ATOM     52  C   UNL A   1      38.768  30.269  32.005  1.00  0.00     0.049 A 
ATOM     53  H   UNL A   1      39.176  31.023  33.905  1.00  0.00     0.167 HD
ATOM     54  C   UNL A   1      40.083  33.128  37.687  1.00  0.00     0.037 A 
ATOM     55  C   UNL A   1      39.804  29.484  31.660  1.00  0.00     0.037 A 
ATOM     56  C   UNL A   1      41.188  32.234  37.453  1.00  0.00     0.049 A 
ATOM     57  C   UNL A   1      40.967  29.375  32.603  1.00  0.00     0.074 A 
ATOM     58  C   UNL A   1      42.277  31.972  38.267  1.00  0.00     0.029 A 
ATOM     59  N   UNL A   1      41.349  31.461  36.310  1.00  0.00    -0.354 N 
ATOM     60  N   UNL A   1      41.147  29.959  33.761  1.00  0.00    -0.248 NA
ATOM     61  C   UNL A   1      42.075  28.504  32.188  1.00  0.00     0.031 C 
ATOM     62  C   UNL A   1      43.119  31.079  37.595  1.00  0.00     0.029 A 
ATOM     63  C   UNL A   1      42.533  30.745  36.384  1.00  0.00     0.049 A 
ATOM     64  H   UNL A   1      40.716  31.428  35.558  1.00  0.00     0.167 HD
ATOM     65  C   UNL A   1      42.377  29.520  34.224  1.00  0.00     0.074 A 
ATOM     66  C   UNL A   1      42.893  28.605  33.226  1.00  0.00     0.031 C 
ATOM     67  C   UNL A   1      43.024  29.845  35.370  1.00  0.00     0.037 A 
BRANCH  54  68
ATOM     68  C   UNL A   1      40.088  33.959  38.937  1.00  0.00     0.064 A 
ATOM     69  C   UNL A   1      39.490  33.508  40.124  1.00  0.00     0.173 A 
ATOM     70  C   UNL A   1      40.732  35.205  38.960  1.00  0.00     0.173 A 
ATOM     71  F   UNL A   1      38.851  32.329  40.154  1.00  0.00    -0.203 F 
ATOM     72  C   UNL A   1      39.520  34.285  41.281  1.00  0.00     0.198 A 
ATOM     73  C   UNL A   1      40.781  35.966  40.125  1.00  0.00     0.198 A 
ATOM     74  F   UNL A   1      41.324  35.680  37.855  1.00  0.00    -0.203 F 
ATOM     75  F   UNL A   1      38.908  33.852  42.393  1.00  0.00    -0.200 F 
ATOM     76  C   UNL A   1      40.170  35.509  41.283  1.00  0.00     0.200 A 
ATOM     77  F   UNL A   1      41.420  37.144  40.128  1.00  0.00    -0.200 F 
ATOM     78  F   UNL A   1      40.203  36.252  42.398  1.00  0.00    -0.200 F 
ENDBRANCH  54  68
BRANCH  55  79
ATOM     79  C   UNL A   1      39.781  28.764  30.362  1.00  0.00     0.064 A 
ATOM     80  C   UNL A   1      40.285  29.363  29.200  1.00  0.00     0.173 A 
ATOM     81  C   UNL A   1      39.292  27.453  30.262  1.00  0.00     0.173 A 
ATOM     82  F   UNL A   1      40.747  30.622  29.244  1.00  0.00    -0.203 F 
ATOM     83  C   UNL A   1      40.295  28.681  27.986  1.00  0.00     0.198 A 
ATOM     84  C   UNL A   1      39.327  26.762  29.053  1.00  0.00     0.198 A 
ATOM     85  F   UNL A   1      38.804  26.832  31.347  1.00  0.00    -0.203 F 
ATOM     86  F   UNL A   1      40.754  29.289  26.884  1.00  0.00    -0.200 F 
ATOM     87  C   UNL A   1      39.824  27.378  27.914  1.00  0.00     0.200 A 
ATOM     88  F   UNL A   1      38.887  25.497  28.992  1.00  0.00    -0.200 F 
ATOM     89  F   UNL A   1      39.846  26.719  26.749  1.00  0.00    -0.200 F 
ENDBRANCH  55  79
BRANCH  67  90
ATOM     90  C   UNL A   1      44.352  29.191  35.605  1.00  0.00     0.064 A 
ATOM     91  C   UNL A   1      45.547  29.789  35.183  1.00  0.00     0.173 A 
ATOM     92  C   UNL A   1      44.430  27.968  36.289  1.00  0.00     0.173 A 
ATOM     93  F   UNL A   1      45.520  30.948  34.508  1.00  0.00    -0.203 F 
ATOM     94  C   UNL A   1      46.774  29.178  35.422  1.00  0.00     0.198 A 
ATOM     95  C   UNL A   1      45.660  27.372  36.549  1.00  0.00     0.198 A 
ATOM     96  F   UNL A   1      43.312  27.359  36.714  1.00  0.00    -0.203 F 
ATOM     97  F   UNL A   1      47.902  29.744  34.973  1.00  0.00    -0.200 F 
ATOM     98  C   UNL A   1      46.830  27.974  36.111  1.00  0.00     0.200 A 
ATOM     99  F   UNL A   1      45.713  26.216  37.224  1.00  0.00    -0.200 F 
ATOM    100  F   UNL A   1      48.012  27.390  36.346  1.00  0.00    -0.200 F 
ENDBRANCH  67  90
ENDBRANCH  41  42
ENDBRANCH  34  36
ENDBRANCH  33  34
ENDBRANCH  32  33
ENDBRANCH  31  32
ENDBRANCH   1  31
TORSDOF 17
ENDMDL
MODEL 2
REMARK VINA RESULT:     -11.7      4.776      9.416
REMARK SMILES COc1cc(/C=C2/SC(=O)N(c3ccc(C)c(C)c3)C2=O)ccc1OCCC(=O)OCCOC(=O)c1ccc(-c2c3nc(c(-c4c(F)c(F)c(F)c(F)c4F)c4ccc([nH]4)c(-c4c(F)c(F)c(F)c(F)c4F)c4nc(c(-c5c(F)c(F)c(F)c(F)c5F)c5ccc2[nH]5)C=C4)C=C3)cc1
REMARK SMILES IDX 30 1 28 2 29 3 27 4 26 5 25 6 24 7 3 8 4 9 5 10 23 11 22 12
REMARK SMILES IDX 2 13 1 14 6 15 7 16 8 17 20 18 9 19 11 20 21 21 10 22 12 23
REMARK SMILES IDX 13 24 19 25 14 26 17 27 15 28 18 29 16 30 31 31 32 32 33 33
REMARK SMILES IDX 34 34 35 35 36 36 37 37 98 38 38 39 97 40 39 41 40 42 41 43
REMARK SMILES IDX 91 44 42 45 96 46 90 47 92 48 43 49 95 50 89 51 88 52 44 54
REMARK SMILES IDX 76 55 56 56 75 57 57 58 60 59 74 60 93 61 58 62 59 63 73 65
REMARK SMILES IDX 94 66 61 67 45 68 46 69 54 70 47 71 48 72 52 73 55 74 49 75
REMARK SMILES IDX 50 76 53 77 51 78 77 79 78 80 86 81 79 82 80 83 84 84 87 85
REMARK SMILES IDX 81 86 82 87 85 88 83 89 62 90 63 91 71 92 64 93 65 94 69 95
REMARK SMILES IDX 72 96 66 97 67 98 70 99 68 100
REMARK H PARENT 92 53 60 64
REMARK Flexibility Score: inf
ROOT
ATOM      1  O   UNL A   1      34.813  33.410  29.054  1.00  0.00    -0.462 OA
ENDROOT
BRANCH   1   2
ATOM      2  C   UNL A   1      34.404  33.405  30.346  1.00  0.00     0.309 C 
ATOM      3  O   UNL A   1      33.648  34.232  30.841  1.00  0.00    -0.252 OA
BRANCH   2   4
ATOM      4  C   UNL A   1      35.091  32.328  31.161  1.00  0.00     0.164 C 
BRANCH   4   5
ATOM      5  C   UNL A   1      36.588  32.517  31.388  1.00  0.00     0.241 C 
BRANCH   5   6
ATOM      6  O   UNL A   1      36.999  33.825  31.826  1.00  0.00    -0.489 OA
BRANCH   6   7
ATOM      7  C   UNL A   1      37.851  33.785  32.893  1.00  0.00     0.161 A 
ATOM      8  C   UNL A   1      37.491  33.275  34.141  1.00  0.00     0.161 A 
ATOM      9  C   UNL A   1      38.464  33.148  35.135  1.00  0.00     0.058 A 
ATOM     10  C   UNL A   1      39.772  33.620  34.914  1.00  0.00    -0.020 A 
ATOM     11  C   UNL A   1      39.123  34.326  32.696  1.00  0.00     0.051 A 
ATOM     12  C   UNL A   1      40.086  34.240  33.700  1.00  0.00     0.012 A 
BRANCH   8  13
ATOM     13  O   UNL A   1      36.175  33.158  34.500  1.00  0.00    -0.493 OA
ATOM     14  C   UNL A   1      35.526  34.389  34.769  1.00  0.00     0.278 C 
ENDBRANCH   8  13
BRANCH  10  15
ATOM     15  C   UNL A   1      40.783  33.612  35.981  1.00  0.00     0.029 C 
ATOM     16  C   UNL A   1      41.492  32.520  36.297  1.00  0.00     0.083 C 
ATOM     17  S   UNL A   1      42.653  32.422  37.564  1.00  0.00    -0.022 SA
ATOM     18  C   UNL A   1      41.372  31.202  35.627  1.00  0.00     0.272 C 
ATOM     19  C   UNL A   1      43.027  30.731  37.203  1.00  0.00     0.298 C 
ATOM     20  N   UNL A   1      42.362  30.351  36.068  1.00  0.00    -0.236 N 
ATOM     21  O   UNL A   1      40.451  30.896  34.880  1.00  0.00    -0.268 OA
ATOM     22  O   UNL A   1      43.780  30.077  37.910  1.00  0.00    -0.260 OA
BRANCH  20  23
ATOM     23  C   UNL A   1      42.431  29.069  35.481  1.00  0.00     0.053 A 
ATOM     24  C   UNL A   1      41.734  28.017  36.087  1.00  0.00     0.027 A 
ATOM     25  C   UNL A   1      43.343  28.798  34.461  1.00  0.00     0.030 A 
ATOM     26  C   UNL A   1      41.968  26.703  35.702  1.00  0.00     0.006 A 
ATOM     27  C   UNL A   1      43.642  27.467  34.119  1.00  0.00    -0.046 A 
ATOM     28  C   UNL A   1      42.939  26.410  34.737  1.00  0.00    -0.048 A 
ATOM     29  C   UNL A   1      44.772  27.209  33.161  1.00  0.00     0.044 C 
ATOM     30  C   UNL A   1      43.225  24.957  34.474  1.00  0.00     0.044 C 
ENDBRANCH  20  23
ENDBRANCH  10  15
ENDBRANCH   6   7
ENDBRANCH   5   6
ENDBRANCH   4   5
ENDBRANCH   2   4
ENDBRANCH   1   2
BRANCH   1  31
ATOM     31  C   UNL A   1      33.823  33.201  28.028  1.00  0.00     0.274 C 
BRANCH  31  32
ATOM     32  C   UNL A   1      33.414  31.741  27.875  1.00  0.00     0.275 C 
BRANCH  32  33
ATOM     33  O   UNL A   1      34.450  31.028  27.189  1.00  0.00    -0.458 OA
BRANCH  33  34
ATOM     34  C   UNL A   1      34.666  29.763  27.600  1.00  0.00     0.338 C 
ATOM     35  O   UNL A   1      33.884  28.830  27.624  1.00  0.00    -0.246 OA
BRANCH  34  36
ATOM     36  C   UNL A   1      36.033  29.682  28.125  1.00  0.00     0.060 A 
ATOM     37  C   UNL A   1      36.277  29.326  29.456  1.00  0.00     0.016 A 
ATOM     38  C   UNL A   1      37.081  29.963  27.251  1.00  0.00     0.016 A 
ATOM     39  C   UNL A   1      37.588  29.212  29.908  1.00  0.00     0.010 A 
ATOM     40  C   UNL A   1      38.391  29.812  27.693  1.00  0.00     0.010 A 
ATOM     41  C   UNL A   1      38.650  29.414  29.015  1.00  0.00    -0.014 A 
BRANCH  41  42
ATOM     42  C   UNL A   1      40.040  29.080  29.392  1.00  0.00     0.031 A 
ATOM     43  C   UNL A   1      40.918  30.099  30.045  1.00  0.00     0.074 A 
ATOM     44  C   UNL A   1      40.521  27.880  29.019  1.00  0.00     0.049 A 
ATOM     45  N   UNL A   1      42.206  30.060  30.261  1.00  0.00    -0.248 NA
ATOM     46  C   UNL A   1      40.263  31.333  30.505  1.00  0.00     0.031 C 
ATOM     47  C   UNL A   1      39.737  26.826  28.370  1.00  0.00     0.029 A 
ATOM     48  N   UNL A   1      41.786  27.358  29.094  1.00  0.00    -0.354 N 
ATOM     49  C   UNL A   1      42.523  31.267  30.868  1.00  0.00     0.074 A 
ATOM     50  C   UNL A   1      41.294  32.025  30.972  1.00  0.00     0.031 C 
ATOM     51  C   UNL A   1      40.540  25.789  28.094  1.00  0.00     0.029 A 
ATOM     52  C   UNL A   1      41.901  26.128  28.492  1.00  0.00     0.049 A 
ATOM     53  H   UNL A   1      42.536  27.817  29.535  1.00  0.00     0.167 HD
ATOM     54  C   UNL A   1      43.737  31.693  31.292  1.00  0.00     0.037 A 
ATOM     55  C   UNL A   1      42.991  25.380  28.247  1.00  0.00     0.037 A 
ATOM     56  C   UNL A   1      44.947  30.920  31.167  1.00  0.00     0.049 A 
ATOM     57  C   UNL A   1      44.331  25.901  28.680  1.00  0.00     0.074 A 
ATOM     58  C   UNL A   1      46.225  31.237  31.593  1.00  0.00     0.029 A 
ATOM     59  N   UNL A   1      45.027  29.674  30.558  1.00  0.00    -0.354 N 
ATOM     60  N   UNL A   1      44.622  27.029  29.280  1.00  0.00    -0.248 NA
ATOM     61  C   UNL A   1      45.495  25.051  28.396  1.00  0.00     0.031 C 
ATOM     62  C   UNL A   1      47.085  30.205  31.200  1.00  0.00     0.029 A 
ATOM     63  C   UNL A   1      46.337  29.222  30.572  1.00  0.00     0.049 A 
ATOM     64  H   UNL A   1      44.265  29.184  30.173  1.00  0.00     0.167 HD
ATOM     65  C   UNL A   1      45.996  27.022  29.461  1.00  0.00     0.074 A 
ATOM     66  C   UNL A   1      46.479  25.767  28.920  1.00  0.00     0.031 C 
ATOM     67  C   UNL A   1      46.788  27.969  30.020  1.00  0.00     0.037 A 
BRANCH  54  68
ATOM     68  C   UNL A   1      43.823  33.061  31.904  1.00  0.00     0.064 A 
ATOM     69  C   UNL A   1      43.800  34.223  31.119  1.00  0.00     0.173 A 
ATOM     70  C   UNL A   1      43.890  33.213  33.298  1.00  0.00     0.173 A 
ATOM     71  F   UNL A   1      43.748  34.134  29.782  1.00  0.00    -0.203 F 
ATOM     72  C   UNL A   1      43.862  35.486  31.705  1.00  0.00     0.198 A 
ATOM     73  C   UNL A   1      43.926  34.477  33.881  1.00  0.00     0.198 A 
ATOM     74  F   UNL A   1      43.910  32.135  34.095  1.00  0.00    -0.203 F 
ATOM     75  F   UNL A   1      43.878  36.582  30.933  1.00  0.00    -0.200 F 
ATOM     76  C   UNL A   1      43.918  35.613  33.085  1.00  0.00     0.200 A 
ATOM     77  F   UNL A   1      43.970  34.598  35.215  1.00  0.00    -0.200 F 
ATOM     78  F   UNL A   1      43.972  36.828  33.647  1.00  0.00    -0.200 F 
ENDBRANCH  54  68
BRANCH  55  79
ATOM     79  C   UNL A   1      42.849  24.079  27.548  1.00  0.00     0.064 A 
ATOM     80  C   UNL A   1      42.466  22.927  28.247  1.00  0.00     0.173 A 
ATOM     81  C   UNL A   1      43.052  23.966  26.164  1.00  0.00     0.173 A 
ATOM     82  F   UNL A   1      42.277  22.982  29.574  1.00  0.00    -0.203 F 
ATOM     83  C   UNL A   1      42.300  21.710  27.591  1.00  0.00     0.198 A 
ATOM     84  C   UNL A   1      42.859  22.755  25.505  1.00  0.00     0.198 A 
ATOM     85  F   UNL A   1      43.413  25.041  25.448  1.00  0.00    -0.203 F 
ATOM     86  F   UNL A   1      41.964  20.616  28.288  1.00  0.00    -0.200 F 
ATOM     87  C   UNL A   1      42.488  21.626  26.219  1.00  0.00     0.200 A 
ATOM     88  F   UNL A   1      43.026  22.682  24.176  1.00  0.00    -0.200 F 
ATOM     89  F   UNL A   1      42.315  20.457  25.587  1.00  0.00    -0.200 F 
ENDBRANCH  55  79
BRANCH  67  90
ATOM     90  C   UNL A   1      48.256  27.669  30.087  1.00  0.00     0.064 A 
ATOM     91  C   UNL A   1      48.824  27.051  31.210  1.00  0.00     0.173 A 
ATOM     92  C   UNL A   1      49.093  27.974  29.004  1.00  0.00     0.173 A 
ATOM     93  F   UNL A   1      48.065  26.760  32.277  1.00  0.00    -0.203 F 
ATOM     94  C   UNL A   1      50.186  26.765  31.253  1.00  0.00     0.198 A 
ATOM     95  C   UNL A   1      50.449  27.662  29.040  1.00  0.00     0.198 A 
ATOM     96  F   UNL A   1      48.593  28.563  27.907  1.00  0.00    -0.203 F 
ATOM     97  F   UNL A   1      50.718  26.214  32.352  1.00  0.00    -0.200 F 
ATOM     98  C   UNL A   1      50.994  27.063  30.165  1.00  0.00     0.200 A 
ATOM     99  F   UNL A   1      51.227  27.941  27.985  1.00  0.00    -0.200 F 
ATOM    100  F   UNL A   1      52.303  26.781  30.206  1.00  0.00    -0.200 F 
ENDBRANCH  67  90
ENDBRANCH  41  42
ENDBRANCH  34  36
ENDBRANCH  33  34
ENDBRANCH  32  33
ENDBRANCH  31  32
ENDBRANCH   1  31
TORSDOF 17
ENDMDL
MODEL 3
REMARK VINA RESULT:     -11.6      0.886      6.977
REMARK SMILES COc1cc(/C=C2/SC(=O)N(c3ccc(C)c(C)c3)C2=O)ccc1OCCC(=O)OCCOC(=O)c1ccc(-c2c3nc(c(-c4c(F)c(F)c(F)c(F)c4F)c4ccc([nH]4)c(-c4c(F)c(F)c(F)c(F)c4F)c4nc(c(-c5c(F)c(F)c(F)c(F)c5F)c5ccc2[nH]5)C=C4)C=C3)cc1
REMARK SMILES IDX 30 1 28 2 29 3 27 4 26 5 25 6 24 7 3 8 4 9 5 10 23 11 22 12
REMARK SMILES IDX 2 13 1 14 6 15 7 16 8 17 20 18 9 19 11 20 21 21 10 22 12 23
REMARK SMILES IDX 13 24 19 25 14 26 17 27 15 28 18 29 16 30 31 31 32 32 33 33
REMARK SMILES IDX 34 34 35 35 36 36 37 37 98 38 38 39 97 40 39 41 40 42 41 43
REMARK SMILES IDX 91 44 42 45 96 46 90 47 92 48 43 49 95 50 89 51 88 52 44 54
REMARK SMILES IDX 76 55 56 56 75 57 57 58 60 59 74 60 93 61 58 62 59 63 73 65
REMARK SMILES IDX 94 66 61 67 45 68 46 69 54 70 47 71 48 72 52 73 55 74 49 75
REMARK SMILES IDX 50 76 53 77 51 78 77 79 78 80 86 81 79 82 80 83 84 84 87 85
REMARK SMILES IDX 81 86 82 87 85 88 83 89 62 90 63 91 71 92 64 93 65 94 69 95
REMARK SMILES IDX 72 96 66 97 67 98 70 99 68 100
REMARK H PARENT 92 53 60 64
REMARK Flexibility Score: inf
ROOT
ATOM      1  O   UNL A   1      33.843  33.758  28.175  1.00  0.00    -0.462 OA
ENDROOT
BRANCH   1   2
ATOM      2  C   UNL A   1      34.465  32.673  28.695  1.00  0.00     0.309 C 
ATOM      3  O   UNL A   1      34.762  32.539  29.876  1.00  0.00    -0.252 OA
BRANCH   2   4
ATOM      4  C   UNL A   1      34.878  31.680  27.627  1.00  0.00     0.164 C 
BRANCH   4   5
ATOM      5  C   UNL A   1      34.003  30.437  27.500  1.00  0.00     0.241 C 
BRANCH   5   6
ATOM      6  O   UNL A   1      32.879  30.546  26.608  1.00  0.00    -0.489 OA
BRANCH   6   7
ATOM      7  C   UNL A   1      32.200  29.369  26.463  1.00  0.00     0.161 A 
ATOM      8  C   UNL A   1      31.678  28.930  25.245  1.00  0.00     0.161 A 
ATOM      9  C   UNL A   1      31.118  27.654  25.160  1.00  0.00     0.058 A 
ATOM     10  C   UNL A   1      30.991  26.854  26.313  1.00  0.00    -0.020 A 
ATOM     11  C   UNL A   1      32.006  28.614  27.623  1.00  0.00     0.051 A 
ATOM     12  C   UNL A   1      31.409  27.356  27.550  1.00  0.00     0.012 A 
BRANCH   8  13
ATOM     13  O   UNL A   1      31.455  29.809  24.219  1.00  0.00    -0.493 OA
ATOM     14  C   UNL A   1      30.166  29.717  23.636  1.00  0.00     0.278 C 
ENDBRANCH   8  13
BRANCH  10  15
ATOM     15  C   UNL A   1      30.297  25.560  26.278  1.00  0.00     0.029 C 
ATOM     16  C   UNL A   1      30.933  24.404  26.041  1.00  0.00     0.083 C 
ATOM     17  S   UNL A   1      30.179  22.860  25.936  1.00  0.00    -0.022 SA
ATOM     18  C   UNL A   1      32.390  24.267  25.800  1.00  0.00     0.272 C 
ATOM     19  C   UNL A   1      31.719  22.037  25.647  1.00  0.00     0.298 C 
ATOM     20  N   UNL A   1      32.745  22.935  25.771  1.00  0.00    -0.236 N 
ATOM     21  O   UNL A   1      33.133  25.207  25.550  1.00  0.00    -0.268 OA
ATOM     22  O   UNL A   1      31.768  20.843  25.388  1.00  0.00    -0.260 OA
BRANCH  20  23
ATOM     23  C   UNL A   1      34.114  22.627  25.613  1.00  0.00     0.053 A 
ATOM     24  C   UNL A   1      34.913  22.527  26.759  1.00  0.00     0.027 A 
ATOM     25  C   UNL A   1      34.710  22.645  24.353  1.00  0.00     0.030 A 
ATOM     26  C   UNL A   1      36.297  22.477  26.650  1.00  0.00     0.006 A 
ATOM     27  C   UNL A   1      36.111  22.673  24.237  1.00  0.00    -0.046 A 
ATOM     28  C   UNL A   1      36.912  22.576  25.396  1.00  0.00    -0.048 A 
ATOM     29  C   UNL A   1      36.714  22.896  22.878  1.00  0.00     0.044 C 
ATOM     30  C   UNL A   1      38.414  22.649  25.375  1.00  0.00     0.044 C 
ENDBRANCH  20  23
ENDBRANCH  10  15
ENDBRANCH   6   7
ENDBRANCH   5   6
ENDBRANCH   4   5
ENDBRANCH   2   4
ENDBRANCH   1   2
BRANCH   1  31
ATOM     31  C   UNL A   1      34.042  35.030  28.824  1.00  0.00     0.274 C 
BRANCH  31  32
ATOM     32  C   UNL A   1      32.838  35.482  29.642  1.00  0.00     0.275 C 
BRANCH  32  33
ATOM     33  O   UNL A   1      33.287  35.989  30.904  1.00  0.00    -0.458 OA
BRANCH  33  34
ATOM     34  C   UNL A   1      32.984  35.239  31.982  1.00  0.00     0.338 C 
ATOM     35  O   UNL A   1      31.895  35.057  32.497  1.00  0.00    -0.246 OA
BRANCH  34  36
ATOM     36  C   UNL A   1      34.234  34.708  32.534  1.00  0.00     0.060 A 
ATOM     37  C   UNL A   1      34.267  33.480  33.202  1.00  0.00     0.016 A 
ATOM     38  C   UNL A   1      35.392  35.466  32.363  1.00  0.00     0.016 A 
ATOM     39  C   UNL A   1      35.479  32.984  33.672  1.00  0.00     0.010 A 
ATOM     40  C   UNL A   1      36.608  34.953  32.798  1.00  0.00     0.010 A 
ATOM     41  C   UNL A   1      36.661  33.701  33.433  1.00  0.00    -0.014 A 
BRANCH  41  42
ATOM     42  C   UNL A   1      37.985  33.104  33.709  1.00  0.00     0.031 A 
ATOM     43  C   UNL A   1      38.560  32.071  32.794  1.00  0.00     0.074 A 
ATOM     44  C   UNL A   1      38.592  33.428  34.865  1.00  0.00     0.049 A 
ATOM     45  N   UNL A   1      39.597  31.296  32.974  1.00  0.00    -0.248 NA
ATOM     46  C   UNL A   1      37.870  31.872  31.511  1.00  0.00     0.031 C 
ATOM     47  C   UNL A   1      38.099  34.422  35.823  1.00  0.00     0.029 A 
ATOM     48  N   UNL A   1      39.729  32.935  35.451  1.00  0.00    -0.354 N 
ATOM     49  C   UNL A   1      39.679  30.505  31.837  1.00  0.00     0.074 A 
ATOM     50  C   UNL A   1      38.576  30.884  30.978  1.00  0.00     0.031 C 
ATOM     51  C   UNL A   1      38.920  34.456  36.882  1.00  0.00     0.029 A 
ATOM     52  C   UNL A   1      39.959  33.448  36.705  1.00  0.00     0.049 A 
ATOM     53  H   UNL A   1      40.320  32.279  35.018  1.00  0.00     0.167 HD
ATOM     54  C   UNL A   1      40.595  29.550  31.549  1.00  0.00     0.037 A 
ATOM     55  C   UNL A   1      40.878  33.110  37.626  1.00  0.00     0.037 A 
ATOM     56  C   UNL A   1      41.678  29.188  32.428  1.00  0.00     0.049 A 
ATOM     57  C   UNL A   1      41.848  32.011  37.302  1.00  0.00     0.074 A 
ATOM     58  C   UNL A   1      42.686  28.261  32.224  1.00  0.00     0.029 A 
ATOM     59  N   UNL A   1      41.887  29.734  33.688  1.00  0.00    -0.354 N 
ATOM     60  N   UNL A   1      41.940  31.286  36.214  1.00  0.00    -0.248 NA
ATOM     61  C   UNL A   1      42.837  31.675  38.335  1.00  0.00     0.031 C 
ATOM     62  C   UNL A   1      43.474  28.213  33.379  1.00  0.00     0.029 A 
ATOM     63  C   UNL A   1      42.989  29.143  34.285  1.00  0.00     0.049 A 
ATOM     64  H   UNL A   1      41.333  30.437  34.097  1.00  0.00     0.167 HD
ATOM     65  C   UNL A   1      43.002  30.421  36.420  1.00  0.00     0.074 A 
ATOM     66  C   UNL A   1      43.534  30.722  37.734  1.00  0.00     0.031 C 
ATOM     67  C   UNL A   1      43.492  29.460  35.599  1.00  0.00     0.037 A 
BRANCH  54  68
ATOM     68  C   UNL A   1      40.454  28.814  30.248  1.00  0.00     0.064 A 
ATOM     69  C   UNL A   1      39.707  27.630  30.149  1.00  0.00     0.173 A 
ATOM     70  C   UNL A   1      41.039  29.320  29.077  1.00  0.00     0.173 A 
ATOM     71  F   UNL A   1      39.136  27.098  31.239  1.00  0.00    -0.203 F 
ATOM     72  C   UNL A   1      39.571  26.969  28.929  1.00  0.00     0.198 A 
ATOM     73  C   UNL A   1      40.879  28.670  27.856  1.00  0.00     0.198 A 
ATOM     74  F   UNL A   1      41.759  30.451  29.116  1.00  0.00    -0.203 F 
ATOM     75  F   UNL A   1      38.886  25.819  28.866  1.00  0.00    -0.200 F 
ATOM     76  C   UNL A   1      40.150  27.492  27.783  1.00  0.00     0.200 A 
ATOM     77  F   UNL A   1      41.431  29.183  26.748  1.00  0.00    -0.200 F 
ATOM     78  F   UNL A   1      40.013  26.858  26.611  1.00  0.00    -0.200 F 
ENDBRANCH  54  68
BRANCH  55  79
ATOM     79  C   UNL A   1      40.902  33.811  38.934  1.00  0.00     0.064 A 
ATOM     80  C   UNL A   1      41.726  34.926  39.135  1.00  0.00     0.173 A 
ATOM     81  C   UNL A   1      40.076  33.409  39.995  1.00  0.00     0.173 A 
ATOM     82  F   UNL A   1      42.545  35.337  38.155  1.00  0.00    -0.203 F 
ATOM     83  C   UNL A   1      41.729  35.608  40.349  1.00  0.00     0.198 A 
ATOM     84  C   UNL A   1      40.059  34.108  41.199  1.00  0.00     0.198 A 
ATOM     85  F   UNL A   1      39.263  32.351  39.850  1.00  0.00    -0.203 F 
ATOM     86  F   UNL A   1      42.550  36.652  40.526  1.00  0.00    -0.200 F 
ATOM     87  C   UNL A   1      40.890  35.204  41.378  1.00  0.00     0.200 A 
ATOM     88  F   UNL A   1      39.235  33.725  42.184  1.00  0.00    -0.200 F 
ATOM     89  F   UNL A   1      40.884  35.869  42.541  1.00  0.00    -0.200 F 
ENDBRANCH  55  79
BRANCH  67  90
ATOM     90  C   UNL A   1      44.672  28.682  36.097  1.00  0.00     0.064 A 
ATOM     91  C   UNL A   1      45.984  29.126  35.880  1.00  0.00     0.173 A 
ATOM     92  C   UNL A   1      44.486  27.499  36.826  1.00  0.00     0.173 A 
ATOM     93  F   UNL A   1      46.211  30.241  35.170  1.00  0.00    -0.203 F 
ATOM     94  C   UNL A   1      47.071  28.401  36.362  1.00  0.00     0.198 A 
ATOM     95  C   UNL A   1      45.574  26.791  37.329  1.00  0.00     0.198 A 
ATOM     96  F   UNL A   1      43.249  27.036  37.061  1.00  0.00    -0.203 F 
ATOM     97  F   UNL A   1      48.318  28.819  36.107  1.00  0.00    -0.200 F 
ATOM     98  C   UNL A   1      46.864  27.240  37.092  1.00  0.00     0.200 A 
ATOM     99  F   UNL A   1      45.373  25.675  38.043  1.00  0.00    -0.200 F 
ATOM    100  F   UNL A   1      47.911  26.547  37.560  1.00  0.00    -0.200 F 
ENDBRANCH  67  90
ENDBRANCH  41  42
ENDBRANCH  34  36
ENDBRANCH  33  34
ENDBRANCH  32  33
ENDBRANCH  31  32
ENDBRANCH   1  31
TORSDOF 17
ENDMDL
