MODEL 1
REMARK VINA RESULT:     -12.0      0.000      0.000
REMARK SMILES C/C(=N\NC(N)=S)c1nnn(-c2ccc(C(=O)OCCOC(=O)c3ccc(-c4c5nc(c(-c6c(F)c(F)c(F)c(F)c6F)c6ccc([nH]6)c(-c6c(F)c(F)c(F)c(F)c6F)c6nc(c(-c7c(F)c(F)c(F)c(F)c7F)c7ccc4[nH]7)C=C6)C=C5)cc3)cc2)c1C
REMARK SMILES IDX 18 1 16 2 17 3 15 4 12 5 13 6 88 7 14 8 87 9 11 10 8 11 9 12
REMARK SMILES IDX 89 13 10 14 90 15 2 16 1 17 3 18 4 19 5 21 7 22 6 23 19 26
REMARK SMILES IDX 20 27 21 28 22 29 23 30 24 31 25 32 86 33 26 34 85 35 27 36
REMARK SMILES IDX 28 37 29 38 79 39 30 40 84 41 78 42 80 43 31 44 83 45 77 46
REMARK SMILES IDX 76 47 32 49 64 50 44 51 63 52 45 53 48 54 62 55 81 56 46 57
REMARK SMILES IDX 47 58 61 60 82 61 49 62 33 63 34 64 42 65 35 66 36 67 40 68
REMARK SMILES IDX 43 69 37 70 38 71 41 72 39 73 65 74 66 75 74 76 67 77 68 78
REMARK SMILES IDX 72 79 75 80 69 81 70 82 73 83 71 84 50 85 51 86 59 87 52 88
REMARK SMILES IDX 53 89 57 90 60 91 54 92 55 93 58 94 56 95
REMARK H PARENT 4 20 6 24 6 25 80 48 48 59
REMARK Flexibility Score: inf
ROOT
ATOM      1  O   UNL A   1      41.906  19.326  25.673  1.00  0.00    -0.458 OA
ENDROOT
BRANCH   1   2
ATOM      2  C   UNL A   1      41.506  20.368  26.444  1.00  0.00     0.338 C 
ATOM      3  O   UNL A   1      42.186  20.965  27.268  1.00  0.00    -0.246 OA
BRANCH   2   4
ATOM      4  C   UNL A   1      40.113  20.745  26.105  1.00  0.00     0.060 A 
ATOM      5  C   UNL A   1      37.614  21.499  25.174  1.00  0.00     0.067 A 
ATOM      6  C   UNL A   1      38.022  20.174  25.003  1.00  0.00     0.029 A 
ATOM      7  C   UNL A   1      38.373  22.401  25.926  1.00  0.00     0.029 A 
ATOM      8  C   UNL A   1      39.293  19.807  25.454  1.00  0.00     0.018 A 
ATOM      9  C   UNL A   1      39.621  22.022  26.398  1.00  0.00     0.018 A 
BRANCH   5  10
ATOM     10  N   UNL A   1      36.546  21.999  24.406  1.00  0.00    -0.217 N 
ATOM     11  C   UNL A   1      34.570  22.599  23.727  1.00  0.00     0.132 A 
ATOM     12  N   UNL A   1      35.512  23.195  22.927  1.00  0.00    -0.128 NA
ATOM     13  C   UNL A   1      35.201  21.865  24.709  1.00  0.00     0.071 A 
ATOM     14  N   UNL A   1      36.713  22.892  23.407  1.00  0.00    -0.061 NA
ATOM     15  C   UNL A   1      34.670  21.228  25.939  1.00  0.00     0.069 C 
BRANCH  11  16
ATOM     16  C   UNL A   1      33.157  22.918  23.649  1.00  0.00     0.087 C 
ATOM     17  C   UNL A   1      32.291  21.914  22.934  1.00  0.00     0.071 C 
ATOM     18  N   UNL A   1      32.799  24.030  24.220  1.00  0.00    -0.176 NA
BRANCH  18  19
ATOM     19  N   UNL A   1      31.492  24.423  24.256  1.00  0.00    -0.254 N 
ATOM     20  H   UNL A   1      31.121  24.767  23.412  1.00  0.00     0.193 HD
BRANCH  19  21
ATOM     21  C   UNL A   1      30.626  24.395  25.332  1.00  0.00     0.184 C 
ATOM     22  S   UNL A   1      30.476  23.269  26.545  1.00  0.00    -0.040 S 
BRANCH  21  23
ATOM     23  N   UNL A   1      29.796  25.484  25.350  1.00  0.00    -0.375 N 
ATOM     24  H   UNL A   1      29.011  25.495  25.943  1.00  0.00     0.159 HD
ATOM     25  H   UNL A   1      29.986  26.256  24.769  1.00  0.00     0.159 HD
ENDBRANCH  21  23
ENDBRANCH  19  21
ENDBRANCH  18  19
ENDBRANCH  11  16
ENDBRANCH   5  10
ENDBRANCH   2   4
ENDBRANCH   1   2
BRANCH   1  26
ATOM     26  C   UNL A   1      42.938  18.494  26.219  1.00  0.00     0.275 C 
BRANCH  26  27
ATOM     27  C   UNL A   1      44.178  18.517  25.337  1.00  0.00     0.275 C 
BRANCH  27  28
ATOM     28  O   UNL A   1      44.875  19.760  25.422  1.00  0.00    -0.458 OA
BRANCH  28  29
ATOM     29  C   UNL A   1      44.652  20.607  24.392  1.00  0.00     0.338 C 
ATOM     30  O   UNL A   1      44.657  20.351  23.201  1.00  0.00    -0.246 OA
BRANCH  29  31
ATOM     31  C   UNL A   1      44.640  21.981  24.897  1.00  0.00     0.060 A 
ATOM     32  C   UNL A   1      45.513  22.302  25.940  1.00  0.00     0.016 A 
ATOM     33  C   UNL A   1      43.592  22.834  24.521  1.00  0.00     0.016 A 
ATOM     34  C   UNL A   1      45.258  23.434  26.688  1.00  0.00     0.010 A 
ATOM     35  C   UNL A   1      43.330  23.951  25.277  1.00  0.00     0.010 A 
ATOM     36  C   UNL A   1      44.132  24.212  26.385  1.00  0.00    -0.014 A 
BRANCH  36  37
ATOM     37  C   UNL A   1      43.912  25.425  27.151  1.00  0.00     0.031 A 
ATOM     38  C   UNL A   1      44.929  26.470  26.869  1.00  0.00     0.074 A 
ATOM     39  C   UNL A   1      42.821  25.623  27.915  1.00  0.00     0.049 A 
ATOM     40  N   UNL A   1      45.741  27.027  27.703  1.00  0.00    -0.248 NA
ATOM     41  C   UNL A   1      45.175  26.830  25.460  1.00  0.00     0.031 C 
ATOM     42  C   UNL A   1      41.631  24.776  28.022  1.00  0.00     0.029 A 
ATOM     43  N   UNL A   1      42.497  26.697  28.687  1.00  0.00    -0.354 N 
ATOM     44  C   UNL A   1      46.481  27.941  26.957  1.00  0.00     0.074 A 
ATOM     45  C   UNL A   1      46.212  27.659  25.574  1.00  0.00     0.031 C 
ATOM     46  C   UNL A   1      40.638  25.476  28.617  1.00  0.00     0.029 A 
ATOM     47  C   UNL A   1      41.154  26.768  29.038  1.00  0.00     0.049 A 
ATOM     48  H   UNL A   1      43.159  27.368  28.973  1.00  0.00     0.167 HD
ATOM     49  C   UNL A   1      47.052  29.020  27.557  1.00  0.00     0.037 A 
ATOM     50  C   UNL A   1      40.512  27.844  29.562  1.00  0.00     0.037 A 
ATOM     51  C   UNL A   1      47.223  28.787  28.969  1.00  0.00     0.049 A 
ATOM     52  C   UNL A   1      41.547  28.765  30.099  1.00  0.00     0.074 A 
ATOM     53  C   UNL A   1      47.904  27.845  29.718  1.00  0.00     0.029 A 
ATOM     54  N   UNL A   1      46.331  29.372  29.833  1.00  0.00    -0.354 N 
ATOM     55  N   UNL A   1      42.269  28.515  31.154  1.00  0.00    -0.248 NA
ATOM     56  C   UNL A   1      42.088  29.769  29.194  1.00  0.00     0.031 C 
ATOM     57  C   UNL A   1      47.063  27.582  30.838  1.00  0.00     0.029 A 
ATOM     58  C   UNL A   1      45.956  28.426  30.748  1.00  0.00     0.049 A 
ATOM     59  H   UNL A   1      46.018  30.305  29.800  1.00  0.00     0.167 HD
ATOM     60  C   UNL A   1      43.535  28.970  30.822  1.00  0.00     0.074 A 
ATOM     61  C   UNL A   1      43.345  29.813  29.645  1.00  0.00     0.031 C 
ATOM     62  C   UNL A   1      44.648  28.386  31.354  1.00  0.00     0.037 A 
BRANCH  49  63
ATOM     63  C   UNL A   1      47.046  30.409  26.957  1.00  0.00     0.064 A 
ATOM     64  C   UNL A   1      48.236  31.164  27.003  1.00  0.00     0.173 A 
ATOM     65  C   UNL A   1      45.878  31.142  26.651  1.00  0.00     0.173 A 
ATOM     66  F   UNL A   1      49.409  30.577  27.282  1.00  0.00    -0.203 F 
ATOM     67  C   UNL A   1      48.234  32.555  26.875  1.00  0.00     0.198 A 
ATOM     68  C   UNL A   1      45.888  32.524  26.474  1.00  0.00     0.198 A 
ATOM     69  F   UNL A   1      44.663  30.586  26.618  1.00  0.00    -0.203 F 
ATOM     70  F   UNL A   1      49.367  33.241  27.078  1.00  0.00    -0.200 F 
ATOM     71  C   UNL A   1      47.058  33.236  26.626  1.00  0.00     0.200 A 
ATOM     72  F   UNL A   1      44.734  33.166  26.243  1.00  0.00    -0.200 F 
ATOM     73  F   UNL A   1      47.040  34.573  26.579  1.00  0.00    -0.200 F 
ENDBRANCH  49  63
BRANCH  50  74
ATOM     74  C   UNL A   1      39.110  28.286  29.365  1.00  0.00     0.064 A 
ATOM     75  C   UNL A   1      38.246  28.458  30.462  1.00  0.00     0.173 A 
ATOM     76  C   UNL A   1      38.673  28.827  28.140  1.00  0.00     0.173 A 
ATOM     77  F   UNL A   1      38.600  28.013  31.676  1.00  0.00    -0.203 F 
ATOM     78  C   UNL A   1      37.038  29.156  30.347  1.00  0.00     0.198 A 
ATOM     79  C   UNL A   1      37.464  29.516  28.025  1.00  0.00     0.198 A 
ATOM     80  F   UNL A   1      39.455  28.788  27.053  1.00  0.00    -0.203 F 
ATOM     81  F   UNL A   1      36.276  29.359  31.431  1.00  0.00    -0.200 F 
ATOM     82  C   UNL A   1      36.654  29.695  29.131  1.00  0.00     0.200 A 
ATOM     83  F   UNL A   1      37.122  30.063  26.850  1.00  0.00    -0.200 F 
ATOM     84  F   UNL A   1      35.532  30.420  29.033  1.00  0.00    -0.200 F 
ENDBRANCH  50  74
BRANCH  62  85
ATOM     85  C   UNL A   1      44.469  27.460  32.523  1.00  0.00     0.064 A 
ATOM     86  C   UNL A   1      44.238  26.077  32.416  1.00  0.00     0.173 A 
ATOM     87  C   UNL A   1      44.670  27.983  33.808  1.00  0.00     0.173 A 
ATOM     88  F   UNL A   1      44.139  25.480  31.221  1.00  0.00    -0.203 F 
ATOM     89  C   UNL A   1      44.164  25.271  33.551  1.00  0.00     0.198 A 
ATOM     90  C   UNL A   1      44.636  27.170  34.934  1.00  0.00     0.198 A 
ATOM     91  F   UNL A   1      44.944  29.288  33.966  1.00  0.00    -0.203 F 
ATOM     92  F   UNL A   1      43.921  23.957  33.428  1.00  0.00    -0.200 F 
ATOM     93  C   UNL A   1      44.370  25.817  34.808  1.00  0.00     0.200 A 
ATOM     94  F   UNL A   1      44.887  27.695  36.141  1.00  0.00    -0.200 F 
ATOM     95  F   UNL A   1      44.337  25.035  35.896  1.00  0.00    -0.200 F 
ENDBRANCH  62  85
ENDBRANCH  36  37
ENDBRANCH  29  31
ENDBRANCH  28  29
ENDBRANCH  27  28
ENDBRANCH  26  27
ENDBRANCH   1  26
TORSDOF 16
ENDMDL
MODEL 2
REMARK VINA RESULT:     -11.6      4.109      9.085
REMARK SMILES C/C(=N\NC(N)=S)c1nnn(-c2ccc(C(=O)OCCOC(=O)c3ccc(-c4c5nc(c(-c6c(F)c(F)c(F)c(F)c6F)c6ccc([nH]6)c(-c6c(F)c(F)c(F)c(F)c6F)c6nc(c(-c7c(F)c(F)c(F)c(F)c7F)c7ccc4[nH]7)C=C6)C=C5)cc3)cc2)c1C
REMARK SMILES IDX 18 1 16 2 17 3 15 4 12 5 13 6 88 7 14 8 87 9 11 10 8 11 9 12
REMARK SMILES IDX 89 13 10 14 90 15 2 16 1 17 3 18 4 19 5 21 7 22 6 23 19 26
REMARK SMILES IDX 20 27 21 28 22 29 23 30 24 31 25 32 86 33 26 34 85 35 27 36
REMARK SMILES IDX 28 37 29 38 79 39 30 40 84 41 78 42 80 43 31 44 83 45 77 46
REMARK SMILES IDX 76 47 32 49 64 50 44 51 63 52 45 53 48 54 62 55 81 56 46 57
REMARK SMILES IDX 47 58 61 60 82 61 49 62 33 63 34 64 42 65 35 66 36 67 40 68
REMARK SMILES IDX 43 69 37 70 38 71 41 72 39 73 65 74 66 75 74 76 67 77 68 78
REMARK SMILES IDX 72 79 75 80 69 81 70 82 73 83 71 84 50 85 51 86 59 87 52 88
REMARK SMILES IDX 53 89 57 90 60 91 54 92 55 93 58 94 56 95
REMARK H PARENT 4 20 6 24 6 25 80 48 48 59
REMARK Flexibility Score: inf
ROOT
ATOM      1  O   UNL A   1      32.227  30.109  25.273  1.00  0.00    -0.458 OA
ENDROOT
BRANCH   1   2
ATOM      2  C   UNL A   1      31.349  29.270  24.669  1.00  0.00     0.338 C 
ATOM      3  O   UNL A   1      30.360  29.594  24.025  1.00  0.00    -0.246 OA
BRANCH   2   4
ATOM      4  C   UNL A   1      31.791  27.865  24.839  1.00  0.00     0.060 A 
ATOM      5  C   UNL A   1      32.520  25.191  24.856  1.00  0.00     0.067 A 
ATOM      6  C   UNL A   1      33.415  26.128  24.334  1.00  0.00     0.029 A 
ATOM      7  C   UNL A   1      31.341  25.590  25.493  1.00  0.00     0.029 A 
ATOM      8  C   UNL A   1      33.031  27.471  24.307  1.00  0.00     0.018 A 
ATOM      9  C   UNL A   1      30.979  26.929  25.491  1.00  0.00     0.018 A 
BRANCH   5  10
ATOM     10  N   UNL A   1      32.686  23.828  24.549  1.00  0.00    -0.217 N 
ATOM     11  C   UNL A   1      33.175  21.712  24.656  1.00  0.00     0.132 A 
ATOM     12  N   UNL A   1      32.329  21.917  23.597  1.00  0.00    -0.128 NA
ATOM     13  C   UNL A   1      33.386  22.907  25.311  1.00  0.00     0.071 A 
ATOM     14  N   UNL A   1      31.968  23.195  23.596  1.00  0.00    -0.061 NA
ATOM     15  C   UNL A   1      34.018  23.200  26.622  1.00  0.00     0.069 C 
BRANCH  11  16
ATOM     16  C   UNL A   1      33.564  20.390  25.109  1.00  0.00     0.087 C 
ATOM     17  C   UNL A   1      35.027  20.054  24.989  1.00  0.00     0.071 C 
ATOM     18  N   UNL A   1      32.603  19.652  25.581  1.00  0.00    -0.176 NA
BRANCH  18  19
ATOM     19  N   UNL A   1      32.844  18.404  26.080  1.00  0.00    -0.254 N 
ATOM     20  H   UNL A   1      32.994  18.350  27.051  1.00  0.00     0.193 HD
BRANCH  19  21
ATOM     21  C   UNL A   1      32.901  17.210  25.390  1.00  0.00     0.184 C 
ATOM     22  S   UNL A   1      33.226  16.926  23.784  1.00  0.00    -0.040 S 
BRANCH  21  23
ATOM     23  N   UNL A   1      32.648  16.136  26.202  1.00  0.00    -0.375 N 
ATOM     24  H   UNL A   1      32.737  16.225  27.178  1.00  0.00     0.159 HD
ATOM     25  H   UNL A   1      32.376  15.276  25.808  1.00  0.00     0.159 HD
ENDBRANCH  21  23
ENDBRANCH  19  21
ENDBRANCH  18  19
ENDBRANCH  11  16
ENDBRANCH   5  10
ENDBRANCH   2   4
ENDBRANCH   1   2
BRANCH   1  26
ATOM     26  C   UNL A   1      32.052  30.301  26.682  1.00  0.00     0.275 C 
BRANCH  26  27
ATOM     27  C   UNL A   1      33.015  31.354  27.211  1.00  0.00     0.275 C 
BRANCH  27  28
ATOM     28  O   UNL A   1      34.216  30.776  27.723  1.00  0.00    -0.458 OA
BRANCH  28  29
ATOM     29  C   UNL A   1      35.202  31.662  27.989  1.00  0.00     0.338 C 
ATOM     30  O   UNL A   1      35.266  32.831  27.655  1.00  0.00    -0.246 OA
BRANCH  29  31
ATOM     31  C   UNL A   1      36.349  30.945  28.552  1.00  0.00     0.060 A 
ATOM     32  C   UNL A   1      37.404  31.703  29.068  1.00  0.00     0.016 A 
ATOM     33  C   UNL A   1      36.474  29.570  28.312  1.00  0.00     0.016 A 
ATOM     34  C   UNL A   1      38.632  31.096  29.232  1.00  0.00     0.010 A 
ATOM     35  C   UNL A   1      37.703  28.970  28.460  1.00  0.00     0.010 A 
ATOM     36  C   UNL A   1      38.782  29.750  28.868  1.00  0.00    -0.014 A 
BRANCH  36  37
ATOM     37  C   UNL A   1      40.068  29.118  29.097  1.00  0.00     0.031 A 
ATOM     38  C   UNL A   1      40.390  28.990  30.541  1.00  0.00     0.074 A 
ATOM     39  C   UNL A   1      40.808  28.579  28.109  1.00  0.00     0.049 A 
ATOM     40  N   UNL A   1      41.403  29.482  31.172  1.00  0.00    -0.248 NA
ATOM     41  C   UNL A   1      39.384  28.363  31.419  1.00  0.00     0.031 C 
ATOM     42  C   UNL A   1      40.438  28.398  26.704  1.00  0.00     0.029 A 
ATOM     43  N   UNL A   1      42.025  27.972  28.182  1.00  0.00    -0.354 N 
ATOM     44  C   UNL A   1      41.258  29.076  32.496  1.00  0.00     0.074 A 
ATOM     45  C   UNL A   1      39.930  28.543  32.621  1.00  0.00     0.031 C 
ATOM     46  C   UNL A   1      41.299  27.530  26.126  1.00  0.00     0.029 A 
ATOM     47  C   UNL A   1      42.343  27.190  27.078  1.00  0.00     0.049 A 
ATOM     48  H   UNL A   1      42.629  28.078  28.953  1.00  0.00     0.167 HD
ATOM     49  C   UNL A   1      42.343  28.981  33.310  1.00  0.00     0.037 A 
ATOM     50  C   UNL A   1      43.345  26.277  26.998  1.00  0.00     0.037 A 
ATOM     51  C   UNL A   1      43.424  29.797  32.817  1.00  0.00     0.049 A 
ATOM     52  C   UNL A   1      44.300  26.562  28.100  1.00  0.00     0.074 A 
ATOM     53  C   UNL A   1      43.576  31.146  32.556  1.00  0.00     0.029 A 
ATOM     54  N   UNL A   1      44.456  29.175  32.159  1.00  0.00    -0.354 N 
ATOM     55  N   UNL A   1      45.076  27.607  28.141  1.00  0.00    -0.248 NA
ATOM     56  C   UNL A   1      44.065  25.906  29.378  1.00  0.00     0.031 C 
ATOM     57  C   UNL A   1      44.380  31.209  31.381  1.00  0.00     0.029 A 
ATOM     58  C   UNL A   1      44.732  29.905  31.035  1.00  0.00     0.049 A 
ATOM     59  H   UNL A   1      44.913  28.351  32.444  1.00  0.00     0.167 HD
ATOM     60  C   UNL A   1      45.049  28.005  29.469  1.00  0.00     0.074 A 
ATOM     61  C   UNL A   1      44.488  26.872  30.198  1.00  0.00     0.031 C 
ATOM     62  C   UNL A   1      45.209  29.317  29.807  1.00  0.00     0.037 A 
BRANCH  49  63
ATOM     63  C   UNL A   1      42.563  27.839  34.278  1.00  0.00     0.064 A 
ATOM     64  C   UNL A   1      43.124  26.642  33.787  1.00  0.00     0.173 A 
ATOM     65  C   UNL A   1      41.959  27.744  35.552  1.00  0.00     0.173 A 
ATOM     66  F   UNL A   1      43.727  26.609  32.589  1.00  0.00    -0.203 F 
ATOM     67  C   UNL A   1      42.981  25.427  34.462  1.00  0.00     0.198 A 
ATOM     68  C   UNL A   1      41.863  26.538  36.245  1.00  0.00     0.198 A 
ATOM     69  F   UNL A   1      41.338  28.773  36.137  1.00  0.00    -0.203 F 
ATOM     70  F   UNL A   1      43.398  24.294  33.882  1.00  0.00    -0.200 F 
ATOM     71  C   UNL A   1      42.337  25.374  35.684  1.00  0.00     0.200 A 
ATOM     72  F   UNL A   1      41.225  26.508  37.424  1.00  0.00    -0.200 F 
ATOM     73  F   UNL A   1      42.132  24.202  36.296  1.00  0.00    -0.200 F 
ENDBRANCH  49  63
BRANCH  50  74
ATOM     74  C   UNL A   1      43.392  25.000  26.244  1.00  0.00     0.064 A 
ATOM     75  C   UNL A   1      44.367  24.781  25.254  1.00  0.00     0.173 A 
ATOM     76  C   UNL A   1      42.676  23.866  26.672  1.00  0.00     0.173 A 
ATOM     77  F   UNL A   1      45.127  25.796  24.817  1.00  0.00    -0.203 F 
ATOM     78  C   UNL A   1      44.632  23.502  24.750  1.00  0.00     0.198 A 
ATOM     79  C   UNL A   1      42.935  22.592  26.163  1.00  0.00     0.198 A 
ATOM     80  F   UNL A   1      41.781  23.951  27.666  1.00  0.00    -0.203 F 
ATOM     81  F   UNL A   1      45.617  23.324  23.859  1.00  0.00    -0.200 F 
ATOM     82  C   UNL A   1      43.923  22.406  25.214  1.00  0.00     0.200 A 
ATOM     83  F   UNL A   1      42.267  21.536  26.647  1.00  0.00    -0.200 F 
ATOM     84  F   UNL A   1      44.220  21.173  24.783  1.00  0.00    -0.200 F 
ENDBRANCH  50  74
BRANCH  62  85
ATOM     85  C   UNL A   1      45.715  30.261  28.754  1.00  0.00     0.064 A 
ATOM     86  C   UNL A   1      44.899  30.928  27.822  1.00  0.00     0.173 A 
ATOM     87  C   UNL A   1      47.075  30.601  28.779  1.00  0.00     0.173 A 
ATOM     88  F   UNL A   1      43.573  30.738  27.801  1.00  0.00    -0.203 F 
ATOM     89  C   UNL A   1      45.435  31.852  26.927  1.00  0.00     0.198 A 
ATOM     90  C   UNL A   1      47.599  31.553  27.913  1.00  0.00     0.198 A 
ATOM     91  F   UNL A   1      47.891  30.034  29.682  1.00  0.00    -0.203 F 
ATOM     92  F   UNL A   1      44.643  32.460  26.032  1.00  0.00    -0.200 F 
ATOM     93  C   UNL A   1      46.783  32.169  26.979  1.00  0.00     0.200 A 
ATOM     94  F   UNL A   1      48.892  31.892  28.003  1.00  0.00    -0.200 F 
ATOM     95  F   UNL A   1      47.292  33.086  26.145  1.00  0.00    -0.200 F 
ENDBRANCH  62  85
ENDBRANCH  36  37
ENDBRANCH  29  31
ENDBRANCH  28  29
ENDBRANCH  27  28
ENDBRANCH  26  27
ENDBRANCH   1  26
TORSDOF 16
ENDMDL
MODEL 3
REMARK VINA RESULT:     -11.5      3.130      4.540
REMARK SMILES C/C(=N\NC(N)=S)c1nnn(-c2ccc(C(=O)OCCOC(=O)c3ccc(-c4c5nc(c(-c6c(F)c(F)c(F)c(F)c6F)c6ccc([nH]6)c(-c6c(F)c(F)c(F)c(F)c6F)c6nc(c(-c7c(F)c(F)c(F)c(F)c7F)c7ccc4[nH]7)C=C6)C=C5)cc3)cc2)c1C
REMARK SMILES IDX 18 1 16 2 17 3 15 4 12 5 13 6 88 7 14 8 87 9 11 10 8 11 9 12
REMARK SMILES IDX 89 13 10 14 90 15 2 16 1 17 3 18 4 19 5 21 7 22 6 23 19 26
REMARK SMILES IDX 20 27 21 28 22 29 23 30 24 31 25 32 86 33 26 34 85 35 27 36
REMARK SMILES IDX 28 37 29 38 79 39 30 40 84 41 78 42 80 43 31 44 83 45 77 46
REMARK SMILES IDX 76 47 32 49 64 50 44 51 63 52 45 53 48 54 62 55 81 56 46 57
REMARK SMILES IDX 47 58 61 60 82 61 49 62 33 63 34 64 42 65 35 66 36 67 40 68
REMARK SMILES IDX 43 69 37 70 38 71 41 72 39 73 65 74 66 75 74 76 67 77 68 78
REMARK SMILES IDX 72 79 75 80 69 81 70 82 73 83 71 84 50 85 51 86 59 87 52 88
REMARK SMILES IDX 53 89 57 90 60 91 54 92 55 93 58 94 56 95
REMARK H PARENT 4 20 6 24 6 25 80 48 48 59
REMARK Flexibility Score: inf
ROOT
ATOM      1  O   UNL A   1      37.326  21.929  24.647  1.00  0.00    -0.458 OA
ENDROOT
BRANCH   1   2
ATOM      2  C   UNL A   1      36.010  21.737  24.911  1.00  0.00     0.338 C 
ATOM      3  O   UNL A   1      35.495  20.709  25.331  1.00  0.00    -0.246 OA
BRANCH   2   4
ATOM      4  C   UNL A   1      35.256  22.993  24.678  1.00  0.00     0.060 A 
ATOM      5  C   UNL A   1      33.582  25.170  24.302  1.00  0.00     0.067 A 
ATOM      6  C   UNL A   1      33.981  24.845  25.602  1.00  0.00     0.029 A 
ATOM      7  C   UNL A   1      34.123  24.514  23.192  1.00  0.00     0.029 A 
ATOM      8  C   UNL A   1      34.805  23.731  25.785  1.00  0.00     0.018 A 
ATOM      9  C   UNL A   1      34.966  23.428  23.379  1.00  0.00     0.018 A 
BRANCH   5  10
ATOM     10  N   UNL A   1      32.469  26.008  24.108  1.00  0.00    -0.217 N 
ATOM     11  C   UNL A   1      31.199  27.717  23.673  1.00  0.00     0.132 A 
ATOM     12  N   UNL A   1      30.431  26.581  23.659  1.00  0.00    -0.128 NA
ATOM     13  C   UNL A   1      32.514  27.378  23.913  1.00  0.00     0.071 A 
ATOM     14  N   UNL A   1      31.233  25.537  23.837  1.00  0.00    -0.061 NA
ATOM     15  C   UNL A   1      33.760  28.178  23.806  1.00  0.00     0.069 C 
BRANCH  11  16
ATOM     16  C   UNL A   1      30.694  29.013  23.261  1.00  0.00     0.087 C 
ATOM     17  C   UNL A   1      30.655  30.078  24.326  1.00  0.00     0.071 C 
ATOM     18  N   UNL A   1      30.347  29.111  22.012  1.00  0.00    -0.176 NA
BRANCH  18  19
ATOM     19  N   UNL A   1      29.899  30.288  21.487  1.00  0.00    -0.254 N 
ATOM     20  H   UNL A   1      30.588  30.883  21.113  1.00  0.00     0.193 HD
BRANCH  19  21
ATOM     21  C   UNL A   1      28.598  30.746  21.417  1.00  0.00     0.184 C 
ATOM     22  S   UNL A   1      28.027  32.278  21.116  1.00  0.00    -0.040 S 
BRANCH  21  23
ATOM     23  N   UNL A   1      27.690  29.745  21.632  1.00  0.00    -0.375 N 
ATOM     24  H   UNL A   1      27.303  29.258  20.870  1.00  0.00     0.159 HD
ATOM     25  H   UNL A   1      27.424  29.511  22.552  1.00  0.00     0.159 HD
ENDBRANCH  21  23
ENDBRANCH  19  21
ENDBRANCH  18  19
ENDBRANCH  11  16
ENDBRANCH   5  10
ENDBRANCH   2   4
ENDBRANCH   1   2
BRANCH   1  26
ATOM     26  C   UNL A   1      38.137  22.351  25.751  1.00  0.00     0.275 C 
BRANCH  26  27
ATOM     27  C   UNL A   1      39.283  21.377  25.986  1.00  0.00     0.275 C 
BRANCH  27  28
ATOM     28  O   UNL A   1      40.312  21.942  26.798  1.00  0.00    -0.458 OA
BRANCH  28  29
ATOM     29  C   UNL A   1      41.364  22.443  26.112  1.00  0.00     0.338 C 
ATOM     30  O   UNL A   1      42.132  21.844  25.381  1.00  0.00    -0.246 OA
BRANCH  29  31
ATOM     31  C   UNL A   1      41.624  23.811  26.566  1.00  0.00     0.060 A 
ATOM     32  C   UNL A   1      42.447  23.984  27.683  1.00  0.00     0.016 A 
ATOM     33  C   UNL A   1      40.842  24.856  26.055  1.00  0.00     0.016 A 
ATOM     34  C   UNL A   1      42.393  25.184  28.361  1.00  0.00     0.010 A 
ATOM     35  C   UNL A   1      40.777  26.045  26.742  1.00  0.00     0.010 A 
ATOM     36  C   UNL A   1      41.511  26.180  27.917  1.00  0.00    -0.014 A 
BRANCH  36  37
ATOM     37  C   UNL A   1      41.508  27.452  28.615  1.00  0.00     0.031 A 
ATOM     38  C   UNL A   1      42.668  28.304  28.250  1.00  0.00     0.074 A 
ATOM     39  C   UNL A   1      40.485  27.862  29.389  1.00  0.00     0.049 A 
ATOM     40  N   UNL A   1      43.582  28.771  29.032  1.00  0.00    -0.248 NA
ATOM     41  C   UNL A   1      42.924  28.543  26.818  1.00  0.00     0.031 C 
ATOM     42  C   UNL A   1      39.180  27.223  29.570  1.00  0.00     0.029 A 
ATOM     43  N   UNL A   1      40.358  29.015  30.103  1.00  0.00    -0.354 N 
ATOM     44  C   UNL A   1      44.434  29.513  28.218  1.00  0.00     0.074 A 
ATOM     45  C   UNL A   1      44.082  29.202  26.861  1.00  0.00     0.031 C 
ATOM     46  C   UNL A   1      38.329  28.104  30.144  1.00  0.00     0.029 A 
ATOM     47  C   UNL A   1      39.054  29.317  30.477  1.00  0.00     0.049 A 
ATOM     48  H   UNL A   1      41.126  29.587  30.334  1.00  0.00     0.167 HD
ATOM     49  C   UNL A   1      45.185  30.519  28.741  1.00  0.00     0.037 A 
ATOM     50  C   UNL A   1      38.606  30.509  30.950  1.00  0.00     0.037 A 
ATOM     51  C   UNL A   1      45.360  30.339  30.161  1.00  0.00     0.049 A 
ATOM     52  C   UNL A   1      39.788  31.283  31.410  1.00  0.00     0.074 A 
ATOM     53  C   UNL A   1      45.907  29.344  30.950  1.00  0.00     0.029 A 
ATOM     54  N   UNL A   1      44.598  31.106  31.008  1.00  0.00    -0.354 N 
ATOM     55  N   UNL A   1      40.494  30.979  32.462  1.00  0.00    -0.248 NA
ATOM     56  C   UNL A   1      40.453  32.136  30.436  1.00  0.00     0.031 C 
ATOM     57  C   UNL A   1      45.069  29.281  32.101  1.00  0.00     0.029 A 
ATOM     58  C   UNL A   1      44.107  30.283  31.985  1.00  0.00     0.049 A 
ATOM     59  H   UNL A   1      44.435  32.074  30.926  1.00  0.00     0.167 HD
ATOM     60  C   UNL A   1      41.805  31.208  32.077  1.00  0.00     0.074 A 
ATOM     61  C   UNL A   1      41.714  32.004  30.857  1.00  0.00     0.031 C 
ATOM     62  C   UNL A   1      42.827  30.485  32.619  1.00  0.00     0.037 A 
BRANCH  49  63
ATOM     63  C   UNL A   1      45.381  31.856  28.061  1.00  0.00     0.064 A 
ATOM     64  C   UNL A   1      44.238  32.588  27.680  1.00  0.00     0.173 A 
ATOM     65  C   UNL A   1      46.595  32.287  27.481  1.00  0.00     0.173 A 
ATOM     66  F   UNL A   1      43.029  32.273  28.166  1.00  0.00    -0.203 F 
ATOM     67  C   UNL A   1      44.291  33.586  26.703  1.00  0.00     0.198 A 
ATOM     68  C   UNL A   1      46.651  33.318  26.545  1.00  0.00     0.198 A 
ATOM     69  F   UNL A   1      47.760  31.670  27.699  1.00  0.00    -0.203 F 
ATOM     70  F   UNL A   1      43.156  34.146  26.265  1.00  0.00    -0.200 F 
ATOM     71  C   UNL A   1      45.496  33.940  26.126  1.00  0.00     0.200 A 
ATOM     72  F   UNL A   1      47.828  33.638  25.989  1.00  0.00    -0.200 F 
ATOM     73  F   UNL A   1      45.540  34.841  25.138  1.00  0.00    -0.200 F 
ENDBRANCH  49  63
BRANCH  50  74
ATOM     74  C   UNL A   1      37.285  31.157  30.757  1.00  0.00     0.064 A 
ATOM     75  C   UNL A   1      36.472  31.482  31.858  1.00  0.00     0.173 A 
ATOM     76  C   UNL A   1      36.920  31.733  29.525  1.00  0.00     0.173 A 
ATOM     77  F   UNL A   1      36.770  31.013  33.079  1.00  0.00    -0.203 F 
ATOM     78  C   UNL A   1      35.384  32.354  31.740  1.00  0.00     0.198 A 
ATOM     79  C   UNL A   1      35.830  32.598  29.406  1.00  0.00     0.198 A 
ATOM     80  F   UNL A   1      37.673  31.553  28.431  1.00  0.00    -0.203 F 
ATOM     81  F   UNL A   1      34.676  32.694  32.826  1.00  0.00    -0.200 F 
ATOM     82  C   UNL A   1      35.071  32.921  30.515  1.00  0.00     0.200 A 
ATOM     83  F   UNL A   1      35.561  33.166  28.223  1.00  0.00    -0.200 F 
ATOM     84  F   UNL A   1      34.072  33.807  30.412  1.00  0.00    -0.200 F 
ENDBRANCH  50  74
BRANCH  62  85
ATOM     85  C   UNL A   1      42.540  29.665  33.844  1.00  0.00     0.064 A 
ATOM     86  C   UNL A   1      41.964  28.382  33.828  1.00  0.00     0.173 A 
ATOM     87  C   UNL A   1      42.991  30.154  35.078  1.00  0.00     0.173 A 
ATOM     88  F   UNL A   1      41.602  27.799  32.678  1.00  0.00    -0.203 F 
ATOM     89  C   UNL A   1      41.804  27.651  35.004  1.00  0.00     0.198 A 
ATOM     90  C   UNL A   1      42.867  29.405  36.242  1.00  0.00     0.198 A 
ATOM     91  F   UNL A   1      43.595  31.351  35.146  1.00  0.00    -0.203 F 
ATOM     92  F   UNL A   1      41.231  26.437  34.969  1.00  0.00    -0.200 F 
ATOM     93  C   UNL A   1      42.262  28.160  36.208  1.00  0.00     0.200 A 
ATOM     94  F   UNL A   1      43.358  29.881  37.395  1.00  0.00    -0.200 F 
ATOM     95  F   UNL A   1      42.143  27.440  37.333  1.00  0.00    -0.200 F 
ENDBRANCH  62  85
ENDBRANCH  36  37
ENDBRANCH  29  31
ENDBRANCH  28  29
ENDBRANCH  27  28
ENDBRANCH  26  27
ENDBRANCH   1  26
TORSDOF 16
ENDMDL
