MODEL 1
REMARK VINA RESULT:     -13.7      0.000      0.000
REMARK SMILES O=C(C[NH+]1CCN(c2cc(-c3ccccc3)nc(-c3ccccc3F)n2)CC1)OCCOC(=O)c1ccc(-c2c3nc(c(-c4c(F)c(F)c(F)c(F)c4F)c4ccc([nH]4)c(-c4c(F)c(F)c(F)c(F)c4F)c4nc(c(-c5c(F)c(F)c(F)c(F)c5F)c5ccc2[nH]5)C=C4)C=C3)cc1
REMARK SMILES IDX 30 1 29 2 2 3 1 4 3 5 4 6 5 7 28 8 6 10 27 11 7 12 8 13 9 14
REMARK SMILES IDX 26 15 10 16 18 17 17 18 11 19 12 20 16 21 13 22 15 23 14 24
REMARK SMILES IDX 19 25 20 26 24 27 21 28 23 29 25 30 22 31 31 32 32 33 33 34
REMARK SMILES IDX 34 35 35 36 36 37 97 38 37 39 96 40 38 41 39 42 40 43 90 44
REMARK SMILES IDX 41 45 95 46 89 47 91 48 42 49 94 50 88 51 87 52 43 54 75 55
REMARK SMILES IDX 55 56 74 57 56 58 59 59 73 60 92 61 57 62 58 63 72 65 93 66
REMARK SMILES IDX 60 67 44 68 45 69 53 70 46 71 47 72 51 73 54 74 48 75 49 76
REMARK SMILES IDX 52 77 50 78 76 79 77 80 85 81 78 82 79 83 83 84 86 85 80 86
REMARK SMILES IDX 81 87 84 88 82 89 61 90 62 91 70 92 63 93 64 94 68 95 71 96
REMARK SMILES IDX 65 97 66 98 69 99 67 100
REMARK H PARENT 4 9 91 53 59 64
REMARK Flexibility Score: inf
ROOT
ATOM      1  C   UNL A   1      35.583  21.104  25.465  1.00  0.00     0.274 C 
ENDROOT
BRANCH   1   2
ATOM      2  O   UNL A   1      34.593  20.246  24.852  1.00  0.00    -0.458 OA
BRANCH   2   3
ATOM      3  C   UNL A   1      33.313  20.124  25.303  1.00  0.00     0.361 C 
ATOM      4  O   UNL A   1      32.905  19.039  25.712  1.00  0.00    -0.245 OA
BRANCH   3   5
ATOM      5  C   UNL A   1      32.398  21.337  25.160  1.00  0.00     0.386 C 
BRANCH   5   6
ATOM      6  N   UNL A   1      31.901  21.979  26.399  1.00  0.00    -0.323 N 
ATOM      7  C   UNL A   1      32.830  22.898  27.084  1.00  0.00     0.284 C 
ATOM      8  C   UNL A   1      30.647  22.717  26.128  1.00  0.00     0.284 C 
ATOM      9  H   UNL A   1      31.766  21.193  27.035  1.00  0.00     0.348 HD
ATOM     10  C   UNL A   1      33.154  24.209  26.344  1.00  0.00     0.179 C 
ATOM     11  C   UNL A   1      30.830  24.007  25.295  1.00  0.00     0.179 C 
ATOM     12  N   UNL A   1      31.951  24.816  25.778  1.00  0.00    -0.345 N 
BRANCH  12  13
ATOM     13  C   UNL A   1      32.027  26.156  25.437  1.00  0.00     0.133 A 
ATOM     14  C   UNL A   1      31.167  26.613  24.468  1.00  0.00     0.076 A 
ATOM     15  N   UNL A   1      32.808  26.999  26.130  1.00  0.00    -0.211 NA
ATOM     16  C   UNL A   1      31.063  27.972  24.286  1.00  0.00     0.076 A 
ATOM     17  C   UNL A   1      32.692  28.315  25.842  1.00  0.00     0.165 A 
ATOM     18  N   UNL A   1      31.851  28.846  24.934  1.00  0.00    -0.228 NA
BRANCH  16  19
ATOM     19  C   UNL A   1      29.986  28.492  23.443  1.00  0.00     0.000 A 
ATOM     20  C   UNL A   1      28.691  27.966  23.485  1.00  0.00     0.010 A 
ATOM     21  C   UNL A   1      30.226  29.618  22.626  1.00  0.00     0.010 A 
ATOM     22  C   UNL A   1      27.657  28.579  22.770  1.00  0.00     0.001 A 
ATOM     23  C   UNL A   1      29.197  30.228  21.914  1.00  0.00     0.001 A 
ATOM     24  C   UNL A   1      27.908  29.713  21.997  1.00  0.00     0.000 A 
ENDBRANCH  16  19
BRANCH  17  25
ATOM     25  C   UNL A   1      33.528  29.249  26.593  1.00  0.00     0.055 A 
ATOM     26  C   UNL A   1      34.863  28.950  26.921  1.00  0.00     0.015 A 
ATOM     27  C   UNL A   1      33.025  30.492  26.996  1.00  0.00     0.134 A 
ATOM     28  C   UNL A   1      35.663  29.875  27.606  1.00  0.00     0.001 A 
ATOM     29  C   UNL A   1      33.812  31.415  27.686  1.00  0.00     0.040 A 
ATOM     30  F   UNL A   1      31.749  30.821  26.740  1.00  0.00    -0.206 F 
ATOM     31  C   UNL A   1      35.137  31.108  27.987  1.00  0.00     0.003 A 
ENDBRANCH  17  25
ENDBRANCH  12  13
ENDBRANCH   5   6
ENDBRANCH   3   5
ENDBRANCH   2   3
ENDBRANCH   1   2
BRANCH   1  32
ATOM     32  C   UNL A   1      37.007  20.762  25.032  1.00  0.00     0.275 C 
BRANCH  32  33
ATOM     33  O   UNL A   1      37.890  21.847  25.362  1.00  0.00    -0.458 OA
BRANCH  33  34
ATOM     34  C   UNL A   1      39.008  21.479  26.037  1.00  0.00     0.338 C 
ATOM     35  O   UNL A   1      39.548  20.392  26.023  1.00  0.00    -0.246 OA
BRANCH  34  36
ATOM     36  C   UNL A   1      39.604  22.674  26.672  1.00  0.00     0.060 A 
ATOM     37  C   UNL A   1      39.073  23.923  26.324  1.00  0.00     0.016 A 
ATOM     38  C   UNL A   1      40.658  22.582  27.587  1.00  0.00     0.016 A 
ATOM     39  C   UNL A   1      39.631  25.089  26.842  1.00  0.00     0.010 A 
ATOM     40  C   UNL A   1      41.223  23.750  28.098  1.00  0.00     0.010 A 
ATOM     41  C   UNL A   1      40.739  25.007  27.692  1.00  0.00    -0.014 A 
BRANCH  41  42
ATOM     42  C   UNL A   1      41.550  26.214  27.964  1.00  0.00     0.031 A 
ATOM     43  C   UNL A   1      40.906  27.331  28.735  1.00  0.00     0.074 A 
ATOM     44  C   UNL A   1      42.811  26.331  27.519  1.00  0.00     0.049 A 
ATOM     45  N   UNL A   1      41.362  28.524  29.014  1.00  0.00    -0.248 NA
ATOM     46  C   UNL A   1      39.553  27.066  29.249  1.00  0.00     0.031 C 
ATOM     47  C   UNL A   1      43.549  25.304  26.789  1.00  0.00     0.029 A 
ATOM     48  N   UNL A   1      43.683  27.387  27.600  1.00  0.00    -0.354 N 
ATOM     49  C   UNL A   1      40.347  29.154  29.723  1.00  0.00     0.074 A 
ATOM     50  C   UNL A   1      39.244  28.223  29.808  1.00  0.00     0.031 C 
ATOM     51  C   UNL A   1      44.758  25.794  26.458  1.00  0.00     0.029 A 
ATOM     52  C   UNL A   1      44.861  27.174  26.931  1.00  0.00     0.049 A 
ATOM     53  H   UNL A   1      43.484  28.217  28.091  1.00  0.00     0.167 HD
ATOM     54  C   UNL A   1      40.339  30.397  30.257  1.00  0.00     0.037 A 
ATOM     55  C   UNL A   1      45.890  28.014  26.702  1.00  0.00     0.037 A 
ATOM     56  C   UNL A   1      41.437  31.319  30.167  1.00  0.00     0.049 A 
ATOM     57  C   UNL A   1      45.844  29.413  27.262  1.00  0.00     0.074 A 
ATOM     58  C   UNL A   1      41.544  32.590  30.699  1.00  0.00     0.029 A 
ATOM     59  N   UNL A   1      42.618  31.066  29.483  1.00  0.00    -0.354 N 
ATOM     60  N   UNL A   1      44.899  29.993  27.963  1.00  0.00    -0.248 NA
ATOM     61  C   UNL A   1      47.007  30.274  27.001  1.00  0.00     0.031 C 
ATOM     62  C   UNL A   1      42.771  33.128  30.294  1.00  0.00     0.029 A 
ATOM     63  C   UNL A   1      43.449  32.171  29.555  1.00  0.00     0.049 A 
ATOM     64  H   UNL A   1      42.834  30.226  29.017  1.00  0.00     0.167 HD
ATOM     65  C   UNL A   1      45.362  31.270  28.251  1.00  0.00     0.074 A 
ATOM     66  C   UNL A   1      46.675  31.383  27.648  1.00  0.00     0.031 C 
ATOM     67  C   UNL A   1      44.757  32.259  28.955  1.00  0.00     0.037 A 
BRANCH  54  68
ATOM     68  C   UNL A   1      39.081  30.832  30.948  1.00  0.00     0.064 A 
ATOM     69  C   UNL A   1      38.100  31.590  30.290  1.00  0.00     0.173 A 
ATOM     70  C   UNL A   1      38.866  30.503  32.294  1.00  0.00     0.173 A 
ATOM     71  F   UNL A   1      38.269  31.948  29.009  1.00  0.00    -0.203 F 
ATOM     72  C   UNL A   1      36.969  32.036  30.969  1.00  0.00     0.198 A 
ATOM     73  C   UNL A   1      37.720  30.927  32.960  1.00  0.00     0.198 A 
ATOM     74  F   UNL A   1      39.774  29.782  32.969  1.00  0.00    -0.203 F 
ATOM     75  F   UNL A   1      36.076  32.815  30.340  1.00  0.00    -0.200 F 
ATOM     76  C   UNL A   1      36.778  31.702  32.301  1.00  0.00     0.200 A 
ATOM     77  F   UNL A   1      37.534  30.597  34.246  1.00  0.00    -0.200 F 
ATOM     78  F   UNL A   1      35.692  32.139  32.954  1.00  0.00    -0.200 F 
ENDBRANCH  54  68
BRANCH  55  79
ATOM     79  C   UNL A   1      47.043  27.551  25.889  1.00  0.00     0.064 A 
ATOM     80  C   UNL A   1      47.067  27.726  24.499  1.00  0.00     0.173 A 
ATOM     81  C   UNL A   1      48.153  26.941  26.491  1.00  0.00     0.173 A 
ATOM     82  F   UNL A   1      46.018  28.280  23.876  1.00  0.00    -0.203 F 
ATOM     83  C   UNL A   1      48.158  27.304  23.741  1.00  0.00     0.198 A 
ATOM     84  C   UNL A   1      49.252  26.540  25.736  1.00  0.00     0.198 A 
ATOM     85  F   UNL A   1      48.176  26.749  27.819  1.00  0.00    -0.203 F 
ATOM     86  F   UNL A   1      48.145  27.455  22.409  1.00  0.00    -0.200 F 
ATOM     87  C   UNL A   1      49.253  26.719  24.361  1.00  0.00     0.200 A 
ATOM     88  F   UNL A   1      50.312  25.986  26.340  1.00  0.00    -0.200 F 
ATOM     89  F   UNL A   1      50.307  26.323  23.633  1.00  0.00    -0.200 F 
ENDBRANCH  55  79
BRANCH  67  90
ATOM     90  C   UNL A   1      45.515  33.540  29.151  1.00  0.00     0.064 A 
ATOM     91  C   UNL A   1      45.382  34.617  28.264  1.00  0.00     0.173 A 
ATOM     92  C   UNL A   1      46.319  33.717  30.287  1.00  0.00     0.173 A 
ATOM     93  F   UNL A   1      44.633  34.492  27.158  1.00  0.00    -0.203 F 
ATOM     94  C   UNL A   1      46.035  35.823  28.503  1.00  0.00     0.198 A 
ATOM     95  C   UNL A   1      46.950  34.933  30.536  1.00  0.00     0.198 A 
ATOM     96  F   UNL A   1      46.472  32.718  31.170  1.00  0.00    -0.203 F 
ATOM     97  F   UNL A   1      45.916  36.832  27.628  1.00  0.00    -0.200 F 
ATOM     98  C   UNL A   1      46.810  35.984  29.643  1.00  0.00     0.200 A 
ATOM     99  F   UNL A   1      47.686  35.090  31.645  1.00  0.00    -0.200 F 
ATOM    100  F   UNL A   1      47.423  37.151  29.878  1.00  0.00    -0.200 F 
ENDBRANCH  67  90
ENDBRANCH  41  42
ENDBRANCH  34  36
ENDBRANCH  33  34
ENDBRANCH  32  33
ENDBRANCH   1  32
TORSDOF 15
ENDMDL
MODEL 2
REMARK VINA RESULT:     -13.7      4.403      9.870
REMARK SMILES O=C(C[NH+]1CCN(c2cc(-c3ccccc3)nc(-c3ccccc3F)n2)CC1)OCCOC(=O)c1ccc(-c2c3nc(c(-c4c(F)c(F)c(F)c(F)c4F)c4ccc([nH]4)c(-c4c(F)c(F)c(F)c(F)c4F)c4nc(c(-c5c(F)c(F)c(F)c(F)c5F)c5ccc2[nH]5)C=C4)C=C3)cc1
REMARK SMILES IDX 30 1 29 2 2 3 1 4 3 5 4 6 5 7 28 8 6 10 27 11 7 12 8 13 9 14
REMARK SMILES IDX 26 15 10 16 18 17 17 18 11 19 12 20 16 21 13 22 15 23 14 24
REMARK SMILES IDX 19 25 20 26 24 27 21 28 23 29 25 30 22 31 31 32 32 33 33 34
REMARK SMILES IDX 34 35 35 36 36 37 97 38 37 39 96 40 38 41 39 42 40 43 90 44
REMARK SMILES IDX 41 45 95 46 89 47 91 48 42 49 94 50 88 51 87 52 43 54 75 55
REMARK SMILES IDX 55 56 74 57 56 58 59 59 73 60 92 61 57 62 58 63 72 65 93 66
REMARK SMILES IDX 60 67 44 68 45 69 53 70 46 71 47 72 51 73 54 74 48 75 49 76
REMARK SMILES IDX 52 77 50 78 76 79 77 80 85 81 78 82 79 83 83 84 86 85 80 86
REMARK SMILES IDX 81 87 84 88 82 89 61 90 62 91 70 92 63 93 64 94 68 95 71 96
REMARK SMILES IDX 65 97 66 98 69 99 67 100
REMARK H PARENT 4 9 91 53 59 64
REMARK Flexibility Score: inf
ROOT
ATOM      1  C   UNL A   1      31.694  28.936  25.029  1.00  0.00     0.274 C 
ENDROOT
BRANCH   1   2
ATOM      2  O   UNL A   1      30.591  28.995  24.094  1.00  0.00    -0.458 OA
BRANCH   2   3
ATOM      3  C   UNL A   1      30.667  28.566  22.804  1.00  0.00     0.361 C 
ATOM      4  O   UNL A   1      30.272  29.288  21.891  1.00  0.00    -0.245 OA
BRANCH   3   5
ATOM      5  C   UNL A   1      31.136  27.133  22.565  1.00  0.00     0.386 C 
BRANCH   5   6
ATOM      6  N   UNL A   1      32.409  26.934  21.833  1.00  0.00    -0.323 N 
ATOM      7  C   UNL A   1      33.651  27.131  22.604  1.00  0.00     0.284 C 
ATOM      8  C   UNL A   1      32.451  25.581  21.236  1.00  0.00     0.284 C 
ATOM      9  H   UNL A   1      32.395  27.675  21.131  1.00  0.00     0.348 HD
ATOM     10  C   UNL A   1      33.936  26.092  23.704  1.00  0.00     0.179 C 
ATOM     11  C   UNL A   1      32.630  24.435  22.259  1.00  0.00     0.179 C 
ATOM     12  N   UNL A   1      33.679  24.732  23.236  1.00  0.00    -0.345 N 
BRANCH  12  13
ATOM     13  C   UNL A   1      34.250  23.701  23.963  1.00  0.00     0.133 A 
ATOM     14  C   UNL A   1      33.619  22.482  23.937  1.00  0.00     0.076 A 
ATOM     15  N   UNL A   1      35.449  23.854  24.548  1.00  0.00    -0.211 NA
ATOM     16  C   UNL A   1      34.290  21.396  24.452  1.00  0.00     0.076 A 
ATOM     17  C   UNL A   1      36.010  22.749  25.088  1.00  0.00     0.165 A 
ATOM     18  N   UNL A   1      35.474  21.513  25.075  1.00  0.00    -0.228 NA
BRANCH  16  19
ATOM     19  C   UNL A   1      33.752  20.056  24.216  1.00  0.00     0.000 A 
ATOM     20  C   UNL A   1      32.560  19.847  23.514  1.00  0.00     0.010 A 
ATOM     21  C   UNL A   1      34.495  18.928  24.626  1.00  0.00     0.010 A 
ATOM     22  C   UNL A   1      32.153  18.550  23.188  1.00  0.00     0.001 A 
ATOM     23  C   UNL A   1      34.089  17.637  24.301  1.00  0.00     0.001 A 
ATOM     24  C   UNL A   1      32.921  17.450  23.571  1.00  0.00     0.000 A 
ENDBRANCH  16  19
BRANCH  17  25
ATOM     25  C   UNL A   1      37.319  22.894  25.722  1.00  0.00     0.055 A 
ATOM     26  C   UNL A   1      37.696  24.078  26.382  1.00  0.00     0.015 A 
ATOM     27  C   UNL A   1      38.240  21.840  25.705  1.00  0.00     0.134 A 
ATOM     28  C   UNL A   1      38.940  24.183  27.019  1.00  0.00     0.001 A 
ATOM     29  C   UNL A   1      39.484  21.941  26.330  1.00  0.00     0.040 A 
ATOM     30  F   UNL A   1      37.949  20.697  25.063  1.00  0.00    -0.206 F 
ATOM     31  C   UNL A   1      39.833  23.114  26.993  1.00  0.00     0.003 A 
ENDBRANCH  17  25
ENDBRANCH  12  13
ENDBRANCH   5   6
ENDBRANCH   3   5
ENDBRANCH   2   3
ENDBRANCH   1   2
BRANCH   1  32
ATOM     32  C   UNL A   1      31.795  30.187  25.900  1.00  0.00     0.275 C 
BRANCH  32  33
ATOM     33  O   UNL A   1      32.897  30.056  26.813  1.00  0.00    -0.458 OA
BRANCH  33  34
ATOM     34  C   UNL A   1      33.408  31.234  27.251  1.00  0.00     0.338 C 
ATOM     35  O   UNL A   1      32.818  32.287  27.378  1.00  0.00    -0.246 OA
BRANCH  34  36
ATOM     36  C   UNL A   1      34.785  31.010  27.742  1.00  0.00     0.060 A 
ATOM     37  C   UNL A   1      35.154  29.694  28.050  1.00  0.00     0.016 A 
ATOM     38  C   UNL A   1      35.697  32.058  27.902  1.00  0.00     0.016 A 
ATOM     39  C   UNL A   1      36.417  29.426  28.573  1.00  0.00     0.010 A 
ATOM     40  C   UNL A   1      36.958  31.791  28.436  1.00  0.00     0.010 A 
ATOM     41  C   UNL A   1      37.303  30.482  28.814  1.00  0.00    -0.014 A 
BRANCH  41  42
ATOM     42  C   UNL A   1      38.484  30.269  29.680  1.00  0.00     0.031 A 
ATOM     43  C   UNL A   1      39.586  29.392  29.157  1.00  0.00     0.074 A 
ATOM     44  C   UNL A   1      38.569  30.813  30.904  1.00  0.00     0.049 A 
ATOM     45  N   UNL A   1      40.670  28.968  29.753  1.00  0.00    -0.248 NA
ATOM     46  C   UNL A   1      39.433  28.917  27.772  1.00  0.00     0.031 C 
ATOM     47  C   UNL A   1      37.578  31.702  31.503  1.00  0.00     0.029 A 
ATOM     48  N   UNL A   1      39.531  30.671  31.871  1.00  0.00    -0.354 N 
ATOM     49  C   UNL A   1      41.319  28.168  28.822  1.00  0.00     0.074 A 
ATOM     50  C   UNL A   1      40.496  28.143  27.633  1.00  0.00     0.031 C 
ATOM     51  C   UNL A   1      37.969  32.003  32.755  1.00  0.00     0.029 A 
ATOM     52  C   UNL A   1      39.220  31.304  33.047  1.00  0.00     0.049 A 
ATOM     53  H   UNL A   1      40.364  30.163  31.735  1.00  0.00     0.167 HD
ATOM     54  C   UNL A   1      42.497  27.516  28.947  1.00  0.00     0.037 A 
ATOM     55  C   UNL A   1      39.861  31.290  34.232  1.00  0.00     0.037 A 
ATOM     56  C   UNL A   1      43.310  27.542  30.132  1.00  0.00     0.049 A 
ATOM     57  C   UNL A   1      41.148  30.517  34.370  1.00  0.00     0.074 A 
ATOM     58  C   UNL A   1      44.534  26.941  30.353  1.00  0.00     0.029 A 
ATOM     59  N   UNL A   1      42.964  28.199  31.305  1.00  0.00    -0.354 N 
ATOM     60  N   UNL A   1      41.778  29.792  33.477  1.00  0.00    -0.248 NA
ATOM     61  C   UNL A   1      41.815  30.562  35.680  1.00  0.00     0.031 C 
ATOM     62  C   UNL A   1      44.907  27.192  31.678  1.00  0.00     0.029 A 
ATOM     63  C   UNL A   1      43.940  27.993  32.265  1.00  0.00     0.049 A 
ATOM     64  H   UNL A   1      42.147  28.732  31.435  1.00  0.00     0.167 HD
ATOM     65  C   UNL A   1      42.924  29.318  34.103  1.00  0.00     0.074 A 
ATOM     66  C   UNL A   1      42.905  29.839  35.455  1.00  0.00     0.031 C 
ATOM     67  C   UNL A   1      43.906  28.528  33.603  1.00  0.00     0.037 A 
BRANCH  54  68
ATOM     68  C   UNL A   1      42.945  26.688  27.779  1.00  0.00     0.064 A 
ATOM     69  C   UNL A   1      42.703  25.308  27.714  1.00  0.00     0.173 A 
ATOM     70  C   UNL A   1      43.644  27.284  26.719  1.00  0.00     0.173 A 
ATOM     71  F   UNL A   1      42.056  24.688  28.712  1.00  0.00    -0.203 F 
ATOM     72  C   UNL A   1      43.181  24.549  26.649  1.00  0.00     0.198 A 
ATOM     73  C   UNL A   1      44.096  26.526  25.643  1.00  0.00     0.198 A 
ATOM     74  F   UNL A   1      43.904  28.601  26.734  1.00  0.00    -0.203 F 
ATOM     75  F   UNL A   1      42.997  23.220  26.640  1.00  0.00    -0.200 F 
ATOM     76  C   UNL A   1      43.874  25.158  25.614  1.00  0.00     0.200 A 
ATOM     77  F   UNL A   1      44.759  27.119  24.641  1.00  0.00    -0.200 F 
ATOM     78  F   UNL A   1      44.340  24.424  24.595  1.00  0.00    -0.200 F 
ENDBRANCH  54  68
BRANCH  55  79
ATOM     79  C   UNL A   1      39.280  32.025  35.385  1.00  0.00     0.064 A 
ATOM     80  C   UNL A   1      39.544  33.386  35.584  1.00  0.00     0.173 A 
ATOM     81  C   UNL A   1      38.433  31.381  36.299  1.00  0.00     0.173 A 
ATOM     82  F   UNL A   1      40.369  34.038  34.752  1.00  0.00    -0.203 F 
ATOM     83  C   UNL A   1      38.984  34.076  36.658  1.00  0.00     0.198 A 
ATOM     84  C   UNL A   1      37.857  32.077  37.359  1.00  0.00     0.198 A 
ATOM     85  F   UNL A   1      38.152  30.078  36.151  1.00  0.00    -0.203 F 
ATOM     86  F   UNL A   1      39.275  35.371  36.846  1.00  0.00    -0.200 F 
ATOM     87  C   UNL A   1      38.135  33.423  37.540  1.00  0.00     0.200 A 
ATOM     88  F   UNL A   1      37.029  31.444  38.201  1.00  0.00    -0.200 F 
ATOM     89  F   UNL A   1      37.589  34.089  38.567  1.00  0.00    -0.200 F 
ENDBRANCH  55  79
BRANCH  67  90
ATOM     90  C   UNL A   1      45.065  28.204  34.499  1.00  0.00     0.064 A 
ATOM     91  C   UNL A   1      46.179  29.050  34.596  1.00  0.00     0.173 A 
ATOM     92  C   UNL A   1      45.020  27.075  35.331  1.00  0.00     0.173 A 
ATOM     93  F   UNL A   1      46.273  30.135  33.813  1.00  0.00    -0.203 F 
ATOM     94  C   UNL A   1      47.211  28.771  35.488  1.00  0.00     0.198 A 
ATOM     95  C   UNL A   1      46.042  26.813  36.240  1.00  0.00     0.198 A 
ATOM     96  F   UNL A   1      43.971  26.239  35.281  1.00  0.00    -0.203 F 
ATOM     97  F   UNL A   1      48.280  29.577  35.547  1.00  0.00    -0.200 F 
ATOM     98  C   UNL A   1      47.137  27.659  36.316  1.00  0.00     0.200 A 
ATOM     99  F   UNL A   1      45.961  25.748  37.049  1.00  0.00    -0.200 F 
ATOM    100  F   UNL A   1      48.123  27.404  37.186  1.00  0.00    -0.200 F 
ENDBRANCH  67  90
ENDBRANCH  41  42
ENDBRANCH  34  36
ENDBRANCH  33  34
ENDBRANCH  32  33
ENDBRANCH   1  32
TORSDOF 15
ENDMDL
MODEL 3
REMARK VINA RESULT:     -13.6      0.672      7.020
REMARK SMILES O=C(C[NH+]1CCN(c2cc(-c3ccccc3)nc(-c3ccccc3F)n2)CC1)OCCOC(=O)c1ccc(-c2c3nc(c(-c4c(F)c(F)c(F)c(F)c4F)c4ccc([nH]4)c(-c4c(F)c(F)c(F)c(F)c4F)c4nc(c(-c5c(F)c(F)c(F)c(F)c5F)c5ccc2[nH]5)C=C4)C=C3)cc1
REMARK SMILES IDX 30 1 29 2 2 3 1 4 3 5 4 6 5 7 28 8 6 10 27 11 7 12 8 13 9 14
REMARK SMILES IDX 26 15 10 16 18 17 17 18 11 19 12 20 16 21 13 22 15 23 14 24
REMARK SMILES IDX 19 25 20 26 24 27 21 28 23 29 25 30 22 31 31 32 32 33 33 34
REMARK SMILES IDX 34 35 35 36 36 37 97 38 37 39 96 40 38 41 39 42 40 43 90 44
REMARK SMILES IDX 41 45 95 46 89 47 91 48 42 49 94 50 88 51 87 52 43 54 75 55
REMARK SMILES IDX 55 56 74 57 56 58 59 59 73 60 92 61 57 62 58 63 72 65 93 66
REMARK SMILES IDX 60 67 44 68 45 69 53 70 46 71 47 72 51 73 54 74 48 75 49 76
REMARK SMILES IDX 52 77 50 78 76 79 77 80 85 81 78 82 79 83 83 84 86 85 80 86
REMARK SMILES IDX 81 87 84 88 82 89 61 90 62 91 70 92 63 93 64 94 68 95 71 96
REMARK SMILES IDX 65 97 66 98 69 99 67 100
REMARK H PARENT 4 9 91 53 59 64
REMARK Flexibility Score: inf
ROOT
ATOM      1  C   UNL A   1      36.020  21.077  25.607  1.00  0.00     0.274 C 
ENDROOT
BRANCH   1   2
ATOM      2  O   UNL A   1      34.921  21.020  24.668  1.00  0.00    -0.458 OA
BRANCH   2   3
ATOM      3  C   UNL A   1      33.721  20.436  24.940  1.00  0.00     0.361 C 
ATOM      4  O   UNL A   1      33.653  19.221  25.116  1.00  0.00    -0.245 OA
BRANCH   3   5
ATOM      5  C   UNL A   1      32.480  21.322  24.890  1.00  0.00     0.386 C 
BRANCH   5   6
ATOM      6  N   UNL A   1      32.004  21.919  26.160  1.00  0.00    -0.323 N 
ATOM      7  C   UNL A   1      32.943  22.815  26.860  1.00  0.00     0.284 C 
ATOM      8  C   UNL A   1      30.744  22.664  25.936  1.00  0.00     0.284 C 
ATOM      9  H   UNL A   1      31.881  21.110  26.769  1.00  0.00     0.348 HD
ATOM     10  C   UNL A   1      33.253  24.152  26.162  1.00  0.00     0.179 C 
ATOM     11  C   UNL A   1      30.911  23.983  25.147  1.00  0.00     0.179 C 
ATOM     12  N   UNL A   1      32.040  24.776  25.639  1.00  0.00    -0.345 N 
BRANCH  12  13
ATOM     13  C   UNL A   1      32.108  26.127  25.344  1.00  0.00     0.133 A 
ATOM     14  C   UNL A   1      31.268  26.607  24.369  1.00  0.00     0.076 A 
ATOM     15  N   UNL A   1      32.862  26.956  26.084  1.00  0.00    -0.211 NA
ATOM     16  C   UNL A   1      31.153  27.971  24.229  1.00  0.00     0.076 A 
ATOM     17  C   UNL A   1      32.736  28.279  25.838  1.00  0.00     0.165 A 
ATOM     18  N   UNL A   1      31.913  28.831  24.926  1.00  0.00    -0.228 NA
BRANCH  16  19
ATOM     19  C   UNL A   1      30.091  28.506  23.375  1.00  0.00     0.000 A 
ATOM     20  C   UNL A   1      28.768  28.064  23.471  1.00  0.00     0.010 A 
ATOM     21  C   UNL A   1      30.382  29.565  22.489  1.00  0.00     0.010 A 
ATOM     22  C   UNL A   1      27.759  28.698  22.740  1.00  0.00     0.001 A 
ATOM     23  C   UNL A   1      29.377  30.196  21.760  1.00  0.00     0.001 A 
ATOM     24  C   UNL A   1      28.062  29.767  21.896  1.00  0.00     0.000 A 
ENDBRANCH  16  19
BRANCH  17  25
ATOM     25  C   UNL A   1      33.542  29.197  26.641  1.00  0.00     0.055 A 
ATOM     26  C   UNL A   1      34.876  28.908  26.982  1.00  0.00     0.015 A 
ATOM     27  C   UNL A   1      33.009  30.414  27.082  1.00  0.00     0.134 A 
ATOM     28  C   UNL A   1      35.645  29.819  27.719  1.00  0.00     0.001 A 
ATOM     29  C   UNL A   1      33.767  31.323  27.823  1.00  0.00     0.040 A 
ATOM     30  F   UNL A   1      31.732  30.731  26.814  1.00  0.00    -0.206 F 
ATOM     31  C   UNL A   1      35.090  31.027  28.137  1.00  0.00     0.003 A 
ENDBRANCH  17  25
ENDBRANCH  12  13
ENDBRANCH   5   6
ENDBRANCH   3   5
ENDBRANCH   2   3
ENDBRANCH   1   2
BRANCH   1  32
ATOM     32  C   UNL A   1      37.370  20.790  24.953  1.00  0.00     0.275 C 
BRANCH  32  33
ATOM     33  O   UNL A   1      38.263  21.894  25.176  1.00  0.00    -0.458 OA
BRANCH  33  34
ATOM     34  C   UNL A   1      39.253  21.645  26.070  1.00  0.00     0.338 C 
ATOM     35  O   UNL A   1      39.838  20.596  26.243  1.00  0.00    -0.246 OA
BRANCH  34  36
ATOM     36  C   UNL A   1      39.663  22.917  26.703  1.00  0.00     0.060 A 
ATOM     37  C   UNL A   1      38.933  24.067  26.372  1.00  0.00     0.016 A 
ATOM     38  C   UNL A   1      40.735  22.991  27.598  1.00  0.00     0.016 A 
ATOM     39  C   UNL A   1      39.308  25.306  26.888  1.00  0.00     0.010 A 
ATOM     40  C   UNL A   1      41.117  24.233  28.106  1.00  0.00     0.010 A 
ATOM     41  C   UNL A   1      40.431  25.398  27.717  1.00  0.00    -0.014 A 
BRANCH  41  42
ATOM     42  C   UNL A   1      41.045  26.718  27.982  1.00  0.00     0.031 A 
ATOM     43  C   UNL A   1      42.478  26.916  27.581  1.00  0.00     0.074 A 
ATOM     44  C   UNL A   1      40.363  27.703  28.586  1.00  0.00     0.049 A 
ATOM     45  N   UNL A   1      43.272  27.934  27.793  1.00  0.00    -0.248 NA
ATOM     46  C   UNL A   1      43.106  25.804  26.850  1.00  0.00     0.031 C 
ATOM     47  C   UNL A   1      38.963  27.636  28.993  1.00  0.00     0.029 A 
ATOM     48  N   UNL A   1      40.776  28.950  28.984  1.00  0.00    -0.354 N 
ATOM     49  C   UNL A   1      44.492  27.578  27.234  1.00  0.00     0.074 A 
ATOM     50  C   UNL A   1      44.344  26.242  26.699  1.00  0.00     0.031 C 
ATOM     51  C   UNL A   1      38.638  28.784  29.615  1.00  0.00     0.029 A 
ATOM     52  C   UNL A   1      39.817  29.649  29.671  1.00  0.00     0.049 A 
ATOM     53  H   UNL A   1      41.673  29.308  28.794  1.00  0.00     0.167 HD
ATOM     54  C   UNL A   1      45.633  28.302  27.171  1.00  0.00     0.037 A 
ATOM     55  C   UNL A   1      39.897  30.838  30.299  1.00  0.00     0.037 A 
ATOM     56  C   UNL A   1      45.776  29.627  27.708  1.00  0.00     0.049 A 
ATOM     57  C   UNL A   1      41.191  31.610  30.263  1.00  0.00     0.074 A 
ATOM     58  C   UNL A   1      46.879  30.460  27.671  1.00  0.00     0.029 A 
ATOM     59  N   UNL A   1      44.780  30.306  28.395  1.00  0.00    -0.354 N 
ATOM     60  N   UNL A   1      42.332  31.287  29.703  1.00  0.00    -0.248 NA
ATOM     61  C   UNL A   1      41.209  32.913  30.944  1.00  0.00     0.031 C 
ATOM     62  C   UNL A   1      46.566  31.624  28.381  1.00  0.00     0.029 A 
ATOM     63  C   UNL A   1      45.252  31.538  28.813  1.00  0.00     0.049 A 
ATOM     64  H   UNL A   1      43.872  29.963  28.560  1.00  0.00     0.167 HD
ATOM     65  C   UNL A   1      43.192  32.352  29.937  1.00  0.00     0.074 A 
ATOM     66  C   UNL A   1      42.441  33.335  30.691  1.00  0.00     0.031 C 
ATOM     67  C   UNL A   1      44.485  32.506  29.557  1.00  0.00     0.037 A 
BRANCH  54  68
ATOM     68  C   UNL A   1      46.821  27.646  26.533  1.00  0.00     0.064 A 
ATOM     69  C   UNL A   1      47.134  27.837  25.178  1.00  0.00     0.173 A 
ATOM     70  C   UNL A   1      47.646  26.796  27.285  1.00  0.00     0.173 A 
ATOM     71  F   UNL A   1      46.363  28.624  24.412  1.00  0.00    -0.203 F 
ATOM     72  C   UNL A   1      48.206  27.169  24.592  1.00  0.00     0.198 A 
ATOM     73  C   UNL A   1      48.733  26.153  26.701  1.00  0.00     0.198 A 
ATOM     74  F   UNL A   1      47.389  26.578  28.584  1.00  0.00    -0.203 F 
ATOM     75  F   UNL A   1      48.446  27.315  23.281  1.00  0.00    -0.200 F 
ATOM     76  C   UNL A   1      49.006  26.331  25.353  1.00  0.00     0.200 A 
ATOM     77  F   UNL A   1      49.510  25.349  27.440  1.00  0.00    -0.200 F 
ATOM     78  F   UNL A   1      50.032  25.683  24.784  1.00  0.00    -0.200 F 
ENDBRANCH  54  68
BRANCH  55  79
ATOM     79  C   UNL A   1      38.713  31.359  31.030  1.00  0.00     0.064 A 
ATOM     80  C   UNL A   1      38.523  31.087  32.391  1.00  0.00     0.173 A 
ATOM     81  C   UNL A   1      37.758  32.156  30.382  1.00  0.00     0.173 A 
ATOM     82  F   UNL A   1      39.396  30.308  33.046  1.00  0.00    -0.203 F 
ATOM     83  C   UNL A   1      37.419  31.591  33.077  1.00  0.00     0.198 A 
ATOM     84  C   UNL A   1      36.667  32.678  31.074  1.00  0.00     0.198 A 
ATOM     85  F   UNL A   1      37.894  32.443  29.079  1.00  0.00    -0.203 F 
ATOM     86  F   UNL A   1      37.244  31.292  34.371  1.00  0.00    -0.200 F 
ATOM     87  C   UNL A   1      36.496  32.392  32.420  1.00  0.00     0.200 A 
ATOM     88  F   UNL A   1      35.785  33.460  30.437  1.00  0.00    -0.200 F 
ATOM     89  F   UNL A   1      35.441  32.884  33.082  1.00  0.00    -0.200 F 
ENDBRANCH  55  79
BRANCH  67  90
ATOM     90  C   UNL A   1      45.168  33.794  29.912  1.00  0.00     0.064 A 
ATOM     91  C   UNL A   1      45.129  34.907  29.060  1.00  0.00     0.173 A 
ATOM     92  C   UNL A   1      45.798  33.939  31.158  1.00  0.00     0.173 A 
ATOM     93  F   UNL A   1      44.548  34.813  27.854  1.00  0.00    -0.203 F 
ATOM     94  C   UNL A   1      45.705  36.116  29.439  1.00  0.00     0.198 A 
ATOM     95  C   UNL A   1      46.350  35.157  31.544  1.00  0.00     0.198 A 
ATOM     96  F   UNL A   1      45.854  32.905  32.011  1.00  0.00    -0.203 F 
ATOM     97  F   UNL A   1      45.681  37.160  28.599  1.00  0.00    -0.200 F 
ATOM     98  C   UNL A   1      46.306  36.244  30.684  1.00  0.00     0.200 A 
ATOM     99  F   UNL A   1      46.917  35.282  32.752  1.00  0.00    -0.200 F 
ATOM    100  F   UNL A   1      46.843  37.414  31.053  1.00  0.00    -0.200 F 
ENDBRANCH  67  90
ENDBRANCH  41  42
ENDBRANCH  34  36
ENDBRANCH  33  34
ENDBRANCH  32  33
ENDBRANCH   1  32
TORSDOF 15
ENDMDL
