MODEL 1
REMARK VINA RESULT:     -11.0      0.000      0.000
REMARK SMILES CC(=O)[C@H]1CCC[N@@H+](CC(C)(C)C(=O)OCCOC(=O)c2ccc(-c3c4nc(c(-c5c(F)c(F)c(F)c(F)c5F)c5ccc([nH]5)c(-c5c(F)c(F)c(F)c(F)c5F)c5nc(c(-c6c(F)c(F)c(F)c(F)c6F)c6ccc3[nH]6)C=C5)C=C4)cc2)C1
REMARK SMILES IDX 16 1 15 2 13 3 14 4 10 5 11 6 12 7 9 8 8 9 4 10 5 11 84 12
REMARK SMILES IDX 6 13 7 14 2 16 1 17 3 18 17 19 18 20 19 21 20 22 21 23 22 24
REMARK SMILES IDX 83 25 23 26 82 27 24 28 25 29 26 30 76 31 27 32 81 33 75 34
REMARK SMILES IDX 77 35 28 36 80 37 74 38 73 39 29 41 61 42 41 43 60 44 42 45
REMARK SMILES IDX 45 46 59 47 78 48 43 49 44 50 58 52 79 53 46 54 30 55 31 56
REMARK SMILES IDX 39 57 32 58 33 59 37 60 40 61 34 62 35 63 38 64 36 65 62 66
REMARK SMILES IDX 63 67 71 68 64 69 65 70 69 71 72 72 66 73 67 74 70 75 68 76
REMARK SMILES IDX 47 77 48 78 56 79 49 80 50 81 54 82 57 83 51 84 52 85 55 86
REMARK SMILES IDX 53 87
REMARK H PARENT 8 15 77 40 45 51
REMARK Flexibility Score: inf
ROOT
ATOM      1  C   UNL A   1      37.485  20.686  24.674  1.00  0.00     0.274 C 
ENDROOT
BRANCH   1   2
ATOM      2  O   UNL A   1      36.340  20.868  25.543  1.00  0.00    -0.461 OA
BRANCH   2   3
ATOM      3  C   UNL A   1      35.910  22.155  25.589  1.00  0.00     0.317 C 
ATOM      4  O   UNL A   1      36.662  23.050  25.942  1.00  0.00    -0.251 OA
BRANCH   3   5
ATOM      5  C   UNL A   1      34.462  22.383  25.159  1.00  0.00     0.111 C 
ATOM      6  C   UNL A   1      34.391  22.931  23.731  1.00  0.00     0.029 C 
ATOM      7  C   UNL A   1      33.885  23.456  26.115  1.00  0.00     0.029 C 
BRANCH   5   8
ATOM      8  C   UNL A   1      33.574  21.076  25.302  1.00  0.00     0.280 C 
BRANCH   8   9
ATOM      9  N   UNL A   1      33.549  19.907  24.387  1.00  0.00    -0.333 N 
ATOM     10  C   UNL A   1      33.955  17.457  24.033  1.00  0.00     0.111 C 
ATOM     11  C   UNL A   1      32.688  17.372  23.172  1.00  0.00     0.023 C 
ATOM     12  C   UNL A   1      33.875  18.637  25.022  1.00  0.00     0.273 C 
ATOM     13  C   UNL A   1      32.450  18.698  22.481  1.00  0.00     0.062 C 
ATOM     14  C   UNL A   1      32.378  19.810  23.516  1.00  0.00     0.262 C 
ATOM     15  H   UNL A   1      34.323  20.114  23.756  1.00  0.00     0.348 HD
BRANCH  10  16
ATOM     16  C   UNL A   1      34.164  16.130  24.756  1.00  0.00     0.138 C 
ATOM     17  C   UNL A   1      35.523  15.836  25.334  1.00  0.00     0.088 C 
ATOM     18  O   UNL A   1      33.269  15.286  24.823  1.00  0.00    -0.299 OA
ENDBRANCH  10  16
ENDBRANCH   8   9
ENDBRANCH   5   8
ENDBRANCH   3   5
ENDBRANCH   2   3
ENDBRANCH   1   2
BRANCH   1  19
ATOM     19  C   UNL A   1      38.541  19.658  25.149  1.00  0.00     0.275 C 
BRANCH  19  20
ATOM     20  O   UNL A   1      39.159  19.956  26.430  1.00  0.00    -0.458 OA
BRANCH  20  21
ATOM     21  C   UNL A   1      40.509  20.120  26.412  1.00  0.00     0.338 C 
ATOM     22  O   UNL A   1      41.316  19.352  25.908  1.00  0.00    -0.246 OA
BRANCH  21  23
ATOM     23  C   UNL A   1      40.923  21.476  26.871  1.00  0.00     0.060 A 
ATOM     24  C   UNL A   1      40.445  22.552  26.117  1.00  0.00     0.016 A 
ATOM     25  C   UNL A   1      41.791  21.737  27.930  1.00  0.00     0.016 A 
ATOM     26  C   UNL A   1      40.741  23.876  26.445  1.00  0.00     0.010 A 
ATOM     27  C   UNL A   1      42.154  23.073  28.224  1.00  0.00     0.010 A 
ATOM     28  C   UNL A   1      41.620  24.154  27.491  1.00  0.00    -0.014 A 
BRANCH  28  29
ATOM     29  C   UNL A   1      42.062  25.564  27.698  1.00  0.00     0.031 A 
ATOM     30  C   UNL A   1      43.377  26.015  27.126  1.00  0.00     0.074 A 
ATOM     31  C   UNL A   1      41.271  26.474  28.301  1.00  0.00     0.049 A 
ATOM     32  N   UNL A   1      43.975  27.176  27.221  1.00  0.00    -0.248 NA
ATOM     33  C   UNL A   1      44.106  25.022  26.324  1.00  0.00     0.031 C 
ATOM     34  C   UNL A   1      39.926  26.214  28.800  1.00  0.00     0.029 A 
ATOM     35  N   UNL A   1      41.485  27.802  28.589  1.00  0.00    -0.354 N 
ATOM     36  C   UNL A   1      45.160  27.049  26.510  1.00  0.00     0.074 A 
ATOM     37  C   UNL A   1      45.197  25.696  25.992  1.00  0.00     0.031 C 
ATOM     38  C   UNL A   1      39.437  27.340  29.350  1.00  0.00     0.029 A 
ATOM     39  C   UNL A   1      40.455  28.389  29.285  1.00  0.00     0.049 A 
ATOM     40  H   UNL A   1      42.299  28.288  28.322  1.00  0.00     0.167 HD
ATOM     41  C   UNL A   1      46.132  27.972  26.311  1.00  0.00     0.037 A 
ATOM     42  C   UNL A   1      40.357  29.615  29.842  1.00  0.00     0.037 A 
ATOM     43  C   UNL A   1      46.102  29.318  26.826  1.00  0.00     0.049 A 
ATOM     44  C   UNL A   1      41.503  30.589  29.707  1.00  0.00     0.074 A 
ATOM     45  C   UNL A   1      47.049  30.317  26.680  1.00  0.00     0.029 A 
ATOM     46  N   UNL A   1      45.078  29.851  27.595  1.00  0.00    -0.354 N 
ATOM     47  N   UNL A   1      42.632  30.456  29.054  1.00  0.00    -0.248 NA
ATOM     48  C   UNL A   1      41.364  31.882  30.394  1.00  0.00     0.031 C 
ATOM     49  C   UNL A   1      46.632  31.430  27.417  1.00  0.00     0.029 A 
ATOM     50  C   UNL A   1      45.390  31.152  27.963  1.00  0.00     0.049 A 
ATOM     51  H   UNL A   1      44.253  29.376  27.843  1.00  0.00     0.167 HD
ATOM     52  C   UNL A   1      43.322  31.651  29.229  1.00  0.00     0.074 A 
ATOM     53  C   UNL A   1      42.476  32.507  30.034  1.00  0.00     0.031 C 
ATOM     54  C   UNL A   1      44.546  32.005  28.764  1.00  0.00     0.037 A 
BRANCH  41  55
ATOM     55  C   UNL A   1      47.353  27.531  25.555  1.00  0.00     0.064 A 
ATOM     56  C   UNL A   1      48.457  26.951  26.196  1.00  0.00     0.173 A 
ATOM     57  C   UNL A   1      47.407  27.682  24.161  1.00  0.00     0.173 A 
ATOM     58  F   UNL A   1      48.463  26.797  27.529  1.00  0.00    -0.203 F 
ATOM     59  C   UNL A   1      49.586  26.571  25.472  1.00  0.00     0.198 A 
ATOM     60  C   UNL A   1      48.522  27.270  23.437  1.00  0.00     0.198 A 
ATOM     61  F   UNL A   1      46.375  28.225  23.498  1.00  0.00    -0.203 F 
ATOM     62  F   UNL A   1      50.654  26.073  26.110  1.00  0.00    -0.200 F 
ATOM     63  C   UNL A   1      49.615  26.725  24.094  1.00  0.00     0.200 A 
ATOM     64  F   UNL A   1      48.541  27.406  22.104  1.00  0.00    -0.200 F 
ATOM     65  F   UNL A   1      50.700  26.357  23.399  1.00  0.00    -0.200 F 
ENDBRANCH  41  55
BRANCH  42  66
ATOM     66  C   UNL A   1      39.150  29.985  30.634  1.00  0.00     0.064 A 
ATOM     67  C   UNL A   1      38.055  30.631  30.044  1.00  0.00     0.173 A 
ATOM     68  C   UNL A   1      39.093  29.745  32.017  1.00  0.00     0.173 A 
ATOM     69  F   UNL A   1      38.074  30.922  28.736  1.00  0.00    -0.203 F 
ATOM     70  C   UNL A   1      36.959  31.037  30.806  1.00  0.00     0.198 A 
ATOM     71  C   UNL A   1      37.983  30.121  32.771  1.00  0.00     0.198 A 
ATOM     72  F   UNL A   1      40.120  29.148  32.639  1.00  0.00    -0.203 F 
ATOM     73  F   UNL A   1      35.955  31.709  30.227  1.00  0.00    -0.200 F 
ATOM     74  C   UNL A   1      36.922  30.775  32.168  1.00  0.00     0.200 A 
ATOM     75  F   UNL A   1      37.951  29.861  34.086  1.00  0.00    -0.200 F 
ATOM     76  F   UNL A   1      35.871  31.170  32.900  1.00  0.00    -0.200 F 
ENDBRANCH  42  66
BRANCH  54  77
ATOM     77  C   UNL A   1      45.039  33.391  29.078  1.00  0.00     0.064 A 
ATOM     78  C   UNL A   1      45.858  33.655  30.187  1.00  0.00     0.173 A 
ATOM     79  C   UNL A   1      44.717  34.468  28.235  1.00  0.00     0.173 A 
ATOM     80  F   UNL A   1      46.187  32.668  31.033  1.00  0.00    -0.203 F 
ATOM     81  C   UNL A   1      46.311  34.946  30.454  1.00  0.00     0.198 A 
ATOM     82  C   UNL A   1      45.200  35.751  28.486  1.00  0.00     0.198 A 
ATOM     83  F   UNL A   1      43.943  34.276  27.156  1.00  0.00    -0.203 F 
ATOM     84  F   UNL A   1      47.048  35.182  31.549  1.00  0.00    -0.200 F 
ATOM     85  C   UNL A   1      45.989  35.990  29.600  1.00  0.00     0.200 A 
ATOM     86  F   UNL A   1      44.902  36.753  27.649  1.00  0.00    -0.200 F 
ATOM     87  F   UNL A   1      46.433  37.229  29.855  1.00  0.00    -0.200 F 
ENDBRANCH  54  77
ENDBRANCH  28  29
ENDBRANCH  21  23
ENDBRANCH  20  21
ENDBRANCH  19  20
ENDBRANCH   1  19
TORSDOF 14
ENDMDL
MODEL 2
REMARK VINA RESULT:     -10.9      5.715      8.862
REMARK SMILES CC(=O)[C@H]1CCC[N@@H+](CC(C)(C)C(=O)OCCOC(=O)c2ccc(-c3c4nc(c(-c5c(F)c(F)c(F)c(F)c5F)c5ccc([nH]5)c(-c5c(F)c(F)c(F)c(F)c5F)c5nc(c(-c6c(F)c(F)c(F)c(F)c6F)c6ccc3[nH]6)C=C5)C=C4)cc2)C1
REMARK SMILES IDX 16 1 15 2 13 3 14 4 10 5 11 6 12 7 9 8 8 9 4 10 5 11 84 12
REMARK SMILES IDX 6 13 7 14 2 16 1 17 3 18 17 19 18 20 19 21 20 22 21 23 22 24
REMARK SMILES IDX 83 25 23 26 82 27 24 28 25 29 26 30 76 31 27 32 81 33 75 34
REMARK SMILES IDX 77 35 28 36 80 37 74 38 73 39 29 41 61 42 41 43 60 44 42 45
REMARK SMILES IDX 45 46 59 47 78 48 43 49 44 50 58 52 79 53 46 54 30 55 31 56
REMARK SMILES IDX 39 57 32 58 33 59 37 60 40 61 34 62 35 63 38 64 36 65 62 66
REMARK SMILES IDX 63 67 71 68 64 69 65 70 69 71 72 72 66 73 67 74 70 75 68 76
REMARK SMILES IDX 47 77 48 78 56 79 49 80 50 81 54 82 57 83 51 84 52 85 55 86
REMARK SMILES IDX 53 87
REMARK H PARENT 8 15 77 40 45 51
REMARK Flexibility Score: inf
ROOT
ATOM      1  C   UNL A   1      31.641  28.438  26.401  1.00  0.00     0.274 C 
ENDROOT
BRANCH   1   2
ATOM      2  O   UNL A   1      31.137  27.678  25.274  1.00  0.00    -0.461 OA
BRANCH   2   3
ATOM      3  C   UNL A   1      32.119  27.054  24.575  1.00  0.00     0.317 C 
ATOM      4  O   UNL A   1      33.187  26.789  25.104  1.00  0.00    -0.251 OA
BRANCH   3   5
ATOM      5  C   UNL A   1      31.779  26.707  23.127  1.00  0.00     0.111 C 
ATOM      6  C   UNL A   1      30.964  25.412  23.047  1.00  0.00     0.029 C 
ATOM      7  C   UNL A   1      33.129  26.469  22.405  1.00  0.00     0.029 C 
BRANCH   5   8
ATOM      8  C   UNL A   1      31.029  27.888  22.379  1.00  0.00     0.280 C 
BRANCH   8   9
ATOM      9  N   UNL A   1      29.882  28.683  22.888  1.00  0.00    -0.333 N 
ATOM     10  C   UNL A   1      28.700  30.890  23.021  1.00  0.00     0.111 C 
ATOM     11  C   UNL A   1      27.349  30.174  22.900  1.00  0.00     0.023 C 
ATOM     12  C   UNL A   1      29.830  30.052  22.392  1.00  0.00     0.273 C 
ATOM     13  C   UNL A   1      27.450  28.788  23.501  1.00  0.00     0.062 C 
ATOM     14  C   UNL A   1      28.579  28.020  22.832  1.00  0.00     0.262 C 
ATOM     15  H   UNL A   1      30.095  28.750  23.883  1.00  0.00     0.348 HD
BRANCH  10  16
ATOM     16  C   UNL A   1      28.599  32.270  22.377  1.00  0.00     0.138 C 
ATOM     17  C   UNL A   1      29.153  33.453  23.127  1.00  0.00     0.088 C 
ATOM     18  O   UNL A   1      28.030  32.436  21.296  1.00  0.00    -0.299 OA
ENDBRANCH  10  16
ENDBRANCH   8   9
ENDBRANCH   5   8
ENDBRANCH   3   5
ENDBRANCH   2   3
ENDBRANCH   1   2
BRANCH   1  19
ATOM     19  C   UNL A   1      31.666  29.977  26.225  1.00  0.00     0.275 C 
BRANCH  19  20
ATOM     20  O   UNL A   1      32.989  30.558  26.077  1.00  0.00    -0.458 OA
BRANCH  20  21
ATOM     21  C   UNL A   1      33.299  31.556  26.948  1.00  0.00     0.338 C 
ATOM     22  O   UNL A   1      32.552  32.460  27.293  1.00  0.00    -0.246 OA
BRANCH  21  23
ATOM     23  C   UNL A   1      34.591  31.315  27.651  1.00  0.00     0.060 A 
ATOM     24  C   UNL A   1      34.824  30.004  28.074  1.00  0.00     0.016 A 
ATOM     25  C   UNL A   1      35.526  32.297  27.973  1.00  0.00     0.016 A 
ATOM     26  C   UNL A   1      36.000  29.635  28.729  1.00  0.00     0.010 A 
ATOM     27  C   UNL A   1      36.688  31.944  28.700  1.00  0.00     0.010 A 
ATOM     28  C   UNL A   1      36.940  30.607  29.073  1.00  0.00    -0.014 A 
BRANCH  28  29
ATOM     29  C   UNL A   1      38.093  30.214  29.933  1.00  0.00     0.031 A 
ATOM     30  C   UNL A   1      39.144  29.292  29.378  1.00  0.00     0.074 A 
ATOM     31  C   UNL A   1      38.273  30.737  31.161  1.00  0.00     0.049 A 
ATOM     32  N   UNL A   1      40.203  28.787  29.960  1.00  0.00    -0.248 NA
ATOM     33  C   UNL A   1      38.983  28.903  27.971  1.00  0.00     0.031 C 
ATOM     34  C   UNL A   1      37.404  31.728  31.785  1.00  0.00     0.029 A 
ATOM     35  N   UNL A   1      39.251  30.509  32.103  1.00  0.00    -0.354 N 
ATOM     36  C   UNL A   1      40.824  28.003  28.997  1.00  0.00     0.074 A 
ATOM     37  C   UNL A   1      40.021  28.098  27.796  1.00  0.00     0.031 C 
ATOM     38  C   UNL A   1      37.874  32.015  33.012  1.00  0.00     0.029 A 
ATOM     39  C   UNL A   1      39.052  31.189  33.281  1.00  0.00     0.049 A 
ATOM     40  H   UNL A   1      40.021  29.916  31.948  1.00  0.00     0.167 HD
ATOM     41  C   UNL A   1      41.957  27.268  29.106  1.00  0.00     0.037 A 
ATOM     42  C   UNL A   1      39.715  31.125  34.455  1.00  0.00     0.037 A 
ATOM     43  C   UNL A   1      42.759  27.167  30.300  1.00  0.00     0.049 A 
ATOM     44  C   UNL A   1      40.907  30.208  34.589  1.00  0.00     0.074 A 
ATOM     45  C   UNL A   1      43.917  26.437  30.500  1.00  0.00     0.029 A 
ATOM     46  N   UNL A   1      42.481  27.807  31.499  1.00  0.00    -0.354 N 
ATOM     47  N   UNL A   1      41.478  29.450  33.683  1.00  0.00    -0.248 NA
ATOM     48  C   UNL A   1      41.544  30.131  35.913  1.00  0.00     0.031 C 
ATOM     49  C   UNL A   1      44.301  26.578  31.838  1.00  0.00     0.029 A 
ATOM     50  C   UNL A   1      43.425  27.457  32.453  1.00  0.00     0.049 A 
ATOM     51  H   UNL A   1      41.725  28.419  31.650  1.00  0.00     0.167 HD
ATOM     52  C   UNL A   1      42.549  28.831  34.317  1.00  0.00     0.074 A 
ATOM     53  C   UNL A   1      42.564  29.315  35.681  1.00  0.00     0.031 C 
ATOM     54  C   UNL A   1      43.439  27.941  33.812  1.00  0.00     0.037 A 
BRANCH  41  55
ATOM     55  C   UNL A   1      42.361  26.450  27.913  1.00  0.00     0.064 A 
ATOM     56  C   UNL A   1      43.316  26.899  26.990  1.00  0.00     0.173 A 
ATOM     57  C   UNL A   1      41.787  25.187  27.701  1.00  0.00     0.173 A 
ATOM     58  F   UNL A   1      43.886  28.105  27.137  1.00  0.00    -0.203 F 
ATOM     59  C   UNL A   1      43.656  26.128  25.879  1.00  0.00     0.198 A 
ATOM     60  C   UNL A   1      42.153  24.406  26.609  1.00  0.00     0.198 A 
ATOM     61  F   UNL A   1      40.872  24.707  28.557  1.00  0.00    -0.203 F 
ATOM     62  F   UNL A   1      44.528  26.602  24.978  1.00  0.00    -0.200 F 
ATOM     63  C   UNL A   1      43.079  24.881  25.693  1.00  0.00     0.200 A 
ATOM     64  F   UNL A   1      41.605  23.194  26.440  1.00  0.00    -0.200 F 
ATOM     65  F   UNL A   1      43.407  24.141  24.626  1.00  0.00    -0.200 F 
ENDBRANCH  41  55
BRANCH  42  66
ATOM     66  C   UNL A   1      39.240  31.909  35.630  1.00  0.00     0.064 A 
ATOM     67  C   UNL A   1      38.379  31.351  36.585  1.00  0.00     0.173 A 
ATOM     68  C   UNL A   1      39.598  33.257  35.790  1.00  0.00     0.173 A 
ATOM     69  F   UNL A   1      37.972  30.080  36.458  1.00  0.00    -0.203 F 
ATOM     70  C   UNL A   1      37.883  32.112  37.643  1.00  0.00     0.198 A 
ATOM     71  C   UNL A   1      39.129  34.008  36.867  1.00  0.00     0.198 A 
ATOM     72  F   UNL A   1      40.404  33.850  34.897  1.00  0.00    -0.203 F 
ATOM     73  F   UNL A   1      37.013  31.570  38.506  1.00  0.00    -0.200 F 
ATOM     74  C   UNL A   1      38.264  33.438  37.787  1.00  0.00     0.200 A 
ATOM     75  F   UNL A   1      39.505  35.287  37.003  1.00  0.00    -0.200 F 
ATOM     76  F   UNL A   1      37.784  34.170  38.802  1.00  0.00    -0.200 F 
ENDBRANCH  42  66
BRANCH  54  77
ATOM     77  C   UNL A   1      44.534  27.454  34.723  1.00  0.00     0.064 A 
ATOM     78  C   UNL A   1      44.426  26.250  35.437  1.00  0.00     0.173 A 
ATOM     79  C   UNL A   1      45.727  28.185  34.854  1.00  0.00     0.173 A 
ATOM     80  F   UNL A   1      43.305  25.518  35.359  1.00  0.00    -0.203 F 
ATOM     81  C   UNL A   1      45.456  25.814  36.268  1.00  0.00     0.198 A 
ATOM     82  C   UNL A   1      46.768  27.727  35.659  1.00  0.00     0.198 A 
ATOM     83  F   UNL A   1      45.890  29.339  34.190  1.00  0.00    -0.203 F 
ATOM     84  F   UNL A   1      45.307  24.688  36.981  1.00  0.00    -0.200 F 
ATOM     85  C   UNL A   1      46.628  26.548  36.372  1.00  0.00     0.200 A 
ATOM     86  F   UNL A   1      47.905  28.429  35.743  1.00  0.00    -0.200 F 
ATOM     87  F   UNL A   1      47.620  26.121  37.166  1.00  0.00    -0.200 F 
ENDBRANCH  54  77
ENDBRANCH  28  29
ENDBRANCH  21  23
ENDBRANCH  20  21
ENDBRANCH  19  20
ENDBRANCH   1  19
TORSDOF 14
ENDMDL
MODEL 3
REMARK VINA RESULT:     -10.9      4.731      7.795
REMARK SMILES CC(=O)[C@H]1CCC[N@@H+](CC(C)(C)C(=O)OCCOC(=O)c2ccc(-c3c4nc(c(-c5c(F)c(F)c(F)c(F)c5F)c5ccc([nH]5)c(-c5c(F)c(F)c(F)c(F)c5F)c5nc(c(-c6c(F)c(F)c(F)c(F)c6F)c6ccc3[nH]6)C=C5)C=C4)cc2)C1
REMARK SMILES IDX 16 1 15 2 13 3 14 4 10 5 11 6 12 7 9 8 8 9 4 10 5 11 84 12
REMARK SMILES IDX 6 13 7 14 2 16 1 17 3 18 17 19 18 20 19 21 20 22 21 23 22 24
REMARK SMILES IDX 83 25 23 26 82 27 24 28 25 29 26 30 76 31 27 32 81 33 75 34
REMARK SMILES IDX 77 35 28 36 80 37 74 38 73 39 29 41 61 42 41 43 60 44 42 45
REMARK SMILES IDX 45 46 59 47 78 48 43 49 44 50 58 52 79 53 46 54 30 55 31 56
REMARK SMILES IDX 39 57 32 58 33 59 37 60 40 61 34 62 35 63 38 64 36 65 62 66
REMARK SMILES IDX 63 67 71 68 64 69 65 70 69 71 72 72 66 73 67 74 70 75 68 76
REMARK SMILES IDX 47 77 48 78 56 79 49 80 50 81 54 82 57 83 51 84 52 85 55 86
REMARK SMILES IDX 53 87
REMARK H PARENT 8 15 77 40 45 51
REMARK Flexibility Score: inf
ROOT
ATOM      1  C   UNL A   1      31.106  29.618  24.540  1.00  0.00     0.274 C 
ENDROOT
BRANCH   1   2
ATOM      2  O   UNL A   1      30.743  28.260  24.895  1.00  0.00    -0.461 OA
BRANCH   2   3
ATOM      3  C   UNL A   1      31.762  27.379  24.731  1.00  0.00     0.317 C 
ATOM      4  O   UNL A   1      32.152  27.081  23.612  1.00  0.00    -0.251 OA
BRANCH   3   5
ATOM      5  C   UNL A   1      32.371  26.827  26.018  1.00  0.00     0.111 C 
ATOM      6  C   UNL A   1      31.666  27.399  27.252  1.00  0.00     0.029 C 
ATOM      7  C   UNL A   1      33.845  27.303  26.044  1.00  0.00     0.029 C 
BRANCH   5   8
ATOM      8  C   UNL A   1      32.371  25.241  26.057  1.00  0.00     0.280 C 
BRANCH   8   9
ATOM      9  N   UNL A   1      32.683  24.319  24.935  1.00  0.00    -0.333 N 
ATOM     10  C   UNL A   1      34.408  23.087  23.594  1.00  0.00     0.111 C 
ATOM     11  C   UNL A   1      33.478  21.870  23.518  1.00  0.00     0.023 C 
ATOM     12  C   UNL A   1      34.089  23.951  24.830  1.00  0.00     0.273 C 
ATOM     13  C   UNL A   1      32.035  22.325  23.554  1.00  0.00     0.062 C 
ATOM     14  C   UNL A   1      31.794  23.166  24.799  1.00  0.00     0.262 C 
ATOM     15  H   UNL A   1      32.481  24.898  24.121  1.00  0.00     0.348 HD
BRANCH  10  16
ATOM     16  C   UNL A   1      35.858  22.616  23.596  1.00  0.00     0.138 C 
ATOM     17  C   UNL A   1      36.338  21.776  24.751  1.00  0.00     0.088 C 
ATOM     18  O   UNL A   1      36.646  22.953  22.711  1.00  0.00    -0.299 OA
ENDBRANCH  10  16
ENDBRANCH   8   9
ENDBRANCH   5   8
ENDBRANCH   3   5
ENDBRANCH   2   3
ENDBRANCH   1   2
BRANCH   1  19
ATOM     19  C   UNL A   1      31.418  30.568  25.723  1.00  0.00     0.275 C 
BRANCH  19  20
ATOM     20  O   UNL A   1      32.789  30.526  26.203  1.00  0.00    -0.458 OA
BRANCH  20  21
ATOM     21  C   UNL A   1      33.178  31.575  26.977  1.00  0.00     0.338 C 
ATOM     22  O   UNL A   1      32.491  32.545  27.262  1.00  0.00    -0.246 OA
BRANCH  21  23
ATOM     23  C   UNL A   1      34.477  31.324  27.662  1.00  0.00     0.060 A 
ATOM     24  C   UNL A   1      34.678  30.026  28.140  1.00  0.00     0.016 A 
ATOM     25  C   UNL A   1      35.451  32.288  27.917  1.00  0.00     0.016 A 
ATOM     26  C   UNL A   1      35.856  29.649  28.787  1.00  0.00     0.010 A 
ATOM     27  C   UNL A   1      36.617  31.930  28.635  1.00  0.00     0.010 A 
ATOM     28  C   UNL A   1      36.834  30.604  29.064  1.00  0.00    -0.014 A 
BRANCH  28  29
ATOM     29  C   UNL A   1      37.994  30.213  29.917  1.00  0.00     0.031 A 
ATOM     30  C   UNL A   1      39.039  29.288  29.358  1.00  0.00     0.074 A 
ATOM     31  C   UNL A   1      38.183  30.740  31.142  1.00  0.00     0.049 A 
ATOM     32  N   UNL A   1      40.102  28.783  29.933  1.00  0.00    -0.248 NA
ATOM     33  C   UNL A   1      38.867  28.893  27.953  1.00  0.00     0.031 C 
ATOM     34  C   UNL A   1      37.321  31.735  31.768  1.00  0.00     0.029 A 
ATOM     35  N   UNL A   1      39.169  30.515  32.077  1.00  0.00    -0.354 N 
ATOM     36  C   UNL A   1      40.715  27.995  28.968  1.00  0.00     0.074 A 
ATOM     37  C   UNL A   1      39.902  28.086  27.773  1.00  0.00     0.031 C 
ATOM     38  C   UNL A   1      37.801  32.026  32.990  1.00  0.00     0.029 A 
ATOM     39  C   UNL A   1      38.980  31.199  33.254  1.00  0.00     0.049 A 
ATOM     40  H   UNL A   1      39.937  29.920  31.918  1.00  0.00     0.167 HD
ATOM     41  C   UNL A   1      41.847  27.259  29.071  1.00  0.00     0.037 A 
ATOM     42  C   UNL A   1      39.652  31.139  34.422  1.00  0.00     0.037 A 
ATOM     43  C   UNL A   1      42.658  27.162  30.259  1.00  0.00     0.049 A 
ATOM     44  C   UNL A   1      40.844  30.221  34.551  1.00  0.00     0.074 A 
ATOM     45  C   UNL A   1      43.817  26.430  30.453  1.00  0.00     0.029 A 
ATOM     46  N   UNL A   1      42.390  27.806  31.458  1.00  0.00    -0.354 N 
ATOM     47  N   UNL A   1      41.406  29.459  33.643  1.00  0.00    -0.248 NA
ATOM     48  C   UNL A   1      41.492  30.148  35.870  1.00  0.00     0.031 C 
ATOM     49  C   UNL A   1      44.212  26.577  31.787  1.00  0.00     0.029 A 
ATOM     50  C   UNL A   1      43.341  27.458  32.406  1.00  0.00     0.049 A 
ATOM     51  H   UNL A   1      41.636  28.420  31.612  1.00  0.00     0.167 HD
ATOM     52  C   UNL A   1      42.482  28.841  34.271  1.00  0.00     0.074 A 
ATOM     53  C   UNL A   1      42.508  29.330  35.633  1.00  0.00     0.031 C 
ATOM     54  C   UNL A   1      43.367  27.948  33.762  1.00  0.00     0.037 A 
BRANCH  41  55
ATOM     55  C   UNL A   1      42.241  26.436  27.878  1.00  0.00     0.064 A 
ATOM     56  C   UNL A   1      41.682  25.175  27.624  1.00  0.00     0.173 A 
ATOM     57  C   UNL A   1      43.186  26.930  26.966  1.00  0.00     0.173 A 
ATOM     58  F   UNL A   1      40.783  24.649  28.472  1.00  0.00    -0.203 F 
ATOM     59  C   UNL A   1      42.082  24.424  26.520  1.00  0.00     0.198 A 
ATOM     60  C   UNL A   1      43.558  26.192  25.846  1.00  0.00     0.198 A 
ATOM     61  F   UNL A   1      43.747  28.134  27.158  1.00  0.00    -0.203 F 
ATOM     62  F   UNL A   1      41.578  23.197  26.328  1.00  0.00    -0.200 F 
ATOM     63  C   UNL A   1      43.014  24.935  25.630  1.00  0.00     0.200 A 
ATOM     64  F   UNL A   1      44.448  26.695  24.979  1.00  0.00    -0.200 F 
ATOM     65  F   UNL A   1      43.396  24.213  24.568  1.00  0.00    -0.200 F 
ENDBRANCH  41  55
BRANCH  42  66
ATOM     66  C   UNL A   1      39.187  31.928  35.598  1.00  0.00     0.064 A 
ATOM     67  C   UNL A   1      38.325  31.378  36.557  1.00  0.00     0.173 A 
ATOM     68  C   UNL A   1      39.558  33.273  35.757  1.00  0.00     0.173 A 
ATOM     69  F   UNL A   1      37.906  30.111  36.431  1.00  0.00    -0.203 F 
ATOM     70  C   UNL A   1      37.838  32.145  37.615  1.00  0.00     0.198 A 
ATOM     71  C   UNL A   1      39.098  34.029  36.834  1.00  0.00     0.198 A 
ATOM     72  F   UNL A   1      40.366  33.859  34.861  1.00  0.00    -0.203 F 
ATOM     73  F   UNL A   1      36.965  31.611  38.481  1.00  0.00    -0.200 F 
ATOM     74  C   UNL A   1      38.231  33.467  37.757  1.00  0.00     0.200 A 
ATOM     75  F   UNL A   1      39.486  35.305  36.968  1.00  0.00    -0.200 F 
ATOM     76  F   UNL A   1      37.760  34.204  38.772  1.00  0.00    -0.200 F 
ENDBRANCH  42  66
BRANCH  54  77
ATOM     77  C   UNL A   1      44.468  27.463  34.667  1.00  0.00     0.064 A 
ATOM     78  C   UNL A   1      45.682  28.156  34.798  1.00  0.00     0.173 A 
ATOM     79  C   UNL A   1      44.292  26.305  35.443  1.00  0.00     0.173 A 
ATOM     80  F   UNL A   1      45.910  29.260  34.072  1.00  0.00    -0.203 F 
ATOM     81  C   UNL A   1      46.685  27.693  35.649  1.00  0.00     0.198 A 
ATOM     82  C   UNL A   1      45.282  25.866  36.318  1.00  0.00     0.198 A 
ATOM     83  F   UNL A   1      43.150  25.605  35.365  1.00  0.00    -0.203 F 
ATOM     84  F   UNL A   1      47.855  28.343  35.716  1.00  0.00    -0.200 F 
ATOM     85  C   UNL A   1      46.481  26.554  36.413  1.00  0.00     0.200 A 
ATOM     86  F   UNL A   1      45.076  24.776  37.068  1.00  0.00    -0.200 F 
ATOM     87  F   UNL A   1      47.444  26.117  37.236  1.00  0.00    -0.200 F 
ENDBRANCH  54  77
ENDBRANCH  28  29
ENDBRANCH  21  23
ENDBRANCH  20  21
ENDBRANCH  19  20
ENDBRANCH   1  19
TORSDOF 14
ENDMDL
