MODEL 1
REMARK VINA RESULT:     -12.5      0.000      0.000
REMARK SMILES Cc1cc(C)c(NC(=O)C2(C)CCCC2)c(C(=O)OCCOC(=O)c2ccc(-c3c4nc(c(-c5c(F)c(F)c(F)c(F)c5F)c5ccc([nH]5)c(-c5c(F)c(F)c(F)c(F)c5F)c5nc(c(-c6c(F)c(F)c(F)c(F)c6F)c6ccc3[nH]6)C=C5)C=C4)cc2)c1
REMARK SMILES IDX 20 1 19 2 17 3 18 4 16 5 1 6 2 7 3 8 88 9 4 10 5 11 6 12
REMARK SMILES IDX 7 13 8 14 9 16 10 17 11 18 12 19 15 20 13 21 14 22 21 23
REMARK SMILES IDX 22 24 23 25 24 26 25 27 26 28 87 29 27 30 86 31 28 32 29 33
REMARK SMILES IDX 30 34 80 35 31 36 85 37 79 38 81 39 32 40 84 41 78 42 77 43
REMARK SMILES IDX 33 45 65 46 45 47 64 48 46 49 49 50 63 51 82 52 47 53 48 54
REMARK SMILES IDX 62 56 83 57 50 58 34 59 35 60 43 61 36 62 37 63 41 64 44 65
REMARK SMILES IDX 38 66 39 67 42 68 40 69 66 70 67 71 75 72 68 73 69 74 73 75
REMARK SMILES IDX 76 76 70 77 71 78 74 79 72 80 51 81 52 82 60 83 53 84 54 85
REMARK SMILES IDX 58 86 61 87 55 88 56 89 59 90 57 91
REMARK H PARENT 7 15 81 44 49 55
REMARK Flexibility Score: inf
ROOT
ATOM      1  C   UNL A   1      32.895  29.218  25.075  1.00  0.00     0.275 C 
ENDROOT
BRANCH   1   2
ATOM      2  O   UNL A   1      33.118  29.461  23.671  1.00  0.00    -0.458 OA
BRANCH   2   3
ATOM      3  C   UNL A   1      32.787  28.494  22.776  1.00  0.00     0.340 C 
ATOM      4  O   UNL A   1      33.536  27.843  22.067  1.00  0.00    -0.246 OA
BRANCH   3   5
ATOM      5  C   UNL A   1      31.317  28.314  22.808  1.00  0.00     0.084 A 
ATOM      6  C   UNL A   1      28.318  30.392  21.747  1.00  0.00     0.044 C 
ATOM      7  C   UNL A   1      29.160  29.329  22.382  1.00  0.00    -0.050 A 
ATOM      8  C   UNL A   1      28.565  28.227  22.995  1.00  0.00     0.009 A 
ATOM      9  C   UNL A   1      30.546  29.390  22.342  1.00  0.00     0.021 A 
ATOM     10  C   UNL A   1      29.319  27.153  23.518  1.00  0.00    -0.026 A 
ATOM     11  C   UNL A   1      28.525  26.111  24.251  1.00  0.00     0.046 C 
ATOM     12  C   UNL A   1      30.711  27.127  23.293  1.00  0.00     0.058 A 
BRANCH  12  13
ATOM     13  N   UNL A   1      31.501  25.943  23.340  1.00  0.00    -0.325 N 
ATOM     14  C   UNL A   1      32.115  25.360  24.425  1.00  0.00     0.230 C 
ATOM     15  H   UNL A   1      31.623  25.478  22.480  1.00  0.00     0.169 HD
ATOM     16  O   UNL A   1      32.954  25.960  25.096  1.00  0.00    -0.274 OA
BRANCH  14  17
ATOM     17  C   UNL A   1      31.686  23.896  24.762  1.00  0.00     0.047 C 
ATOM     18  C   UNL A   1      30.655  23.815  25.891  1.00  0.00     0.022 C 
ATOM     19  C   UNL A   1      31.182  23.157  23.510  1.00  0.00     0.016 C 
ATOM     20  C   UNL A   1      32.921  23.044  25.099  1.00  0.00     0.016 C 
ATOM     21  C   UNL A   1      32.424  22.688  22.751  1.00  0.00     0.001 C 
ATOM     22  C   UNL A   1      33.576  22.758  23.748  1.00  0.00     0.001 C 
ENDBRANCH  14  17
ENDBRANCH  12  13
ENDBRANCH   3   5
ENDBRANCH   2   3
ENDBRANCH   1   2
BRANCH   1  23
ATOM     23  C   UNL A   1      32.006  30.306  25.673  1.00  0.00     0.275 C 
BRANCH  23  24
ATOM     24  O   UNL A   1      32.404  30.518  27.038  1.00  0.00    -0.458 OA
BRANCH  24  25
ATOM     25  C   UNL A   1      33.103  31.648  27.288  1.00  0.00     0.338 C 
ATOM     26  O   UNL A   1      32.710  32.798  27.211  1.00  0.00    -0.246 OA
BRANCH  25  27
ATOM     27  C   UNL A   1      34.461  31.284  27.730  1.00  0.00     0.060 A 
ATOM     28  C   UNL A   1      34.751  29.954  28.006  1.00  0.00     0.016 A 
ATOM     29  C   UNL A   1      35.400  32.272  28.021  1.00  0.00     0.016 A 
ATOM     30  C   UNL A   1      35.911  29.631  28.704  1.00  0.00     0.010 A 
ATOM     31  C   UNL A   1      36.624  31.920  28.611  1.00  0.00     0.010 A 
ATOM     32  C   UNL A   1      36.875  30.599  29.026  1.00  0.00    -0.014 A 
BRANCH  32  33
ATOM     33  C   UNL A   1      38.066  30.249  29.876  1.00  0.00     0.031 A 
ATOM     34  C   UNL A   1      39.221  29.463  29.292  1.00  0.00     0.074 A 
ATOM     35  C   UNL A   1      38.198  30.698  31.143  1.00  0.00     0.049 A 
ATOM     36  N   UNL A   1      40.200  28.845  29.909  1.00  0.00    -0.248 NA
ATOM     37  C   UNL A   1      39.265  29.327  27.829  1.00  0.00     0.031 C 
ATOM     38  C   UNL A   1      37.244  31.551  31.851  1.00  0.00     0.029 A 
ATOM     39  N   UNL A   1      39.231  30.555  32.045  1.00  0.00    -0.354 N 
ATOM     40  C   UNL A   1      40.897  28.154  28.923  1.00  0.00     0.074 A 
ATOM     41  C   UNL A   1      40.245  28.449  27.665  1.00  0.00     0.031 C 
ATOM     42  C   UNL A   1      37.784  31.957  33.007  1.00  0.00     0.029 A 
ATOM     43  C   UNL A   1      39.044  31.253  33.213  1.00  0.00     0.049 A 
ATOM     44  H   UNL A   1      40.027  30.003  31.868  1.00  0.00     0.167 HD
ATOM     45  C   UNL A   1      41.972  27.339  29.062  1.00  0.00     0.037 A 
ATOM     46  C   UNL A   1      39.758  31.281  34.357  1.00  0.00     0.037 A 
ATOM     47  C   UNL A   1      42.705  27.162  30.293  1.00  0.00     0.049 A 
ATOM     48  C   UNL A   1      40.953  30.381  34.497  1.00  0.00     0.074 A 
ATOM     49  C   UNL A   1      43.813  26.367  30.534  1.00  0.00     0.029 A 
ATOM     50  N   UNL A   1      42.433  27.830  31.477  1.00  0.00    -0.354 N 
ATOM     51  N   UNL A   1      41.499  29.587  33.609  1.00  0.00    -0.248 NA
ATOM     52  C   UNL A   1      41.597  30.340  35.817  1.00  0.00     0.031 C 
ATOM     53  C   UNL A   1      44.191  26.529  31.872  1.00  0.00     0.029 A 
ATOM     54  C   UNL A   1      43.349  27.462  32.452  1.00  0.00     0.049 A 
ATOM     55  H   UNL A   1      41.697  28.471  31.607  1.00  0.00     0.167 HD
ATOM     56  C   UNL A   1      42.539  28.942  34.265  1.00  0.00     0.074 A 
ATOM     57  C   UNL A   1      42.574  29.467  35.613  1.00  0.00     0.031 C 
ATOM     58  C   UNL A   1      43.374  27.985  33.792  1.00  0.00     0.037 A 
BRANCH  45  59
ATOM     59  C   UNL A   1      42.398  26.523  27.873  1.00  0.00     0.064 A 
ATOM     60  C   UNL A   1      41.841  25.274  27.566  1.00  0.00     0.173 A 
ATOM     61  C   UNL A   1      43.361  27.042  26.989  1.00  0.00     0.173 A 
ATOM     62  F   UNL A   1      40.922  24.729  28.376  1.00  0.00    -0.203 F 
ATOM     63  C   UNL A   1      42.251  24.564  26.439  1.00  0.00     0.198 A 
ATOM     64  C   UNL A   1      43.741  26.346  25.845  1.00  0.00     0.198 A 
ATOM     65  F   UNL A   1      43.919  28.240  27.223  1.00  0.00    -0.203 F 
ATOM     66  F   UNL A   1      41.738  23.351  26.190  1.00  0.00    -0.200 F 
ATOM     67  C   UNL A   1      43.193  25.103  25.575  1.00  0.00     0.200 A 
ATOM     68  F   UNL A   1      44.636  26.882  25.002  1.00  0.00    -0.200 F 
ATOM     69  F   UNL A   1      43.573  24.424  24.484  1.00  0.00    -0.200 F 
ENDBRANCH  45  59
BRANCH  46  70
ATOM     70  C   UNL A   1      39.296  32.121  35.496  1.00  0.00     0.064 A 
ATOM     71  C   UNL A   1      38.448  31.603  36.484  1.00  0.00     0.173 A 
ATOM     72  C   UNL A   1      39.715  33.454  35.632  1.00  0.00     0.173 A 
ATOM     73  F   UNL A   1      37.986  30.347  36.381  1.00  0.00    -0.203 F 
ATOM     74  C   UNL A   1      38.047  32.382  37.568  1.00  0.00     0.198 A 
ATOM     75  C   UNL A   1      39.350  34.216  36.738  1.00  0.00     0.198 A 
ATOM     76  F   UNL A   1      40.515  34.004  34.707  1.00  0.00    -0.203 F 
ATOM     77  F   UNL A   1      37.208  31.876  38.482  1.00  0.00    -0.200 F 
ATOM     78  C   UNL A   1      38.513  33.681  37.703  1.00  0.00     0.200 A 
ATOM     79  F   UNL A   1      39.823  35.463  36.873  1.00  0.00    -0.200 F 
ATOM     80  F   UNL A   1      38.153  34.420  38.761  1.00  0.00    -0.200 F 
ENDBRANCH  46  70
BRANCH  58  81
ATOM     81  C   UNL A   1      44.412  27.458  34.740  1.00  0.00     0.064 A 
ATOM     82  C   UNL A   1      44.180  26.316  35.521  1.00  0.00     0.173 A 
ATOM     83  C   UNL A   1      45.657  28.093  34.857  1.00  0.00     0.173 A 
ATOM     84  F   UNL A   1      42.999  25.683  35.458  1.00  0.00    -0.203 F 
ATOM     85  C   UNL A   1      45.147  25.846  36.406  1.00  0.00     0.198 A 
ATOM     86  C   UNL A   1      46.632  27.604  35.723  1.00  0.00     0.198 A 
ATOM     87  F   UNL A   1      45.931  29.186  34.130  1.00  0.00    -0.203 F 
ATOM     88  F   UNL A   1      44.884  24.784  37.181  1.00  0.00    -0.200 F 
ATOM     89  C   UNL A   1      46.374  26.487  36.503  1.00  0.00     0.200 A 
ATOM     90  F   UNL A   1      47.819  28.219  35.809  1.00  0.00    -0.200 F 
ATOM     91  F   UNL A   1      47.302  26.034  37.357  1.00  0.00    -0.200 F 
ENDBRANCH  58  81
ENDBRANCH  32  33
ENDBRANCH  25  27
ENDBRANCH  24  25
ENDBRANCH  23  24
ENDBRANCH   1  23
TORSDOF 13
ENDMDL
MODEL 2
REMARK VINA RESULT:     -12.5      0.833      3.096
REMARK SMILES Cc1cc(C)c(NC(=O)C2(C)CCCC2)c(C(=O)OCCOC(=O)c2ccc(-c3c4nc(c(-c5c(F)c(F)c(F)c(F)c5F)c5ccc([nH]5)c(-c5c(F)c(F)c(F)c(F)c5F)c5nc(c(-c6c(F)c(F)c(F)c(F)c6F)c6ccc3[nH]6)C=C5)C=C4)cc2)c1
REMARK SMILES IDX 20 1 19 2 17 3 18 4 16 5 1 6 2 7 3 8 88 9 4 10 5 11 6 12
REMARK SMILES IDX 7 13 8 14 9 16 10 17 11 18 12 19 15 20 13 21 14 22 21 23
REMARK SMILES IDX 22 24 23 25 24 26 25 27 26 28 87 29 27 30 86 31 28 32 29 33
REMARK SMILES IDX 30 34 80 35 31 36 85 37 79 38 81 39 32 40 84 41 78 42 77 43
REMARK SMILES IDX 33 45 65 46 45 47 64 48 46 49 49 50 63 51 82 52 47 53 48 54
REMARK SMILES IDX 62 56 83 57 50 58 34 59 35 60 43 61 36 62 37 63 41 64 44 65
REMARK SMILES IDX 38 66 39 67 42 68 40 69 66 70 67 71 75 72 68 73 69 74 73 75
REMARK SMILES IDX 76 76 70 77 71 78 74 79 72 80 51 81 52 82 60 83 53 84 54 85
REMARK SMILES IDX 58 86 61 87 55 88 56 89 59 90 57 91
REMARK H PARENT 7 15 81 44 49 55
REMARK Flexibility Score: inf
ROOT
ATOM      1  C   UNL A   1      33.143  29.394  24.995  1.00  0.00     0.275 C 
ENDROOT
BRANCH   1   2
ATOM      2  O   UNL A   1      32.838  29.416  23.585  1.00  0.00    -0.458 OA
BRANCH   2   3
ATOM      3  C   UNL A   1      32.882  28.253  22.885  1.00  0.00     0.340 C 
ATOM      4  O   UNL A   1      33.584  27.984  21.924  1.00  0.00    -0.246 OA
BRANCH   3   5
ATOM      5  C   UNL A   1      31.931  27.301  23.504  1.00  0.00     0.084 A 
ATOM      6  C   UNL A   1      32.224  23.919  25.210  1.00  0.00     0.044 C 
ATOM      7  C   UNL A   1      31.653  25.131  24.542  1.00  0.00    -0.050 A 
ATOM      8  C   UNL A   1      30.273  25.329  24.495  1.00  0.00     0.009 A 
ATOM      9  C   UNL A   1      32.476  26.103  23.992  1.00  0.00     0.021 A 
ATOM     10  C   UNL A   1      29.695  26.504  23.963  1.00  0.00    -0.026 A 
ATOM     11  C   UNL A   1      28.197  26.497  23.878  1.00  0.00     0.046 C 
ATOM     12  C   UNL A   1      30.541  27.570  23.593  1.00  0.00     0.058 A 
BRANCH  12  13
ATOM     13  N   UNL A   1      30.113  28.925  23.492  1.00  0.00    -0.325 N 
ATOM     14  C   UNL A   1      29.511  29.560  22.430  1.00  0.00     0.230 C 
ATOM     15  H   UNL A   1      30.270  29.481  24.290  1.00  0.00     0.169 HD
ATOM     16  O   UNL A   1      30.051  29.636  21.328  1.00  0.00    -0.274 OA
BRANCH  14  17
ATOM     17  C   UNL A   1      28.101  30.176  22.701  1.00  0.00     0.047 C 
ATOM     18  C   UNL A   1      27.038  29.125  23.033  1.00  0.00     0.022 C 
ATOM     19  C   UNL A   1      28.160  31.256  23.796  1.00  0.00     0.016 C 
ATOM     20  C   UNL A   1      27.655  31.031  21.502  1.00  0.00     0.016 C 
ATOM     21  C   UNL A   1      28.661  32.533  23.121  1.00  0.00     0.001 C 
ATOM     22  C   UNL A   1      28.467  32.320  21.623  1.00  0.00     0.001 C 
ENDBRANCH  14  17
ENDBRANCH  12  13
ENDBRANCH   3   5
ENDBRANCH   2   3
ENDBRANCH   1   2
BRANCH   1  23
ATOM     23  C   UNL A   1      32.133  30.232  25.775  1.00  0.00     0.275 C 
BRANCH  23  24
ATOM     24  O   UNL A   1      32.618  30.390  27.119  1.00  0.00    -0.458 OA
BRANCH  24  25
ATOM     25  C   UNL A   1      33.299  31.529  27.379  1.00  0.00     0.338 C 
ATOM     26  O   UNL A   1      32.891  32.673  27.302  1.00  0.00    -0.246 OA
BRANCH  25  27
ATOM     27  C   UNL A   1      34.658  31.182  27.832  1.00  0.00     0.060 A 
ATOM     28  C   UNL A   1      34.963  29.855  28.107  1.00  0.00     0.016 A 
ATOM     29  C   UNL A   1      35.581  32.181  28.134  1.00  0.00     0.016 A 
ATOM     30  C   UNL A   1      36.121  29.545  28.814  1.00  0.00     0.010 A 
ATOM     31  C   UNL A   1      36.804  31.843  28.734  1.00  0.00     0.010 A 
ATOM     32  C   UNL A   1      37.069  30.525  29.148  1.00  0.00    -0.014 A 
BRANCH  32  33
ATOM     33  C   UNL A   1      38.257  30.189  30.007  1.00  0.00     0.031 A 
ATOM     34  C   UNL A   1      39.431  29.428  29.429  1.00  0.00     0.074 A 
ATOM     35  C   UNL A   1      38.369  30.629  31.279  1.00  0.00     0.049 A 
ATOM     36  N   UNL A   1      40.415  28.822  30.050  1.00  0.00    -0.248 NA
ATOM     37  C   UNL A   1      39.493  29.305  27.965  1.00  0.00     0.031 C 
ATOM     38  C   UNL A   1      37.392  31.459  31.984  1.00  0.00     0.029 A 
ATOM     39  N   UNL A   1      39.394  30.496  32.190  1.00  0.00    -0.354 N 
ATOM     40  C   UNL A   1      41.134  28.151  29.066  1.00  0.00     0.074 A 
ATOM     41  C   UNL A   1      40.490  28.446  27.804  1.00  0.00     0.031 C 
ATOM     42  C   UNL A   1      37.913  31.865  33.149  1.00  0.00     0.029 A 
ATOM     43  C   UNL A   1      39.183  31.182  33.363  1.00  0.00     0.049 A 
ATOM     44  H   UNL A   1      40.201  29.960  32.017  1.00  0.00     0.167 HD
ATOM     45  C   UNL A   1      42.221  27.353  29.210  1.00  0.00     0.037 A 
ATOM     46  C   UNL A   1      39.885  31.212  34.514  1.00  0.00     0.037 A 
ATOM     47  C   UNL A   1      42.945  27.179  30.447  1.00  0.00     0.049 A 
ATOM     48  C   UNL A   1      41.094  30.332  34.659  1.00  0.00     0.074 A 
ATOM     49  C   UNL A   1      44.063  26.401  30.693  1.00  0.00     0.029 A 
ATOM     50  N   UNL A   1      42.648  27.833  31.633  1.00  0.00    -0.354 N 
ATOM     51  N   UNL A   1      41.662  29.555  33.770  1.00  0.00    -0.248 NA
ATOM     52  C   UNL A   1      41.725  30.290  35.985  1.00  0.00     0.031 C 
ATOM     53  C   UNL A   1      44.425  26.559  32.036  1.00  0.00     0.029 A 
ATOM     54  C   UNL A   1      43.561  27.472  32.615  1.00  0.00     0.049 A 
ATOM     55  H   UNL A   1      41.900  28.460  31.761  1.00  0.00     0.167 HD
ATOM     56  C   UNL A   1      42.706  28.923  34.431  1.00  0.00     0.074 A 
ATOM     57  C   UNL A   1      42.719  29.437  35.785  1.00  0.00     0.031 C 
ATOM     58  C   UNL A   1      43.563  27.984  33.960  1.00  0.00     0.037 A 
BRANCH  45  59
ATOM     59  C   UNL A   1      42.674  26.555  28.019  1.00  0.00     0.064 A 
ATOM     60  C   UNL A   1      42.174  25.280  27.721  1.00  0.00     0.173 A 
ATOM     61  C   UNL A   1      43.602  27.117  27.123  1.00  0.00     0.173 A 
ATOM     62  F   UNL A   1      41.290  24.694  28.541  1.00  0.00    -0.203 F 
ATOM     63  C   UNL A   1      42.606  24.587  26.591  1.00  0.00     0.198 A 
ATOM     64  C   UNL A   1      44.004  26.436  25.978  1.00  0.00     0.198 A 
ATOM     65  F   UNL A   1      44.104  28.341  27.349  1.00  0.00    -0.203 F 
ATOM     66  F   UNL A   1      42.148  23.351  26.351  1.00  0.00    -0.200 F 
ATOM     67  C   UNL A   1      43.513  25.168  25.716  1.00  0.00     0.200 A 
ATOM     68  F   UNL A   1      44.863  27.011  25.124  1.00  0.00    -0.200 F 
ATOM     69  F   UNL A   1      43.914  24.505  24.623  1.00  0.00    -0.200 F 
ENDBRANCH  45  59
BRANCH  46  70
ATOM     70  C   UNL A   1      39.396  32.034  35.654  1.00  0.00     0.064 A 
ATOM     71  C   UNL A   1      38.481  31.519  36.583  1.00  0.00     0.173 A 
ATOM     72  C   UNL A   1      39.855  33.346  35.854  1.00  0.00     0.173 A 
ATOM     73  F   UNL A   1      37.980  30.285  36.418  1.00  0.00    -0.203 F 
ATOM     74  C   UNL A   1      38.055  32.279  37.670  1.00  0.00     0.198 A 
ATOM     75  C   UNL A   1      39.463  34.088  36.964  1.00  0.00     0.198 A 
ATOM     76  F   UNL A   1      40.720  33.893  34.987  1.00  0.00    -0.203 F 
ATOM     77  F   UNL A   1      37.153  31.778  38.525  1.00  0.00    -0.200 F 
ATOM     78  C   UNL A   1      38.560  33.556  37.869  1.00  0.00     0.200 A 
ATOM     79  F   UNL A   1      39.973  35.311  37.161  1.00  0.00    -0.200 F 
ATOM     80  F   UNL A   1      38.174  34.276  38.931  1.00  0.00    -0.200 F 
ENDBRANCH  46  70
BRANCH  58  81
ATOM     81  C   UNL A   1      44.600  27.467  34.914  1.00  0.00     0.064 A 
ATOM     82  C   UNL A   1      45.842  28.103  35.061  1.00  0.00     0.173 A 
ATOM     83  C   UNL A   1      44.344  26.335  35.701  1.00  0.00     0.173 A 
ATOM     84  F   UNL A   1      46.142  29.179  34.318  1.00  0.00    -0.203 F 
ATOM     85  C   UNL A   1      46.801  27.605  35.940  1.00  0.00     0.198 A 
ATOM     86  C   UNL A   1      45.294  25.857  36.598  1.00  0.00     0.198 A 
ATOM     87  F   UNL A   1      43.170  25.693  35.602  1.00  0.00    -0.203 F 
ATOM     88  F   UNL A   1      48.001  28.197  36.025  1.00  0.00    -0.200 F 
ATOM     89  C   UNL A   1      46.525  26.486  36.711  1.00  0.00     0.200 A 
ATOM     90  F   UNL A   1      45.023  24.781  37.350  1.00  0.00    -0.200 F 
ATOM     91  F   UNL A   1      47.449  26.008  37.555  1.00  0.00    -0.200 F 
ENDBRANCH  58  81
ENDBRANCH  32  33
ENDBRANCH  25  27
ENDBRANCH  24  25
ENDBRANCH  23  24
ENDBRANCH   1  23
TORSDOF 13
ENDMDL
MODEL 3
REMARK VINA RESULT:     -12.5      0.931      3.113
REMARK SMILES Cc1cc(C)c(NC(=O)C2(C)CCCC2)c(C(=O)OCCOC(=O)c2ccc(-c3c4nc(c(-c5c(F)c(F)c(F)c(F)c5F)c5ccc([nH]5)c(-c5c(F)c(F)c(F)c(F)c5F)c5nc(c(-c6c(F)c(F)c(F)c(F)c6F)c6ccc3[nH]6)C=C5)C=C4)cc2)c1
REMARK SMILES IDX 20 1 19 2 17 3 18 4 16 5 1 6 2 7 3 8 88 9 4 10 5 11 6 12
REMARK SMILES IDX 7 13 8 14 9 16 10 17 11 18 12 19 15 20 13 21 14 22 21 23
REMARK SMILES IDX 22 24 23 25 24 26 25 27 26 28 87 29 27 30 86 31 28 32 29 33
REMARK SMILES IDX 30 34 80 35 31 36 85 37 79 38 81 39 32 40 84 41 78 42 77 43
REMARK SMILES IDX 33 45 65 46 45 47 64 48 46 49 49 50 63 51 82 52 47 53 48 54
REMARK SMILES IDX 62 56 83 57 50 58 34 59 35 60 43 61 36 62 37 63 41 64 44 65
REMARK SMILES IDX 38 66 39 67 42 68 40 69 66 70 67 71 75 72 68 73 69 74 73 75
REMARK SMILES IDX 76 76 70 77 71 78 74 79 72 80 51 81 52 82 60 83 53 84 54 85
REMARK SMILES IDX 58 86 61 87 55 88 56 89 59 90 57 91
REMARK H PARENT 7 15 81 44 49 55
REMARK Flexibility Score: inf
ROOT
ATOM      1  C   UNL A   1      33.217  29.301  25.118  1.00  0.00     0.275 C 
ENDROOT
BRANCH   1   2
ATOM      2  O   UNL A   1      32.895  29.363  23.714  1.00  0.00    -0.458 OA
BRANCH   2   3
ATOM      3  C   UNL A   1      32.910  28.217  22.985  1.00  0.00     0.340 C 
ATOM      4  O   UNL A   1      33.594  27.960  22.008  1.00  0.00    -0.246 OA
BRANCH   3   5
ATOM      5  C   UNL A   1      31.952  27.265  23.594  1.00  0.00     0.084 A 
ATOM      6  C   UNL A   1      32.227  23.889  25.315  1.00  0.00     0.044 C 
ATOM      7  C   UNL A   1      31.663  25.098  24.635  1.00  0.00    -0.050 A 
ATOM      8  C   UNL A   1      30.284  25.294  24.569  1.00  0.00     0.009 A 
ATOM      9  C   UNL A   1      32.492  26.069  24.093  1.00  0.00     0.021 A 
ATOM     10  C   UNL A   1      29.712  26.465  24.026  1.00  0.00    -0.026 A 
ATOM     11  C   UNL A   1      28.214  26.456  23.921  1.00  0.00     0.046 C 
ATOM     12  C   UNL A   1      30.561  27.532  23.664  1.00  0.00     0.058 A 
BRANCH  12  13
ATOM     13  N   UNL A   1      30.132  28.886  23.553  1.00  0.00    -0.325 N 
ATOM     14  C   UNL A   1      29.586  29.529  22.466  1.00  0.00     0.230 C 
ATOM     15  H   UNL A   1      30.241  29.434  24.364  1.00  0.00     0.169 HD
ATOM     16  O   UNL A   1      30.186  29.619  21.396  1.00  0.00    -0.274 OA
BRANCH  14  17
ATOM     17  C   UNL A   1      28.160  30.136  22.665  1.00  0.00     0.047 C 
ATOM     18  C   UNL A   1      27.086  29.076  22.926  1.00  0.00     0.022 C 
ATOM     19  C   UNL A   1      28.153  31.204  23.772  1.00  0.00     0.016 C 
ATOM     20  C   UNL A   1      27.777  31.002  21.452  1.00  0.00     0.016 C 
ATOM     21  C   UNL A   1      28.685  32.490  23.141  1.00  0.00     0.001 C 
ATOM     22  C   UNL A   1      28.575  32.293  21.632  1.00  0.00     0.001 C 
ENDBRANCH  14  17
ENDBRANCH  12  13
ENDBRANCH   3   5
ENDBRANCH   2   3
ENDBRANCH   1   2
BRANCH   1  23
ATOM     23  C   UNL A   1      32.211  30.109  25.935  1.00  0.00     0.275 C 
BRANCH  23  24
ATOM     24  O   UNL A   1      32.763  30.329  27.244  1.00  0.00    -0.458 OA
BRANCH  24  25
ATOM     25  C   UNL A   1      33.491  31.457  27.404  1.00  0.00     0.338 C 
ATOM     26  O   UNL A   1      33.115  32.608  27.279  1.00  0.00    -0.246 OA
BRANCH  25  27
ATOM     27  C   UNL A   1      34.859  31.091  27.812  1.00  0.00     0.060 A 
ATOM     28  C   UNL A   1      35.149  29.764  28.103  1.00  0.00     0.016 A 
ATOM     29  C   UNL A   1      35.813  32.077  28.058  1.00  0.00     0.016 A 
ATOM     30  C   UNL A   1      36.326  29.445  28.772  1.00  0.00     0.010 A 
ATOM     31  C   UNL A   1      37.052  31.726  28.617  1.00  0.00     0.010 A 
ATOM     32  C   UNL A   1      37.306  30.411  29.049  1.00  0.00    -0.014 A 
BRANCH  32  33
ATOM     33  C   UNL A   1      38.519  30.068  29.868  1.00  0.00     0.031 A 
ATOM     34  C   UNL A   1      39.657  29.276  29.261  1.00  0.00     0.074 A 
ATOM     35  C   UNL A   1      38.686  30.528  31.128  1.00  0.00     0.049 A 
ATOM     36  N   UNL A   1      40.653  28.663  29.856  1.00  0.00    -0.248 NA
ATOM     37  C   UNL A   1      39.662  29.127  27.798  1.00  0.00     0.031 C 
ATOM     38  C   UNL A   1      37.752  31.388  31.853  1.00  0.00     0.029 A 
ATOM     39  N   UNL A   1      39.743  30.392  32.002  1.00  0.00    -0.354 N 
ATOM     40  C   UNL A   1      41.322  27.962  28.858  1.00  0.00     0.074 A 
ATOM     41  C   UNL A   1      40.637  28.247  27.615  1.00  0.00     0.031 C 
ATOM     42  C   UNL A   1      38.324  31.804  32.991  1.00  0.00     0.029 A 
ATOM     43  C   UNL A   1      39.588  31.101  33.169  1.00  0.00     0.049 A 
ATOM     44  H   UNL A   1      40.533  29.838  31.809  1.00  0.00     0.167 HD
ATOM     45  C   UNL A   1      42.400  27.147  28.976  1.00  0.00     0.037 A 
ATOM     46  C   UNL A   1      40.333  31.138  34.292  1.00  0.00     0.037 A 
ATOM     47  C   UNL A   1      43.166  26.981  30.187  1.00  0.00     0.049 A 
ATOM     48  C   UNL A   1      41.531  30.239  34.408  1.00  0.00     0.074 A 
ATOM     49  C   UNL A   1      44.280  26.187  30.405  1.00  0.00     0.029 A 
ATOM     50  N   UNL A   1      42.926  27.660  31.372  1.00  0.00    -0.354 N 
ATOM     51  N   UNL A   1      42.052  29.437  33.513  1.00  0.00    -0.248 NA
ATOM     52  C   UNL A   1      42.211  30.209  35.710  1.00  0.00     0.031 C 
ATOM     53  C   UNL A   1      44.693  26.361  31.731  1.00  0.00     0.029 A 
ATOM     54  C   UNL A   1      43.869  27.300  32.325  1.00  0.00     0.049 A 
ATOM     55  H   UNL A   1      42.195  28.303  31.517  1.00  0.00     0.167 HD
ATOM     56  C   UNL A   1      43.109  28.797  34.146  1.00  0.00     0.074 A 
ATOM     57  C   UNL A   1      43.181  29.334  35.488  1.00  0.00     0.031 C 
ATOM     58  C   UNL A   1      43.930  27.834  33.660  1.00  0.00     0.037 A 
BRANCH  45  59
ATOM     59  C   UNL A   1      42.793  26.320  27.782  1.00  0.00     0.064 A 
ATOM     60  C   UNL A   1      42.205  25.084  27.485  1.00  0.00     0.173 A 
ATOM     61  C   UNL A   1      43.756  26.817  26.885  1.00  0.00     0.173 A 
ATOM     62  F   UNL A   1      41.284  24.560  28.307  1.00  0.00    -0.203 F 
ATOM     63  C   UNL A   1      42.585  24.363  26.353  1.00  0.00     0.198 A 
ATOM     64  C   UNL A   1      44.107  26.111  25.738  1.00  0.00     0.198 A 
ATOM     65  F   UNL A   1      44.343  28.003  27.110  1.00  0.00    -0.203 F 
ATOM     66  F   UNL A   1      42.043  23.161  26.114  1.00  0.00    -0.200 F 
ATOM     67  C   UNL A   1      43.528  24.880  25.477  1.00  0.00     0.200 A 
ATOM     68  F   UNL A   1      45.002  26.626  24.883  1.00  0.00    -0.200 F 
ATOM     69  F   UNL A   1      43.880  24.191  24.383  1.00  0.00    -0.200 F 
ENDBRANCH  45  59
BRANCH  46  70
ATOM     70  C   UNL A   1      39.902  31.989  35.436  1.00  0.00     0.064 A 
ATOM     71  C   UNL A   1      40.458  33.258  35.647  1.00  0.00     0.173 A 
ATOM     72  C   UNL A   1      38.905  31.559  36.326  1.00  0.00     0.173 A 
ATOM     73  F   UNL A   1      41.442  33.701  34.850  1.00  0.00    -0.203 F 
ATOM     74  C   UNL A   1      40.025  34.067  36.697  1.00  0.00     0.198 A 
ATOM     75  C   UNL A   1      38.442  32.385  37.346  1.00  0.00     0.198 A 
ATOM     76  F   UNL A   1      38.350  30.347  36.178  1.00  0.00    -0.203 F 
ATOM     77  F   UNL A   1      40.596  35.261  36.901  1.00  0.00    -0.200 F 
ATOM     78  C   UNL A   1      39.005  33.637  37.534  1.00  0.00     0.200 A 
ATOM     79  F   UNL A   1      37.442  31.971  38.135  1.00  0.00    -0.200 F 
ATOM     80  F   UNL A   1      38.568  34.426  38.524  1.00  0.00    -0.200 F 
ENDBRANCH  46  70
BRANCH  58  81
ATOM     81  C   UNL A   1      44.993  27.315  34.583  1.00  0.00     0.064 A 
ATOM     82  C   UNL A   1      44.777  26.188  35.390  1.00  0.00     0.173 A 
ATOM     83  C   UNL A   1      46.246  27.943  34.651  1.00  0.00     0.173 A 
ATOM     84  F   UNL A   1      43.590  25.564  35.374  1.00  0.00    -0.203 F 
ATOM     85  C   UNL A   1      45.768  25.725  36.253  1.00  0.00     0.198 A 
ATOM     86  C   UNL A   1      47.243  27.460  35.495  1.00  0.00     0.198 A 
ATOM     87  F   UNL A   1      46.505  29.021  33.898  1.00  0.00    -0.203 F 
ATOM     88  F   UNL A   1      45.521  24.678  37.053  1.00  0.00    -0.200 F 
ATOM     89  C   UNL A   1      47.001  26.358  36.301  1.00  0.00     0.200 A 
ATOM     90  F   UNL A   1      48.437  28.067  35.534  1.00  0.00    -0.200 F 
ATOM     91  F   UNL A   1      47.952  25.913  37.133  1.00  0.00    -0.200 F 
ENDBRANCH  58  81
ENDBRANCH  32  33
ENDBRANCH  25  27
ENDBRANCH  24  25
ENDBRANCH  23  24
ENDBRANCH   1  23
TORSDOF 13
ENDMDL
