MODEL 1
REMARK VINA RESULT:     -12.2      0.000      0.000
REMARK SMILES O=C(OCCOC(=O)c1cc(Br)ccc1OCc1ccccc1F)c1ccc(-c2c3nc(c(-c4c(F)c(F)c(F)c(F)c4F)c4ccc([nH]4)c(-c4c(F)c(F)c(F)c(F)c4F)c4nc(c(-c5c(F)c(F)c(F)c(F)c5F)c5ccc2[nH]5)C=C4)C=C3)cc1
REMARK SMILES IDX 5 1 4 2 3 3 2 4 1 5 25 6 26 7 87 8 27 9 86 10 28 11 29 12
REMARK SMILES IDX 30 13 80 14 31 15 85 16 79 17 81 18 32 19 84 20 78 21 77 22
REMARK SMILES IDX 33 24 65 25 45 26 64 27 46 28 49 29 63 30 82 31 47 32 48 33
REMARK SMILES IDX 62 35 83 36 50 37 34 38 35 39 43 40 36 41 37 42 41 43 44 44
REMARK SMILES IDX 38 45 39 46 42 47 40 48 66 49 67 50 75 51 68 52 69 53 73 54
REMARK SMILES IDX 76 55 70 56 71 57 74 58 72 59 51 60 52 61 60 62 53 63 54 64
REMARK SMILES IDX 58 65 61 66 55 67 56 68 59 69 57 70 6 71 7 72 8 73 9 74
REMARK SMILES IDX 10 75 15 76 11 77 14 78 12 79 13 80 16 81 17 82 18 83 19 84
REMARK SMILES IDX 23 85 20 86 22 87 24 88 21 89
REMARK H PARENT 81 23 49 34
REMARK Flexibility Score: inf
ROOT
ATOM      1  C   UNL A   1      32.711  31.081  27.207  1.00  0.00     0.275 C 
ENDROOT
BRANCH   1   2
ATOM      2  C   UNL A   1      31.867  32.356  27.208  1.00  0.00     0.275 C 
BRANCH   2   3
ATOM      3  O   UNL A   1      32.599  33.593  27.250  1.00  0.00    -0.458 OA
BRANCH   3   4
ATOM      4  C   UNL A   1      33.077  34.237  28.344  1.00  0.00     0.338 C 
ATOM      5  O   UNL A   1      32.519  35.257  28.744  1.00  0.00    -0.246 OA
BRANCH   4   6
ATOM      6  C   UNL A   1      34.355  33.837  28.991  1.00  0.00     0.060 A 
ATOM      7  C   UNL A   1      35.617  34.272  28.580  1.00  0.00     0.016 A 
ATOM      8  C   UNL A   1      34.261  32.951  30.075  1.00  0.00     0.016 A 
ATOM      9  C   UNL A   1      36.759  33.893  29.283  1.00  0.00     0.010 A 
ATOM     10  C   UNL A   1      35.402  32.560  30.778  1.00  0.00     0.010 A 
ATOM     11  C   UNL A   1      36.661  33.012  30.364  1.00  0.00    -0.014 A 
BRANCH  11  12
ATOM     12  C   UNL A   1      37.891  32.333  30.821  1.00  0.00     0.031 A 
ATOM     13  C   UNL A   1      38.422  32.733  32.165  1.00  0.00     0.074 A 
ATOM     14  C   UNL A   1      38.431  31.303  30.148  1.00  0.00     0.049 A 
ATOM     15  N   UNL A   1      39.359  32.176  32.883  1.00  0.00    -0.248 NA
ATOM     16  C   UNL A   1      37.772  33.887  32.815  1.00  0.00     0.031 C 
ATOM     17  C   UNL A   1      37.922  30.759  28.894  1.00  0.00     0.029 A 
ATOM     18  N   UNL A   1      39.517  30.517  30.436  1.00  0.00    -0.354 N 
ATOM     19  C   UNL A   1      39.355  32.862  34.087  1.00  0.00     0.074 A 
ATOM     20  C   UNL A   1      38.406  33.942  33.972  1.00  0.00     0.031 C 
ATOM     21  C   UNL A   1      38.721  29.756  28.492  1.00  0.00     0.029 A 
ATOM     22  C   UNL A   1      39.790  29.581  29.470  1.00  0.00     0.049 A 
ATOM     23  H   UNL A   1      40.050  30.616  31.258  1.00  0.00     0.167 HD
ATOM     24  C   UNL A   1      40.039  32.576  35.215  1.00  0.00     0.037 A 
ATOM     25  C   UNL A   1      40.785  28.676  29.394  1.00  0.00     0.037 A 
ATOM     26  C   UNL A   1      41.015  31.528  35.301  1.00  0.00     0.049 A 
ATOM     27  C   UNL A   1      41.687  28.503  30.585  1.00  0.00     0.074 A 
ATOM     28  C   UNL A   1      41.810  31.179  36.373  1.00  0.00     0.029 A 
ATOM     29  N   UNL A   1      41.344  30.679  34.253  1.00  0.00    -0.354 N 
ATOM     30  N   UNL A   1      41.656  29.133  31.735  1.00  0.00    -0.248 NA
ATOM     31  C   UNL A   1      42.722  27.466  30.495  1.00  0.00     0.031 C 
ATOM     32  C   UNL A   1      42.670  30.160  35.953  1.00  0.00     0.029 A 
ATOM     33  C   UNL A   1      42.359  29.824  34.643  1.00  0.00     0.049 A 
ATOM     34  H   UNL A   1      40.918  30.683  33.366  1.00  0.00     0.167 HD
ATOM     35  C   UNL A   1      42.623  28.533  32.528  1.00  0.00     0.074 A 
ATOM     36  C   UNL A   1      43.238  27.500  31.717  1.00  0.00     0.031 C 
ATOM     37  C   UNL A   1      42.949  28.797  33.818  1.00  0.00     0.037 A 
BRANCH  24  38
ATOM     38  C   UNL A   1      39.749  33.431  36.411  1.00  0.00     0.064 A 
ATOM     39  C   UNL A   1      40.413  34.650  36.592  1.00  0.00     0.173 A 
ATOM     40  C   UNL A   1      38.773  33.065  37.354  1.00  0.00     0.173 A 
ATOM     41  F   UNL A   1      41.345  35.050  35.715  1.00  0.00    -0.203 F 
ATOM     42  C   UNL A   1      40.107  35.476  37.670  1.00  0.00     0.198 A 
ATOM     43  C   UNL A   1      38.448  33.908  38.412  1.00  0.00     0.198 A 
ATOM     44  F   UNL A   1      38.086  31.921  37.207  1.00  0.00    -0.203 F 
ATOM     45  F   UNL A   1      40.758  36.638  37.827  1.00  0.00    -0.200 F 
ATOM     46  C   UNL A   1      39.119  35.111  38.572  1.00  0.00     0.200 A 
ATOM     47  F   UNL A   1      37.464  33.572  39.259  1.00  0.00    -0.200 F 
ATOM     48  F   UNL A   1      38.800  35.927  39.587  1.00  0.00    -0.200 F 
ENDBRANCH  24  38
BRANCH  25  49
ATOM     49  C   UNL A   1      40.930  27.846  28.171  1.00  0.00     0.064 A 
ATOM     50  C   UNL A   1      40.364  26.563  28.105  1.00  0.00     0.173 A 
ATOM     51  C   UNL A   1      41.667  28.288  27.066  1.00  0.00     0.173 A 
ATOM     52  F   UNL A   1      39.630  26.102  29.130  1.00  0.00    -0.203 F 
ATOM     53  C   UNL A   1      40.552  25.745  26.993  1.00  0.00     0.198 A 
ATOM     54  C   UNL A   1      41.839  27.477  25.944  1.00  0.00     0.198 A 
ATOM     55  F   UNL A   1      42.208  29.514  27.069  1.00  0.00    -0.203 F 
ATOM     56  F   UNL A   1      40.021  24.515  26.967  1.00  0.00    -0.200 F 
ATOM     57  C   UNL A   1      41.290  26.202  25.913  1.00  0.00     0.200 A 
ATOM     58  F   UNL A   1      42.534  27.930  24.892  1.00  0.00    -0.200 F 
ATOM     59  F   UNL A   1      41.469  25.420  24.839  1.00  0.00    -0.200 F 
ENDBRANCH  25  49
BRANCH  37  60
ATOM     60  C   UNL A   1      43.992  27.935  34.464  1.00  0.00     0.064 A 
ATOM     61  C   UNL A   1      43.615  26.750  35.115  1.00  0.00     0.173 A 
ATOM     62  C   UNL A   1      45.334  28.332  34.540  1.00  0.00     0.173 A 
ATOM     63  F   UNL A   1      42.339  26.335  35.079  1.00  0.00    -0.203 F 
ATOM     64  C   UNL A   1      44.538  26.009  35.844  1.00  0.00     0.198 A 
ATOM     65  C   UNL A   1      46.262  27.569  35.243  1.00  0.00     0.198 A 
ATOM     66  F   UNL A   1      45.744  29.451  33.926  1.00  0.00    -0.203 F 
ATOM     67  F   UNL A   1      44.143  24.910  36.503  1.00  0.00    -0.200 F 
ATOM     68  C   UNL A   1      45.861  26.417  35.905  1.00  0.00     0.200 A 
ATOM     69  F   UNL A   1      47.546  27.950  35.282  1.00  0.00    -0.200 F 
ATOM     70  F   UNL A   1      46.752  25.702  36.606  1.00  0.00    -0.200 F 
ENDBRANCH  37  60
ENDBRANCH  11  12
ENDBRANCH   4   6
ENDBRANCH   3   4
ENDBRANCH   2   3
ENDBRANCH   1   2
BRANCH   1  71
ATOM     71  O   UNL A   1      32.496  30.257  26.052  1.00  0.00    -0.458 OA
BRANCH  71  72
ATOM     72  C   UNL A   1      32.227  28.965  26.367  1.00  0.00     0.342 C 
ATOM     73  O   UNL A   1      31.898  28.576  27.475  1.00  0.00    -0.246 OA
BRANCH  72  74
ATOM     74  C   UNL A   1      32.550  28.027  25.258  1.00  0.00     0.103 A 
ATOM     75  C   UNL A   1      33.335  26.930  25.681  1.00  0.00     0.035 A 
ATOM     76  C   UNL A   1      32.179  28.108  23.910  1.00  0.00     0.134 A 
ATOM     77  C   UNL A   1      33.814  25.988  24.775  1.00  0.00     0.019 A 
ATOM     78  C   UNL A   1      32.745  27.183  23.004  1.00  0.00     0.048 A 
ATOM     79  Br  UNL A   1      34.787  24.491  25.389  1.00  0.00    -0.051 Br
ATOM     80  C   UNL A   1      33.564  26.139  23.423  1.00  0.00     0.019 A 
BRANCH  76  81
ATOM     81  O   UNL A   1      31.328  28.929  23.243  1.00  0.00    -0.488 OA
BRANCH  81  82
ATOM     82  C   UNL A   1      29.951  29.175  23.513  1.00  0.00     0.268 C 
BRANCH  82  83
ATOM     83  C   UNL A   1      29.201  30.306  22.866  1.00  0.00     0.025 A 
ATOM     84  C   UNL A   1      28.597  30.072  21.619  1.00  0.00     0.010 A 
ATOM     85  C   UNL A   1      29.095  31.579  23.425  1.00  0.00     0.129 A 
ATOM     86  C   UNL A   1      28.044  31.123  20.890  1.00  0.00     0.001 A 
ATOM     87  C   UNL A   1      28.578  32.639  22.689  1.00  0.00     0.039 A 
ATOM     88  F   UNL A   1      29.563  31.825  24.656  1.00  0.00    -0.207 F 
ATOM     89  C   UNL A   1      28.072  32.415  21.409  1.00  0.00     0.003 A 
ENDBRANCH  82  83
ENDBRANCH  81  82
ENDBRANCH  76  81
ENDBRANCH  72  74
ENDBRANCH  71  72
ENDBRANCH   1  71
TORSDOF 14
ENDMDL
MODEL 2
REMARK VINA RESULT:     -12.0      1.748      3.182
REMARK SMILES O=C(OCCOC(=O)c1cc(Br)ccc1OCc1ccccc1F)c1ccc(-c2c3nc(c(-c4c(F)c(F)c(F)c(F)c4F)c4ccc([nH]4)c(-c4c(F)c(F)c(F)c(F)c4F)c4nc(c(-c5c(F)c(F)c(F)c(F)c5F)c5ccc2[nH]5)C=C4)C=C3)cc1
REMARK SMILES IDX 5 1 4 2 3 3 2 4 1 5 25 6 26 7 87 8 27 9 86 10 28 11 29 12
REMARK SMILES IDX 30 13 80 14 31 15 85 16 79 17 81 18 32 19 84 20 78 21 77 22
REMARK SMILES IDX 33 24 65 25 45 26 64 27 46 28 49 29 63 30 82 31 47 32 48 33
REMARK SMILES IDX 62 35 83 36 50 37 34 38 35 39 43 40 36 41 37 42 41 43 44 44
REMARK SMILES IDX 38 45 39 46 42 47 40 48 66 49 67 50 75 51 68 52 69 53 73 54
REMARK SMILES IDX 76 55 70 56 71 57 74 58 72 59 51 60 52 61 60 62 53 63 54 64
REMARK SMILES IDX 58 65 61 66 55 67 56 68 59 69 57 70 6 71 7 72 8 73 9 74
REMARK SMILES IDX 10 75 15 76 11 77 14 78 12 79 13 80 16 81 17 82 18 83 19 84
REMARK SMILES IDX 23 85 20 86 22 87 24 88 21 89
REMARK H PARENT 81 23 49 34
REMARK Flexibility Score: inf
ROOT
ATOM      1  C   UNL A   1      32.650  31.008  27.174  1.00  0.00     0.275 C 
ENDROOT
BRANCH   1   2
ATOM      2  C   UNL A   1      31.800  32.278  27.170  1.00  0.00     0.275 C 
BRANCH   2   3
ATOM      3  O   UNL A   1      32.526  33.520  27.178  1.00  0.00    -0.458 OA
BRANCH   3   4
ATOM      4  C   UNL A   1      32.997  34.197  28.255  1.00  0.00     0.338 C 
ATOM      5  O   UNL A   1      32.429  35.221  28.629  1.00  0.00    -0.246 OA
BRANCH   4   6
ATOM      6  C   UNL A   1      34.281  33.828  28.910  1.00  0.00     0.060 A 
ATOM      7  C   UNL A   1      35.540  34.236  28.466  1.00  0.00     0.016 A 
ATOM      8  C   UNL A   1      34.195  33.000  30.040  1.00  0.00     0.016 A 
ATOM      9  C   UNL A   1      36.688  33.891  29.177  1.00  0.00     0.010 A 
ATOM     10  C   UNL A   1      35.341  32.643  30.753  1.00  0.00     0.010 A 
ATOM     11  C   UNL A   1      36.597  33.069  30.304  1.00  0.00    -0.014 A 
BRANCH  11  12
ATOM     12  C   UNL A   1      37.830  32.411  30.785  1.00  0.00     0.031 A 
ATOM     13  C   UNL A   1      38.343  32.840  32.127  1.00  0.00     0.074 A 
ATOM     14  C   UNL A   1      38.387  31.375  30.135  1.00  0.00     0.049 A 
ATOM     15  N   UNL A   1      39.279  32.306  32.864  1.00  0.00    -0.248 NA
ATOM     16  C   UNL A   1      37.674  33.998  32.750  1.00  0.00     0.031 C 
ATOM     17  C   UNL A   1      37.897  30.804  28.886  1.00  0.00     0.029 A 
ATOM     18  N   UNL A   1      39.478  30.606  30.448  1.00  0.00    -0.354 N 
ATOM     19  C   UNL A   1      39.255  33.012  34.055  1.00  0.00     0.074 A 
ATOM     20  C   UNL A   1      38.296  34.080  33.912  1.00  0.00     0.031 C 
ATOM     21  C   UNL A   1      38.710  29.803  28.510  1.00  0.00     0.029 A 
ATOM     22  C   UNL A   1      39.771  29.656  29.501  1.00  0.00     0.049 A 
ATOM     23  H   UNL A   1      40.002  30.724  31.273  1.00  0.00     0.167 HD
ATOM     24  C   UNL A   1      39.930  32.753  35.195  1.00  0.00     0.037 A 
ATOM     25  C   UNL A   1      40.776  28.761  29.451  1.00  0.00     0.037 A 
ATOM     26  C   UNL A   1      40.916  31.718  35.309  1.00  0.00     0.049 A 
ATOM     27  C   UNL A   1      41.668  28.618  30.653  1.00  0.00     0.074 A 
ATOM     28  C   UNL A   1      41.704  31.395  36.395  1.00  0.00     0.029 A 
ATOM     29  N   UNL A   1      41.265  30.853  34.280  1.00  0.00    -0.354 N 
ATOM     30  N   UNL A   1      41.618  29.267  31.792  1.00  0.00    -0.248 NA
ATOM     31  C   UNL A   1      42.714  27.591  30.592  1.00  0.00     0.031 C 
ATOM     32  C   UNL A   1      42.579  30.378  36.001  1.00  0.00     0.029 A 
ATOM     33  C   UNL A   1      42.285  30.016  34.694  1.00  0.00     0.049 A 
ATOM     34  H   UNL A   1      40.848  30.837  33.388  1.00  0.00     0.167 HD
ATOM     35  C   UNL A   1      42.583  28.691  32.605  1.00  0.00     0.074 A 
ATOM     36  C   UNL A   1      43.217  27.651  31.818  1.00  0.00     0.031 C 
ATOM     37  C   UNL A   1      42.894  28.982  33.893  1.00  0.00     0.037 A 
BRANCH  24  38
ATOM     38  C   UNL A   1      39.620  33.625  36.373  1.00  0.00     0.064 A 
ATOM     39  C   UNL A   1      38.739  33.189  37.371  1.00  0.00     0.173 A 
ATOM     40  C   UNL A   1      40.238  34.876  36.540  1.00  0.00     0.173 A 
ATOM     41  F   UNL A   1      38.133  31.998  37.264  1.00  0.00    -0.203 F 
ATOM     42  C   UNL A   1      38.492  33.970  38.496  1.00  0.00     0.198 A 
ATOM     43  C   UNL A   1      40.012  35.640  37.681  1.00  0.00     0.198 A 
ATOM     44  F   UNL A   1      41.115  35.325  35.628  1.00  0.00    -0.203 F 
ATOM     45  F   UNL A   1      37.642  33.535  39.437  1.00  0.00    -0.200 F 
ATOM     46  C   UNL A   1      39.136  35.188  38.656  1.00  0.00     0.200 A 
ATOM     47  F   UNL A   1      40.667  36.797  37.854  1.00  0.00    -0.200 F 
ATOM     48  F   UNL A   1      38.924  35.919  39.760  1.00  0.00    -0.200 F 
ENDBRANCH  24  38
BRANCH  25  49
ATOM     49  C   UNL A   1      40.942  27.911  28.244  1.00  0.00     0.064 A 
ATOM     50  C   UNL A   1      40.379  26.626  28.190  1.00  0.00     0.173 A 
ATOM     51  C   UNL A   1      41.696  28.336  27.143  1.00  0.00     0.173 A 
ATOM     52  F   UNL A   1      39.631  26.181  29.210  1.00  0.00    -0.203 F 
ATOM     53  C   UNL A   1      40.587  25.791  27.094  1.00  0.00     0.198 A 
ATOM     54  C   UNL A   1      41.887  27.507  26.038  1.00  0.00     0.198 A 
ATOM     55  F   UNL A   1      42.234  29.564  27.135  1.00  0.00    -0.203 F 
ATOM     56  F   UNL A   1      40.059  24.559  27.080  1.00  0.00    -0.200 F 
ATOM     57  C   UNL A   1      41.341  26.232  26.019  1.00  0.00     0.200 A 
ATOM     58  F   UNL A   1      42.597  27.945  24.990  1.00  0.00    -0.200 F 
ATOM     59  F   UNL A   1      41.539  25.432  24.961  1.00  0.00    -0.200 F 
ENDBRANCH  25  49
BRANCH  37  60
ATOM     60  C   UNL A   1      43.939  28.142  34.564  1.00  0.00     0.064 A 
ATOM     61  C   UNL A   1      43.568  26.966  35.234  1.00  0.00     0.173 A 
ATOM     62  C   UNL A   1      45.277  28.553  34.645  1.00  0.00     0.173 A 
ATOM     63  F   UNL A   1      42.296  26.538  35.196  1.00  0.00    -0.203 F 
ATOM     64  C   UNL A   1      44.491  26.247  35.986  1.00  0.00     0.198 A 
ATOM     65  C   UNL A   1      46.206  27.812  35.369  1.00  0.00     0.198 A 
ATOM     66  F   UNL A   1      45.681  29.664  34.012  1.00  0.00    -0.203 F 
ATOM     67  F   UNL A   1      44.101  25.158  36.662  1.00  0.00    -0.200 F 
ATOM     68  C   UNL A   1      45.810  26.669  36.050  1.00  0.00     0.200 A 
ATOM     69  F   UNL A   1      47.486  28.206  35.412  1.00  0.00    -0.200 F 
ATOM     70  F   UNL A   1      46.701  25.977  36.772  1.00  0.00    -0.200 F 
ENDBRANCH  37  60
ENDBRANCH  11  12
ENDBRANCH   4   6
ENDBRANCH   3   4
ENDBRANCH   2   3
ENDBRANCH   1   2
BRANCH   1  71
ATOM     71  O   UNL A   1      31.876  29.804  27.279  1.00  0.00    -0.458 OA
BRANCH  71  72
ATOM     72  C   UNL A   1      32.470  28.739  26.685  1.00  0.00     0.342 C 
ATOM     73  O   UNL A   1      33.660  28.479  26.760  1.00  0.00    -0.246 OA
BRANCH  72  74
ATOM     74  C   UNL A   1      31.553  28.007  25.771  1.00  0.00     0.103 A 
ATOM     75  C   UNL A   1      31.198  28.764  24.631  1.00  0.00     0.035 A 
ATOM     76  C   UNL A   1      31.031  26.714  25.910  1.00  0.00     0.134 A 
ATOM     77  C   UNL A   1      30.279  28.286  23.701  1.00  0.00     0.019 A 
ATOM     78  C   UNL A   1      30.043  26.291  24.994  1.00  0.00     0.048 A 
ATOM     79  Br  UNL A   1      29.894  29.289  22.148  1.00  0.00    -0.051 Br
ATOM     80  C   UNL A   1      29.657  27.068  23.905  1.00  0.00     0.019 A 
BRANCH  76  81
ATOM     81  O   UNL A   1      31.294  25.710  26.785  1.00  0.00    -0.488 OA
BRANCH  81  82
ATOM     82  C   UNL A   1      31.912  24.454  26.521  1.00  0.00     0.268 C 
BRANCH  82  83
ATOM     83  C   UNL A   1      32.642  24.179  25.236  1.00  0.00     0.025 A 
ATOM     84  C   UNL A   1      32.047  23.306  24.309  1.00  0.00     0.010 A 
ATOM     85  C   UNL A   1      33.887  24.725  24.926  1.00  0.00     0.129 A 
ATOM     86  C   UNL A   1      32.752  22.875  23.187  1.00  0.00     0.001 A 
ATOM     87  C   UNL A   1      34.611  24.272  23.828  1.00  0.00     0.039 A 
ATOM     88  F   UNL A   1      34.449  25.641  25.726  1.00  0.00    -0.207 F 
ATOM     89  C   UNL A   1      34.051  23.327  22.969  1.00  0.00     0.003 A 
ENDBRANCH  82  83
ENDBRANCH  81  82
ENDBRANCH  76  81
ENDBRANCH  72  74
ENDBRANCH  71  72
ENDBRANCH   1  71
TORSDOF 14
ENDMDL
MODEL 3
REMARK VINA RESULT:     -11.9      5.832     10.948
REMARK SMILES O=C(OCCOC(=O)c1cc(Br)ccc1OCc1ccccc1F)c1ccc(-c2c3nc(c(-c4c(F)c(F)c(F)c(F)c4F)c4ccc([nH]4)c(-c4c(F)c(F)c(F)c(F)c4F)c4nc(c(-c5c(F)c(F)c(F)c(F)c5F)c5ccc2[nH]5)C=C4)C=C3)cc1
REMARK SMILES IDX 5 1 4 2 3 3 2 4 1 5 25 6 26 7 87 8 27 9 86 10 28 11 29 12
REMARK SMILES IDX 30 13 80 14 31 15 85 16 79 17 81 18 32 19 84 20 78 21 77 22
REMARK SMILES IDX 33 24 65 25 45 26 64 27 46 28 49 29 63 30 82 31 47 32 48 33
REMARK SMILES IDX 62 35 83 36 50 37 34 38 35 39 43 40 36 41 37 42 41 43 44 44
REMARK SMILES IDX 38 45 39 46 42 47 40 48 66 49 67 50 75 51 68 52 69 53 73 54
REMARK SMILES IDX 76 55 70 56 71 57 74 58 72 59 51 60 52 61 60 62 53 63 54 64
REMARK SMILES IDX 58 65 61 66 55 67 56 68 59 69 57 70 6 71 7 72 8 73 9 74
REMARK SMILES IDX 10 75 15 76 11 77 14 78 12 79 13 80 16 81 17 82 18 83 19 84
REMARK SMILES IDX 23 85 20 86 22 87 24 88 21 89
REMARK H PARENT 81 23 49 34
REMARK Flexibility Score: inf
ROOT
ATOM      1  C   UNL A   1      38.058  21.204  25.172  1.00  0.00     0.275 C 
ENDROOT
BRANCH   1   2
ATOM      2  C   UNL A   1      38.693  19.814  25.154  1.00  0.00     0.275 C 
BRANCH   2   3
ATOM      3  O   UNL A   1      39.694  19.568  26.158  1.00  0.00    -0.458 OA
BRANCH   3   4
ATOM      4  C   UNL A   1      41.033  19.764  26.057  1.00  0.00     0.338 C 
ATOM      5  O   UNL A   1      41.759  18.844  25.687  1.00  0.00    -0.246 OA
BRANCH   4   6
ATOM      6  C   UNL A   1      41.678  21.017  26.534  1.00  0.00     0.060 A 
ATOM      7  C   UNL A   1      42.000  21.281  27.866  1.00  0.00     0.016 A 
ATOM      8  C   UNL A   1      41.957  21.990  25.562  1.00  0.00     0.016 A 
ATOM      9  C   UNL A   1      42.659  22.460  28.215  1.00  0.00     0.010 A 
ATOM     10  C   UNL A   1      42.608  23.177  25.905  1.00  0.00     0.010 A 
ATOM     11  C   UNL A   1      42.937  23.424  27.243  1.00  0.00    -0.014 A 
BRANCH  11  12
ATOM     12  C   UNL A   1      43.262  24.793  27.696  1.00  0.00     0.031 A 
ATOM     13  C   UNL A   1      44.680  25.245  27.513  1.00  0.00     0.074 A 
ATOM     14  C   UNL A   1      42.315  25.652  28.110  1.00  0.00     0.049 A 
ATOM     15  N   UNL A   1      45.191  26.439  27.644  1.00  0.00    -0.248 NA
ATOM     16  C   UNL A   1      45.646  24.222  27.071  1.00  0.00     0.031 C 
ATOM     17  C   UNL A   1      40.892  25.351  28.210  1.00  0.00     0.029 A 
ATOM     18  N   UNL A   1      42.408  26.961  28.507  1.00  0.00    -0.354 N 
ATOM     19  C   UNL A   1      46.508  26.321  27.229  1.00  0.00     0.074 A 
ATOM     20  C   UNL A   1      46.755  24.928  26.947  1.00  0.00     0.031 C 
ATOM     21  C   UNL A   1      40.245  26.429  28.685  1.00  0.00     0.029 A 
ATOM     22  C   UNL A   1      41.211  27.500  28.910  1.00  0.00     0.049 A 
ATOM     23  H   UNL A   1      43.253  27.467  28.503  1.00  0.00     0.167 HD
ATOM     24  C   UNL A   1      47.416  27.302  27.039  1.00  0.00     0.037 A 
ATOM     25  C   UNL A   1      40.928  28.725  29.392  1.00  0.00     0.037 A 
ATOM     26  C   UNL A   1      47.173  28.676  27.369  1.00  0.00     0.049 A 
ATOM     27  C   UNL A   1      42.012  29.768  29.375  1.00  0.00     0.074 A 
ATOM     28  C   UNL A   1      48.033  29.750  27.272  1.00  0.00     0.029 A 
ATOM     29  N   UNL A   1      45.977  29.155  27.890  1.00  0.00    -0.354 N 
ATOM     30  N   UNL A   1      43.247  29.659  28.949  1.00  0.00    -0.248 NA
ATOM     31  C   UNL A   1      41.655  31.111  29.849  1.00  0.00     0.031 C 
ATOM     32  C   UNL A   1      47.381  30.869  27.799  1.00  0.00     0.029 A 
ATOM     33  C   UNL A   1      46.089  30.508  28.153  1.00  0.00     0.049 A 
ATOM     34  H   UNL A   1      45.171  28.613  28.047  1.00  0.00     0.167 HD
ATOM     35  C   UNL A   1      43.800  30.927  29.047  1.00  0.00     0.074 A 
ATOM     36  C   UNL A   1      42.768  31.787  29.592  1.00  0.00     0.031 C 
ATOM     37  C   UNL A   1      45.041  31.344  28.690  1.00  0.00     0.037 A 
BRANCH  24  38
ATOM     38  C   UNL A   1      48.740  26.890  26.471  1.00  0.00     0.064 A 
ATOM     39  C   UNL A   1      49.719  26.315  27.290  1.00  0.00     0.173 A 
ATOM     40  C   UNL A   1      49.020  27.020  25.100  1.00  0.00     0.173 A 
ATOM     41  F   UNL A   1      49.496  26.159  28.603  1.00  0.00    -0.203 F 
ATOM     42  C   UNL A   1      50.928  25.878  26.757  1.00  0.00     0.198 A 
ATOM     43  C   UNL A   1      50.217  26.553  24.566  1.00  0.00     0.198 A 
ATOM     44  F   UNL A   1      48.102  27.536  24.267  1.00  0.00    -0.203 F 
ATOM     45  F   UNL A   1      51.853  25.333  27.560  1.00  0.00    -0.200 F 
ATOM     46  C   UNL A   1      51.173  25.986  25.396  1.00  0.00     0.200 A 
ATOM     47  F   UNL A   1      50.434  26.621  23.245  1.00  0.00    -0.200 F 
ATOM     48  F   UNL A   1      52.323  25.528  24.882  1.00  0.00    -0.200 F 
ENDBRANCH  24  38
BRANCH  25  49
ATOM     49  C   UNL A   1      39.556  29.026  29.874  1.00  0.00     0.064 A 
ATOM     50  C   UNL A   1      39.184  28.741  31.198  1.00  0.00     0.173 A 
ATOM     51  C   UNL A   1      38.578  29.557  29.025  1.00  0.00     0.173 A 
ATOM     52  F   UNL A   1      40.091  28.251  32.057  1.00  0.00    -0.203 F 
ATOM     53  C   UNL A   1      37.881  28.951  31.645  1.00  0.00     0.198 A 
ATOM     54  C   UNL A   1      37.279  29.786  29.478  1.00  0.00     0.198 A 
ATOM     55  F   UNL A   1      38.889  29.868  27.759  1.00  0.00    -0.203 F 
ATOM     56  F   UNL A   1      37.547  28.647  32.906  1.00  0.00    -0.200 F 
ATOM     57  C   UNL A   1      36.929  29.473  30.784  1.00  0.00     0.200 A 
ATOM     58  F   UNL A   1      36.366  30.312  28.650  1.00  0.00    -0.200 F 
ATOM     59  F   UNL A   1      35.675  29.680  31.212  1.00  0.00    -0.200 F 
ENDBRANCH  25  49
BRANCH  37  60
ATOM     60  C   UNL A   1      45.355  32.803  28.833  1.00  0.00     0.064 A 
ATOM     61  C   UNL A   1      45.075  33.685  27.777  1.00  0.00     0.173 A 
ATOM     62  C   UNL A   1      46.030  33.307  29.952  1.00  0.00     0.173 A 
ATOM     63  F   UNL A   1      44.440  33.247  26.679  1.00  0.00    -0.203 F 
ATOM     64  C   UNL A   1      45.486  35.013  27.825  1.00  0.00     0.198 A 
ATOM     65  C   UNL A   1      46.409  34.645  30.012  1.00  0.00     0.198 A 
ATOM     66  F   UNL A   1      46.310  32.505  30.990  1.00  0.00    -0.203 F 
ATOM     67  F   UNL A   1      45.257  35.823  26.782  1.00  0.00    -0.200 F 
ATOM     68  C   UNL A   1      46.150  35.492  28.943  1.00  0.00     0.200 A 
ATOM     69  F   UNL A   1      47.030  35.114  31.103  1.00  0.00    -0.200 F 
ATOM     70  F   UNL A   1      46.545  36.771  28.992  1.00  0.00    -0.200 F 
ENDBRANCH  37  60
ENDBRANCH  11  12
ENDBRANCH   4   6
ENDBRANCH   3   4
ENDBRANCH   2   3
ENDBRANCH   1   2
BRANCH   1  71
ATOM     71  O   UNL A   1      36.785  21.257  24.511  1.00  0.00    -0.458 OA
BRANCH  71  72
ATOM     72  C   UNL A   1      35.741  21.295  25.376  1.00  0.00     0.342 C 
ATOM     73  O   UNL A   1      35.812  21.677  26.532  1.00  0.00    -0.246 OA
BRANCH  72  74
ATOM     74  C   UNL A   1      34.520  20.646  24.828  1.00  0.00     0.103 A 
ATOM     75  C   UNL A   1      34.654  19.245  24.701  1.00  0.00     0.035 A 
ATOM     76  C   UNL A   1      33.311  21.243  24.444  1.00  0.00     0.134 A 
ATOM     77  C   UNL A   1      33.652  18.468  24.125  1.00  0.00     0.019 A 
ATOM     78  C   UNL A   1      32.348  20.442  23.792  1.00  0.00     0.048 A 
ATOM     79  Br  UNL A   1      33.834  16.590  24.049  1.00  0.00    -0.051 Br
ATOM     80  C   UNL A   1      32.515  19.070  23.620  1.00  0.00     0.019 A 
BRANCH  76  81
ATOM     81  O   UNL A   1      32.830  22.504  24.583  1.00  0.00    -0.488 OA
BRANCH  81  82
ATOM     82  C   UNL A   1      32.395  23.153  25.775  1.00  0.00     0.268 C 
BRANCH  82  83
ATOM     83  C   UNL A   1      32.505  24.641  25.958  1.00  0.00     0.025 A 
ATOM     84  C   UNL A   1      31.332  25.363  26.236  1.00  0.00     0.010 A 
ATOM     85  C   UNL A   1      33.703  25.344  25.843  1.00  0.00     0.129 A 
ATOM     86  C   UNL A   1      31.340  26.757  26.240  1.00  0.00     0.001 A 
ATOM     87  C   UNL A   1      33.714  26.734  25.809  1.00  0.00     0.039 A 
ATOM     88  F   UNL A   1      34.864  24.694  25.682  1.00  0.00    -0.207 F 
ATOM     89  C   UNL A   1      32.525  27.442  25.984  1.00  0.00     0.003 A 
ENDBRANCH  82  83
ENDBRANCH  81  82
ENDBRANCH  76  81
ENDBRANCH  72  74
ENDBRANCH  71  72
ENDBRANCH   1  71
TORSDOF 14
ENDMDL
