MODEL 1
REMARK VINA RESULT:     -10.8      0.000      0.000
REMARK SMILES O=C(Cc1ccc(=O)n(C(F)F)c1)OCCOC(=O)c1ccc(-c2c3nc(c(-c4c(F)c(F)c(F)c(F)c4F)c4ccc([nH]4)c(-c4c(F)c(F)c(F)c(F)c4F)c4nc(c(-c5c(F)c(F)c(F)c(F)c5F)c5ccc2[nH]5)C=C4)C=C3)cc1
REMARK SMILES IDX 15 1 14 2 2 3 1 4 3 5 4 6 5 7 13 8 6 9 9 10 7 11 8 12 10 13
REMARK SMILES IDX 11 14 12 15 16 16 17 17 18 18 19 19 20 20 21 21 82 22 22 23
REMARK SMILES IDX 81 24 23 25 24 26 25 27 75 28 26 29 80 30 74 31 76 32 27 33
REMARK SMILES IDX 79 34 73 35 72 36 28 38 60 39 40 40 59 41 41 42 44 43 58 44
REMARK SMILES IDX 77 45 42 46 43 47 57 49 78 50 45 51 29 52 30 53 38 54 31 55
REMARK SMILES IDX 32 56 36 57 39 58 33 59 34 60 37 61 35 62 61 63 62 64 70 65
REMARK SMILES IDX 63 66 64 67 68 68 71 69 65 70 66 71 69 72 67 73 46 74 47 75
REMARK SMILES IDX 55 76 48 77 49 78 53 79 56 80 50 81 51 82 54 83 52 84
REMARK H PARENT 76 37 44 48
REMARK Flexibility Score: inf
ROOT
ATOM      1  C   UNL A   1      44.102  21.610  25.516  1.00  0.00     0.274 C 
ENDROOT
BRANCH   1   2
ATOM      2  O   UNL A   1      43.403  20.363  25.314  1.00  0.00    -0.462 OA
BRANCH   2   3
ATOM      3  C   UNL A   1      42.338  19.931  26.023  1.00  0.00     0.310 C 
ATOM      4  O   UNL A   1      41.853  18.823  25.801  1.00  0.00    -0.252 OA
BRANCH   3   5
ATOM      5  C   UNL A   1      41.742  20.835  27.084  1.00  0.00     0.159 C 
BRANCH   5   6
ATOM      6  C   UNL A   1      40.536  21.659  26.727  1.00  0.00    -0.020 A 
ATOM      7  C   UNL A   1      40.337  22.980  27.279  1.00  0.00     0.011 A 
ATOM      8  C   UNL A   1      39.597  21.155  25.904  1.00  0.00     0.099 A 
ATOM      9  C   UNL A   1      39.232  23.681  26.994  1.00  0.00     0.072 A 
ATOM     10  N   UNL A   1      38.443  21.852  25.598  1.00  0.00    -0.258 N 
ATOM     11  C   UNL A   1      38.171  23.106  26.123  1.00  0.00     0.254 A 
ATOM     12  O   UNL A   1      37.149  23.755  25.936  1.00  0.00    -0.269 OA
BRANCH  10  13
ATOM     13  C   UNL A   1      37.408  21.230  24.809  1.00  0.00     0.451 C 
ATOM     14  F   UNL A   1      37.294  21.849  23.608  1.00  0.00    -0.185 F 
ATOM     15  F   UNL A   1      37.655  19.918  24.592  1.00  0.00    -0.185 F 
ENDBRANCH  10  13
ENDBRANCH   5   6
ENDBRANCH   3   5
ENDBRANCH   2   3
ENDBRANCH   1   2
BRANCH   1  16
ATOM     16  C   UNL A   1      43.752  22.618  24.419  1.00  0.00     0.275 C 
BRANCH  16  17
ATOM     17  O   UNL A   1      43.285  23.841  25.018  1.00  0.00    -0.458 OA
BRANCH  17  18
ATOM     18  C   UNL A   1      44.224  24.772  25.317  1.00  0.00     0.338 C 
ATOM     19  O   UNL A   1      45.245  25.008  24.699  1.00  0.00    -0.246 OA
BRANCH  18  20
ATOM     20  C   UNL A   1      43.673  25.647  26.381  1.00  0.00     0.060 A 
ATOM     21  C   UNL A   1      44.032  26.996  26.480  1.00  0.00     0.016 A 
ATOM     22  C   UNL A   1      42.874  25.058  27.369  1.00  0.00     0.016 A 
ATOM     23  C   UNL A   1      43.606  27.748  27.576  1.00  0.00     0.010 A 
ATOM     24  C   UNL A   1      42.452  25.811  28.468  1.00  0.00     0.010 A 
ATOM     25  C   UNL A   1      42.818  27.159  28.578  1.00  0.00    -0.014 A 
BRANCH  25  26
ATOM     26  C   UNL A   1      42.286  27.993  29.679  1.00  0.00     0.031 A 
ATOM     27  C   UNL A   1      41.032  28.796  29.525  1.00  0.00     0.074 A 
ATOM     28  C   UNL A   1      42.947  27.993  30.850  1.00  0.00     0.049 A 
ATOM     29  N   UNL A   1      40.372  29.469  30.433  1.00  0.00    -0.248 NA
ATOM     30  C   UNL A   1      40.436  28.842  28.184  1.00  0.00     0.031 C 
ATOM     31  C   UNL A   1      44.179  27.249  31.113  1.00  0.00     0.029 A 
ATOM     32  N   UNL A   1      42.673  28.626  32.034  1.00  0.00    -0.354 N 
ATOM     33  C   UNL A   1      39.260  29.989  29.787  1.00  0.00     0.074 A 
ATOM     34  C   UNL A   1      39.359  29.590  28.396  1.00  0.00     0.031 C 
ATOM     35  C   UNL A   1      44.543  27.448  32.387  1.00  0.00     0.029 A 
ATOM     36  C   UNL A   1      43.581  28.346  33.022  1.00  0.00     0.049 A 
ATOM     37  H   UNL A   1      41.899  29.221  32.161  1.00  0.00     0.167 HD
ATOM     38  C   UNL A   1      38.247  30.719  30.315  1.00  0.00     0.037 A 
ATOM     39  C   UNL A   1      43.629  28.758  34.301  1.00  0.00     0.037 A 
ATOM     40  C   UNL A   1      38.185  31.164  31.685  1.00  0.00     0.049 A 
ATOM     41  C   UNL A   1      42.546  29.649  34.833  1.00  0.00     0.074 A 
ATOM     42  C   UNL A   1      37.191  31.898  32.311  1.00  0.00     0.029 A 
ATOM     43  N   UNL A   1      39.169  30.942  32.637  1.00  0.00    -0.354 N 
ATOM     44  N   UNL A   1      41.467  30.086  34.232  1.00  0.00    -0.248 NA
ATOM     45  C   UNL A   1      42.688  30.102  36.224  1.00  0.00     0.031 C 
ATOM     46  C   UNL A   1      37.597  32.161  33.625  1.00  0.00     0.029 A 
ATOM     47  C   UNL A   1      38.823  31.550  33.835  1.00  0.00     0.049 A 
ATOM     48  H   UNL A   1      39.995  30.426  32.486  1.00  0.00     0.167 HD
ATOM     49  C   UNL A   1      40.790  30.851  35.172  1.00  0.00     0.074 A 
ATOM     50  C   UNL A   1      41.576  30.806  36.389  1.00  0.00     0.031 C 
ATOM     51  C   UNL A   1      39.622  31.524  35.036  1.00  0.00     0.037 A 
BRANCH  38  52
ATOM     52  C   UNL A   1      37.114  31.083  29.400  1.00  0.00     0.064 A 
ATOM     53  C   UNL A   1      36.112  30.152  29.081  1.00  0.00     0.173 A 
ATOM     54  C   UNL A   1      36.990  32.382  28.889  1.00  0.00     0.173 A 
ATOM     55  F   UNL A   1      36.192  28.893  29.541  1.00  0.00    -0.203 F 
ATOM     56  C   UNL A   1      35.035  30.507  28.274  1.00  0.00     0.198 A 
ATOM     57  C   UNL A   1      35.900  32.740  28.098  1.00  0.00     0.198 A 
ATOM     58  F   UNL A   1      37.915  33.311  29.171  1.00  0.00    -0.203 F 
ATOM     59  F   UNL A   1      34.099  29.596  27.971  1.00  0.00    -0.200 F 
ATOM     60  C   UNL A   1      34.925  31.801  27.789  1.00  0.00     0.200 A 
ATOM     61  F   UNL A   1      35.788  33.995  27.642  1.00  0.00    -0.200 F 
ATOM     62  F   UNL A   1      33.880  32.147  27.025  1.00  0.00    -0.200 F 
ENDBRANCH  38  52
BRANCH  39  63
ATOM     63  C   UNL A   1      44.727  28.274  35.170  1.00  0.00     0.064 A 
ATOM     64  C   UNL A   1      44.585  27.089  35.902  1.00  0.00     0.173 A 
ATOM     65  C   UNL A   1      45.958  28.945  35.231  1.00  0.00     0.173 A 
ATOM     66  F   UNL A   1      43.420  26.425  35.881  1.00  0.00    -0.203 F 
ATOM     67  C   UNL A   1      45.639  26.586  36.660  1.00  0.00     0.198 A 
ATOM     68  C   UNL A   1      47.016  28.430  35.973  1.00  0.00     0.198 A 
ATOM     69  F   UNL A   1      46.137  30.079  34.538  1.00  0.00    -0.203 F 
ATOM     70  F   UNL A   1      45.477  25.455  37.360  1.00  0.00    -0.200 F 
ATOM     71  C   UNL A   1      46.857  27.252  36.687  1.00  0.00     0.200 A 
ATOM     72  F   UNL A   1      48.195  29.067  35.984  1.00  0.00    -0.200 F 
ATOM     73  F   UNL A   1      47.878  26.755  37.399  1.00  0.00    -0.200 F 
ENDBRANCH  39  63
BRANCH  51  74
ATOM     74  C   UNL A   1      39.118  32.272  36.237  1.00  0.00     0.064 A 
ATOM     75  C   UNL A   1      38.225  31.683  37.145  1.00  0.00     0.173 A 
ATOM     76  C   UNL A   1      39.551  33.580  36.498  1.00  0.00     0.173 A 
ATOM     77  F   UNL A   1      37.767  30.439  36.930  1.00  0.00    -0.203 F 
ATOM     78  C   UNL A   1      37.767  32.384  38.257  1.00  0.00     0.198 A 
ATOM     79  C   UNL A   1      39.111  34.269  37.625  1.00  0.00     0.198 A 
ATOM     80  F   UNL A   1      40.406  34.189  35.662  1.00  0.00    -0.203 F 
ATOM     81  F   UNL A   1      36.879  31.818  39.086  1.00  0.00    -0.200 F 
ATOM     82  C   UNL A   1      38.215  33.674  38.500  1.00  0.00     0.200 A 
ATOM     83  F   UNL A   1      39.552  35.513  37.863  1.00  0.00    -0.200 F 
ATOM     84  F   UNL A   1      37.775  34.347  39.572  1.00  0.00    -0.200 F 
ENDBRANCH  51  74
ENDBRANCH  25  26
ENDBRANCH  18  20
ENDBRANCH  17  18
ENDBRANCH  16  17
ENDBRANCH   1  16
TORSDOF 13
ENDMDL
MODEL 2
REMARK VINA RESULT:     -10.7      4.373     10.407
REMARK SMILES O=C(Cc1ccc(=O)n(C(F)F)c1)OCCOC(=O)c1ccc(-c2c3nc(c(-c4c(F)c(F)c(F)c(F)c4F)c4ccc([nH]4)c(-c4c(F)c(F)c(F)c(F)c4F)c4nc(c(-c5c(F)c(F)c(F)c(F)c5F)c5ccc2[nH]5)C=C4)C=C3)cc1
REMARK SMILES IDX 15 1 14 2 2 3 1 4 3 5 4 6 5 7 13 8 6 9 9 10 7 11 8 12 10 13
REMARK SMILES IDX 11 14 12 15 16 16 17 17 18 18 19 19 20 20 21 21 82 22 22 23
REMARK SMILES IDX 81 24 23 25 24 26 25 27 75 28 26 29 80 30 74 31 76 32 27 33
REMARK SMILES IDX 79 34 73 35 72 36 28 38 60 39 40 40 59 41 41 42 44 43 58 44
REMARK SMILES IDX 77 45 42 46 43 47 57 49 78 50 45 51 29 52 30 53 38 54 31 55
REMARK SMILES IDX 32 56 36 57 39 58 33 59 34 60 37 61 35 62 61 63 62 64 70 65
REMARK SMILES IDX 63 66 64 67 68 68 71 69 65 70 66 71 69 72 67 73 46 74 47 75
REMARK SMILES IDX 55 76 48 77 49 78 53 79 56 80 50 81 51 82 54 83 52 84
REMARK H PARENT 76 37 44 48
REMARK Flexibility Score: inf
ROOT
ATOM      1  C   UNL A   1      32.139  31.996  27.229  1.00  0.00     0.274 C 
ENDROOT
BRANCH   1   2
ATOM      2  O   UNL A   1      32.731  30.681  27.293  1.00  0.00    -0.462 OA
BRANCH   2   3
ATOM      3  C   UNL A   1      32.189  29.546  26.799  1.00  0.00     0.310 C 
ATOM      4  O   UNL A   1      31.494  28.828  27.516  1.00  0.00    -0.252 OA
BRANCH   3   5
ATOM      5  C   UNL A   1      32.459  29.166  25.357  1.00  0.00     0.159 C 
BRANCH   5   6
ATOM      6  C   UNL A   1      31.317  29.204  24.381  1.00  0.00    -0.020 A 
ATOM      7  C   UNL A   1      31.126  28.157  23.403  1.00  0.00     0.011 A 
ATOM      8  C   UNL A   1      30.464  30.246  24.384  1.00  0.00     0.099 A 
ATOM      9  C   UNL A   1      30.136  28.231  22.505  1.00  0.00     0.072 A 
ATOM     10  N   UNL A   1      29.437  30.353  23.465  1.00  0.00    -0.258 N 
ATOM     11  C   UNL A   1      29.222  29.406  22.476  1.00  0.00     0.254 A 
ATOM     12  O   UNL A   1      28.367  29.463  21.600  1.00  0.00    -0.269 OA
BRANCH  10  13
ATOM     13  C   UNL A   1      28.620  31.542  23.424  1.00  0.00     0.451 C 
ATOM     14  F   UNL A   1      27.478  31.353  24.132  1.00  0.00    -0.185 F 
ATOM     15  F   UNL A   1      29.265  32.618  23.932  1.00  0.00    -0.185 F 
ENDBRANCH  10  13
ENDBRANCH   5   6
ENDBRANCH   3   5
ENDBRANCH   2   3
ENDBRANCH   1   2
BRANCH   1  16
ATOM     16  C   UNL A   1      33.098  33.056  27.776  1.00  0.00     0.275 C 
BRANCH  16  17
ATOM     17  O   UNL A   1      32.399  34.304  27.934  1.00  0.00    -0.458 OA
BRANCH  17  18
ATOM     18  C   UNL A   1      32.945  35.207  28.786  1.00  0.00     0.338 C 
ATOM     19  O   UNL A   1      32.439  36.241  29.181  1.00  0.00    -0.246 OA
BRANCH  18  20
ATOM     20  C   UNL A   1      34.163  34.597  29.374  1.00  0.00     0.060 A 
ATOM     21  C   UNL A   1      35.404  34.671  28.730  1.00  0.00     0.016 A 
ATOM     22  C   UNL A   1      34.020  33.832  30.539  1.00  0.00     0.016 A 
ATOM     23  C   UNL A   1      36.493  33.964  29.243  1.00  0.00     0.010 A 
ATOM     24  C   UNL A   1      35.110  33.122  31.048  1.00  0.00     0.010 A 
ATOM     25  C   UNL A   1      36.351  33.182  30.401  1.00  0.00    -0.014 A 
BRANCH  25  26
ATOM     26  C   UNL A   1      37.538  32.524  30.993  1.00  0.00     0.031 A 
ATOM     27  C   UNL A   1      38.060  32.906  32.343  1.00  0.00     0.074 A 
ATOM     28  C   UNL A   1      38.131  31.541  30.293  1.00  0.00     0.049 A 
ATOM     29  N   UNL A   1      39.005  32.336  33.047  1.00  0.00    -0.248 NA
ATOM     30  C   UNL A   1      37.437  34.068  32.989  1.00  0.00     0.031 C 
ATOM     31  C   UNL A   1      37.708  31.087  28.969  1.00  0.00     0.029 A 
ATOM     32  N   UNL A   1      39.201  30.742  30.601  1.00  0.00    -0.354 N 
ATOM     33  C   UNL A   1      39.066  33.043  34.239  1.00  0.00     0.074 A 
ATOM     34  C   UNL A   1      38.092  34.114  34.143  1.00  0.00     0.031 C 
ATOM     35  C   UNL A   1      38.496  30.072  28.585  1.00  0.00     0.029 A 
ATOM     36  C   UNL A   1      39.487  29.819  29.628  1.00  0.00     0.049 A 
ATOM     37  H   UNL A   1      39.712  30.824  31.438  1.00  0.00     0.167 HD
ATOM     38  C   UNL A   1      39.855  32.806  35.316  1.00  0.00     0.037 A 
ATOM     39  C   UNL A   1      40.436  28.867  29.585  1.00  0.00     0.037 A 
ATOM     40  C   UNL A   1      40.864  31.777  35.383  1.00  0.00     0.049 A 
ATOM     41  C   UNL A   1      41.363  28.692  30.751  1.00  0.00     0.074 A 
ATOM     42  C   UNL A   1      41.703  31.457  36.437  1.00  0.00     0.029 A 
ATOM     43  N   UNL A   1      41.192  30.919  34.343  1.00  0.00    -0.354 N 
ATOM     44  N   UNL A   1      41.375  29.324  31.899  1.00  0.00    -0.248 NA
ATOM     45  C   UNL A   1      42.406  27.667  30.615  1.00  0.00     0.031 C 
ATOM     46  C   UNL A   1      42.569  30.440  36.019  1.00  0.00     0.029 A 
ATOM     47  C   UNL A   1      42.240  30.091  34.719  1.00  0.00     0.049 A 
ATOM     48  H   UNL A   1      40.745  30.899  33.466  1.00  0.00     0.167 HD
ATOM     49  C   UNL A   1      42.413  28.766  32.630  1.00  0.00     0.074 A 
ATOM     50  C   UNL A   1      43.000  27.732  31.800  1.00  0.00     0.031 C 
ATOM     51  C   UNL A   1      42.836  29.081  33.879  1.00  0.00     0.037 A 
BRANCH  38  52
ATOM     52  C   UNL A   1      39.656  33.681  36.520  1.00  0.00     0.064 A 
ATOM     53  C   UNL A   1      40.266  34.942  36.609  1.00  0.00     0.173 A 
ATOM     54  C   UNL A   1      38.803  33.288  37.561  1.00  0.00     0.173 A 
ATOM     55  F   UNL A   1      41.096  35.358  35.640  1.00  0.00    -0.203 F 
ATOM     56  C   UNL A   1      40.039  35.772  37.703  1.00  0.00     0.198 A 
ATOM     57  C   UNL A   1      38.562  34.130  38.645  1.00  0.00     0.198 A 
ATOM     58  F   UNL A   1      38.189  32.097  37.520  1.00  0.00    -0.203 F 
ATOM     59  F   UNL A   1      40.644  36.966  37.772  1.00  0.00    -0.200 F 
ATOM     60  C   UNL A   1      39.182  35.369  38.717  1.00  0.00     0.200 A 
ATOM     61  F   UNL A   1      37.722  33.746  39.617  1.00  0.00    -0.200 F 
ATOM     62  F   UNL A   1      38.950  36.176  39.762  1.00  0.00    -0.200 F 
ENDBRANCH  38  52
BRANCH  39  63
ATOM     63  C   UNL A   1      40.505  27.977  28.403  1.00  0.00     0.064 A 
ATOM     64  C   UNL A   1      41.256  28.343  27.279  1.00  0.00     0.173 A 
ATOM     65  C   UNL A   1      39.884  26.719  28.400  1.00  0.00     0.173 A 
ATOM     66  F   UNL A   1      41.855  29.542  27.237  1.00  0.00    -0.203 F 
ATOM     67  C   UNL A   1      41.390  27.479  26.196  1.00  0.00     0.198 A 
ATOM     68  C   UNL A   1      40.034  25.850  27.325  1.00  0.00     0.198 A 
ATOM     69  F   UNL A   1      39.161  26.327  29.460  1.00  0.00    -0.203 F 
ATOM     70  F   UNL A   1      42.106  27.855  25.128  1.00  0.00    -0.200 F 
ATOM     71  C   UNL A   1      40.787  26.229  26.224  1.00  0.00     0.200 A 
ATOM     72  F   UNL A   1      39.465  24.637  27.362  1.00  0.00    -0.200 F 
ATOM     73  F   UNL A   1      40.935  25.389  25.190  1.00  0.00    -0.200 F 
ENDBRANCH  39  63
BRANCH  51  74
ATOM     74  C   UNL A   1      43.995  28.298  34.427  1.00  0.00     0.064 A 
ATOM     75  C   UNL A   1      43.803  27.081  35.098  1.00  0.00     0.173 A 
ATOM     76  C   UNL A   1      45.310  28.755  34.259  1.00  0.00     0.173 A 
ATOM     77  F   UNL A   1      42.563  26.610  35.300  1.00  0.00    -0.203 F 
ATOM     78  C   UNL A   1      44.885  26.361  35.600  1.00  0.00     0.198 A 
ATOM     79  C   UNL A   1      46.391  28.020  34.740  1.00  0.00     0.198 A 
ATOM     80  F   UNL A   1      45.549  29.913  33.625  1.00  0.00    -0.203 F 
ATOM     81  F   UNL A   1      44.674  25.224  36.277  1.00  0.00    -0.200 F 
ATOM     82  C   UNL A   1      46.178  26.828  35.415  1.00  0.00     0.200 A 
ATOM     83  F   UNL A   1      47.641  28.468  34.553  1.00  0.00    -0.200 F 
ATOM     84  F   UNL A   1      47.217  26.133  35.897  1.00  0.00    -0.200 F 
ENDBRANCH  51  74
ENDBRANCH  25  26
ENDBRANCH  18  20
ENDBRANCH  17  18
ENDBRANCH  16  17
ENDBRANCH   1  16
TORSDOF 13
ENDMDL
MODEL 3
REMARK VINA RESULT:     -10.6      4.193      9.552
REMARK SMILES O=C(Cc1ccc(=O)n(C(F)F)c1)OCCOC(=O)c1ccc(-c2c3nc(c(-c4c(F)c(F)c(F)c(F)c4F)c4ccc([nH]4)c(-c4c(F)c(F)c(F)c(F)c4F)c4nc(c(-c5c(F)c(F)c(F)c(F)c5F)c5ccc2[nH]5)C=C4)C=C3)cc1
REMARK SMILES IDX 15 1 14 2 2 3 1 4 3 5 4 6 5 7 13 8 6 9 9 10 7 11 8 12 10 13
REMARK SMILES IDX 11 14 12 15 16 16 17 17 18 18 19 19 20 20 21 21 82 22 22 23
REMARK SMILES IDX 81 24 23 25 24 26 25 27 75 28 26 29 80 30 74 31 76 32 27 33
REMARK SMILES IDX 79 34 73 35 72 36 28 38 60 39 40 40 59 41 41 42 44 43 58 44
REMARK SMILES IDX 77 45 42 46 43 47 57 49 78 50 45 51 29 52 30 53 38 54 31 55
REMARK SMILES IDX 32 56 36 57 39 58 33 59 34 60 37 61 35 62 61 63 62 64 70 65
REMARK SMILES IDX 63 66 64 67 68 68 71 69 65 70 66 71 69 72 67 73 46 74 47 75
REMARK SMILES IDX 55 76 48 77 49 78 53 79 56 80 50 81 51 82 54 83 52 84
REMARK H PARENT 76 37 44 48
REMARK Flexibility Score: inf
ROOT
ATOM      1  C   UNL A   1      31.734  28.367  27.541  1.00  0.00     0.274 C 
ENDROOT
BRANCH   1   2
ATOM      2  O   UNL A   1      31.039  27.201  27.047  1.00  0.00    -0.462 OA
BRANCH   2   3
ATOM      3  C   UNL A   1      31.495  26.354  26.099  1.00  0.00     0.310 C 
ATOM      4  O   UNL A   1      32.619  25.864  26.192  1.00  0.00    -0.252 OA
BRANCH   3   5
ATOM      5  C   UNL A   1      30.607  26.026  24.914  1.00  0.00     0.159 C 
BRANCH   5   6
ATOM      6  C   UNL A   1      30.290  27.120  23.933  1.00  0.00    -0.020 A 
ATOM      7  C   UNL A   1      31.327  27.748  23.145  1.00  0.00     0.011 A 
ATOM      8  C   UNL A   1      29.024  27.558  23.800  1.00  0.00     0.099 A 
ATOM      9  C   UNL A   1      31.038  28.758  22.315  1.00  0.00     0.072 A 
ATOM     10  N   UNL A   1      28.697  28.603  22.956  1.00  0.00    -0.258 N 
ATOM     11  C   UNL A   1      29.646  29.275  22.202  1.00  0.00     0.254 A 
ATOM     12  O   UNL A   1      29.435  30.240  21.476  1.00  0.00    -0.269 OA
BRANCH  10  13
ATOM     13  C   UNL A   1      27.350  29.121  22.930  1.00  0.00     0.451 C 
ATOM     14  F   UNL A   1      26.495  28.238  23.503  1.00  0.00    -0.185 F 
ATOM     15  F   UNL A   1      27.249  30.301  23.585  1.00  0.00    -0.185 F 
ENDBRANCH  10  13
ENDBRANCH   5   6
ENDBRANCH   3   5
ENDBRANCH   2   3
ENDBRANCH   1   2
BRANCH   1  16
ATOM     16  C   UNL A   1      31.696  29.503  26.516  1.00  0.00     0.275 C 
BRANCH  16  17
ATOM     17  O   UNL A   1      33.033  29.969  26.260  1.00  0.00    -0.458 OA
BRANCH  17  18
ATOM     18  C   UNL A   1      33.440  31.066  26.945  1.00  0.00     0.338 C 
ATOM     19  O   UNL A   1      32.799  32.080  27.152  1.00  0.00    -0.246 OA
BRANCH  18  20
ATOM     20  C   UNL A   1      34.708  30.726  27.636  1.00  0.00     0.060 A 
ATOM     21  C   UNL A   1      35.001  29.415  28.027  1.00  0.00     0.016 A 
ATOM     22  C   UNL A   1      35.559  31.776  28.004  1.00  0.00     0.016 A 
ATOM     23  C   UNL A   1      36.135  29.160  28.800  1.00  0.00     0.010 A 
ATOM     24  C   UNL A   1      36.691  31.520  28.781  1.00  0.00     0.010 A 
ATOM     25  C   UNL A   1      36.984  30.210  29.185  1.00  0.00    -0.014 A 
BRANCH  25  26
ATOM     26  C   UNL A   1      38.237  29.913  29.914  1.00  0.00     0.031 A 
ATOM     27  C   UNL A   1      38.517  30.486  31.268  1.00  0.00     0.074 A 
ATOM     28  C   UNL A   1      39.123  29.082  29.337  1.00  0.00     0.049 A 
ATOM     29  N   UNL A   1      39.505  30.218  32.084  1.00  0.00    -0.248 NA
ATOM     30  C   UNL A   1      37.563  31.479  31.778  1.00  0.00     0.031 C 
ATOM     31  C   UNL A   1      38.954  28.466  28.021  1.00  0.00     0.029 A 
ATOM     32  N   UNL A   1      40.327  28.605  29.784  1.00  0.00    -0.354 N 
ATOM     33  C   UNL A   1      39.274  30.977  33.222  1.00  0.00     0.074 A 
ATOM     34  C   UNL A   1      38.074  31.753  32.972  1.00  0.00     0.031 C 
ATOM     35  C   UNL A   1      40.006  27.672  27.775  1.00  0.00     0.029 A 
ATOM     36  C   UNL A   1      40.927  27.739  28.907  1.00  0.00     0.049 A 
ATOM     37  H   UNL A   1      40.720  28.859  30.650  1.00  0.00     0.167 HD
ATOM     38  C   UNL A   1      39.993  31.008  34.371  1.00  0.00     0.037 A 
ATOM     39  C   UNL A   1      42.086  27.064  29.007  1.00  0.00     0.037 A 
ATOM     40  C   UNL A   1      41.219  30.280  34.591  1.00  0.00     0.049 A 
ATOM     41  C   UNL A   1      42.914  27.195  30.251  1.00  0.00     0.074 A 
ATOM     42  C   UNL A   1      42.009  30.243  35.727  1.00  0.00     0.029 A 
ATOM     43  N   UNL A   1      41.849  29.484  33.645  1.00  0.00    -0.354 N 
ATOM     44  N   UNL A   1      42.658  27.867  31.346  1.00  0.00    -0.248 NA
ATOM     45  C   UNL A   1      44.191  26.469  30.272  1.00  0.00     0.031 C 
ATOM     46  C   UNL A   1      43.141  29.464  35.453  1.00  0.00     0.029 A 
ATOM     47  C   UNL A   1      43.033  28.976  34.161  1.00  0.00     0.049 A 
ATOM     48  H   UNL A   1      41.506  29.303  32.740  1.00  0.00     0.167 HD
ATOM     49  C   UNL A   1      43.731  27.635  32.195  1.00  0.00     0.074 A 
ATOM     50  C   UNL A   1      44.635  26.747  31.491  1.00  0.00     0.031 C 
ATOM     51  C   UNL A   1      43.942  28.113  33.446  1.00  0.00     0.037 A 
BRANCH  38  52
ATOM     52  C   UNL A   1      39.467  31.862  35.488  1.00  0.00     0.064 A 
ATOM     53  C   UNL A   1      38.563  31.346  36.430  1.00  0.00     0.173 A 
ATOM     54  C   UNL A   1      39.912  33.180  35.657  1.00  0.00     0.173 A 
ATOM     55  F   UNL A   1      38.103  30.092  36.305  1.00  0.00    -0.203 F 
ATOM     56  C   UNL A   1      38.116  32.124  37.494  1.00  0.00     0.198 A 
ATOM     57  C   UNL A   1      39.478  33.950  36.735  1.00  0.00     0.198 A 
ATOM     58  F   UNL A   1      40.782  33.717  34.789  1.00  0.00    -0.203 F 
ATOM     59  F   UNL A   1      37.241  31.615  38.373  1.00  0.00    -0.200 F 
ATOM     60  C   UNL A   1      38.578  33.423  37.650  1.00  0.00     0.200 A 
ATOM     61  F   UNL A   1      39.938  35.199  36.892  1.00  0.00    -0.200 F 
ATOM     62  F   UNL A   1      38.160  34.166  38.683  1.00  0.00    -0.200 F 
ENDBRANCH  38  52
BRANCH  39  63
ATOM     63  C   UNL A   1      42.488  26.162  27.903  1.00  0.00     0.064 A 
ATOM     64  C   UNL A   1      41.936  24.880  27.794  1.00  0.00     0.173 A 
ATOM     65  C   UNL A   1      43.374  26.586  26.902  1.00  0.00     0.173 A 
ATOM     66  F   UNL A   1      41.095  24.431  28.738  1.00  0.00    -0.203 F 
ATOM     67  C   UNL A   1      42.250  24.055  26.718  1.00  0.00     0.198 A 
ATOM     68  C   UNL A   1      43.671  25.768  25.817  1.00  0.00     0.198 A 
ATOM     69  F   UNL A   1      43.920  27.810  26.964  1.00  0.00    -0.203 F 
ATOM     70  F   UNL A   1      41.716  22.829  26.639  1.00  0.00    -0.200 F 
ATOM     71  C   UNL A   1      43.109  24.503  25.725  1.00  0.00     0.200 A 
ATOM     72  F   UNL A   1      44.489  26.211  24.851  1.00  0.00    -0.200 F 
ATOM     73  F   UNL A   1      43.393  23.717  24.677  1.00  0.00    -0.200 F 
ENDBRANCH  39  63
BRANCH  51  74
ATOM     74  C   UNL A   1      45.205  27.686  34.138  1.00  0.00     0.064 A 
ATOM     75  C   UNL A   1      45.257  26.513  34.906  1.00  0.00     0.173 A 
ATOM     76  C   UNL A   1      46.380  28.442  34.013  1.00  0.00     0.173 A 
ATOM     77  F   UNL A   1      44.155  25.765  35.072  1.00  0.00    -0.203 F 
ATOM     78  C   UNL A   1      46.434  26.125  35.542  1.00  0.00     0.198 A 
ATOM     79  C   UNL A   1      47.561  28.036  34.628  1.00  0.00     0.198 A 
ATOM     80  F   UNL A   1      46.384  29.571  33.289  1.00  0.00    -0.203 F 
ATOM     81  F   UNL A   1      46.448  25.025  36.308  1.00  0.00    -0.200 F 
ATOM     82  C   UNL A   1      47.586  26.883  35.397  1.00  0.00     0.200 A 
ATOM     83  F   UNL A   1      48.677  28.766  34.480  1.00  0.00    -0.200 F 
ATOM     84  F   UNL A   1      48.718  26.506  36.008  1.00  0.00    -0.200 F 
ENDBRANCH  51  74
ENDBRANCH  25  26
ENDBRANCH  18  20
ENDBRANCH  17  18
ENDBRANCH  16  17
ENDBRANCH   1  16
TORSDOF 13
ENDMDL
