MODEL 1
REMARK VINA RESULT:     -10.9      0.000      0.000
REMARK SMILES CC(C)(C)[NH2+]Cc1cc(C(=O)OCCOC(=O)c2ccc(-c3c4nc(c(-c5c(F)c(F)c(F)c(F)c5F)c5ccc([nH]5)c(-c5c(F)c(F)c(F)c(F)c5F)c5nc(c(-c6c(F)c(F)c(F)c(F)c6F)c6ccc3[nH]6)C=C5)C=C4)cc2)cs1
REMARK SMILES IDX 13 1 12 2 10 3 11 4 9 5 7 6 8 7 82 8 81 9 6 10 5 11 2 14
REMARK SMILES IDX 1 15 3 16 4 17 14 18 15 19 16 20 17 21 18 22 19 23 80 24
REMARK SMILES IDX 20 25 79 26 21 27 22 28 23 29 73 30 24 31 78 32 72 33 74 34
REMARK SMILES IDX 25 35 77 36 71 37 70 38 26 40 58 41 38 42 57 43 39 44 42 45
REMARK SMILES IDX 56 46 75 47 40 48 41 49 55 51 76 52 43 53 27 54 28 55 36 56
REMARK SMILES IDX 29 57 30 58 34 59 37 60 31 61 32 62 35 63 33 64 59 65 60 66
REMARK SMILES IDX 68 67 61 68 62 69 66 70 69 71 63 72 64 73 67 74 65 75 44 76
REMARK SMILES IDX 45 77 53 78 46 79 47 80 51 81 54 82 48 83 49 84 52 85 50 86
REMARK H PARENT 5 12 5 13 74 39 42 50
REMARK Flexibility Score: inf
ROOT
ATOM      1  C   UNL A   1      31.378  28.541  24.880  1.00  0.00     0.275 C 
ENDROOT
BRANCH   1   2
ATOM      2  O   UNL A   1      32.281  27.581  25.461  1.00  0.00    -0.458 OA
BRANCH   2   3
ATOM      3  C   UNL A   1      31.725  26.743  26.379  1.00  0.00     0.339 C 
ATOM      4  O   UNL A   1      31.060  27.107  27.340  1.00  0.00    -0.246 OA
BRANCH   3   5
ATOM      5  C   UNL A   1      32.001  25.340  26.105  1.00  0.00     0.071 A 
ATOM      6  C   UNL A   1      33.271  23.401  26.096  1.00  0.00     0.060 A 
ATOM      7  C   UNL A   1      33.303  24.773  25.930  1.00  0.00     0.037 A 
ATOM      8  S   UNL A   1      31.694  22.783  25.875  1.00  0.00    -0.142 S 
ATOM      9  C   UNL A   1      31.040  24.346  26.089  1.00  0.00     0.081 A 
BRANCH   6  10
ATOM     10  C   UNL A   1      34.385  22.498  26.506  1.00  0.00     0.308 C 
BRANCH  10  11
ATOM     11  N   UNL A   1      35.669  23.209  26.510  1.00  0.00    -0.338 N 
ATOM     12  H   UNL A   1      35.455  24.205  26.449  1.00  0.00     0.347 HD
ATOM     13  H   UNL A   1      36.121  22.885  27.365  1.00  0.00     0.347 HD
BRANCH  11  14
ATOM     14  C   UNL A   1      36.665  22.918  25.458  1.00  0.00     0.088 C 
ATOM     15  C   UNL A   1      36.164  23.310  24.061  1.00  0.00     0.078 C 
ATOM     16  C   UNL A   1      37.178  21.465  25.425  1.00  0.00     0.078 C 
ATOM     17  C   UNL A   1      37.879  23.801  25.816  1.00  0.00     0.078 C 
ENDBRANCH  11  14
ENDBRANCH  10  11
ENDBRANCH   6  10
ENDBRANCH   3   5
ENDBRANCH   2   3
ENDBRANCH   1   2
BRANCH   1  18
ATOM     18  C   UNL A   1      31.592  29.926  25.495  1.00  0.00     0.275 C 
BRANCH  18  19
ATOM     19  O   UNL A   1      32.976  30.123  25.848  1.00  0.00    -0.458 OA
BRANCH  19  20
ATOM     20  C   UNL A   1      33.215  31.070  26.783  1.00  0.00     0.338 C 
ATOM     21  O   UNL A   1      32.470  31.968  27.139  1.00  0.00    -0.246 OA
BRANCH  20  22
ATOM     22  C   UNL A   1      34.527  30.840  27.405  1.00  0.00     0.060 A 
ATOM     23  C   UNL A   1      34.877  29.546  27.775  1.00  0.00     0.016 A 
ATOM     24  C   UNL A   1      35.343  31.909  27.763  1.00  0.00     0.016 A 
ATOM     25  C   UNL A   1      35.976  29.314  28.588  1.00  0.00     0.010 A 
ATOM     26  C   UNL A   1      36.523  31.661  28.476  1.00  0.00     0.010 A 
ATOM     27  C   UNL A   1      36.839  30.362  28.918  1.00  0.00    -0.014 A 
BRANCH  27  28
ATOM     28  C   UNL A   1      38.065  30.086  29.711  1.00  0.00     0.031 A 
ATOM     29  C   UNL A   1      39.141  29.197  29.156  1.00  0.00     0.074 A 
ATOM     30  C   UNL A   1      38.217  30.644  30.929  1.00  0.00     0.049 A 
ATOM     31  N   UNL A   1      40.181  28.679  29.761  1.00  0.00    -0.248 NA
ATOM     32  C   UNL A   1      39.031  28.832  27.736  1.00  0.00     0.031 C 
ATOM     33  C   UNL A   1      37.280  31.577  31.558  1.00  0.00     0.029 A 
ATOM     34  N   UNL A   1      39.219  30.510  31.859  1.00  0.00    -0.354 N 
ATOM     35  C   UNL A   1      40.814  27.887  28.812  1.00  0.00     0.074 A 
ATOM     36  C   UNL A   1      40.044  27.990  27.591  1.00  0.00     0.031 C 
ATOM     37  C   UNL A   1      37.760  31.953  32.752  1.00  0.00     0.029 A 
ATOM     38  C   UNL A   1      38.984  31.209  33.019  1.00  0.00     0.049 A 
ATOM     39  H   UNL A   1      40.024  29.965  31.711  1.00  0.00     0.167 HD
ATOM     40  C   UNL A   1      41.935  27.139  28.956  1.00  0.00     0.037 A 
ATOM     41  C   UNL A   1      39.645  31.209  34.191  1.00  0.00     0.037 A 
ATOM     42  C   UNL A   1      42.717  27.082  30.164  1.00  0.00     0.049 A 
ATOM     43  C   UNL A   1      40.848  30.323  34.346  1.00  0.00     0.074 A 
ATOM     44  C   UNL A   1      43.880  26.370  30.408  1.00  0.00     0.029 A 
ATOM     45  N   UNL A   1      42.422  27.774  31.331  1.00  0.00    -0.354 N 
ATOM     46  N   UNL A   1      41.412  29.536  33.462  1.00  0.00    -0.248 NA
ATOM     47  C   UNL A   1      41.492  30.308  35.665  1.00  0.00     0.031 C 
ATOM     48  C   UNL A   1      44.260  26.595  31.736  1.00  0.00     0.029 A 
ATOM     49  C   UNL A   1      43.365  27.488  32.304  1.00  0.00     0.049 A 
ATOM     50  H   UNL A   1      41.654  28.380  31.448  1.00  0.00     0.167 HD
ATOM     51  C   UNL A   1      42.483  28.941  34.112  1.00  0.00     0.074 A 
ATOM     52  C   UNL A   1      42.503  29.475  35.459  1.00  0.00     0.031 C 
ATOM     53  C   UNL A   1      43.369  28.032  33.638  1.00  0.00     0.037 A 
BRANCH  40  54
ATOM     54  C   UNL A   1      42.360  26.288  27.795  1.00  0.00     0.064 A 
ATOM     55  C   UNL A   1      41.790  25.032  27.543  1.00  0.00     0.173 A 
ATOM     56  C   UNL A   1      43.332  26.759  26.897  1.00  0.00     0.173 A 
ATOM     57  F   UNL A   1      40.867  24.530  28.377  1.00  0.00    -0.203 F 
ATOM     58  C   UNL A   1      42.196  24.268  26.450  1.00  0.00     0.198 A 
ATOM     59  C   UNL A   1      43.714  26.006  25.790  1.00  0.00     0.198 A 
ATOM     60  F   UNL A   1      43.905  27.957  27.089  1.00  0.00    -0.203 F 
ATOM     61  F   UNL A   1      41.671  23.051  26.254  1.00  0.00    -0.200 F 
ATOM     62  C   UNL A   1      43.151  24.758  25.572  1.00  0.00     0.200 A 
ATOM     63  F   UNL A   1      44.627  26.488  24.936  1.00  0.00    -0.200 F 
ATOM     64  F   UNL A   1      43.533  24.026  24.516  1.00  0.00    -0.200 F 
ENDBRANCH  40  54
BRANCH  41  65
ATOM     65  C   UNL A   1      39.145  32.034  35.323  1.00  0.00     0.064 A 
ATOM     66  C   UNL A   1      38.359  31.469  36.335  1.00  0.00     0.173 A 
ATOM     67  C   UNL A   1      39.452  33.400  35.419  1.00  0.00     0.173 A 
ATOM     68  F   UNL A   1      38.018  30.174  36.274  1.00  0.00    -0.203 F 
ATOM     69  C   UNL A   1      37.892  32.242  37.397  1.00  0.00     0.198 A 
ATOM     70  C   UNL A   1      39.012  34.163  36.498  1.00  0.00     0.198 A 
ATOM     71  F   UNL A   1      40.200  33.991  34.476  1.00  0.00    -0.203 F 
ATOM     72  F   UNL A   1      37.108  31.686  38.331  1.00  0.00    -0.200 F 
ATOM     73  C   UNL A   1      38.227  33.584  37.484  1.00  0.00     0.200 A 
ATOM     74  F   UNL A   1      39.352  35.456  36.585  1.00  0.00    -0.200 F 
ATOM     75  F   UNL A   1      37.786  34.323  38.511  1.00  0.00    -0.200 F 
ENDBRANCH  41  65
BRANCH  53  76
ATOM     76  C   UNL A   1      44.450  27.581  34.574  1.00  0.00     0.064 A 
ATOM     77  C   UNL A   1      44.271  26.485  35.429  1.00  0.00     0.173 A 
ATOM     78  C   UNL A   1      45.693  28.231  34.586  1.00  0.00     0.173 A 
ATOM     79  F   UNL A   1      43.093  25.844  35.466  1.00  0.00    -0.203 F 
ATOM     80  C   UNL A   1      45.291  26.068  36.280  1.00  0.00     0.198 A 
ATOM     81  C   UNL A   1      46.720  27.795  35.417  1.00  0.00     0.198 A 
ATOM     82  F   UNL A   1      45.915  29.283  33.783  1.00  0.00    -0.203 F 
ATOM     83  F   UNL A   1      45.084  25.046  37.121  1.00  0.00    -0.200 F 
ATOM     84  C   UNL A   1      46.516  26.717  36.267  1.00  0.00     0.200 A 
ATOM     85  F   UNL A   1      47.908  28.415  35.396  1.00  0.00    -0.200 F 
ATOM     86  F   UNL A   1      47.500  26.310  37.081  1.00  0.00    -0.200 F 
ENDBRANCH  53  76
ENDBRANCH  27  28
ENDBRANCH  20  22
ENDBRANCH  19  20
ENDBRANCH  18  19
ENDBRANCH   1  18
TORSDOF 14
ENDMDL
MODEL 2
REMARK VINA RESULT:     -10.8      4.845      9.917
REMARK SMILES CC(C)(C)[NH2+]Cc1cc(C(=O)OCCOC(=O)c2ccc(-c3c4nc(c(-c5c(F)c(F)c(F)c(F)c5F)c5ccc([nH]5)c(-c5c(F)c(F)c(F)c(F)c5F)c5nc(c(-c6c(F)c(F)c(F)c(F)c6F)c6ccc3[nH]6)C=C5)C=C4)cc2)cs1
REMARK SMILES IDX 13 1 12 2 10 3 11 4 9 5 7 6 8 7 82 8 81 9 6 10 5 11 2 14
REMARK SMILES IDX 1 15 3 16 4 17 14 18 15 19 16 20 17 21 18 22 19 23 80 24
REMARK SMILES IDX 20 25 79 26 21 27 22 28 23 29 73 30 24 31 78 32 72 33 74 34
REMARK SMILES IDX 25 35 77 36 71 37 70 38 26 40 58 41 38 42 57 43 39 44 42 45
REMARK SMILES IDX 56 46 75 47 40 48 41 49 55 51 76 52 43 53 27 54 28 55 36 56
REMARK SMILES IDX 29 57 30 58 34 59 37 60 31 61 32 62 35 63 33 64 59 65 60 66
REMARK SMILES IDX 68 67 61 68 62 69 66 70 69 71 63 72 64 73 67 74 65 75 44 76
REMARK SMILES IDX 45 77 53 78 46 79 47 80 51 81 54 82 48 83 49 84 52 85 50 86
REMARK H PARENT 5 12 5 13 74 39 42 50
REMARK Flexibility Score: inf
ROOT
ATOM      1  C   UNL A   1      37.047  22.151  23.566  1.00  0.00     0.275 C 
ENDROOT
BRANCH   1   2
ATOM      2  O   UNL A   1      36.419  23.334  24.096  1.00  0.00    -0.458 OA
BRANCH   2   3
ATOM      3  C   UNL A   1      35.084  23.442  23.851  1.00  0.00     0.339 C 
ATOM      4  O   UNL A   1      34.589  24.181  23.010  1.00  0.00    -0.246 OA
BRANCH   3   5
ATOM      5  C   UNL A   1      34.280  22.576  24.701  1.00  0.00     0.071 A 
ATOM      6  C   UNL A   1      33.226  20.603  25.311  1.00  0.00     0.060 A 
ATOM      7  C   UNL A   1      33.535  21.440  24.254  1.00  0.00     0.037 A 
ATOM      8  S   UNL A   1      33.300  21.433  26.803  1.00  0.00    -0.142 S 
ATOM      9  C   UNL A   1      34.220  22.676  26.079  1.00  0.00     0.081 A 
BRANCH   6  10
ATOM     10  C   UNL A   1      32.946  19.139  25.274  1.00  0.00     0.308 C 
BRANCH  10  11
ATOM     11  N   UNL A   1      34.155  18.378  24.939  1.00  0.00    -0.338 N 
ATOM     12  H   UNL A   1      34.521  18.769  24.071  1.00  0.00     0.347 HD
ATOM     13  H   UNL A   1      34.738  18.474  25.771  1.00  0.00     0.347 HD
BRANCH  11  14
ATOM     14  C   UNL A   1      34.064  16.916  24.747  1.00  0.00     0.088 C 
ATOM     15  C   UNL A   1      32.751  16.339  25.296  1.00  0.00     0.078 C 
ATOM     16  C   UNL A   1      35.248  16.105  25.309  1.00  0.00     0.078 C 
ATOM     17  C   UNL A   1      34.090  16.721  23.216  1.00  0.00     0.078 C 
ENDBRANCH  11  14
ENDBRANCH  10  11
ENDBRANCH   6  10
ENDBRANCH   3   5
ENDBRANCH   2   3
ENDBRANCH   1   2
BRANCH   1  18
ATOM     18  C   UNL A   1      37.287  21.124  24.674  1.00  0.00     0.275 C 
BRANCH  18  19
ATOM     19  O   UNL A   1      37.774  21.762  25.871  1.00  0.00    -0.458 OA
BRANCH  19  20
ATOM     20  C   UNL A   1      39.063  21.507  26.190  1.00  0.00     0.338 C 
ATOM     21  O   UNL A   1      39.677  20.466  26.029  1.00  0.00    -0.246 OA
BRANCH  20  22
ATOM     22  C   UNL A   1      39.696  22.721  26.725  1.00  0.00     0.060 A 
ATOM     23  C   UNL A   1      39.319  23.958  26.211  1.00  0.00     0.016 A 
ATOM     24  C   UNL A   1      40.762  22.636  27.616  1.00  0.00     0.016 A 
ATOM     25  C   UNL A   1      40.058  25.097  26.490  1.00  0.00     0.010 A 
ATOM     26  C   UNL A   1      41.430  23.806  27.999  1.00  0.00     0.010 A 
ATOM     27  C   UNL A   1      41.101  25.047  27.420  1.00  0.00    -0.014 A 
BRANCH  27  28
ATOM     28  C   UNL A   1      41.825  26.293  27.783  1.00  0.00     0.031 A 
ATOM     29  C   UNL A   1      41.156  27.337  28.630  1.00  0.00     0.074 A 
ATOM     30  C   UNL A   1      43.091  26.481  27.360  1.00  0.00     0.049 A 
ATOM     31  N   UNL A   1      41.538  28.563  28.888  1.00  0.00    -0.248 NA
ATOM     32  C   UNL A   1      39.884  26.960  29.265  1.00  0.00     0.031 C 
ATOM     33  C   UNL A   1      43.880  25.519  26.587  1.00  0.00     0.029 A 
ATOM     34  N   UNL A   1      43.942  27.548  27.520  1.00  0.00    -0.354 N 
ATOM     35  C   UNL A   1      40.530  29.117  29.666  1.00  0.00     0.074 A 
ATOM     36  C   UNL A   1      39.518  28.097  29.839  1.00  0.00     0.031 C 
ATOM     37  C   UNL A   1      45.102  26.023  26.365  1.00  0.00     0.029 A 
ATOM     38  C   UNL A   1      45.150  27.382  26.887  1.00  0.00     0.049 A 
ATOM     39  H   UNL A   1      43.708  28.352  28.036  1.00  0.00     0.167 HD
ATOM     40  C   UNL A   1      40.460  30.369  30.182  1.00  0.00     0.037 A 
ATOM     41  C   UNL A   1      46.165  28.246  26.694  1.00  0.00     0.037 A 
ATOM     42  C   UNL A   1      41.496  31.359  30.040  1.00  0.00     0.049 A 
ATOM     43  C   UNL A   1      46.035  29.646  27.221  1.00  0.00     0.074 A 
ATOM     44  C   UNL A   1      41.531  32.651  30.539  1.00  0.00     0.029 A 
ATOM     45  N   UNL A   1      42.688  31.165  29.355  1.00  0.00    -0.354 N 
ATOM     46  N   UNL A   1      45.056  30.181  27.910  1.00  0.00    -0.248 NA
ATOM     47  C   UNL A   1      47.137  30.569  26.924  1.00  0.00     0.031 C 
ATOM     48  C   UNL A   1      42.722  33.251  30.117  1.00  0.00     0.029 A 
ATOM     49  C   UNL A   1      43.453  32.318  29.398  1.00  0.00     0.049 A 
ATOM     50  H   UNL A   1      42.949  30.328  28.905  1.00  0.00     0.167 HD
ATOM     51  C   UNL A   1      45.429  31.497  28.140  1.00  0.00     0.074 A 
ATOM     52  C   UNL A   1      46.734  31.673  27.535  1.00  0.00     0.031 C 
ATOM     53  C   UNL A   1      44.751  32.472  28.792  1.00  0.00     0.037 A 
BRANCH  40  54
ATOM     54  C   UNL A   1      39.205  30.754  30.910  1.00  0.00     0.064 A 
ATOM     55  C   UNL A   1      39.064  30.584  32.296  1.00  0.00     0.173 A 
ATOM     56  C   UNL A   1      38.138  31.339  30.211  1.00  0.00     0.173 A 
ATOM     57  F   UNL A   1      40.049  30.018  33.009  1.00  0.00    -0.203 F 
ATOM     58  C   UNL A   1      37.893  30.962  32.947  1.00  0.00     0.198 A 
ATOM     59  C   UNL A   1      36.980  31.742  30.870  1.00  0.00     0.198 A 
ATOM     60  F   UNL A   1      38.223  31.531  28.885  1.00  0.00    -0.203 F 
ATOM     61  F   UNL A   1      37.762  30.748  34.264  1.00  0.00    -0.200 F 
ATOM     62  C   UNL A   1      36.856  31.546  32.237  1.00  0.00     0.200 A 
ATOM     63  F   UNL A   1      35.985  32.320  30.182  1.00  0.00    -0.200 F 
ATOM     64  F   UNL A   1      35.732  31.917  32.868  1.00  0.00    -0.200 F 
ENDBRANCH  40  54
BRANCH  41  65
ATOM     65  C   UNL A   1      47.360  27.822  25.918  1.00  0.00     0.064 A 
ATOM     66  C   UNL A   1      47.339  27.793  24.518  1.00  0.00     0.173 A 
ATOM     67  C   UNL A   1      48.550  27.446  26.562  1.00  0.00     0.173 A 
ATOM     68  F   UNL A   1      46.218  28.118  23.859  1.00  0.00    -0.203 F 
ATOM     69  C   UNL A   1      48.461  27.398  23.791  1.00  0.00     0.198 A 
ATOM     70  C   UNL A   1      49.680  27.084  25.833  1.00  0.00     0.198 A 
ATOM     71  F   UNL A   1      48.623  27.455  27.901  1.00  0.00    -0.203 F 
ATOM     72  F   UNL A   1      48.402  27.341  22.454  1.00  0.00    -0.200 F 
ATOM     73  C   UNL A   1      49.633  27.053  24.448  1.00  0.00     0.200 A 
ATOM     74  F   UNL A   1      50.814  26.768  26.472  1.00  0.00    -0.200 F 
ATOM     75  F   UNL A   1      50.713  26.684  23.747  1.00  0.00    -0.200 F 
ENDBRANCH  41  65
BRANCH  53  76
ATOM     76  C   UNL A   1      45.422  33.808  28.909  1.00  0.00     0.064 A 
ATOM     77  C   UNL A   1      46.294  34.101  29.967  1.00  0.00     0.173 A 
ATOM     78  C   UNL A   1      45.220  34.791  27.929  1.00  0.00     0.173 A 
ATOM     79  F   UNL A   1      46.505  33.199  30.938  1.00  0.00    -0.203 F 
ATOM     80  C   UNL A   1      46.923  35.340  30.051  1.00  0.00     0.198 A 
ATOM     81  C   UNL A   1      45.872  36.018  28.001  1.00  0.00     0.198 A 
ATOM     82  F   UNL A   1      44.397  34.557  26.895  1.00  0.00    -0.203 F 
ATOM     83  F   UNL A   1      47.718  35.617  31.094  1.00  0.00    -0.200 F 
ATOM     84  C   UNL A   1      46.718  36.293  29.065  1.00  0.00     0.200 A 
ATOM     85  F   UNL A   1      45.683  36.934  27.042  1.00  0.00    -0.200 F 
ATOM     86  F   UNL A   1      47.331  37.483  29.144  1.00  0.00    -0.200 F 
ENDBRANCH  53  76
ENDBRANCH  27  28
ENDBRANCH  20  22
ENDBRANCH  19  20
ENDBRANCH  18  19
ENDBRANCH   1  18
TORSDOF 14
ENDMDL
MODEL 3
REMARK VINA RESULT:     -10.7      0.654      1.875
REMARK SMILES CC(C)(C)[NH2+]Cc1cc(C(=O)OCCOC(=O)c2ccc(-c3c4nc(c(-c5c(F)c(F)c(F)c(F)c5F)c5ccc([nH]5)c(-c5c(F)c(F)c(F)c(F)c5F)c5nc(c(-c6c(F)c(F)c(F)c(F)c6F)c6ccc3[nH]6)C=C5)C=C4)cc2)cs1
REMARK SMILES IDX 13 1 12 2 10 3 11 4 9 5 7 6 8 7 82 8 81 9 6 10 5 11 2 14
REMARK SMILES IDX 1 15 3 16 4 17 14 18 15 19 16 20 17 21 18 22 19 23 80 24
REMARK SMILES IDX 20 25 79 26 21 27 22 28 23 29 73 30 24 31 78 32 72 33 74 34
REMARK SMILES IDX 25 35 77 36 71 37 70 38 26 40 58 41 38 42 57 43 39 44 42 45
REMARK SMILES IDX 56 46 75 47 40 48 41 49 55 51 76 52 43 53 27 54 28 55 36 56
REMARK SMILES IDX 29 57 30 58 34 59 37 60 31 61 32 62 35 63 33 64 59 65 60 66
REMARK SMILES IDX 68 67 61 68 62 69 66 70 69 71 63 72 64 73 67 74 65 75 44 76
REMARK SMILES IDX 45 77 53 78 46 79 47 80 51 81 54 82 48 83 49 84 52 85 50 86
REMARK H PARENT 5 12 5 13 74 39 42 50
REMARK Flexibility Score: inf
ROOT
ATOM      1  C   UNL A   1      31.800  28.791  27.010  1.00  0.00     0.275 C 
ENDROOT
BRANCH   1   2
ATOM      2  O   UNL A   1      31.525  27.864  25.943  1.00  0.00    -0.458 OA
BRANCH   2   3
ATOM      3  C   UNL A   1      32.620  27.274  25.389  1.00  0.00     0.339 C 
ATOM      4  O   UNL A   1      33.450  27.856  24.702  1.00  0.00    -0.246 OA
BRANCH   3   5
ATOM      5  C   UNL A   1      32.716  25.855  25.696  1.00  0.00     0.071 A 
ATOM      6  C   UNL A   1      33.801  23.882  26.247  1.00  0.00     0.060 A 
ATOM      7  C   UNL A   1      33.878  25.043  25.501  1.00  0.00     0.037 A 
ATOM      8  S   UNL A   1      32.186  23.519  26.670  1.00  0.00    -0.142 S 
ATOM      9  C   UNL A   1      31.722  25.126  26.324  1.00  0.00     0.081 A 
BRANCH   6  10
ATOM     10  C   UNL A   1      34.921  23.037  26.751  1.00  0.00     0.308 C 
BRANCH  10  11
ATOM     11  N   UNL A   1      35.429  22.149  25.697  1.00  0.00    -0.338 N 
ATOM     12  H   UNL A   1      35.491  21.214  26.102  1.00  0.00     0.347 HD
ATOM     13  H   UNL A   1      34.766  22.279  24.933  1.00  0.00     0.347 HD
BRANCH  11  14
ATOM     14  C   UNL A   1      36.737  22.434  25.074  1.00  0.00     0.088 C 
ATOM     15  C   UNL A   1      37.620  21.181  24.977  1.00  0.00     0.078 C 
ATOM     16  C   UNL A   1      37.543  23.573  25.731  1.00  0.00     0.078 C 
ATOM     17  C   UNL A   1      36.393  22.910  23.647  1.00  0.00     0.078 C 
ENDBRANCH  11  14
ENDBRANCH  10  11
ENDBRANCH   6  10
ENDBRANCH   3   5
ENDBRANCH   2   3
ENDBRANCH   1   2
BRANCH   1  18
ATOM     18  C   UNL A   1      31.807  30.229  26.489  1.00  0.00     0.275 C 
BRANCH  18  19
ATOM     19  O   UNL A   1      33.156  30.713  26.332  1.00  0.00    -0.458 OA
BRANCH  19  20
ATOM     20  C   UNL A   1      33.538  31.681  27.195  1.00  0.00     0.338 C 
ATOM     21  O   UNL A   1      32.915  32.678  27.518  1.00  0.00    -0.246 OA
BRANCH  20  22
ATOM     22  C   UNL A   1      34.840  31.340  27.786  1.00  0.00     0.060 A 
ATOM     23  C   UNL A   1      35.036  30.055  28.285  1.00  0.00     0.016 A 
ATOM     24  C   UNL A   1      35.810  32.317  27.989  1.00  0.00     0.016 A 
ATOM     25  C   UNL A   1      36.136  29.762  29.075  1.00  0.00     0.010 A 
ATOM     26  C   UNL A   1      36.983  31.986  28.678  1.00  0.00     0.010 A 
ATOM     27  C   UNL A   1      37.148  30.709  29.251  1.00  0.00    -0.014 A 
BRANCH  27  28
ATOM     28  C   UNL A   1      38.367  30.352  30.020  1.00  0.00     0.031 A 
ATOM     29  C   UNL A   1      39.405  29.449  29.418  1.00  0.00     0.074 A 
ATOM     30  C   UNL A   1      38.549  30.850  31.260  1.00  0.00     0.049 A 
ATOM     31  N   UNL A   1      40.429  28.866  29.991  1.00  0.00    -0.248 NA
ATOM     32  C   UNL A   1      39.271  29.152  27.984  1.00  0.00     0.031 C 
ATOM     33  C   UNL A   1      37.652  31.790  31.938  1.00  0.00     0.029 A 
ATOM     34  N   UNL A   1      39.551  30.637  32.175  1.00  0.00    -0.354 N 
ATOM     35  C   UNL A   1      41.025  28.093  29.003  1.00  0.00     0.074 A 
ATOM     36  C   UNL A   1      40.250  28.279  27.794  1.00  0.00     0.031 C 
ATOM     37  C   UNL A   1      38.155  32.094  33.143  1.00  0.00     0.029 A 
ATOM     38  C   UNL A   1      39.352  31.293  33.367  1.00  0.00     0.049 A 
ATOM     39  H   UNL A   1      40.334  30.069  31.996  1.00  0.00     0.167 HD
ATOM     40  C   UNL A   1      42.117  27.298  29.105  1.00  0.00     0.037 A 
ATOM     41  C   UNL A   1      40.020  31.217  34.532  1.00  0.00     0.037 A 
ATOM     42  C   UNL A   1      42.905  27.158  30.302  1.00  0.00     0.049 A 
ATOM     43  C   UNL A   1      41.190  30.280  34.637  1.00  0.00     0.074 A 
ATOM     44  C   UNL A   1      44.041  26.392  30.505  1.00  0.00     0.029 A 
ATOM     45  N   UNL A   1      42.644  27.809  31.500  1.00  0.00    -0.354 N 
ATOM     46  N   UNL A   1      41.716  29.511  33.716  1.00  0.00    -0.248 NA
ATOM     47  C   UNL A   1      41.841  30.182  35.949  1.00  0.00     0.031 C 
ATOM     48  C   UNL A   1      44.439  26.544  31.838  1.00  0.00     0.029 A 
ATOM     49  C   UNL A   1      43.582  27.444  32.452  1.00  0.00     0.049 A 
ATOM     50  H   UNL A   1      41.901  28.437  31.651  1.00  0.00     0.167 HD
ATOM     51  C   UNL A   1      42.769  28.848  34.330  1.00  0.00     0.074 A 
ATOM     52  C   UNL A   1      42.818  29.321  35.699  1.00  0.00     0.031 C 
ATOM     53  C   UNL A   1      43.616  27.928  33.809  1.00  0.00     0.037 A 
BRANCH  40  54
ATOM     54  C   UNL A   1      42.502  26.483  27.904  1.00  0.00     0.064 A 
ATOM     55  C   UNL A   1      41.947  25.220  27.650  1.00  0.00     0.173 A 
ATOM     56  C   UNL A   1      43.417  26.996  26.970  1.00  0.00     0.173 A 
ATOM     57  F   UNL A   1      41.078  24.679  28.516  1.00  0.00    -0.203 F 
ATOM     58  C   UNL A   1      42.313  24.492  26.521  1.00  0.00     0.198 A 
ATOM     59  C   UNL A   1      43.758  26.278  25.828  1.00  0.00     0.198 A 
ATOM     60  F   UNL A   1      43.973  28.203  27.162  1.00  0.00    -0.203 F 
ATOM     61  F   UNL A   1      41.805  23.267  26.322  1.00  0.00    -0.200 F 
ATOM     62  C   UNL A   1      43.212  25.023  25.608  1.00  0.00     0.200 A 
ATOM     63  F   UNL A   1      44.617  26.800  24.941  1.00  0.00    -0.200 F 
ATOM     64  F   UNL A   1      43.557  24.323  24.517  1.00  0.00    -0.200 F 
ENDBRANCH  40  54
BRANCH  41  65
ATOM     65  C   UNL A   1      39.559  32.009  35.703  1.00  0.00     0.064 A 
ATOM     66  C   UNL A   1      40.104  33.268  35.981  1.00  0.00     0.173 A 
ATOM     67  C   UNL A   1      38.557  31.527  36.560  1.00  0.00     0.173 A 
ATOM     68  F   UNL A   1      41.081  33.761  35.207  1.00  0.00    -0.203 F 
ATOM     69  C   UNL A   1      39.670  34.013  37.077  1.00  0.00     0.198 A 
ATOM     70  C   UNL A   1      38.102  32.286  37.635  1.00  0.00     0.198 A 
ATOM     71  F   UNL A   1      38.003  30.326  36.339  1.00  0.00    -0.203 F 
ATOM     72  F   UNL A   1      40.236  35.197  37.345  1.00  0.00    -0.200 F 
ATOM     73  C   UNL A   1      38.663  33.526  37.897  1.00  0.00     0.200 A 
ATOM     74  F   UNL A   1      37.117  31.817  38.413  1.00  0.00    -0.200 F 
ATOM     75  F   UNL A   1      38.240  34.247  38.943  1.00  0.00    -0.200 F 
ENDBRANCH  41  65
BRANCH  53  76
ATOM     76  C   UNL A   1      44.685  27.396  34.714  1.00  0.00     0.064 A 
ATOM     77  C   UNL A   1      45.918  28.050  34.858  1.00  0.00     0.173 A 
ATOM     78  C   UNL A   1      44.460  26.240  35.475  1.00  0.00     0.173 A 
ATOM     79  F   UNL A   1      46.187  29.149  34.137  1.00  0.00    -0.203 F 
ATOM     80  C   UNL A   1      46.894  27.552  35.716  1.00  0.00     0.198 A 
ATOM     81  C   UNL A   1      45.427  25.761  36.354  1.00  0.00     0.198 A 
ATOM     82  F   UNL A   1      43.295  25.581  35.376  1.00  0.00    -0.203 F 
ATOM     83  F   UNL A   1      48.082  28.167  35.806  1.00  0.00    -0.200 F 
ATOM     84  C   UNL A   1      46.645  26.415  36.469  1.00  0.00     0.200 A 
ATOM     85  F   UNL A   1      45.181  24.669  37.089  1.00  0.00    -0.200 F 
ATOM     86  F   UNL A   1      47.583  25.942  37.301  1.00  0.00    -0.200 F 
ENDBRANCH  53  76
ENDBRANCH  27  28
ENDBRANCH  20  22
ENDBRANCH  19  20
ENDBRANCH  18  19
ENDBRANCH   1  18
TORSDOF 14
ENDMDL
