MODEL 1
REMARK VINA RESULT:     -11.7      0.000      0.000
REMARK SMILES Cc1ccc(Br)cc1S(=O)(=O)N[C@H]1C=C[C@H](C(=O)OCCOC(=O)c2ccc(-c3c4nc(c(-c5c(F)c(F)c(F)c(F)c5F)c5ccc([nH]5)c(-c5c(F)c(F)c(F)c(F)c5F)c5nc(c(-c6c(F)c(F)c(F)c(F)c6F)c6ccc3[nH]6)C=C5)C=C4)cc2)C1
REMARK SMILES IDX 20 1 19 2 17 3 18 4 16 5 13 6 14 7 88 8 15 9 12 10 9 12
REMARK SMILES IDX 10 13 11 14 8 15 1 16 2 17 3 18 4 19 7 20 5 21 6 22 21 23
REMARK SMILES IDX 22 24 23 25 24 26 25 27 26 28 87 29 27 30 86 31 28 32 29 33
REMARK SMILES IDX 30 34 80 35 31 36 85 37 79 38 81 39 32 40 84 41 78 42 77 43
REMARK SMILES IDX 33 45 65 46 45 47 64 48 46 49 49 50 63 51 82 52 47 53 48 54
REMARK SMILES IDX 62 56 83 57 50 58 34 59 35 60 43 61 36 62 37 63 41 64 44 65
REMARK SMILES IDX 38 66 39 67 42 68 40 69 66 70 67 71 75 72 68 73 69 74 73 75
REMARK SMILES IDX 76 76 70 77 71 78 74 79 72 80 51 81 52 82 60 83 53 84 54 85
REMARK SMILES IDX 58 86 61 87 55 88 56 89 59 90 57 91
REMARK H PARENT 12 11 81 44 49 55
REMARK Flexibility Score: inf
ROOT
ATOM      1  C   UNL A   1      33.748  35.328  28.651  1.00  0.00     0.274 C 
ENDROOT
BRANCH   1   2
ATOM      2  O   UNL A   1      33.266  33.973  28.553  1.00  0.00    -0.462 OA
BRANCH   2   3
ATOM      3  C   UNL A   1      34.169  32.986  28.778  1.00  0.00     0.312 C 
ATOM      4  O   UNL A   1      34.839  32.876  29.799  1.00  0.00    -0.252 OA
BRANCH   3   5
ATOM      5  C   UNL A   1      34.224  31.957  27.656  1.00  0.00     0.123 C 
ATOM      6  C   UNL A   1      33.532  29.722  26.954  1.00  0.00     0.093 C 
ATOM      7  C   UNL A   1      34.938  29.731  27.468  1.00  0.00    -0.011 C 
ATOM      8  C   UNL A   1      33.000  31.044  27.514  1.00  0.00     0.043 C 
ATOM      9  C   UNL A   1      35.331  30.960  27.821  1.00  0.00    -0.015 C 
BRANCH   6  10
ATOM     10  N   UNL A   1      33.675  29.690  25.503  1.00  0.00    -0.204 NA
ATOM     11  H   UNL A   1      33.003  30.362  25.133  1.00  0.00     0.142 HD
BRANCH  10  12
ATOM     12  S   UNL A   1      33.458  28.282  24.631  1.00  0.00     0.241 S 
ATOM     13  O   UNL A   1      33.524  27.186  25.580  1.00  0.00    -0.207 OA
ATOM     14  O   UNL A   1      34.343  28.360  23.496  1.00  0.00    -0.207 OA
BRANCH  12  15
ATOM     15  C   UNL A   1      31.793  28.395  24.005  1.00  0.00     0.086 A 
ATOM     16  C   UNL A   1      31.692  25.950  23.154  1.00  0.00     0.046 C 
ATOM     17  C   UNL A   1      31.153  27.344  23.319  1.00  0.00    -0.031 A 
ATOM     18  C   UNL A   1      29.892  27.602  22.747  1.00  0.00     0.006 A 
ATOM     19  C   UNL A   1      29.267  28.841  22.894  1.00  0.00     0.016 A 
ATOM     20  C   UNL A   1      31.151  29.633  24.174  1.00  0.00     0.037 A 
ATOM     21  C   UNL A   1      29.891  29.845  23.625  1.00  0.00     0.019 A 
ATOM     22  Br  UNL A   1      29.028  31.508  23.866  1.00  0.00    -0.051 Br
ENDBRANCH  12  15
ENDBRANCH  10  12
ENDBRANCH   6  10
ENDBRANCH   3   5
ENDBRANCH   2   3
ENDBRANCH   1   2
BRANCH   1  23
ATOM     23  C   UNL A   1      32.825  36.176  29.525  1.00  0.00     0.275 C 
BRANCH  23  24
ATOM     24  O   UNL A   1      32.328  35.412  30.639  1.00  0.00    -0.458 OA
BRANCH  24  25
ATOM     25  C   UNL A   1      32.640  35.897  31.860  1.00  0.00     0.338 C 
ATOM     26  O   UNL A   1      32.094  36.796  32.473  1.00  0.00    -0.246 OA
BRANCH  25  27
ATOM     27  C   UNL A   1      33.766  35.128  32.404  1.00  0.00     0.060 A 
ATOM     28  C   UNL A   1      35.053  35.667  32.356  1.00  0.00     0.016 A 
ATOM     29  C   UNL A   1      33.551  33.834  32.876  1.00  0.00     0.016 A 
ATOM     30  C   UNL A   1      36.146  34.896  32.738  1.00  0.00     0.010 A 
ATOM     31  C   UNL A   1      34.643  33.081  33.308  1.00  0.00     0.010 A 
ATOM     32  C   UNL A   1      35.947  33.600  33.228  1.00  0.00    -0.014 A 
BRANCH  32  33
ATOM     33  C   UNL A   1      37.095  32.769  33.655  1.00  0.00     0.031 A 
ATOM     34  C   UNL A   1      37.757  33.039  34.972  1.00  0.00     0.074 A 
ATOM     35  C   UNL A   1      37.565  31.809  32.838  1.00  0.00     0.049 A 
ATOM     36  N   UNL A   1      38.898  32.595  35.433  1.00  0.00    -0.248 NA
ATOM     37  C   UNL A   1      37.043  33.939  35.892  1.00  0.00     0.031 C 
ATOM     38  C   UNL A   1      36.969  31.422  31.559  1.00  0.00     0.029 A 
ATOM     39  N   UNL A   1      38.670  31.004  32.951  1.00  0.00    -0.354 N 
ATOM     40  C   UNL A   1      39.058  33.191  36.676  1.00  0.00     0.074 A 
ATOM     41  C   UNL A   1      37.900  34.030  36.899  1.00  0.00     0.031 C 
ATOM     42  C   UNL A   1      37.721  30.462  31.000  1.00  0.00     0.029 A 
ATOM     43  C   UNL A   1      38.885  30.220  31.845  1.00  0.00     0.049 A 
ATOM     44  H   UNL A   1      39.250  30.989  33.747  1.00  0.00     0.167 HD
ATOM     45  C   UNL A   1      40.087  33.050  37.545  1.00  0.00     0.037 A 
ATOM     46  C   UNL A   1      39.933  29.437  31.526  1.00  0.00     0.037 A 
ATOM     47  C   UNL A   1      41.221  32.192  37.318  1.00  0.00     0.049 A 
ATOM     48  C   UNL A   1      41.091  29.344  32.479  1.00  0.00     0.074 A 
ATOM     49  C   UNL A   1      42.309  31.962  38.141  1.00  0.00     0.029 A 
ATOM     50  N   UNL A   1      41.407  31.418  36.181  1.00  0.00    -0.354 N 
ATOM     51  N   UNL A   1      41.254  29.928  33.641  1.00  0.00    -0.248 NA
ATOM     52  C   UNL A   1      42.220  28.496  32.069  1.00  0.00     0.031 C 
ATOM     53  C   UNL A   1      43.173  31.078  37.485  1.00  0.00     0.029 A 
ATOM     54  C   UNL A   1      42.601  30.724  36.273  1.00  0.00     0.049 A 
ATOM     55  H   UNL A   1      40.782  31.370  35.422  1.00  0.00     0.167 HD
ATOM     56  C   UNL A   1      42.486  29.501  34.114  1.00  0.00     0.074 A 
ATOM     57  C   UNL A   1      43.029  28.604  33.115  1.00  0.00     0.031 C 
ATOM     58  C   UNL A   1      43.112  29.823  35.272  1.00  0.00     0.037 A 
BRANCH  45  59
ATOM     59  C   UNL A   1      40.054  33.865  38.803  1.00  0.00     0.064 A 
ATOM     60  C   UNL A   1      40.700  35.105  38.898  1.00  0.00     0.173 A 
ATOM     61  C   UNL A   1      39.331  33.415  39.918  1.00  0.00     0.173 A 
ATOM     62  F   UNL A   1      41.417  35.574  37.865  1.00  0.00    -0.203 F 
ATOM     63  C   UNL A   1      40.642  35.855  40.071  1.00  0.00     0.198 A 
ATOM     64  C   UNL A   1      39.253  34.177  41.080  1.00  0.00     0.198 A 
ATOM     65  F   UNL A   1      38.692  32.235  39.877  1.00  0.00    -0.203 F 
ATOM     66  F   UNL A   1      41.301  37.019  40.154  1.00  0.00    -0.200 F 
ATOM     67  C   UNL A   1      39.913  35.394  41.157  1.00  0.00     0.200 A 
ATOM     68  F   UNL A   1      38.540  33.734  42.124  1.00  0.00    -0.200 F 
ATOM     69  F   UNL A   1      39.853  36.120  42.282  1.00  0.00    -0.200 F 
ENDBRANCH  45  59
BRANCH  46  70
ATOM     70  C   UNL A   1      39.943  28.713  30.230  1.00  0.00     0.064 A 
ATOM     71  C   UNL A   1      40.538  29.279  29.095  1.00  0.00     0.173 A 
ATOM     72  C   UNL A   1      39.371  27.438  30.102  1.00  0.00     0.173 A 
ATOM     73  F   UNL A   1      41.077  30.504  29.163  1.00  0.00    -0.203 F 
ATOM     74  C   UNL A   1      40.552  28.601  27.878  1.00  0.00     0.198 A 
ATOM     75  C   UNL A   1      39.410  26.750  28.892  1.00  0.00     0.198 A 
ATOM     76  F   UNL A   1      38.790  26.853  31.160  1.00  0.00    -0.203 F 
ATOM     77  F   UNL A   1      41.095  29.180  26.798  1.00  0.00    -0.200 F 
ATOM     78  C   UNL A   1      39.994  27.334  27.779  1.00  0.00     0.200 A 
ATOM     79  F   UNL A   1      38.883  25.521  28.805  1.00  0.00    -0.200 F 
ATOM     80  F   UNL A   1      40.016  26.680  26.610  1.00  0.00    -0.200 F 
ENDBRANCH  46  70
BRANCH  58  81
ATOM     81  C   UNL A   1      44.432  29.166  35.544  1.00  0.00     0.064 A 
ATOM     82  C   UNL A   1      45.642  29.761  35.159  1.00  0.00     0.173 A 
ATOM     83  C   UNL A   1      44.485  27.954  36.249  1.00  0.00     0.173 A 
ATOM     84  F   UNL A   1      45.639  30.911  34.468  1.00  0.00    -0.203 F 
ATOM     85  C   UNL A   1      46.859  29.158  35.462  1.00  0.00     0.198 A 
ATOM     86  C   UNL A   1      45.704  27.367  36.571  1.00  0.00     0.198 A 
ATOM     87  F   UNL A   1      43.353  27.350  36.642  1.00  0.00    -0.203 F 
ATOM     88  F   UNL A   1      48.004  29.724  35.056  1.00  0.00    -0.200 F 
ATOM     89  C   UNL A   1      46.890  27.967  36.174  1.00  0.00     0.200 A 
ATOM     90  F   UNL A   1      45.733  26.223  37.268  1.00  0.00    -0.200 F 
ATOM     91  F   UNL A   1      48.064  27.395  36.473  1.00  0.00    -0.200 F 
ENDBRANCH  58  81
ENDBRANCH  32  33
ENDBRANCH  25  27
ENDBRANCH  24  25
ENDBRANCH  23  24
ENDBRANCH   1  23
TORSDOF 14
ENDMDL
MODEL 2
REMARK VINA RESULT:     -11.6      3.165      8.838
REMARK SMILES Cc1ccc(Br)cc1S(=O)(=O)N[C@H]1C=C[C@H](C(=O)OCCOC(=O)c2ccc(-c3c4nc(c(-c5c(F)c(F)c(F)c(F)c5F)c5ccc([nH]5)c(-c5c(F)c(F)c(F)c(F)c5F)c5nc(c(-c6c(F)c(F)c(F)c(F)c6F)c6ccc3[nH]6)C=C5)C=C4)cc2)C1
REMARK SMILES IDX 20 1 19 2 17 3 18 4 16 5 13 6 14 7 88 8 15 9 12 10 9 12
REMARK SMILES IDX 10 13 11 14 8 15 1 16 2 17 3 18 4 19 7 20 5 21 6 22 21 23
REMARK SMILES IDX 22 24 23 25 24 26 25 27 26 28 87 29 27 30 86 31 28 32 29 33
REMARK SMILES IDX 30 34 80 35 31 36 85 37 79 38 81 39 32 40 84 41 78 42 77 43
REMARK SMILES IDX 33 45 65 46 45 47 64 48 46 49 49 50 63 51 82 52 47 53 48 54
REMARK SMILES IDX 62 56 83 57 50 58 34 59 35 60 43 61 36 62 37 63 41 64 44 65
REMARK SMILES IDX 38 66 39 67 42 68 40 69 66 70 67 71 75 72 68 73 69 74 73 75
REMARK SMILES IDX 76 76 70 77 71 78 74 79 72 80 51 81 52 82 60 83 53 84 54 85
REMARK SMILES IDX 58 86 61 87 55 88 56 89 59 90 57 91
REMARK H PARENT 12 11 81 44 49 55
REMARK Flexibility Score: inf
ROOT
ATOM      1  C   UNL A   1      31.370  29.258  25.064  1.00  0.00     0.274 C 
ENDROOT
BRANCH   1   2
ATOM      2  O   UNL A   1      30.486  29.530  23.960  1.00  0.00    -0.462 OA
BRANCH   2   3
ATOM      3  C   UNL A   1      30.267  28.515  23.087  1.00  0.00     0.312 C 
ATOM      4  O   UNL A   1      29.725  28.644  21.993  1.00  0.00    -0.252 OA
BRANCH   3   5
ATOM      5  C   UNL A   1      30.834  27.184  23.562  1.00  0.00     0.123 C 
ATOM      6  C   UNL A   1      31.524  24.944  22.875  1.00  0.00     0.093 C 
ATOM      7  C   UNL A   1      30.144  24.944  23.454  1.00  0.00    -0.011 C 
ATOM      8  C   UNL A   1      31.719  26.430  22.561  1.00  0.00     0.043 C 
ATOM      9  C   UNL A   1      29.776  26.164  23.862  1.00  0.00    -0.015 C 
BRANCH   6  10
ATOM     10  N   UNL A   1      32.369  24.432  23.948  1.00  0.00    -0.204 NA
ATOM     11  H   UNL A   1      32.106  24.945  24.789  1.00  0.00     0.142 HD
BRANCH  10  12
ATOM     12  S   UNL A   1      34.035  24.498  23.860  1.00  0.00     0.241 S 
ATOM     13  O   UNL A   1      34.470  25.479  24.836  1.00  0.00    -0.207 OA
ATOM     14  O   UNL A   1      34.370  24.614  22.463  1.00  0.00    -0.207 OA
BRANCH  12  15
ATOM     15  C   UNL A   1      34.575  22.885  24.393  1.00  0.00     0.086 A 
ATOM     16  C   UNL A   1      37.019  23.598  24.874  1.00  0.00     0.046 C 
ATOM     17  C   UNL A   1      35.909  22.593  24.742  1.00  0.00    -0.031 A 
ATOM     18  C   UNL A   1      36.242  21.250  25.009  1.00  0.00     0.006 A 
ATOM     19  C   UNL A   1      35.276  20.243  24.982  1.00  0.00     0.016 A 
ATOM     20  C   UNL A   1      33.600  21.873  24.391  1.00  0.00     0.037 A 
ATOM     21  C   UNL A   1      33.954  20.563  24.692  1.00  0.00     0.019 A 
ATOM     22  Br  UNL A   1      32.636  19.210  24.699  1.00  0.00    -0.051 Br
ENDBRANCH  12  15
ENDBRANCH  10  12
ENDBRANCH   6  10
ENDBRANCH   3   5
ENDBRANCH   2   3
ENDBRANCH   1   2
BRANCH   1  23
ATOM     23  C   UNL A   1      31.756  30.547  25.788  1.00  0.00     0.275 C 
BRANCH  23  24
ATOM     24  O   UNL A   1      33.061  30.432  26.383  1.00  0.00    -0.458 OA
BRANCH  24  25
ATOM     25  C   UNL A   1      33.433  31.464  27.171  1.00  0.00     0.338 C 
ATOM     26  O   UNL A   1      32.819  32.490  27.401  1.00  0.00    -0.246 OA
BRANCH  25  27
ATOM     27  C   UNL A   1      34.730  31.154  27.784  1.00  0.00     0.060 A 
ATOM     28  C   UNL A   1      34.979  29.859  28.245  1.00  0.00     0.016 A 
ATOM     29  C   UNL A   1      35.659  32.173  27.981  1.00  0.00     0.016 A 
ATOM     30  C   UNL A   1      36.145  29.584  28.952  1.00  0.00     0.010 A 
ATOM     31  C   UNL A   1      36.852  31.883  28.644  1.00  0.00     0.010 A 
ATOM     32  C   UNL A   1      37.095  30.593  29.146  1.00  0.00    -0.014 A 
BRANCH  32  33
ATOM     33  C   UNL A   1      38.350  30.317  29.882  1.00  0.00     0.031 A 
ATOM     34  C   UNL A   1      39.367  29.387  29.291  1.00  0.00     0.074 A 
ATOM     35  C   UNL A   1      38.548  30.864  31.094  1.00  0.00     0.049 A 
ATOM     36  N   UNL A   1      40.410  28.835  29.854  1.00  0.00    -0.248 NA
ATOM     37  C   UNL A   1      39.179  29.023  27.878  1.00  0.00     0.031 C 
ATOM     38  C   UNL A   1      37.654  31.823  31.744  1.00  0.00     0.029 A 
ATOM     39  N   UNL A   1      39.552  30.669  32.008  1.00  0.00    -0.354 N 
ATOM     40  C   UNL A   1      40.980  28.028  28.878  1.00  0.00     0.074 A 
ATOM     41  C   UNL A   1      40.166  28.160  27.689  1.00  0.00     0.031 C 
ATOM     42  C   UNL A   1      38.144  32.125  32.957  1.00  0.00     0.029 A 
ATOM     43  C   UNL A   1      39.342  31.327  33.194  1.00  0.00     0.049 A 
ATOM     44  H   UNL A   1      40.345  30.113  31.830  1.00  0.00     0.167 HD
ATOM     45  C   UNL A   1      42.080  27.245  28.978  1.00  0.00     0.037 A 
ATOM     46  C   UNL A   1      40.010  31.251  34.360  1.00  0.00     0.037 A 
ATOM     47  C   UNL A   1      42.892  27.143  30.163  1.00  0.00     0.049 A 
ATOM     48  C   UNL A   1      41.191  30.328  34.465  1.00  0.00     0.074 A 
ATOM     49  C   UNL A   1      44.037  26.394  30.364  1.00  0.00     0.029 A 
ATOM     50  N   UNL A   1      42.641  27.821  31.348  1.00  0.00    -0.354 N 
ATOM     51  N   UNL A   1      41.713  29.546  33.551  1.00  0.00    -0.248 NA
ATOM     52  C   UNL A   1      41.869  30.264  35.768  1.00  0.00     0.031 C 
ATOM     53  C   UNL A   1      44.458  26.587  31.684  1.00  0.00     0.029 A 
ATOM     54  C   UNL A   1      43.601  27.492  32.291  1.00  0.00     0.049 A 
ATOM     55  H   UNL A   1      41.893  28.443  31.497  1.00  0.00     0.167 HD
ATOM     56  C   UNL A   1      42.791  28.917  34.156  1.00  0.00     0.074 A 
ATOM     57  C   UNL A   1      42.854  29.413  35.517  1.00  0.00     0.031 C 
ATOM     58  C   UNL A   1      43.653  28.011  33.633  1.00  0.00     0.037 A 
BRANCH  45  59
ATOM     59  C   UNL A   1      42.449  26.409  27.790  1.00  0.00     0.064 A 
ATOM     60  C   UNL A   1      43.421  26.822  26.868  1.00  0.00     0.173 A 
ATOM     61  C   UNL A   1      41.848  25.156  27.592  1.00  0.00     0.173 A 
ATOM     62  F   UNL A   1      44.016  28.017  27.004  1.00  0.00    -0.203 F 
ATOM     63  C   UNL A   1      43.762  26.021  25.779  1.00  0.00     0.198 A 
ATOM     64  C   UNL A   1      42.208  24.347  26.519  1.00  0.00     0.198 A 
ATOM     65  F   UNL A   1      40.913  24.714  28.448  1.00  0.00    -0.203 F 
ATOM     66  F   UNL A   1      44.664  26.454  24.888  1.00  0.00    -0.200 F 
ATOM     67  C   UNL A   1      43.161  24.783  25.610  1.00  0.00     0.200 A 
ATOM     68  F   UNL A   1      41.632  23.147  26.363  1.00  0.00    -0.200 F 
ATOM     69  F   UNL A   1      43.494  24.012  24.566  1.00  0.00    -0.200 F 
ENDBRANCH  45  59
BRANCH  46  70
ATOM     70  C   UNL A   1      39.550  32.047  35.527  1.00  0.00     0.064 A 
ATOM     71  C   UNL A   1      40.058  33.330  35.767  1.00  0.00     0.173 A 
ATOM     72  C   UNL A   1      38.586  31.547  36.416  1.00  0.00     0.173 A 
ATOM     73  F   UNL A   1      40.997  33.840  34.958  1.00  0.00    -0.203 F 
ATOM     74  C   UNL A   1      39.625  34.080  36.859  1.00  0.00     0.198 A 
ATOM     75  C   UNL A   1      38.135  32.309  37.491  1.00  0.00     0.198 A 
ATOM     76  F   UNL A   1      38.069  30.325  36.228  1.00  0.00    -0.203 F 
ATOM     77  F   UNL A   1      40.154  35.290  37.087  1.00  0.00    -0.200 F 
ATOM     78  C   UNL A   1      38.659  33.572  37.715  1.00  0.00     0.200 A 
ATOM     79  F   UNL A   1      37.191  31.820  38.307  1.00  0.00    -0.200 F 
ATOM     80  F   UNL A   1      38.239  34.299  38.759  1.00  0.00    -0.200 F 
ENDBRANCH  46  70
BRANCH  58  81
ATOM     81  C   UNL A   1      44.764  27.532  34.517  1.00  0.00     0.064 A 
ATOM     82  C   UNL A   1      45.978  28.228  34.614  1.00  0.00     0.173 A 
ATOM     83  C   UNL A   1      44.587  26.396  35.321  1.00  0.00     0.173 A 
ATOM     84  F   UNL A   1      46.197  29.310  33.852  1.00  0.00    -0.203 F 
ATOM     85  C   UNL A   1      46.981  27.794  35.475  1.00  0.00     0.198 A 
ATOM     86  C   UNL A   1      45.582  25.979  36.199  1.00  0.00     0.198 A 
ATOM     87  F   UNL A   1      43.440  25.701  35.266  1.00  0.00    -0.203 F 
ATOM     88  F   UNL A   1      48.147  28.452  35.528  1.00  0.00    -0.200 F 
ATOM     89  C   UNL A   1      46.779  26.676  36.273  1.00  0.00     0.200 A 
ATOM     90  F   UNL A   1      45.383  24.907  36.976  1.00  0.00    -0.200 F 
ATOM     91  F   UNL A   1      47.743  26.267  37.110  1.00  0.00    -0.200 F 
ENDBRANCH  58  81
ENDBRANCH  32  33
ENDBRANCH  25  27
ENDBRANCH  24  25
ENDBRANCH  23  24
ENDBRANCH   1  23
TORSDOF 14
ENDMDL
MODEL 3
REMARK VINA RESULT:     -11.6      7.505     13.047
REMARK SMILES Cc1ccc(Br)cc1S(=O)(=O)N[C@H]1C=C[C@H](C(=O)OCCOC(=O)c2ccc(-c3c4nc(c(-c5c(F)c(F)c(F)c(F)c5F)c5ccc([nH]5)c(-c5c(F)c(F)c(F)c(F)c5F)c5nc(c(-c6c(F)c(F)c(F)c(F)c6F)c6ccc3[nH]6)C=C5)C=C4)cc2)C1
REMARK SMILES IDX 20 1 19 2 17 3 18 4 16 5 13 6 14 7 88 8 15 9 12 10 9 12
REMARK SMILES IDX 10 13 11 14 8 15 1 16 2 17 3 18 4 19 7 20 5 21 6 22 21 23
REMARK SMILES IDX 22 24 23 25 24 26 25 27 26 28 87 29 27 30 86 31 28 32 29 33
REMARK SMILES IDX 30 34 80 35 31 36 85 37 79 38 81 39 32 40 84 41 78 42 77 43
REMARK SMILES IDX 33 45 65 46 45 47 64 48 46 49 49 50 63 51 82 52 47 53 48 54
REMARK SMILES IDX 62 56 83 57 50 58 34 59 35 60 43 61 36 62 37 63 41 64 44 65
REMARK SMILES IDX 38 66 39 67 42 68 40 69 66 70 67 71 75 72 68 73 69 74 73 75
REMARK SMILES IDX 76 76 70 77 71 78 74 79 72 80 51 81 52 82 60 83 53 84 54 85
REMARK SMILES IDX 58 86 61 87 55 88 56 89 59 90 57 91
REMARK H PARENT 12 11 81 44 49 55
REMARK Flexibility Score: inf
ROOT
ATOM      1  C   UNL A   1      42.049  19.400  26.864  1.00  0.00     0.274 C 
ENDROOT
BRANCH   1   2
ATOM      2  O   UNL A   1      40.873  19.940  26.230  1.00  0.00    -0.462 OA
BRANCH   2   3
ATOM      3  C   UNL A   1      40.767  21.292  26.189  1.00  0.00     0.312 C 
ATOM      4  O   UNL A   1      41.685  22.052  25.898  1.00  0.00    -0.252 OA
BRANCH   3   5
ATOM      5  C   UNL A   1      39.356  21.791  26.469  1.00  0.00     0.123 C 
ATOM      6  C   UNL A   1      37.387  22.872  25.507  1.00  0.00     0.093 C 
ATOM      7  C   UNL A   1      38.241  23.844  26.260  1.00  0.00    -0.011 C 
ATOM      8  C   UNL A   1      38.366  21.712  25.300  1.00  0.00     0.043 C 
ATOM      9  C   UNL A   1      39.302  23.249  26.816  1.00  0.00    -0.015 C 
BRANCH   6  10
ATOM     10  N   UNL A   1      36.282  22.581  26.412  1.00  0.00    -0.204 NA
ATOM     11  H   UNL A   1      36.220  21.565  26.472  1.00  0.00     0.142 HD
BRANCH  10  12
ATOM     12  S   UNL A   1      34.734  23.129  26.109  1.00  0.00     0.241 S 
ATOM     13  O   UNL A   1      34.857  24.270  25.221  1.00  0.00    -0.207 OA
ATOM     14  O   UNL A   1      34.073  23.226  27.386  1.00  0.00    -0.207 OA
BRANCH  12  15
ATOM     15  C   UNL A   1      33.954  21.796  25.218  1.00  0.00     0.086 A 
ATOM     16  C   UNL A   1      31.858  23.159  24.537  1.00  0.00     0.046 C 
ATOM     17  C   UNL A   1      32.674  21.900  24.637  1.00  0.00    -0.031 A 
ATOM     18  C   UNL A   1      32.104  20.737  24.084  1.00  0.00     0.006 A 
ATOM     19  C   UNL A   1      32.800  19.526  24.063  1.00  0.00     0.016 A 
ATOM     20  C   UNL A   1      34.662  20.584  25.173  1.00  0.00     0.037 A 
ATOM     21  C   UNL A   1      34.085  19.461  24.589  1.00  0.00     0.019 A 
ATOM     22  Br  UNL A   1      35.048  17.837  24.521  1.00  0.00    -0.051 Br
ENDBRANCH  12  15
ENDBRANCH  10  12
ENDBRANCH   6  10
ENDBRANCH   3   5
ENDBRANCH   2   3
ENDBRANCH   1   2
BRANCH   1  23
ATOM     23  C   UNL A   1      42.840  18.522  25.894  1.00  0.00     0.275 C 
BRANCH  23  24
ATOM     24  O   UNL A   1      43.198  19.258  24.710  1.00  0.00    -0.458 OA
BRANCH  24  25
ATOM     25  C   UNL A   1      44.519  19.489  24.549  1.00  0.00     0.338 C 
ATOM     26  O   UNL A   1      45.379  18.706  24.189  1.00  0.00    -0.246 OA
BRANCH  25  27
ATOM     27  C   UNL A   1      44.795  20.900  24.841  1.00  0.00     0.060 A 
ATOM     28  C   UNL A   1      45.231  21.265  26.117  1.00  0.00     0.016 A 
ATOM     29  C   UNL A   1      44.531  21.868  23.874  1.00  0.00     0.016 A 
ATOM     30  C   UNL A   1      45.362  22.609  26.451  1.00  0.00     0.010 A 
ATOM     31  C   UNL A   1      44.714  23.214  24.194  1.00  0.00     0.010 A 
ATOM     32  C   UNL A   1      45.115  23.593  25.487  1.00  0.00    -0.014 A 
BRANCH  32  33
ATOM     33  C   UNL A   1      45.265  25.028  25.817  1.00  0.00     0.031 A 
ATOM     34  C   UNL A   1      46.609  25.681  25.695  1.00  0.00     0.074 A 
ATOM     35  C   UNL A   1      44.206  25.723  26.268  1.00  0.00     0.049 A 
ATOM     36  N   UNL A   1      47.008  26.843  26.142  1.00  0.00    -0.248 NA
ATOM     37  C   UNL A   1      47.646  24.919  24.982  1.00  0.00     0.031 C 
ATOM     38  C   UNL A   1      42.841  25.208  26.376  1.00  0.00     0.029 A 
ATOM     39  N   UNL A   1      44.119  27.006  26.747  1.00  0.00    -0.354 N 
ATOM     40  C   UNL A   1      48.351  26.935  25.801  1.00  0.00     0.074 A 
ATOM     41  C   UNL A   1      48.700  25.711  25.111  1.00  0.00     0.031 C 
ATOM     42  C   UNL A   1      42.054  26.161  26.900  1.00  0.00     0.029 A 
ATOM     43  C   UNL A   1      42.873  27.323  27.227  1.00  0.00     0.049 A 
ATOM     44  H   UNL A   1      44.875  27.637  26.743  1.00  0.00     0.167 HD
ATOM     45  C   UNL A   1      49.210  27.952  26.051  1.00  0.00     0.037 A 
ATOM     46  C   UNL A   1      42.453  28.407  27.907  1.00  0.00     0.037 A 
ATOM     47  C   UNL A   1      48.840  29.174  26.717  1.00  0.00     0.049 A 
ATOM     48  C   UNL A   1      43.440  29.494  28.226  1.00  0.00     0.074 A 
ATOM     49  C   UNL A   1      49.629  30.273  27.005  1.00  0.00     0.029 A 
ATOM     50  N   UNL A   1      47.569  29.454  27.197  1.00  0.00    -0.354 N 
ATOM     51  N   UNL A   1      44.714  29.569  27.927  1.00  0.00    -0.248 NA
ATOM     52  C   UNL A   1      42.935  30.643  28.992  1.00  0.00     0.031 C 
ATOM     53  C   UNL A   1      48.843  31.205  27.693  1.00  0.00     0.029 A 
ATOM     54  C   UNL A   1      47.555  30.703  27.794  1.00  0.00     0.049 A 
ATOM     55  H   UNL A   1      46.792  28.854  27.123  1.00  0.00     0.167 HD
ATOM     56  C   UNL A   1      45.159  30.777  28.442  1.00  0.00     0.074 A 
ATOM     57  C   UNL A   1      44.016  31.408  29.070  1.00  0.00     0.031 C 
ATOM     58  C   UNL A   1      46.401  31.317  28.399  1.00  0.00     0.037 A 
BRANCH  45  59
ATOM     59  C   UNL A   1      50.639  27.774  25.635  1.00  0.00     0.064 A 
ATOM     60  C   UNL A   1      51.634  27.397  26.549  1.00  0.00     0.173 A 
ATOM     61  C   UNL A   1      51.012  27.946  24.293  1.00  0.00     0.173 A 
ATOM     62  F   UNL A   1      51.333  27.234  27.846  1.00  0.00    -0.203 F 
ATOM     63  C   UNL A   1      52.954  27.220  26.138  1.00  0.00     0.198 A 
ATOM     64  C   UNL A   1      52.326  27.743  23.881  1.00  0.00     0.198 A 
ATOM     65  F   UNL A   1      50.097  28.303  23.379  1.00  0.00    -0.203 F 
ATOM     66  F   UNL A   1      53.896  26.900  27.035  1.00  0.00    -0.200 F 
ATOM     67  C   UNL A   1      53.297  27.386  24.805  1.00  0.00     0.200 A 
ATOM     68  F   UNL A   1      52.652  27.895  22.590  1.00  0.00    -0.200 F 
ATOM     69  F   UNL A   1      54.565  27.209  24.410  1.00  0.00    -0.200 F 
ENDBRANCH  45  59
BRANCH  46  70
ATOM     70  C   UNL A   1      41.042  28.492  28.359  1.00  0.00     0.064 A 
ATOM     71  C   UNL A   1      40.668  28.053  29.636  1.00  0.00     0.173 A 
ATOM     72  C   UNL A   1      40.041  29.023  27.531  1.00  0.00     0.173 A 
ATOM     73  F   UNL A   1      41.584  27.516  30.453  1.00  0.00    -0.203 F 
ATOM     74  C   UNL A   1      39.345  28.134  30.064  1.00  0.00     0.198 A 
ATOM     75  C   UNL A   1      38.724  29.129  27.971  1.00  0.00     0.198 A 
ATOM     76  F   UNL A   1      40.348  29.459  26.300  1.00  0.00    -0.203 F 
ATOM     77  F   UNL A   1      39.007  27.674  31.276  1.00  0.00    -0.200 F 
ATOM     78  C   UNL A   1      38.375  28.679  29.234  1.00  0.00     0.200 A 
ATOM     79  F   UNL A   1      37.794  29.670  27.171  1.00  0.00    -0.200 F 
ATOM     80  F   UNL A   1      37.105  28.764  29.651  1.00  0.00    -0.200 F 
ENDBRANCH  46  70
BRANCH  58  81
ATOM     81  C   UNL A   1      46.580  32.676  29.007  1.00  0.00     0.064 A 
ATOM     82  C   UNL A   1      47.050  32.838  30.317  1.00  0.00     0.173 A 
ATOM     83  C   UNL A   1      46.333  33.828  28.245  1.00  0.00     0.173 A 
ATOM     84  F   UNL A   1      47.284  31.765  31.088  1.00  0.00    -0.203 F 
ATOM     85  C   UNL A   1      47.254  34.108  30.848  1.00  0.00     0.198 A 
ATOM     86  C   UNL A   1      46.561  35.094  28.771  1.00  0.00     0.198 A 
ATOM     87  F   UNL A   1      45.886  33.721  26.984  1.00  0.00    -0.203 F 
ATOM     88  F   UNL A   1      47.672  34.244  32.115  1.00  0.00    -0.200 F 
ATOM     89  C   UNL A   1      47.018  35.234  30.072  1.00  0.00     0.200 A 
ATOM     90  F   UNL A   1      46.343  36.181  28.017  1.00  0.00    -0.200 F 
ATOM     91  F   UNL A   1      47.226  36.456  30.583  1.00  0.00    -0.200 F 
ENDBRANCH  58  81
ENDBRANCH  32  33
ENDBRANCH  25  27
ENDBRANCH  24  25
ENDBRANCH  23  24
ENDBRANCH   1  23
TORSDOF 14
ENDMDL
