MODEL 1
REMARK VINA RESULT:     -12.8      0.000      0.000
REMARK SMILES COCc1cc(C)nc(N/N=C\c2ccc(-c3cccc(C(=O)OCCOC(=O)c4ccc(-c5c6nc(c(-c7c(F)c(F)c(F)c(F)c7F)c7ccc([nH]7)c(-c7c(F)c(F)c(F)c(F)c7F)c7nc(c(-c8c(F)c(F)c(F)c(F)c8F)c8ccc5[nH]8)C=C7)C=C6)cc4)c3)o2)c1C#N
REMARK SMILES IDX 22 1 23 2 21 3 17 4 18 5 93 6 19 7 20 8 16 9 13 10 14 11
REMARK SMILES IDX 94 12 15 13 12 14 11 15 10 16 9 18 4 19 5 20 95 21 6 22 7 23
REMARK SMILES IDX 8 24 3 25 2 26 1 27 96 28 97 29 24 30 25 31 26 32 27 33
REMARK SMILES IDX 28 34 29 35 30 36 31 37 92 38 32 39 91 40 33 41 34 42 35 43
REMARK SMILES IDX 85 44 36 45 90 46 84 47 86 48 37 49 89 50 83 51 82 52 38 54
REMARK SMILES IDX 70 55 50 56 69 57 51 58 54 59 68 60 87 61 52 62 53 63 67 65
REMARK SMILES IDX 88 66 55 67 39 68 40 69 48 70 41 71 42 72 46 73 49 74 43 75
REMARK SMILES IDX 44 76 47 77 45 78 71 79 72 80 80 81 73 82 74 83 78 84 81 85
REMARK SMILES IDX 75 86 76 87 79 88 77 89 56 90 57 91 65 92 58 93 59 94 63 95
REMARK SMILES IDX 66 96 60 97 61 98 64 99 62 100
REMARK H PARENT 10 17 86 53 54 64
REMARK Flexibility Score: inf
ROOT
ATOM      1  C   UNL A   1      40.227  20.401  25.973  1.00  0.00     0.338 C 
ATOM      2  O   UNL A   1      39.962  19.232  25.751  1.00  0.00    -0.246 OA
ENDROOT
BRANCH   1   3
ATOM      3  C   UNL A   1      39.222  21.496  25.993  1.00  0.00     0.060 A 
ATOM      4  C   UNL A   1      36.982  22.290  25.535  1.00  0.00     0.018 A 
ATOM      5  C   UNL A   1      37.379  23.587  25.904  1.00  0.00     0.012 A 
ATOM      6  C   UNL A   1      37.941  21.277  25.490  1.00  0.00     0.027 A 
ATOM      7  C   UNL A   1      38.661  23.815  26.408  1.00  0.00     0.002 A 
ATOM      8  C   UNL A   1      39.550  22.750  26.524  1.00  0.00     0.016 A 
BRANCH   4   9
ATOM      9  C   UNL A   1      35.576  21.903  25.540  1.00  0.00     0.134 A 
ATOM     10  C   UNL A   1      33.676  21.836  26.616  1.00  0.00     0.147 A 
ATOM     11  C   UNL A   1      33.693  20.719  25.808  1.00  0.00     0.053 A 
ATOM     12  O   UNL A   1      34.761  22.620  26.352  1.00  0.00    -0.455 OA
ATOM     13  C   UNL A   1      34.919  20.768  25.099  1.00  0.00     0.051 A 
BRANCH  10  14
ATOM     14  C   UNL A   1      32.866  22.269  27.707  1.00  0.00     0.180 C 
ATOM     15  N   UNL A   1      31.784  22.988  27.715  1.00  0.00    -0.178 NA
BRANCH  15  16
ATOM     16  N   UNL A   1      31.190  23.492  26.593  1.00  0.00    -0.260 N 
ATOM     17  H   UNL A   1      30.669  22.862  26.045  1.00  0.00     0.192 HD
BRANCH  16  18
ATOM     18  C   UNL A   1      31.250  24.852  26.138  1.00  0.00     0.164 A 
ATOM     19  C   UNL A   1      31.071  26.452  24.303  1.00  0.00     0.001 A 
ATOM     20  C   UNL A   1      31.096  27.479  25.234  1.00  0.00     0.031 A 
ATOM     21  C   UNL A   1      31.047  25.121  24.767  1.00  0.00     0.102 A 
ATOM     22  C   UNL A   1      31.314  27.158  26.556  1.00  0.00     0.040 A 
ATOM     23  C   UNL A   1      31.436  28.283  27.530  1.00  0.00     0.067 C 
ATOM     24  N   UNL A   1      31.427  25.880  27.005  1.00  0.00    -0.233 NA
BRANCH  19  25
ATOM     25  C   UNL A   1      31.149  26.856  22.853  1.00  0.00     0.196 C 
BRANCH  25  26
ATOM     26  O   UNL A   1      32.479  27.144  22.433  1.00  0.00    -0.380 OA
ATOM     27  C   UNL A   1      33.037  26.166  21.560  1.00  0.00     0.195 C 
ENDBRANCH  25  26
ENDBRANCH  19  25
BRANCH  21  28
ATOM     28  C   UNL A   1      30.871  24.032  23.851  1.00  0.00     0.103 C 
ATOM     29  N   UNL A   1      30.695  23.209  23.054  1.00  0.00    -0.192 NA
ENDBRANCH  21  28
ENDBRANCH  16  18
ENDBRANCH  15  16
ENDBRANCH  10  14
ENDBRANCH   4   9
ENDBRANCH   1   3
BRANCH   1  30
ATOM     30  O   UNL A   1      41.419  20.903  26.373  1.00  0.00    -0.458 OA
BRANCH  30  31
ATOM     31  C   UNL A   1      42.611  20.305  25.843  1.00  0.00     0.275 C 
BRANCH  31  32
ATOM     32  C   UNL A   1      43.595  21.406  25.441  1.00  0.00     0.275 C 
BRANCH  32  33
ATOM     33  O   UNL A   1      42.887  22.594  25.027  1.00  0.00    -0.458 OA
BRANCH  33  34
ATOM     34  C   UNL A   1      43.599  23.742  25.093  1.00  0.00     0.338 C 
ATOM     35  O   UNL A   1      44.547  24.072  24.402  1.00  0.00    -0.246 OA
BRANCH  34  36
ATOM     36  C   UNL A   1      42.994  24.651  26.077  1.00  0.00     0.060 A 
ATOM     37  C   UNL A   1      43.299  26.003  25.980  1.00  0.00     0.016 A 
ATOM     38  C   UNL A   1      42.282  24.178  27.172  1.00  0.00     0.016 A 
ATOM     39  C   UNL A   1      43.012  26.877  27.019  1.00  0.00     0.010 A 
ATOM     40  C   UNL A   1      41.882  25.083  28.166  1.00  0.00     0.010 A 
ATOM     41  C   UNL A   1      42.272  26.436  28.119  1.00  0.00    -0.014 A 
BRANCH  41  42
ATOM     42  C   UNL A   1      41.923  27.392  29.207  1.00  0.00     0.031 A 
ATOM     43  C   UNL A   1      42.715  27.402  30.488  1.00  0.00     0.074 A 
ATOM     44  C   UNL A   1      40.899  28.256  29.044  1.00  0.00     0.049 A 
ATOM     45  N   UNL A   1      42.471  28.037  31.607  1.00  0.00    -0.248 NA
ATOM     46  C   UNL A   1      43.937  26.582  30.523  1.00  0.00     0.031 C 
ATOM     47  C   UNL A   1      40.082  28.389  27.836  1.00  0.00     0.029 A 
ATOM     48  N   UNL A   1      40.365  29.190  29.902  1.00  0.00    -0.354 N 
ATOM     49  C   UNL A   1      43.471  27.652  32.491  1.00  0.00     0.074 A 
ATOM     50  C   UNL A   1      44.326  26.724  31.783  1.00  0.00     0.031 C 
ATOM     51  C   UNL A   1      39.170  29.356  28.018  1.00  0.00     0.029 A 
ATOM     52  C   UNL A   1      39.270  29.844  29.387  1.00  0.00     0.049 A 
ATOM     53  H   UNL A   1      40.732  29.372  30.796  1.00  0.00     0.167 HD
ATOM     54  C   UNL A   1      43.654  28.039  33.775  1.00  0.00     0.037 A 
ATOM     55  C   UNL A   1      38.405  30.697  29.968  1.00  0.00     0.037 A 
ATOM     56  C   UNL A   1      42.825  29.002  34.456  1.00  0.00     0.049 A 
ATOM     57  C   UNL A   1      38.601  31.057  31.415  1.00  0.00     0.074 A 
ATOM     58  C   UNL A   1      42.958  29.491  35.744  1.00  0.00     0.029 A 
ATOM     59  N   UNL A   1      41.712  29.619  33.907  1.00  0.00    -0.354 N 
ATOM     60  N   UNL A   1      39.552  30.690  32.240  1.00  0.00    -0.248 NA
ATOM     61  C   UNL A   1      37.598  31.946  32.018  1.00  0.00     0.031 C 
ATOM     62  C   UNL A   1      41.883  30.347  35.998  1.00  0.00     0.029 A 
ATOM     63  C   UNL A   1      41.128  30.457  34.843  1.00  0.00     0.049 A 
ATOM     64  H   UNL A   1      41.386  29.484  32.987  1.00  0.00     0.167 HD
ATOM     65  C   UNL A   1      39.283  31.331  33.442  1.00  0.00     0.074 A 
ATOM     66  C   UNL A   1      38.093  32.126  33.233  1.00  0.00     0.031 C 
ATOM     67  C   UNL A   1      39.957  31.263  34.615  1.00  0.00     0.037 A 
BRANCH  54  68
ATOM     68  C   UNL A   1      44.764  27.403  34.562  1.00  0.00     0.064 A 
ATOM     69  C   UNL A   1      44.586  26.212  35.280  1.00  0.00     0.173 A 
ATOM     70  C   UNL A   1      46.056  27.950  34.511  1.00  0.00     0.173 A 
ATOM     71  F   UNL A   1      43.370  25.651  35.368  1.00  0.00    -0.203 F 
ATOM     72  C   UNL A   1      45.657  25.600  35.927  1.00  0.00     0.198 A 
ATOM     73  C   UNL A   1      47.131  27.319  35.132  1.00  0.00     0.198 A 
ATOM     74  F   UNL A   1      46.284  29.085  33.832  1.00  0.00    -0.203 F 
ATOM     75  F   UNL A   1      45.460  24.477  36.633  1.00  0.00    -0.200 F 
ATOM     76  C   UNL A   1      46.931  26.146  35.841  1.00  0.00     0.200 A 
ATOM     77  F   UNL A   1      48.362  27.838  35.030  1.00  0.00    -0.200 F 
ATOM     78  F   UNL A   1      47.964  25.540  36.442  1.00  0.00    -0.200 F 
ENDBRANCH  54  68
BRANCH  55  79
ATOM     79  C   UNL A   1      37.235  31.226  29.210  1.00  0.00     0.064 A 
ATOM     80  C   UNL A   1      37.175  32.571  28.817  1.00  0.00     0.173 A 
ATOM     81  C   UNL A   1      36.125  30.418  28.920  1.00  0.00     0.173 A 
ATOM     82  F   UNL A   1      38.200  33.394  29.088  1.00  0.00    -0.203 F 
ATOM     83  C   UNL A   1      36.036  33.096  28.211  1.00  0.00     0.198 A 
ATOM     84  C   UNL A   1      35.004  30.933  28.272  1.00  0.00     0.198 A 
ATOM     85  F   UNL A   1      36.125  29.122  29.268  1.00  0.00    -0.203 F 
ATOM     86  F   UNL A   1      35.974  34.404  27.925  1.00  0.00    -0.200 F 
ATOM     87  C   UNL A   1      34.952  32.276  27.936  1.00  0.00     0.200 A 
ATOM     88  F   UNL A   1      33.969  30.131  27.990  1.00  0.00    -0.200 F 
ATOM     89  F   UNL A   1      33.853  32.782  27.362  1.00  0.00    -0.200 F 
ENDBRANCH  55  79
BRANCH  67  90
ATOM     90  C   UNL A   1      39.468  32.125  35.744  1.00  0.00     0.064 A 
ATOM     91  C   UNL A   1      38.513  31.671  36.666  1.00  0.00     0.173 A 
ATOM     92  C   UNL A   1      39.987  33.417  35.920  1.00  0.00     0.173 A 
ATOM     93  F   UNL A   1      37.972  30.450  36.533  1.00  0.00    -0.203 F 
ATOM     94  C   UNL A   1      38.072  32.491  37.701  1.00  0.00     0.198 A 
ATOM     95  C   UNL A   1      39.575  34.218  36.980  1.00  0.00     0.198 A 
ATOM     96  F   UNL A   1      40.908  33.898  35.072  1.00  0.00    -0.203 F 
ATOM     97  F   UNL A   1      37.112  32.060  38.532  1.00  0.00    -0.200 F 
ATOM     98  C   UNL A   1      38.609  33.760  37.862  1.00  0.00     0.200 A 
ATOM     99  F   UNL A   1      40.111  35.436  37.146  1.00  0.00    -0.200 F 
ATOM    100  F   UNL A   1      38.190  34.544  38.865  1.00  0.00    -0.200 F 
ENDBRANCH  67  90
ENDBRANCH  41  42
ENDBRANCH  34  36
ENDBRANCH  33  34
ENDBRANCH  32  33
ENDBRANCH  31  32
ENDBRANCH  30  31
ENDBRANCH   1  30
TORSDOF 18
ENDMDL
MODEL 2
REMARK VINA RESULT:     -12.6      0.887      1.921
REMARK SMILES COCc1cc(C)nc(N/N=C\c2ccc(-c3cccc(C(=O)OCCOC(=O)c4ccc(-c5c6nc(c(-c7c(F)c(F)c(F)c(F)c7F)c7ccc([nH]7)c(-c7c(F)c(F)c(F)c(F)c7F)c7nc(c(-c8c(F)c(F)c(F)c(F)c8F)c8ccc5[nH]8)C=C7)C=C6)cc4)c3)o2)c1C#N
REMARK SMILES IDX 22 1 23 2 21 3 17 4 18 5 93 6 19 7 20 8 16 9 13 10 14 11
REMARK SMILES IDX 94 12 15 13 12 14 11 15 10 16 9 18 4 19 5 20 95 21 6 22 7 23
REMARK SMILES IDX 8 24 3 25 2 26 1 27 96 28 97 29 24 30 25 31 26 32 27 33
REMARK SMILES IDX 28 34 29 35 30 36 31 37 92 38 32 39 91 40 33 41 34 42 35 43
REMARK SMILES IDX 85 44 36 45 90 46 84 47 86 48 37 49 89 50 83 51 82 52 38 54
REMARK SMILES IDX 70 55 50 56 69 57 51 58 54 59 68 60 87 61 52 62 53 63 67 65
REMARK SMILES IDX 88 66 55 67 39 68 40 69 48 70 41 71 42 72 46 73 49 74 43 75
REMARK SMILES IDX 44 76 47 77 45 78 71 79 72 80 80 81 73 82 74 83 78 84 81 85
REMARK SMILES IDX 75 86 76 87 79 88 77 89 56 90 57 91 65 92 58 93 59 94 63 95
REMARK SMILES IDX 66 96 60 97 61 98 64 99 62 100
REMARK H PARENT 10 17 86 53 54 64
REMARK Flexibility Score: inf
ROOT
ATOM      1  C   UNL A   1      40.678  20.900  26.669  1.00  0.00     0.338 C 
ATOM      2  O   UNL A   1      40.780  20.191  27.655  1.00  0.00    -0.246 OA
ENDROOT
BRANCH   1   3
ATOM      3  C   UNL A   1      39.578  21.876  26.453  1.00  0.00     0.060 A 
ATOM      4  C   UNL A   1      37.411  22.414  25.518  1.00  0.00     0.018 A 
ATOM      5  C   UNL A   1      37.577  23.748  25.931  1.00  0.00     0.012 A 
ATOM      6  C   UNL A   1      38.462  21.515  25.698  1.00  0.00     0.027 A 
ATOM      7  C   UNL A   1      38.692  24.118  26.686  1.00  0.00     0.002 A 
ATOM      8  C   UNL A   1      39.648  23.159  27.011  1.00  0.00     0.016 A 
BRANCH   4   9
ATOM      9  C   UNL A   1      36.086  21.873  25.238  1.00  0.00     0.134 A 
ATOM     10  C   UNL A   1      33.946  21.886  25.680  1.00  0.00     0.147 A 
ATOM     11  C   UNL A   1      34.248  20.593  25.310  1.00  0.00     0.053 A 
ATOM     12  O   UNL A   1      35.037  22.689  25.507  1.00  0.00    -0.455 OA
ATOM     13  C   UNL A   1      35.633  20.586  25.010  1.00  0.00     0.051 A 
BRANCH  10  14
ATOM     14  C   UNL A   1      32.823  22.516  26.293  1.00  0.00     0.180 C 
ATOM     15  N   UNL A   1      32.409  23.745  26.223  1.00  0.00    -0.178 NA
BRANCH  15  16
ATOM     16  N   UNL A   1      33.026  24.722  25.496  1.00  0.00    -0.260 N 
ATOM     17  H   UNL A   1      33.956  24.935  25.736  1.00  0.00     0.192 HD
BRANCH  16  18
ATOM     18  C   UNL A   1      32.449  25.466  24.412  1.00  0.00     0.164 A 
ATOM     19  C   UNL A   1      31.156  27.393  23.654  1.00  0.00     0.001 A 
ATOM     20  C   UNL A   1      31.527  27.093  22.352  1.00  0.00     0.031 A 
ATOM     21  C   UNL A   1      31.706  26.630  24.704  1.00  0.00     0.102 A 
ATOM     22  C   UNL A   1      32.237  25.935  22.124  1.00  0.00     0.040 A 
ATOM     23  C   UNL A   1      32.542  25.578  20.707  1.00  0.00     0.067 C 
ATOM     24  N   UNL A   1      32.663  25.113  23.119  1.00  0.00    -0.233 NA
BRANCH  19  25
ATOM     25  C   UNL A   1      30.124  28.478  23.828  1.00  0.00     0.196 C 
BRANCH  25  26
ATOM     26  O   UNL A   1      28.804  28.032  23.538  1.00  0.00    -0.380 OA
ATOM     27  C   UNL A   1      28.043  28.943  22.749  1.00  0.00     0.195 C 
ENDBRANCH  25  26
ENDBRANCH  19  25
BRANCH  21  28
ATOM     28  C   UNL A   1      31.471  26.994  26.071  1.00  0.00     0.103 C 
ATOM     29  N   UNL A   1      31.226  27.350  27.147  1.00  0.00    -0.192 NA
ENDBRANCH  21  28
ENDBRANCH  16  18
ENDBRANCH  15  16
ENDBRANCH  10  14
ENDBRANCH   4   9
ENDBRANCH   1   3
BRANCH   1  30
ATOM     30  O   UNL A   1      41.583  21.045  25.673  1.00  0.00    -0.458 OA
BRANCH  30  31
ATOM     31  C   UNL A   1      42.963  20.796  25.980  1.00  0.00     0.275 C 
BRANCH  31  32
ATOM     32  C   UNL A   1      43.846  21.697  25.114  1.00  0.00     0.275 C 
BRANCH  32  33
ATOM     33  O   UNL A   1      43.146  22.911  24.764  1.00  0.00    -0.458 OA
BRANCH  33  34
ATOM     34  C   UNL A   1      43.838  24.055  24.965  1.00  0.00     0.338 C 
ATOM     35  O   UNL A   1      44.810  24.455  24.348  1.00  0.00    -0.246 OA
BRANCH  34  36
ATOM     36  C   UNL A   1      43.179  24.866  25.999  1.00  0.00     0.060 A 
ATOM     37  C   UNL A   1      43.123  26.240  25.804  1.00  0.00     0.016 A 
ATOM     38  C   UNL A   1      42.775  24.320  27.211  1.00  0.00     0.016 A 
ATOM     39  C   UNL A   1      42.786  27.096  26.842  1.00  0.00     0.010 A 
ATOM     40  C   UNL A   1      42.315  25.176  28.222  1.00  0.00     0.010 A 
ATOM     41  C   UNL A   1      42.349  26.576  28.062  1.00  0.00    -0.014 A 
BRANCH  41  42
ATOM     42  C   UNL A   1      41.939  27.501  29.156  1.00  0.00     0.031 A 
ATOM     43  C   UNL A   1      42.712  27.534  30.448  1.00  0.00     0.074 A 
ATOM     44  C   UNL A   1      40.875  28.316  28.989  1.00  0.00     0.049 A 
ATOM     45  N   UNL A   1      42.422  28.144  31.570  1.00  0.00    -0.248 NA
ATOM     46  C   UNL A   1      43.972  26.775  30.491  1.00  0.00     0.031 C 
ATOM     47  C   UNL A   1      40.068  28.423  27.771  1.00  0.00     0.029 A 
ATOM     48  N   UNL A   1      40.285  29.212  29.849  1.00  0.00    -0.354 N 
ATOM     49  C   UNL A   1      43.429  27.798  32.463  1.00  0.00     0.074 A 
ATOM     50  C   UNL A   1      44.337  26.921  31.757  1.00  0.00     0.031 C 
ATOM     51  C   UNL A   1      39.108  29.342  27.952  1.00  0.00     0.029 A 
ATOM     52  C   UNL A   1      39.166  29.818  29.327  1.00  0.00     0.049 A 
ATOM     53  H   UNL A   1      40.630  29.402  30.751  1.00  0.00     0.167 HD
ATOM     54  C   UNL A   1      43.575  28.178  33.754  1.00  0.00     0.037 A 
ATOM     55  C   UNL A   1      38.252  30.620  29.905  1.00  0.00     0.037 A 
ATOM     56  C   UNL A   1      42.692  29.091  34.435  1.00  0.00     0.049 A 
ATOM     57  C   UNL A   1      38.412  30.972  31.359  1.00  0.00     0.074 A 
ATOM     58  C   UNL A   1      42.783  29.571  35.730  1.00  0.00     0.029 A 
ATOM     59  N   UNL A   1      41.557  29.660  33.877  1.00  0.00    -0.354 N 
ATOM     60  N   UNL A   1      39.368  30.642  32.192  1.00  0.00    -0.248 NA
ATOM     61  C   UNL A   1      37.358  31.804  31.958  1.00  0.00     0.031 C 
ATOM     62  C   UNL A   1      41.664  30.370  35.979  1.00  0.00     0.029 A 
ATOM     63  C   UNL A   1      40.919  30.457  34.815  1.00  0.00     0.049 A 
ATOM     64  H   UNL A   1      41.250  29.519  32.952  1.00  0.00     0.167 HD
ATOM     65  C   UNL A   1      39.052  31.256  33.398  1.00  0.00     0.074 A 
ATOM     66  C   UNL A   1      37.828  31.994  33.182  1.00  0.00     0.031 C 
ATOM     67  C   UNL A   1      39.714  31.207  34.579  1.00  0.00     0.037 A 
BRANCH  54  68
ATOM     68  C   UNL A   1      44.705  27.587  34.549  1.00  0.00     0.064 A 
ATOM     69  C   UNL A   1      45.943  28.231  34.681  1.00  0.00     0.173 A 
ATOM     70  C   UNL A   1      44.504  26.399  35.269  1.00  0.00     0.173 A 
ATOM     71  F   UNL A   1      46.192  29.364  34.008  1.00  0.00    -0.203 F 
ATOM     72  C   UNL A   1      46.941  27.701  35.497  1.00  0.00     0.198 A 
ATOM     73  C   UNL A   1      45.491  25.889  36.108  1.00  0.00     0.198 A 
ATOM     74  F   UNL A   1      43.335  25.746  35.185  1.00  0.00    -0.203 F 
ATOM     75  F   UNL A   1      48.129  28.317  35.586  1.00  0.00    -0.200 F 
ATOM     76  C   UNL A   1      46.710  26.539  36.219  1.00  0.00     0.200 A 
ATOM     77  F   UNL A   1      45.257  24.778  36.820  1.00  0.00    -0.200 F 
ATOM     78  F   UNL A   1      47.662  26.046  37.023  1.00  0.00    -0.200 F 
ENDBRANCH  54  68
BRANCH  55  79
ATOM     79  C   UNL A   1      37.068  31.101  29.138  1.00  0.00     0.064 A 
ATOM     80  C   UNL A   1      36.968  32.437  28.723  1.00  0.00     0.173 A 
ATOM     81  C   UNL A   1      35.984  30.254  28.860  1.00  0.00     0.173 A 
ATOM     82  F   UNL A   1      37.966  33.295  28.981  1.00  0.00    -0.203 F 
ATOM     83  C   UNL A   1      35.813  32.916  28.107  1.00  0.00     0.198 A 
ATOM     84  C   UNL A   1      34.849  30.723  28.202  1.00  0.00     0.198 A 
ATOM     85  F   UNL A   1      36.024  28.965  29.229  1.00  0.00    -0.203 F 
ATOM     86  F   UNL A   1      35.712  34.217  27.799  1.00  0.00    -0.200 F 
ATOM     87  C   UNL A   1      34.756  32.058  27.844  1.00  0.00     0.200 A 
ATOM     88  F   UNL A   1      33.839  29.885  27.932  1.00  0.00    -0.200 F 
ATOM     89  F   UNL A   1      33.642  32.521  27.260  1.00  0.00    -0.200 F 
ENDBRANCH  55  79
BRANCH  67  90
ATOM     90  C   UNL A   1      39.168  32.030  35.711  1.00  0.00     0.064 A 
ATOM     91  C   UNL A   1      38.271  31.501  36.651  1.00  0.00     0.173 A 
ATOM     92  C   UNL A   1      39.574  33.364  35.872  1.00  0.00     0.173 A 
ATOM     93  F   UNL A   1      37.837  30.236  36.533  1.00  0.00    -0.203 F 
ATOM     94  C   UNL A   1      37.775  32.286  37.688  1.00  0.00     0.198 A 
ATOM     95  C   UNL A   1      39.109  34.134  36.933  1.00  0.00     0.198 A 
ATOM     96  F   UNL A   1      40.436  33.918  35.006  1.00  0.00    -0.203 F 
ATOM     97  F   UNL A   1      36.870  31.778  38.536  1.00  0.00    -0.200 F 
ATOM     98  C   UNL A   1      38.202  33.599  37.834  1.00  0.00     0.200 A 
ATOM     99  F   UNL A   1      39.539  35.394  37.084  1.00  0.00    -0.200 F 
ATOM    100  F   UNL A   1      37.731  34.350  38.838  1.00  0.00    -0.200 F 
ENDBRANCH  67  90
ENDBRANCH  41  42
ENDBRANCH  34  36
ENDBRANCH  33  34
ENDBRANCH  32  33
ENDBRANCH  31  32
ENDBRANCH  30  31
ENDBRANCH   1  30
TORSDOF 18
ENDMDL
MODEL 3
REMARK VINA RESULT:     -12.6      3.386      9.345
REMARK SMILES COCc1cc(C)nc(N/N=C\c2ccc(-c3cccc(C(=O)OCCOC(=O)c4ccc(-c5c6nc(c(-c7c(F)c(F)c(F)c(F)c7F)c7ccc([nH]7)c(-c7c(F)c(F)c(F)c(F)c7F)c7nc(c(-c8c(F)c(F)c(F)c(F)c8F)c8ccc5[nH]8)C=C7)C=C6)cc4)c3)o2)c1C#N
REMARK SMILES IDX 22 1 23 2 21 3 17 4 18 5 93 6 19 7 20 8 16 9 13 10 14 11
REMARK SMILES IDX 94 12 15 13 12 14 11 15 10 16 9 18 4 19 5 20 95 21 6 22 7 23
REMARK SMILES IDX 8 24 3 25 2 26 1 27 96 28 97 29 24 30 25 31 26 32 27 33
REMARK SMILES IDX 28 34 29 35 30 36 31 37 92 38 32 39 91 40 33 41 34 42 35 43
REMARK SMILES IDX 85 44 36 45 90 46 84 47 86 48 37 49 89 50 83 51 82 52 38 54
REMARK SMILES IDX 70 55 50 56 69 57 51 58 54 59 68 60 87 61 52 62 53 63 67 65
REMARK SMILES IDX 88 66 55 67 39 68 40 69 48 70 41 71 42 72 46 73 49 74 43 75
REMARK SMILES IDX 44 76 47 77 45 78 71 79 72 80 80 81 73 82 74 83 78 84 81 85
REMARK SMILES IDX 75 86 76 87 79 88 77 89 56 90 57 91 65 92 58 93 59 94 63 95
REMARK SMILES IDX 66 96 60 97 61 98 64 99 62 100
REMARK H PARENT 10 17 86 53 54 64
REMARK Flexibility Score: inf
ROOT
ATOM      1  C   UNL A   1      32.985  33.185  27.966  1.00  0.00     0.338 C 
ATOM      2  O   UNL A   1      32.057  33.588  27.287  1.00  0.00    -0.246 OA
ENDROOT
BRANCH   1   3
ATOM      3  C   UNL A   1      33.687  31.895  27.739  1.00  0.00     0.060 A 
ATOM      4  C   UNL A   1      33.645  29.591  27.001  1.00  0.00     0.018 A 
ATOM      5  C   UNL A   1      34.971  29.437  27.442  1.00  0.00     0.012 A 
ATOM      6  C   UNL A   1      32.986  30.795  27.247  1.00  0.00     0.027 A 
ATOM      7  C   UNL A   1      35.680  30.533  27.937  1.00  0.00     0.002 A 
ATOM      8  C   UNL A   1      35.057  31.776  28.008  1.00  0.00     0.016 A 
BRANCH   4   9
ATOM      9  C   UNL A   1      33.072  28.686  26.012  1.00  0.00     0.134 A 
ATOM     10  C   UNL A   1      33.048  27.969  23.948  1.00  0.00     0.147 A 
ATOM     11  C   UNL A   1      31.755  27.839  24.409  1.00  0.00     0.053 A 
ATOM     12  O   UNL A   1      33.870  28.358  24.966  1.00  0.00    -0.455 OA
ATOM     13  C   UNL A   1      31.771  28.290  25.751  1.00  0.00     0.051 A 
BRANCH  10  14
ATOM     14  C   UNL A   1      33.664  27.904  22.663  1.00  0.00     0.180 C 
ATOM     15  N   UNL A   1      33.668  26.949  21.783  1.00  0.00    -0.178 NA
BRANCH  15  16
ATOM     16  N   UNL A   1      33.035  25.751  21.948  1.00  0.00    -0.260 N 
ATOM     17  H   UNL A   1      32.174  25.636  21.485  1.00  0.00     0.192 HD
BRANCH  16  18
ATOM     18  C   UNL A   1      33.505  24.642  22.730  1.00  0.00     0.164 A 
ATOM     19  C   UNL A   1      32.999  22.726  24.156  1.00  0.00     0.001 A 
ATOM     20  C   UNL A   1      34.324  22.332  24.047  1.00  0.00     0.031 A 
ATOM     21  C   UNL A   1      32.562  23.838  23.407  1.00  0.00     0.102 A 
ATOM     22  C   UNL A   1      35.202  23.165  23.389  1.00  0.00     0.040 A 
ATOM     23  C   UNL A   1      36.642  22.772  23.367  1.00  0.00     0.067 C 
ATOM     24  N   UNL A   1      34.821  24.314  22.772  1.00  0.00    -0.233 NA
BRANCH  19  25
ATOM     25  C   UNL A   1      32.147  21.964  25.139  1.00  0.00     0.196 C 
BRANCH  25  26
ATOM     26  O   UNL A   1      32.838  21.664  26.347  1.00  0.00    -0.380 OA
ATOM     27  C   UNL A   1      32.653  22.631  27.377  1.00  0.00     0.195 C 
ENDBRANCH  25  26
ENDBRANCH  19  25
BRANCH  21  28
ATOM     28  C   UNL A   1      31.174  24.193  23.370  1.00  0.00     0.103 C 
ATOM     29  N   UNL A   1      30.076  24.563  23.325  1.00  0.00    -0.192 NA
ENDBRANCH  21  28
ENDBRANCH  16  18
ENDBRANCH  15  16
ENDBRANCH  10  14
ENDBRANCH   4   9
ENDBRANCH   1   3
BRANCH   1  30
ATOM     30  O   UNL A   1      33.637  33.865  28.938  1.00  0.00    -0.458 OA
BRANCH  30  31
ATOM     31  C   UNL A   1      33.935  35.249  28.704  1.00  0.00     0.275 C 
BRANCH  31  32
ATOM     32  C   UNL A   1      32.940  36.119  29.475  1.00  0.00     0.275 C 
BRANCH  32  33
ATOM     33  O   UNL A   1      32.406  35.401  30.608  1.00  0.00    -0.458 OA
BRANCH  33  34
ATOM     34  C   UNL A   1      32.721  35.915  31.818  1.00  0.00     0.338 C 
ATOM     35  O   UNL A   1      32.172  36.833  32.403  1.00  0.00    -0.246 OA
BRANCH  34  36
ATOM     36  C   UNL A   1      33.792  35.122  32.437  1.00  0.00     0.060 A 
ATOM     37  C   UNL A   1      35.069  35.670  32.463  1.00  0.00     0.016 A 
ATOM     38  C   UNL A   1      33.595  33.805  32.832  1.00  0.00     0.016 A 
ATOM     39  C   UNL A   1      36.176  34.889  32.760  1.00  0.00     0.010 A 
ATOM     40  C   UNL A   1      34.699  33.048  33.252  1.00  0.00     0.010 A 
ATOM     41  C   UNL A   1      36.007  33.570  33.187  1.00  0.00    -0.014 A 
BRANCH  41  42
ATOM     42  C   UNL A   1      37.197  32.752  33.554  1.00  0.00     0.031 A 
ATOM     43  C   UNL A   1      37.908  32.995  34.859  1.00  0.00     0.074 A 
ATOM     44  C   UNL A   1      37.637  31.787  32.719  1.00  0.00     0.049 A 
ATOM     45  N   UNL A   1      39.047  32.507  35.284  1.00  0.00    -0.248 NA
ATOM     46  C   UNL A   1      37.263  33.915  35.810  1.00  0.00     0.031 C 
ATOM     47  C   UNL A   1      37.013  31.413  31.448  1.00  0.00     0.029 A 
ATOM     48  N   UNL A   1      38.719  30.943  32.811  1.00  0.00    -0.354 N 
ATOM     49  C   UNL A   1      39.280  33.100  36.519  1.00  0.00     0.074 A 
ATOM     50  C   UNL A   1      38.167  33.989  36.777  1.00  0.00     0.031 C 
ATOM     51  C   UNL A   1      37.703  30.405  30.892  1.00  0.00     0.029 A 
ATOM     52  C   UNL A   1      38.874  30.128  31.713  1.00  0.00     0.049 A 
ATOM     53  H   UNL A   1      39.323  30.923  33.587  1.00  0.00     0.167 HD
ATOM     54  C   UNL A   1      40.328  32.918  37.355  1.00  0.00     0.037 A 
ATOM     55  C   UNL A   1      39.875  29.295  31.374  1.00  0.00     0.037 A 
ATOM     56  C   UNL A   1      41.407  31.993  37.113  1.00  0.00     0.049 A 
ATOM     57  C   UNL A   1      41.055  29.164  32.298  1.00  0.00     0.074 A 
ATOM     58  C   UNL A   1      42.491  31.706  37.923  1.00  0.00     0.029 A 
ATOM     59  N   UNL A   1      41.538  31.208  35.977  1.00  0.00    -0.354 N 
ATOM     60  N   UNL A   1      41.263  29.726  33.463  1.00  0.00    -0.248 NA
ATOM     61  C   UNL A   1      42.147  28.285  31.855  1.00  0.00     0.031 C 
ATOM     62  C   UNL A   1      43.316  30.804  37.246  1.00  0.00     0.029 A 
ATOM     63  C   UNL A   1      42.705  30.465  36.050  1.00  0.00     0.049 A 
ATOM     64  H   UNL A   1      40.896  31.182  35.231  1.00  0.00     0.167 HD
ATOM     65  C   UNL A   1      42.486  29.242  33.908  1.00  0.00     0.074 A 
ATOM     66  C   UNL A   1      42.964  28.324  32.898  1.00  0.00     0.031 C 
ATOM     67  C   UNL A   1      43.156  29.535  35.048  1.00  0.00     0.037 A 
BRANCH  54  68
ATOM     68  C   UNL A   1      40.402  33.755  38.601  1.00  0.00     0.064 A 
ATOM     69  C   UNL A   1      41.166  34.927  38.671  1.00  0.00     0.173 A 
ATOM     70  C   UNL A   1      39.610  33.421  39.712  1.00  0.00     0.173 A 
ATOM     71  F   UNL A   1      41.948  35.288  37.641  1.00  0.00    -0.203 F 
ATOM     72  C   UNL A   1      41.144  35.729  39.810  1.00  0.00     0.198 A 
ATOM     73  C   UNL A   1      39.565  34.241  40.836  1.00  0.00     0.198 A 
ATOM     74  F   UNL A   1      38.853  32.314  39.696  1.00  0.00    -0.203 F 
ATOM     75  F   UNL A   1      41.906  36.831  39.868  1.00  0.00    -0.200 F 
ATOM     76  C   UNL A   1      40.334  35.393  40.886  1.00  0.00     0.200 A 
ATOM     77  F   UNL A   1      38.767  33.924  41.865  1.00  0.00    -0.200 F 
ATOM     78  F   UNL A   1      40.295  36.180  41.970  1.00  0.00    -0.200 F 
ENDBRANCH  54  68
BRANCH  55  79
ATOM     79  C   UNL A   1      39.847  28.562  30.076  1.00  0.00     0.064 A 
ATOM     80  C   UNL A   1      39.290  27.279  29.980  1.00  0.00     0.173 A 
ATOM     81  C   UNL A   1      40.434  29.100  28.920  1.00  0.00     0.173 A 
ATOM     82  F   UNL A   1      38.735  26.708  31.060  1.00  0.00    -0.203 F 
ATOM     83  C   UNL A   1      39.365  26.545  28.797  1.00  0.00     0.198 A 
ATOM     84  C   UNL A   1      40.467  28.384  27.725  1.00  0.00     0.198 A 
ATOM     85  F   UNL A   1      40.980  30.325  28.949  1.00  0.00    -0.203 F 
ATOM     86  F   UNL A   1      38.901  25.289  28.760  1.00  0.00    -0.200 F 
ATOM     87  C   UNL A   1      39.951  27.100  27.670  1.00  0.00     0.200 A 
ATOM     88  F   UNL A   1      41.016  28.934  26.633  1.00  0.00    -0.200 F 
ATOM     89  F   UNL A   1      40.031  26.392  26.535  1.00  0.00    -0.200 F 
ENDBRANCH  55  79
BRANCH  67  90
ATOM     90  C   UNL A   1      44.444  28.804  35.300  1.00  0.00     0.064 A 
ATOM     91  C   UNL A   1      45.685  29.320  34.896  1.00  0.00     0.173 A 
ATOM     92  C   UNL A   1      44.436  27.578  35.984  1.00  0.00     0.173 A 
ATOM     93  F   UNL A   1      45.747  30.481  34.224  1.00  0.00    -0.203 F 
ATOM     94  C   UNL A   1      46.863  28.621  35.136  1.00  0.00     0.198 A 
ATOM     95  C   UNL A   1      45.620  26.902  36.259  1.00  0.00     0.198 A 
ATOM     96  F   UNL A   1      43.279  27.043  36.399  1.00  0.00    -0.203 F 
ATOM     97  F   UNL A   1      48.030  29.103  34.685  1.00  0.00    -0.200 F 
ATOM     98  C   UNL A   1      46.831  27.417  35.826  1.00  0.00     0.200 A 
ATOM     99  F   UNL A   1      45.589  25.750  36.944  1.00  0.00    -0.200 F 
ATOM    100  F   UNL A   1      47.969  26.750  36.065  1.00  0.00    -0.200 F 
ENDBRANCH  67  90
ENDBRANCH  41  42
ENDBRANCH  34  36
ENDBRANCH  33  34
ENDBRANCH  32  33
ENDBRANCH  31  32
ENDBRANCH  30  31
ENDBRANCH   1  30
TORSDOF 18
ENDMDL
