MODEL 1
REMARK VINA RESULT:     -12.5      0.000      0.000
REMARK SMILES CC(C)CN(C)c1cc2c(cc1Cl)C=C(C(=O)OCCOC(=O)c1ccc(-c3c4nc(c(-c5c(F)c(F)c(F)c(F)c5F)c5ccc([nH]5)c(-c5c(F)c(F)c(F)c(F)c5F)c5nc(c(-c6c(F)c(F)c(F)c(F)c6F)c6ccc3[nH]6)C=C5)C=C4)cc1)[C@@H](C(F)(F)F)O2
REMARK SMILES IDX 19 1 18 2 16 3 17 4 15 5 7 6 8 7 12 8 9 9 11 10 13 11 10 12
REMARK SMILES IDX 92 13 14 14 87 15 5 16 6 17 4 18 2 19 1 20 3 21 88 22 89 23
REMARK SMILES IDX 90 24 91 25 20 26 21 27 22 28 23 29 24 30 25 31 86 32 26 33
REMARK SMILES IDX 85 34 27 35 28 36 29 37 79 38 30 39 84 40 78 41 80 42 31 43
REMARK SMILES IDX 83 44 77 45 76 46 32 48 64 49 44 50 63 51 45 52 48 53 62 54
REMARK SMILES IDX 81 55 46 56 47 57 61 59 82 60 49 61 33 62 34 63 42 64 35 65
REMARK SMILES IDX 36 66 40 67 43 68 37 69 38 70 41 71 39 72 65 73 66 74 74 75
REMARK SMILES IDX 67 76 68 77 72 78 75 79 69 80 70 81 73 82 71 83 50 84 51 85
REMARK SMILES IDX 59 86 52 87 53 88 57 89 60 90 54 91 55 92 58 93 56 94
REMARK H PARENT 80 47 48 58
REMARK Flexibility Score: inf
ROOT
ATOM      1  C   UNL A   1      31.674  29.579  24.768  1.00  0.00     0.275 C 
ENDROOT
BRANCH   1   2
ATOM      2  O   UNL A   1      31.127  28.314  25.203  1.00  0.00    -0.459 OA
BRANCH   2   3
ATOM      3  C   UNL A   1      30.486  27.617  24.238  1.00  0.00     0.338 C 
ATOM      4  O   UNL A   1      29.626  28.053  23.486  1.00  0.00    -0.246 OA
BRANCH   3   5
ATOM      5  C   UNL A   1      30.994  26.237  24.129  1.00  0.00     0.087 C 
ATOM      6  C   UNL A   1      33.032  21.762  25.260  1.00  0.00     0.059 A 
ATOM      7  C   UNL A   1      32.584  22.359  24.058  1.00  0.00     0.074 A 
ATOM      8  C   UNL A   1      32.962  22.533  26.439  1.00  0.00     0.065 A 
ATOM      9  C   UNL A   1      32.043  23.651  24.050  1.00  0.00     0.130 A 
ATOM     10  C   UNL A   1      32.332  23.771  26.446  1.00  0.00     0.034 A 
ATOM     11  Cl  UNL A   1      33.700  22.049  27.927  1.00  0.00    -0.082 Cl
ATOM     12  C   UNL A   1      31.869  24.320  25.255  1.00  0.00     0.019 A 
ATOM     13  O   UNL A   1      31.670  24.203  22.849  1.00  0.00    -0.475 OA
ATOM     14  C   UNL A   1      31.223  25.610  25.286  1.00  0.00     0.027 C 
ATOM     15  C   UNL A   1      31.448  25.654  22.818  1.00  0.00     0.316 C 
BRANCH   6  16
ATOM     16  N   UNL A   1      33.522  20.451  25.278  1.00  0.00    -0.373 N 
ATOM     17  C   UNL A   1      34.925  20.284  24.923  1.00  0.00     0.143 C 
BRANCH  16  18
ATOM     18  C   UNL A   1      32.590  19.364  24.908  1.00  0.00     0.119 C 
BRANCH  18  19
ATOM     19  C   UNL A   1      33.314  18.086  24.431  1.00  0.00     0.002 C 
ATOM     20  C   UNL A   1      33.035  16.890  25.348  1.00  0.00     0.009 C 
ATOM     21  C   UNL A   1      32.915  17.711  23.001  1.00  0.00     0.009 C 
ENDBRANCH  18  19
ENDBRANCH  16  18
ENDBRANCH   6  16
BRANCH  15  22
ATOM     22  C   UNL A   1      32.716  26.388  22.345  1.00  0.00     0.430 C 
ATOM     23  F   UNL A   1      32.460  27.672  22.010  1.00  0.00    -0.167 F 
ATOM     24  F   UNL A   1      33.655  26.418  23.324  1.00  0.00    -0.167 F 
ATOM     25  F   UNL A   1      33.283  25.791  21.271  1.00  0.00    -0.167 F 
ENDBRANCH  15  22
ENDBRANCH   3   5
ENDBRANCH   2   3
ENDBRANCH   1   2
BRANCH   1  26
ATOM     26  C   UNL A   1      31.524  30.667  25.835  1.00  0.00     0.275 C 
BRANCH  26  27
ATOM     27  O   UNL A   1      32.517  30.515  26.867  1.00  0.00    -0.458 OA
BRANCH  27  28
ATOM     28  C   UNL A   1      33.164  31.647  27.226  1.00  0.00     0.338 C 
ATOM     29  O   UNL A   1      32.732  32.786  27.221  1.00  0.00    -0.246 OA
BRANCH  28  30
ATOM     30  C   UNL A   1      34.513  31.319  27.717  1.00  0.00     0.060 A 
ATOM     31  C   UNL A   1      35.426  32.315  28.041  1.00  0.00     0.016 A 
ATOM     32  C   UNL A   1      34.803  29.992  28.011  1.00  0.00     0.016 A 
ATOM     33  C   UNL A   1      36.640  31.959  28.647  1.00  0.00     0.010 A 
ATOM     34  C   UNL A   1      35.943  29.656  28.738  1.00  0.00     0.010 A 
ATOM     35  C   UNL A   1      36.901  30.630  29.041  1.00  0.00    -0.014 A 
BRANCH  35  36
ATOM     36  C   UNL A   1      38.159  30.265  29.762  1.00  0.00     0.031 A 
ATOM     37  C   UNL A   1      38.403  30.706  31.188  1.00  0.00     0.074 A 
ATOM     38  C   UNL A   1      39.115  29.555  29.126  1.00  0.00     0.049 A 
ATOM     39  N   UNL A   1      39.424  30.451  31.971  1.00  0.00    -0.248 NA
ATOM     40  C   UNL A   1      37.396  31.584  31.806  1.00  0.00     0.031 C 
ATOM     41  C   UNL A   1      39.077  29.157  27.718  1.00  0.00     0.029 A 
ATOM     42  N   UNL A   1      40.296  29.023  29.585  1.00  0.00    -0.354 N 
ATOM     43  C   UNL A   1      39.193  31.157  33.146  1.00  0.00     0.074 A 
ATOM     44  C   UNL A   1      37.977  31.911  32.950  1.00  0.00     0.031 C 
ATOM     45  C   UNL A   1      40.132  28.372  27.453  1.00  0.00     0.029 A 
ATOM     46  C   UNL A   1      40.943  28.240  28.659  1.00  0.00     0.049 A 
ATOM     47  H   UNL A   1      40.646  29.185  30.492  1.00  0.00     0.167 HD
ATOM     48  C   UNL A   1      39.896  31.144  34.305  1.00  0.00     0.037 A 
ATOM     49  C   UNL A   1      42.048  27.476  28.772  1.00  0.00     0.037 A 
ATOM     50  C   UNL A   1      41.065  30.337  34.534  1.00  0.00     0.049 A 
ATOM     51  C   UNL A   1      42.771  27.410  30.089  1.00  0.00     0.074 A 
ATOM     52  C   UNL A   1      41.791  30.182  35.702  1.00  0.00     0.029 A 
ATOM     53  N   UNL A   1      41.668  29.537  33.576  1.00  0.00    -0.354 N 
ATOM     54  N   UNL A   1      42.487  28.015  31.217  1.00  0.00    -0.248 NA
ATOM     55  C   UNL A   1      43.964  26.555  30.150  1.00  0.00     0.031 C 
ATOM     56  C   UNL A   1      42.850  29.306  35.444  1.00  0.00     0.029 A 
ATOM     57  C   UNL A   1      42.762  28.889  34.126  1.00  0.00     0.049 A 
ATOM     58  H   UNL A   1      41.365  29.442  32.645  1.00  0.00     0.167 HD
ATOM     59  C   UNL A   1      43.455  27.605  32.122  1.00  0.00     0.074 A 
ATOM     60  C   UNL A   1      44.323  26.681  31.421  1.00  0.00     0.031 C 
ATOM     61  C   UNL A   1      43.613  27.968  33.418  1.00  0.00     0.037 A 
BRANCH  48  62
ATOM     62  C   UNL A   1      39.392  31.992  35.438  1.00  0.00     0.064 A 
ATOM     63  C   UNL A   1      38.514  31.474  36.404  1.00  0.00     0.173 A 
ATOM     64  C   UNL A   1      39.826  33.318  35.593  1.00  0.00     0.173 A 
ATOM     65  F   UNL A   1      38.065  30.214  36.299  1.00  0.00    -0.203 F 
ATOM     66  C   UNL A   1      38.064  32.260  37.461  1.00  0.00     0.198 A 
ATOM     67  C   UNL A   1      39.399  34.091  36.671  1.00  0.00     0.198 A 
ATOM     68  F   UNL A   1      40.676  33.859  34.709  1.00  0.00    -0.203 F 
ATOM     69  F   UNL A   1      37.188  31.755  38.341  1.00  0.00    -0.200 F 
ATOM     70  C   UNL A   1      38.512  33.564  37.598  1.00  0.00     0.200 A 
ATOM     71  F   UNL A   1      39.846  35.346  36.813  1.00  0.00    -0.200 F 
ATOM     72  F   UNL A   1      38.086  34.316  38.623  1.00  0.00    -0.200 F 
ENDBRANCH  48  62
BRANCH  49  73
ATOM     73  C   UNL A   1      42.483  26.643  27.621  1.00  0.00     0.064 A 
ATOM     74  C   UNL A   1      43.477  27.104  26.747  1.00  0.00     0.173 A 
ATOM     75  C   UNL A   1      41.952  25.366  27.393  1.00  0.00     0.173 A 
ATOM     76  F   UNL A   1      44.003  28.327  26.915  1.00  0.00    -0.203 F 
ATOM     77  C   UNL A   1      43.922  26.321  25.684  1.00  0.00     0.198 A 
ATOM     78  C   UNL A   1      42.413  24.575  26.343  1.00  0.00     0.198 A 
ATOM     79  F   UNL A   1      41.003  24.878  28.204  1.00  0.00    -0.203 F 
ATOM     80  F   UNL A   1      44.856  26.795  24.849  1.00  0.00    -0.200 F 
ATOM     81  C   UNL A   1      43.396  25.053  25.487  1.00  0.00     0.200 A 
ATOM     82  F   UNL A   1      41.914  23.344  26.164  1.00  0.00    -0.200 F 
ATOM     83  F   UNL A   1      43.834  24.293  24.474  1.00  0.00    -0.200 F 
ENDBRANCH  49  73
BRANCH  61  84
ATOM     84  C   UNL A   1      44.760  27.368  34.174  1.00  0.00     0.064 A 
ATOM     85  C   UNL A   1      45.996  28.023  34.264  1.00  0.00     0.173 A 
ATOM     86  C   UNL A   1      44.595  26.168  34.882  1.00  0.00     0.173 A 
ATOM     87  F   UNL A   1      46.203  29.167  33.594  1.00  0.00    -0.203 F 
ATOM     88  C   UNL A   1      47.031  27.493  35.028  1.00  0.00     0.198 A 
ATOM     89  C   UNL A   1      45.625  25.653  35.665  1.00  0.00     0.198 A 
ATOM     90  F   UNL A   1      43.429  25.508  34.834  1.00  0.00    -0.203 F 
ATOM     91  F   UNL A   1      48.213  28.122  35.079  1.00  0.00    -0.200 F 
ATOM     92  C   UNL A   1      46.842  26.315  35.736  1.00  0.00     0.200 A 
ATOM     93  F   UNL A   1      45.436  24.522  36.358  1.00  0.00    -0.200 F 
ATOM     94  F   UNL A   1      47.834  25.816  36.484  1.00  0.00    -0.200 F 
ENDBRANCH  61  84
ENDBRANCH  35  36
ENDBRANCH  28  30
ENDBRANCH  27  28
ENDBRANCH  26  27
ENDBRANCH   1  26
TORSDOF 15
ENDMDL
MODEL 2
REMARK VINA RESULT:     -12.5      0.443      1.967
REMARK SMILES CC(C)CN(C)c1cc2c(cc1Cl)C=C(C(=O)OCCOC(=O)c1ccc(-c3c4nc(c(-c5c(F)c(F)c(F)c(F)c5F)c5ccc([nH]5)c(-c5c(F)c(F)c(F)c(F)c5F)c5nc(c(-c6c(F)c(F)c(F)c(F)c6F)c6ccc3[nH]6)C=C5)C=C4)cc1)[C@@H](C(F)(F)F)O2
REMARK SMILES IDX 19 1 18 2 16 3 17 4 15 5 7 6 8 7 12 8 9 9 11 10 13 11 10 12
REMARK SMILES IDX 92 13 14 14 87 15 5 16 6 17 4 18 2 19 1 20 3 21 88 22 89 23
REMARK SMILES IDX 90 24 91 25 20 26 21 27 22 28 23 29 24 30 25 31 86 32 26 33
REMARK SMILES IDX 85 34 27 35 28 36 29 37 79 38 30 39 84 40 78 41 80 42 31 43
REMARK SMILES IDX 83 44 77 45 76 46 32 48 64 49 44 50 63 51 45 52 48 53 62 54
REMARK SMILES IDX 81 55 46 56 47 57 61 59 82 60 49 61 33 62 34 63 42 64 35 65
REMARK SMILES IDX 36 66 40 67 43 68 37 69 38 70 41 71 39 72 65 73 66 74 74 75
REMARK SMILES IDX 67 76 68 77 72 78 75 79 69 80 70 81 73 82 71 83 50 84 51 85
REMARK SMILES IDX 59 86 52 87 53 88 57 89 60 90 54 91 55 92 58 93 56 94
REMARK H PARENT 80 47 48 58
REMARK Flexibility Score: inf
ROOT
ATOM      1  C   UNL A   1      31.325  29.332  24.832  1.00  0.00     0.275 C 
ENDROOT
BRANCH   1   2
ATOM      2  O   UNL A   1      31.095  27.965  25.243  1.00  0.00    -0.459 OA
BRANCH   2   3
ATOM      3  C   UNL A   1      30.419  27.214  24.344  1.00  0.00     0.338 C 
ATOM      4  O   UNL A   1      29.443  27.569  23.699  1.00  0.00    -0.246 OA
BRANCH   3   5
ATOM      5  C   UNL A   1      31.041  25.890  24.158  1.00  0.00     0.087 C 
ATOM      6  C   UNL A   1      33.380  21.510  25.054  1.00  0.00     0.059 A 
ATOM      7  C   UNL A   1      32.940  22.163  23.879  1.00  0.00     0.074 A 
ATOM      8  C   UNL A   1      33.196  22.179  26.282  1.00  0.00     0.065 A 
ATOM      9  C   UNL A   1      32.297  23.406  23.939  1.00  0.00     0.130 A 
ATOM     10  C   UNL A   1      32.468  23.360  26.350  1.00  0.00     0.034 A 
ATOM     11  Cl  UNL A   1      33.904  21.637  27.765  1.00  0.00    -0.082 Cl
ATOM     12  C   UNL A   1      32.016  23.964  25.181  1.00  0.00     0.019 A 
ATOM     13  O   UNL A   1      31.935  24.021  22.766  1.00  0.00    -0.475 OA
ATOM     14  C   UNL A   1      31.268  25.193  25.275  1.00  0.00     0.027 C 
ATOM     15  C   UNL A   1      31.598  25.448  22.832  1.00  0.00     0.316 C 
BRANCH   6  16
ATOM     16  N   UNL A   1      33.972  20.243  24.999  1.00  0.00    -0.373 N 
ATOM     17  C   UNL A   1      35.427  20.216  24.924  1.00  0.00     0.143 C 
BRANCH  16  18
ATOM     18  C   UNL A   1      33.233  19.169  24.303  1.00  0.00     0.119 C 
BRANCH  18  19
ATOM     19  C   UNL A   1      33.803  17.762  24.590  1.00  0.00     0.002 C 
ATOM     20  C   UNL A   1      32.890  16.949  25.515  1.00  0.00     0.009 C 
ATOM     21  C   UNL A   1      34.025  16.968  23.299  1.00  0.00     0.009 C 
ENDBRANCH  18  19
ENDBRANCH  16  18
ENDBRANCH   6  16
BRANCH  15  22
ATOM     22  C   UNL A   1      32.822  26.312  22.480  1.00  0.00     0.430 C 
ATOM     23  F   UNL A   1      32.468  27.460  21.861  1.00  0.00    -0.167 F 
ATOM     24  F   UNL A   1      33.508  26.664  23.597  1.00  0.00    -0.167 F 
ATOM     25  F   UNL A   1      33.691  25.663  21.670  1.00  0.00    -0.167 F 
ENDBRANCH  15  22
ENDBRANCH   3   5
ENDBRANCH   2   3
ENDBRANCH   1   2
BRANCH   1  26
ATOM     26  C   UNL A   1      32.650  29.878  25.369  1.00  0.00     0.275 C 
BRANCH  26  27
ATOM     27  O   UNL A   1      32.562  30.142  26.783  1.00  0.00    -0.458 OA
BRANCH  27  28
ATOM     28  C   UNL A   1      33.174  31.272  27.205  1.00  0.00     0.338 C 
ATOM     29  O   UNL A   1      32.709  32.396  27.256  1.00  0.00    -0.246 OA
BRANCH  28  30
ATOM     30  C   UNL A   1      34.529  30.958  27.687  1.00  0.00     0.060 A 
ATOM     31  C   UNL A   1      35.447  31.963  27.969  1.00  0.00     0.016 A 
ATOM     32  C   UNL A   1      34.823  29.641  28.017  1.00  0.00     0.016 A 
ATOM     33  C   UNL A   1      36.668  31.625  28.569  1.00  0.00     0.010 A 
ATOM     34  C   UNL A   1      35.972  29.325  28.738  1.00  0.00     0.010 A 
ATOM     35  C   UNL A   1      36.934  30.307  28.999  1.00  0.00    -0.014 A 
BRANCH  35  36
ATOM     36  C   UNL A   1      38.201  29.964  29.714  1.00  0.00     0.031 A 
ATOM     37  C   UNL A   1      38.475  30.467  31.114  1.00  0.00     0.074 A 
ATOM     38  C   UNL A   1      39.140  29.217  29.095  1.00  0.00     0.049 A 
ATOM     39  N   UNL A   1      39.508  30.238  31.890  1.00  0.00    -0.248 NA
ATOM     40  C   UNL A   1      37.487  31.382  31.708  1.00  0.00     0.031 C 
ATOM     41  C   UNL A   1      39.073  28.756  27.707  1.00  0.00     0.029 A 
ATOM     42  N   UNL A   1      40.324  28.695  29.557  1.00  0.00    -0.354 N 
ATOM     43  C   UNL A   1      39.304  30.998  33.035  1.00  0.00     0.074 A 
ATOM     44  C   UNL A   1      38.091  31.755  32.826  1.00  0.00     0.031 C 
ATOM     45  C   UNL A   1      40.117  27.949  27.459  1.00  0.00     0.029 A 
ATOM     46  C   UNL A   1      40.948  27.865  28.655  1.00  0.00     0.049 A 
ATOM     47  H   UNL A   1      40.692  28.895  30.449  1.00  0.00     0.167 HD
ATOM     48  C   UNL A   1      40.028  31.031  34.181  1.00  0.00     0.037 A 
ATOM     49  C   UNL A   1      42.048  27.096  28.784  1.00  0.00     0.037 A 
ATOM     50  C   UNL A   1      41.193  30.225  34.426  1.00  0.00     0.049 A 
ATOM     51  C   UNL A   1      42.793  27.083  30.090  1.00  0.00     0.074 A 
ATOM     52  C   UNL A   1      41.938  30.116  35.587  1.00  0.00     0.029 A 
ATOM     53  N   UNL A   1      41.772  29.376  33.495  1.00  0.00    -0.354 N 
ATOM     54  N   UNL A   1      42.536  27.741  31.194  1.00  0.00    -0.248 NA
ATOM     55  C   UNL A   1      43.980  26.220  30.169  1.00  0.00     0.031 C 
ATOM     56  C   UNL A   1      42.985  29.219  35.351  1.00  0.00     0.029 A 
ATOM     57  C   UNL A   1      42.870  28.743  34.055  1.00  0.00     0.049 A 
ATOM     58  H   UNL A   1      41.451  29.242  32.575  1.00  0.00     0.167 HD
ATOM     59  C   UNL A   1      43.516  27.363  32.100  1.00  0.00     0.074 A 
ATOM     60  C   UNL A   1      44.362  26.400  31.426  1.00  0.00     0.031 C 
ATOM     61  C   UNL A   1      43.700  27.783  33.375  1.00  0.00     0.037 A 
BRANCH  48  62
ATOM     62  C   UNL A   1      39.552  31.935  35.283  1.00  0.00     0.064 A 
ATOM     63  C   UNL A   1      39.986  33.267  35.374  1.00  0.00     0.173 A 
ATOM     64  C   UNL A   1      38.616  31.487  36.228  1.00  0.00     0.173 A 
ATOM     65  F   UNL A   1      40.884  33.744  34.498  1.00  0.00    -0.203 F 
ATOM     66  C   UNL A   1      39.529  34.105  36.387  1.00  0.00     0.198 A 
ATOM     67  C   UNL A   1      38.136  32.339  37.222  1.00  0.00     0.198 A 
ATOM     68  F   UNL A   1      38.155  30.229  36.180  1.00  0.00    -0.203 F 
ATOM     69  F   UNL A   1      39.998  35.357  36.480  1.00  0.00    -0.200 F 
ATOM     70  C   UNL A   1      38.599  33.643  37.305  1.00  0.00     0.200 A 
ATOM     71  F   UNL A   1      37.224  31.896  38.098  1.00  0.00    -0.200 F 
ATOM     72  F   UNL A   1      38.152  34.455  38.274  1.00  0.00    -0.200 F 
ENDBRANCH  48  62
BRANCH  49  73
ATOM     73  C   UNL A   1      42.455  26.207  27.665  1.00  0.00     0.064 A 
ATOM     74  C   UNL A   1      41.854  24.951  27.501  1.00  0.00     0.173 A 
ATOM     75  C   UNL A   1      43.413  26.602  26.721  1.00  0.00     0.173 A 
ATOM     76  F   UNL A   1      40.944  24.523  28.389  1.00  0.00    -0.203 F 
ATOM     77  C   UNL A   1      42.198  24.121  26.436  1.00  0.00     0.198 A 
ATOM     78  C   UNL A   1      43.740  25.781  25.644  1.00  0.00     0.198 A 
ATOM     79  F   UNL A   1      44.012  27.797  26.830  1.00  0.00    -0.203 F 
ATOM     80  F   UNL A   1      41.626  22.915  26.317  1.00  0.00    -0.200 F 
ATOM     81  C   UNL A   1      43.134  24.540  25.503  1.00  0.00     0.200 A 
ATOM     82  F   UNL A   1      44.634  26.194  24.735  1.00  0.00    -0.200 F 
ATOM     83  F   UNL A   1      43.455  23.748  24.471  1.00  0.00    -0.200 F 
ENDBRANCH  49  73
BRANCH  61  84
ATOM     84  C   UNL A   1      44.855  27.207  34.137  1.00  0.00     0.064 A 
ATOM     85  C   UNL A   1      44.723  26.021  34.873  1.00  0.00     0.173 A 
ATOM     86  C   UNL A   1      46.123  27.802  34.064  1.00  0.00     0.173 A 
ATOM     87  F   UNL A   1      43.526  25.424  34.981  1.00  0.00    -0.203 F 
ATOM     88  C   UNL A   1      45.818  25.455  35.518  1.00  0.00     0.198 A 
ATOM     89  C   UNL A   1      47.222  27.220  34.691  1.00  0.00     0.198 A 
ATOM     90  F   UNL A   1      46.302  28.932  33.366  1.00  0.00    -0.203 F 
ATOM     91  F   UNL A   1      45.665  24.336  36.238  1.00  0.00    -0.200 F 
ATOM     92  C   UNL A   1      47.069  26.049  35.419  1.00  0.00     0.200 A 
ATOM     93  F   UNL A   1      48.432  27.787  34.583  1.00  0.00    -0.200 F 
ATOM     94  F   UNL A   1      48.125  25.493  36.026  1.00  0.00    -0.200 F 
ENDBRANCH  61  84
ENDBRANCH  35  36
ENDBRANCH  28  30
ENDBRANCH  27  28
ENDBRANCH  26  27
ENDBRANCH   1  26
TORSDOF 15
ENDMDL
MODEL 3
REMARK VINA RESULT:     -12.5      4.356      9.820
REMARK SMILES CC(C)CN(C)c1cc2c(cc1Cl)C=C(C(=O)OCCOC(=O)c1ccc(-c3c4nc(c(-c5c(F)c(F)c(F)c(F)c5F)c5ccc([nH]5)c(-c5c(F)c(F)c(F)c(F)c5F)c5nc(c(-c6c(F)c(F)c(F)c(F)c6F)c6ccc3[nH]6)C=C5)C=C4)cc1)[C@@H](C(F)(F)F)O2
REMARK SMILES IDX 19 1 18 2 16 3 17 4 15 5 7 6 8 7 12 8 9 9 11 10 13 11 10 12
REMARK SMILES IDX 92 13 14 14 87 15 5 16 6 17 4 18 2 19 1 20 3 21 88 22 89 23
REMARK SMILES IDX 90 24 91 25 20 26 21 27 22 28 23 29 24 30 25 31 86 32 26 33
REMARK SMILES IDX 85 34 27 35 28 36 29 37 79 38 30 39 84 40 78 41 80 42 31 43
REMARK SMILES IDX 83 44 77 45 76 46 32 48 64 49 44 50 63 51 45 52 48 53 62 54
REMARK SMILES IDX 81 55 46 56 47 57 61 59 82 60 49 61 33 62 34 63 42 64 35 65
REMARK SMILES IDX 36 66 40 67 43 68 37 69 38 70 41 71 39 72 65 73 66 74 74 75
REMARK SMILES IDX 67 76 68 77 72 78 75 79 69 80 70 81 73 82 71 83 50 84 51 85
REMARK SMILES IDX 59 86 52 87 53 88 57 89 60 90 54 91 55 92 58 93 56 94
REMARK H PARENT 80 47 48 58
REMARK Flexibility Score: inf
ROOT
ATOM      1  C   UNL A   1      35.232  20.923  25.265  1.00  0.00     0.275 C 
ENDROOT
BRANCH   1   2
ATOM      2  O   UNL A   1      34.637  21.544  24.103  1.00  0.00    -0.459 OA
BRANCH   2   3
ATOM      3  C   UNL A   1      33.289  21.455  24.046  1.00  0.00     0.338 C 
ATOM      4  O   UNL A   1      32.637  20.420  24.032  1.00  0.00    -0.246 OA
BRANCH   3   5
ATOM      5  C   UNL A   1      32.649  22.783  24.072  1.00  0.00     0.087 C 
ATOM      6  C   UNL A   1      31.783  27.713  23.439  1.00  0.00     0.059 A 
ATOM      7  C   UNL A   1      31.087  26.673  24.099  1.00  0.00     0.074 A 
ATOM      8  C   UNL A   1      33.015  27.394  22.833  1.00  0.00     0.065 A 
ATOM      9  C   UNL A   1      31.580  25.361  24.103  1.00  0.00     0.130 A 
ATOM     10  C   UNL A   1      33.450  26.077  22.749  1.00  0.00     0.034 A 
ATOM     11  Cl  UNL A   1      34.101  28.592  22.216  1.00  0.00    -0.082 Cl
ATOM     12  C   UNL A   1      32.729  25.067  23.377  1.00  0.00     0.019 A 
ATOM     13  O   UNL A   1      30.893  24.399  24.800  1.00  0.00    -0.475 OA
ATOM     14  C   UNL A   1      33.202  23.708  23.282  1.00  0.00     0.027 C 
ATOM     15  C   UNL A   1      31.598  23.144  25.085  1.00  0.00     0.316 C 
BRANCH   6  16
ATOM     16  N   UNL A   1      31.264  29.012  23.388  1.00  0.00    -0.373 N 
ATOM     17  C   UNL A   1      31.130  29.702  24.664  1.00  0.00     0.143 C 
BRANCH  16  18
ATOM     18  C   UNL A   1      30.262  29.310  22.342  1.00  0.00     0.119 C 
BRANCH  18  19
ATOM     19  C   UNL A   1      29.044  30.093  22.881  1.00  0.00     0.002 C 
ATOM     20  C   UNL A   1      28.776  31.367  22.071  1.00  0.00     0.009 C 
ATOM     21  C   UNL A   1      27.776  29.235  22.880  1.00  0.00     0.009 C 
ENDBRANCH  18  19
ENDBRANCH  16  18
ENDBRANCH   6  16
BRANCH  15  22
ATOM     22  C   UNL A   1      32.234  23.185  26.487  1.00  0.00     0.430 C 
ATOM     23  F   UNL A   1      32.398  21.946  27.003  1.00  0.00    -0.167 F 
ATOM     24  F   UNL A   1      33.463  23.759  26.448  1.00  0.00    -0.167 F 
ATOM     25  F   UNL A   1      31.492  23.898  27.366  1.00  0.00    -0.167 F 
ENDBRANCH  15  22
ENDBRANCH   3   5
ENDBRANCH   2   3
ENDBRANCH   1   2
BRANCH   1  26
ATOM     26  C   UNL A   1      36.677  20.489  25.007  1.00  0.00     0.275 C 
BRANCH  26  27
ATOM     27  O   UNL A   1      37.590  21.581  25.230  1.00  0.00    -0.458 OA
BRANCH  27  28
ATOM     28  C   UNL A   1      38.732  21.265  25.881  1.00  0.00     0.338 C 
ATOM     29  O   UNL A   1      39.291  20.184  25.923  1.00  0.00    -0.246 OA
BRANCH  28  30
ATOM     30  C   UNL A   1      39.293  22.466  26.521  1.00  0.00     0.060 A 
ATOM     31  C   UNL A   1      40.412  22.392  27.342  1.00  0.00     0.016 A 
ATOM     32  C   UNL A   1      38.785  23.706  26.155  1.00  0.00     0.016 A 
ATOM     33  C   UNL A   1      41.001  23.577  27.805  1.00  0.00     0.010 A 
ATOM     34  C   UNL A   1      39.453  24.880  26.498  1.00  0.00     0.010 A 
ATOM     35  C   UNL A   1      40.555  24.840  27.359  1.00  0.00    -0.014 A 
BRANCH  35  36
ATOM     36  C   UNL A   1      41.236  26.100  27.786  1.00  0.00     0.031 A 
ATOM     37  C   UNL A   1      42.653  26.412  27.358  1.00  0.00     0.074 A 
ATOM     38  C   UNL A   1      40.595  26.968  28.596  1.00  0.00     0.049 A 
ATOM     39  N   UNL A   1      43.382  27.473  27.612  1.00  0.00    -0.248 NA
ATOM     40  C   UNL A   1      43.366  25.385  26.580  1.00  0.00     0.031 C 
ATOM     41  C   UNL A   1      39.272  26.754  29.187  1.00  0.00     0.029 A 
ATOM     42  N   UNL A   1      40.957  28.216  29.047  1.00  0.00    -0.354 N 
ATOM     43  C   UNL A   1      44.631  27.224  27.057  1.00  0.00     0.074 A 
ATOM     44  C   UNL A   1      44.590  25.883  26.518  1.00  0.00     0.031 C 
ATOM     45  C   UNL A   1      38.898  27.863  29.844  1.00  0.00     0.029 A 
ATOM     46  C   UNL A   1      39.965  28.853  29.755  1.00  0.00     0.049 A 
ATOM     47  H   UNL A   1      41.841  28.615  28.879  1.00  0.00     0.167 HD
ATOM     48  C   UNL A   1      45.703  28.047  26.955  1.00  0.00     0.037 A 
ATOM     49  C   UNL A   1      39.907  30.105  30.250  1.00  0.00     0.037 A 
ATOM     50  C   UNL A   1      45.725  29.408  27.421  1.00  0.00     0.049 A 
ATOM     51  C   UNL A   1      41.074  31.033  30.058  1.00  0.00     0.074 A 
ATOM     52  C   UNL A   1      46.727  30.352  27.280  1.00  0.00     0.029 A 
ATOM     53  N   UNL A   1      44.688  30.021  28.106  1.00  0.00    -0.354 N 
ATOM     54  N   UNL A   1      42.214  30.810  29.452  1.00  0.00    -0.248 NA
ATOM     55  C   UNL A   1      40.946  32.387  30.617  1.00  0.00     0.031 C 
ATOM     56  C   UNL A   1      46.307  31.531  27.902  1.00  0.00     0.029 A 
ATOM     57  C   UNL A   1      45.029  31.332  28.399  1.00  0.00     0.049 A 
ATOM     58  H   UNL A   1      43.836  29.592  28.348  1.00  0.00     0.167 HD
ATOM     59  C   UNL A   1      42.932  31.994  29.544  1.00  0.00     0.074 A 
ATOM     60  C   UNL A   1      42.091  32.942  30.244  1.00  0.00     0.031 C 
ATOM     61  C   UNL A   1      44.180  32.266  29.092  1.00  0.00     0.037 A 
BRANCH  48  62
ATOM     62  C   UNL A   1      46.929  27.517  26.268  1.00  0.00     0.064 A 
ATOM     63  C   UNL A   1      47.968  26.910  26.993  1.00  0.00     0.173 A 
ATOM     64  C   UNL A   1      47.051  27.569  24.871  1.00  0.00     0.173 A 
ATOM     65  F   UNL A   1      47.903  26.840  28.331  1.00  0.00    -0.203 F 
ATOM     66  C   UNL A   1      49.094  26.405  26.349  1.00  0.00     0.198 A 
ATOM     67  C   UNL A   1      48.166  27.033  24.227  1.00  0.00     0.198 A 
ATOM     68  F   UNL A   1      46.083  28.124  24.127  1.00  0.00    -0.203 F 
ATOM     69  F   UNL A   1      50.093  25.876  27.069  1.00  0.00    -0.200 F 
ATOM     70  C   UNL A   1      49.189  26.461  24.968  1.00  0.00     0.200 A 
ATOM     71  F   UNL A   1      48.249  27.071  22.890  1.00  0.00    -0.200 F 
ATOM     72  F   UNL A   1      50.270  25.965  24.349  1.00  0.00    -0.200 F 
ENDBRANCH  48  62
BRANCH  49  73
ATOM     73  C   UNL A   1      38.656  30.577  30.901  1.00  0.00     0.064 A 
ATOM     74  C   UNL A   1      38.543  30.585  32.299  1.00  0.00     0.173 A 
ATOM     75  C   UNL A   1      37.574  31.062  30.154  1.00  0.00     0.173 A 
ATOM     76  F   UNL A   1      39.546  30.114  33.055  1.00  0.00    -0.203 F 
ATOM     77  C   UNL A   1      37.392  31.058  32.925  1.00  0.00     0.198 A 
ATOM     78  C   UNL A   1      36.432  31.555  30.783  1.00  0.00     0.198 A 
ATOM     79  F   UNL A   1      37.636  31.081  28.815  1.00  0.00    -0.203 F 
ATOM     80  F   UNL A   1      37.300  31.031  34.262  1.00  0.00    -0.200 F 
ATOM     81  C   UNL A   1      36.340  31.551  32.168  1.00  0.00     0.200 A 
ATOM     82  F   UNL A   1      35.424  32.045  30.048  1.00  0.00    -0.200 F 
ATOM     83  F   UNL A   1      35.239  32.019  32.770  1.00  0.00    -0.200 F 
ENDBRANCH  49  73
BRANCH  61  84
ATOM     84  C   UNL A   1      44.721  33.644  29.330  1.00  0.00     0.064 A 
ATOM     85  C   UNL A   1      45.495  33.937  30.462  1.00  0.00     0.173 A 
ATOM     86  C   UNL A   1      44.533  34.657  28.378  1.00  0.00     0.173 A 
ATOM     87  F   UNL A   1      45.691  33.003  31.405  1.00  0.00    -0.203 F 
ATOM     88  C   UNL A   1      46.053  35.199  30.639  1.00  0.00     0.198 A 
ATOM     89  C   UNL A   1      45.113  35.911  28.546  1.00  0.00     0.198 A 
ATOM     90  F   UNL A   1      43.808  34.423  27.275  1.00  0.00    -0.203 F 
ATOM     91  F   UNL A   1      46.767  35.466  31.740  1.00  0.00    -0.200 F 
ATOM     92  C   UNL A   1      45.870  36.182  29.676  1.00  0.00     0.200 A 
ATOM     93  F   UNL A   1      44.948  36.855  27.609  1.00  0.00    -0.200 F 
ATOM     94  F   UNL A   1      46.423  37.391  29.840  1.00  0.00    -0.200 F 
ENDBRANCH  61  84
ENDBRANCH  35  36
ENDBRANCH  28  30
ENDBRANCH  27  28
ENDBRANCH  26  27
ENDBRANCH   1  26
TORSDOF 15
ENDMDL
