MODEL 1
REMARK VINA RESULT:     -12.1      0.000      0.000
REMARK SMILES Cc1nc2scc(C)n2c1CNc1ccc(C(=O)OCCOC(=O)c2ccc(-c3c4nc(c(-c5c(F)c(F)c(F)c(F)c5F)c5ccc([nH]5)c(-c5c(F)c(F)c(F)c(F)c5F)c5nc(c(-c6c(F)c(F)c(F)c(F)c6F)c6ccc3[nH]6)C=C5)C=C4)cc2)cc1
REMARK SMILES IDX 20 1 19 2 17 3 18 4 16 5 13 6 14 7 89 8 15 9 88 10 12 11
REMARK SMILES IDX 11 13 10 14 1 15 2 16 3 17 4 18 9 19 5 20 7 21 6 22 8 23
REMARK SMILES IDX 21 24 22 25 23 26 24 27 25 28 26 29 87 30 27 31 86 32 28 33
REMARK SMILES IDX 29 34 30 35 80 36 31 37 85 38 79 39 81 40 32 41 84 42 78 43
REMARK SMILES IDX 77 44 33 46 65 47 45 48 64 49 46 50 49 51 63 52 82 53 47 54
REMARK SMILES IDX 48 55 62 57 83 58 50 59 34 60 35 61 43 62 36 63 37 64 41 65
REMARK SMILES IDX 44 66 38 67 39 68 42 69 40 70 66 71 67 72 75 73 68 74 69 75
REMARK SMILES IDX 73 76 76 77 70 78 71 79 74 80 72 81 51 82 52 83 60 84 53 85
REMARK SMILES IDX 54 86 58 87 61 88 55 89 56 90 59 91 57 92
REMARK H PARENT 12 12 81 45 49 56
REMARK Flexibility Score: inf
ROOT
ATOM      1  C   UNL A   1      42.338  20.056  26.390  1.00  0.00     0.275 C 
ENDROOT
BRANCH   1   2
ATOM      2  O   UNL A   1      40.983  20.462  26.148  1.00  0.00    -0.458 OA
BRANCH   2   3
ATOM      3  C   UNL A   1      40.436  21.272  27.088  1.00  0.00     0.338 C 
ATOM      4  O   UNL A   1      40.791  21.374  28.254  1.00  0.00    -0.246 OA
BRANCH   3   5
ATOM      5  C   UNL A   1      39.373  22.117  26.495  1.00  0.00     0.060 A 
ATOM      6  C   UNL A   1      37.176  23.663  25.708  1.00  0.00     0.034 A 
ATOM      7  C   UNL A   1      38.170  24.218  26.518  1.00  0.00     0.026 A 
ATOM      8  C   UNL A   1      37.385  22.389  25.164  1.00  0.00     0.026 A 
ATOM      9  C   UNL A   1      39.251  23.440  26.934  1.00  0.00     0.018 A 
ATOM     10  C   UNL A   1      38.479  21.616  25.549  1.00  0.00     0.018 A 
BRANCH   6  11
ATOM     11  N   UNL A   1      35.933  24.278  25.649  1.00  0.00    -0.379 N 
ATOM     12  H   UNL A   1      35.809  25.204  25.960  1.00  0.00     0.160 HD
BRANCH  11  13
ATOM     13  C   UNL A   1      34.818  23.513  25.114  1.00  0.00     0.169 C 
BRANCH  13  14
ATOM     14  C   UNL A   1      33.509  23.812  25.743  1.00  0.00     0.066 A 
ATOM     15  C   UNL A   1      33.484  22.262  27.831  1.00  0.00     0.069 C 
ATOM     16  C   UNL A   1      32.938  23.278  26.900  1.00  0.00     0.062 A 
ATOM     17  N   UNL A   1      31.718  23.856  27.177  1.00  0.00    -0.224 NA
ATOM     18  C   UNL A   1      31.573  24.727  26.221  1.00  0.00     0.194 A 
ATOM     19  N   UNL A   1      32.616  24.783  25.335  1.00  0.00    -0.290 N 
ATOM     20  S   UNL A   1      30.344  25.897  25.865  1.00  0.00    -0.105 S 
ATOM     21  C   UNL A   1      32.476  25.769  24.359  1.00  0.00     0.032 A 
ATOM     22  C   UNL A   1      31.321  26.449  24.510  1.00  0.00     0.090 A 
ATOM     23  C   UNL A   1      33.463  26.084  23.297  1.00  0.00     0.066 C 
ENDBRANCH  13  14
ENDBRANCH  11  13
ENDBRANCH   6  11
ENDBRANCH   3   5
ENDBRANCH   2   3
ENDBRANCH   1   2
BRANCH   1  24
ATOM     24  C   UNL A   1      43.319  20.973  25.674  1.00  0.00     0.275 C 
BRANCH  24  25
ATOM     25  O   UNL A   1      42.645  22.033  24.995  1.00  0.00    -0.458 OA
BRANCH  25  26
ATOM     26  C   UNL A   1      43.294  23.218  24.997  1.00  0.00     0.338 C 
ATOM     27  O   UNL A   1      44.350  23.490  24.449  1.00  0.00    -0.246 OA
BRANCH  26  28
ATOM     28  C   UNL A   1      42.654  24.118  25.959  1.00  0.00     0.060 A 
ATOM     29  C   UNL A   1      41.944  25.210  25.450  1.00  0.00     0.016 A 
ATOM     30  C   UNL A   1      43.025  24.035  27.307  1.00  0.00     0.016 A 
ATOM     31  C   UNL A   1      41.753  26.308  26.262  1.00  0.00     0.010 A 
ATOM     32  C   UNL A   1      42.851  25.135  28.108  1.00  0.00     0.010 A 
ATOM     33  C   UNL A   1      42.284  26.283  27.553  1.00  0.00    -0.014 A 
BRANCH  33  34
ATOM     34  C   UNL A   1      42.205  27.483  28.359  1.00  0.00     0.031 A 
ATOM     35  C   UNL A   1      43.288  28.464  28.113  1.00  0.00     0.074 A 
ATOM     36  C   UNL A   1      41.119  27.733  29.115  1.00  0.00     0.049 A 
ATOM     37  N   UNL A   1      44.068  29.023  28.977  1.00  0.00    -0.248 NA
ATOM     38  C   UNL A   1      43.606  28.795  26.713  1.00  0.00     0.031 C 
ATOM     39  C   UNL A   1      39.873  26.963  29.184  1.00  0.00     0.029 A 
ATOM     40  N   UNL A   1      40.846  28.824  29.878  1.00  0.00    -0.354 N 
ATOM     41  C   UNL A   1      44.878  29.891  28.251  1.00  0.00     0.074 A 
ATOM     42  C   UNL A   1      44.646  29.613  26.860  1.00  0.00     0.031 C 
ATOM     43  C   UNL A   1      38.911  27.732  29.738  1.00  0.00     0.029 A 
ATOM     44  C   UNL A   1      39.497  28.999  30.144  1.00  0.00     0.049 A 
ATOM     45  H   UNL A   1      41.543  29.434  30.211  1.00  0.00     0.167 HD
ATOM     46  C   UNL A   1      45.528  30.924  28.851  1.00  0.00     0.037 A 
ATOM     47  C   UNL A   1      38.905  30.146  30.562  1.00  0.00     0.037 A 
ATOM     48  C   UNL A   1      45.649  30.719  30.269  1.00  0.00     0.049 A 
ATOM     49  C   UNL A   1      39.975  31.032  31.099  1.00  0.00     0.074 A 
ATOM     50  C   UNL A   1      46.231  29.737  31.048  1.00  0.00     0.029 A 
ATOM     51  N   UNL A   1      44.811  31.411  31.109  1.00  0.00    -0.354 N 
ATOM     52  N   UNL A   1      40.624  30.804  32.207  1.00  0.00    -0.248 NA
ATOM     53  C   UNL A   1      40.638  31.935  30.166  1.00  0.00     0.031 C 
ATOM     54  C   UNL A   1      45.351  29.575  32.156  1.00  0.00     0.029 A 
ATOM     55  C   UNL A   1      44.321  30.503  32.014  1.00  0.00     0.049 A 
ATOM     56  H   UNL A   1      44.603  32.373  31.070  1.00  0.00     0.167 HD
ATOM     57  C   UNL A   1      41.934  31.167  31.929  1.00  0.00     0.074 A 
ATOM     58  C   UNL A   1      41.864  31.945  30.696  1.00  0.00     0.031 C 
ATOM     59  C   UNL A   1      42.985  30.558  32.553  1.00  0.00     0.037 A 
BRANCH  46  60
ATOM     60  C   UNL A   1      45.746  32.263  28.201  1.00  0.00     0.064 A 
ATOM     61  C   UNL A   1      44.632  33.055  27.866  1.00  0.00     0.173 A 
ATOM     62  C   UNL A   1      46.975  32.659  27.627  1.00  0.00     0.173 A 
ATOM     63  F   UNL A   1      43.413  32.754  28.340  1.00  0.00    -0.203 F 
ATOM     64  C   UNL A   1      44.728  34.112  26.959  1.00  0.00     0.198 A 
ATOM     65  C   UNL A   1      47.077  33.750  26.768  1.00  0.00     0.198 A 
ATOM     66  F   UNL A   1      48.096  31.944  27.779  1.00  0.00    -0.203 F 
ATOM     67  F   UNL A   1      43.619  34.754  26.568  1.00  0.00    -0.200 F 
ATOM     68  C   UNL A   1      45.949  34.455  26.407  1.00  0.00     0.200 A 
ATOM     69  F   UNL A   1      48.266  34.054  26.230  1.00  0.00    -0.200 F 
ATOM     70  F   UNL A   1      46.032  35.427  25.489  1.00  0.00    -0.200 F 
ENDBRANCH  46  60
BRANCH  47  71
ATOM     71  C   UNL A   1      37.533  30.629  30.262  1.00  0.00     0.064 A 
ATOM     72  C   UNL A   1      36.687  31.091  31.283  1.00  0.00     0.173 A 
ATOM     73  C   UNL A   1      37.099  30.869  28.941  1.00  0.00     0.173 A 
ATOM     74  F   UNL A   1      37.043  30.955  32.568  1.00  0.00    -0.203 F 
ATOM     75  C   UNL A   1      35.488  31.758  31.000  1.00  0.00     0.198 A 
ATOM     76  C   UNL A   1      35.896  31.517  28.661  1.00  0.00     0.198 A 
ATOM     77  F   UNL A   1      37.873  30.565  27.890  1.00  0.00    -0.203 F 
ATOM     78  F   UNL A   1      34.738  32.236  32.001  1.00  0.00    -0.200 F 
ATOM     79  C   UNL A   1      35.096  31.972  29.689  1.00  0.00     0.200 A 
ATOM     80  F   UNL A   1      35.548  31.746  27.386  1.00  0.00    -0.200 F 
ATOM     81  F   UNL A   1      33.973  32.652  29.417  1.00  0.00    -0.200 F 
ENDBRANCH  47  71
BRANCH  59  82
ATOM     82  C   UNL A   1      42.693  29.663  33.724  1.00  0.00     0.064 A 
ATOM     83  C   UNL A   1      42.292  28.322  33.600  1.00  0.00     0.173 A 
ATOM     84  C   UNL A   1      42.987  30.129  35.013  1.00  0.00     0.173 A 
ATOM     85  F   UNL A   1      42.105  27.763  32.399  1.00  0.00    -0.203 F 
ATOM     86  C   UNL A   1      42.140  27.504  34.718  1.00  0.00     0.198 A 
ATOM     87  C   UNL A   1      42.874  29.299  36.124  1.00  0.00     0.198 A 
ATOM     88  F   UNL A   1      43.438  31.382  35.188  1.00  0.00    -0.203 F 
ATOM     89  F   UNL A   1      41.741  26.233  34.571  1.00  0.00    -0.200 F 
ATOM     90  C   UNL A   1      42.438  27.992  35.979  1.00  0.00     0.200 A 
ATOM     91  F   UNL A   1      43.218  29.758  37.335  1.00  0.00    -0.200 F 
ATOM     92  F   UNL A   1      42.336  27.194  37.051  1.00  0.00    -0.200 F 
ENDBRANCH  59  82
ENDBRANCH  33  34
ENDBRANCH  26  28
ENDBRANCH  25  26
ENDBRANCH  24  25
ENDBRANCH   1  24
TORSDOF 14
ENDMDL
MODEL 2
REMARK VINA RESULT:     -12.1      2.241      3.492
REMARK SMILES Cc1nc2scc(C)n2c1CNc1ccc(C(=O)OCCOC(=O)c2ccc(-c3c4nc(c(-c5c(F)c(F)c(F)c(F)c5F)c5ccc([nH]5)c(-c5c(F)c(F)c(F)c(F)c5F)c5nc(c(-c6c(F)c(F)c(F)c(F)c6F)c6ccc3[nH]6)C=C5)C=C4)cc2)cc1
REMARK SMILES IDX 20 1 19 2 17 3 18 4 16 5 13 6 14 7 89 8 15 9 88 10 12 11
REMARK SMILES IDX 11 13 10 14 1 15 2 16 3 17 4 18 9 19 5 20 7 21 6 22 8 23
REMARK SMILES IDX 21 24 22 25 23 26 24 27 25 28 26 29 87 30 27 31 86 32 28 33
REMARK SMILES IDX 29 34 30 35 80 36 31 37 85 38 79 39 81 40 32 41 84 42 78 43
REMARK SMILES IDX 77 44 33 46 65 47 45 48 64 49 46 50 49 51 63 52 82 53 47 54
REMARK SMILES IDX 48 55 62 57 83 58 50 59 34 60 35 61 43 62 36 63 37 64 41 65
REMARK SMILES IDX 44 66 38 67 39 68 42 69 40 70 66 71 67 72 75 73 68 74 69 75
REMARK SMILES IDX 73 76 76 77 70 78 71 79 74 80 72 81 51 82 52 83 60 84 53 85
REMARK SMILES IDX 54 86 58 87 61 88 55 89 56 90 59 91 57 92
REMARK H PARENT 12 12 81 45 49 56
REMARK Flexibility Score: inf
ROOT
ATOM      1  C   UNL A   1      41.769  19.326  26.520  1.00  0.00     0.275 C 
ENDROOT
BRANCH   1   2
ATOM      2  O   UNL A   1      41.128  20.521  26.048  1.00  0.00    -0.458 OA
BRANCH   2   3
ATOM      3  C   UNL A   1      40.431  21.219  26.978  1.00  0.00     0.338 C 
ATOM      4  O   UNL A   1      40.683  21.290  28.172  1.00  0.00    -0.246 OA
BRANCH   3   5
ATOM      5  C   UNL A   1      39.337  21.988  26.340  1.00  0.00     0.060 A 
ATOM      6  C   UNL A   1      37.089  23.418  25.479  1.00  0.00     0.034 A 
ATOM      7  C   UNL A   1      38.092  24.061  26.208  1.00  0.00     0.026 A 
ATOM      8  C   UNL A   1      37.309  22.104  25.046  1.00  0.00     0.026 A 
ATOM      9  C   UNL A   1      39.199  23.343  26.663  1.00  0.00     0.018 A 
ATOM     10  C   UNL A   1      38.428  21.388  25.468  1.00  0.00     0.018 A 
BRANCH   6  11
ATOM     11  N   UNL A   1      35.832  24.002  25.399  1.00  0.00    -0.379 N 
ATOM     12  H   UNL A   1      35.715  24.974  25.513  1.00  0.00     0.160 HD
BRANCH  11  13
ATOM     13  C   UNL A   1      34.692  23.137  25.141  1.00  0.00     0.169 C 
BRANCH  13  14
ATOM     14  C   UNL A   1      33.423  23.594  25.757  1.00  0.00     0.066 A 
ATOM     15  C   UNL A   1      33.288  22.198  27.948  1.00  0.00     0.069 C 
ATOM     16  C   UNL A   1      32.822  23.193  26.952  1.00  0.00     0.062 A 
ATOM     17  N   UNL A   1      31.661  23.895  27.196  1.00  0.00    -0.224 NA
ATOM     18  C   UNL A   1      31.581  24.708  26.183  1.00  0.00     0.194 A 
ATOM     19  N   UNL A   1      32.614  24.610  25.289  1.00  0.00    -0.290 N 
ATOM     20  S   UNL A   1      30.456  25.956  25.756  1.00  0.00    -0.105 S 
ATOM     21  C   UNL A   1      32.549  25.536  24.248  1.00  0.00     0.032 A 
ATOM     22  C   UNL A   1      31.460  26.324  24.360  1.00  0.00     0.090 A 
ATOM     23  C   UNL A   1      33.546  25.689  23.160  1.00  0.00     0.066 C 
ENDBRANCH  13  14
ENDBRANCH  11  13
ENDBRANCH   6  11
ENDBRANCH   3   5
ENDBRANCH   2   3
ENDBRANCH   1   2
BRANCH   1  24
ATOM     24  C   UNL A   1      43.151  19.169  25.902  1.00  0.00     0.275 C 
BRANCH  24  25
ATOM     25  O   UNL A   1      43.299  19.977  24.735  1.00  0.00    -0.458 OA
BRANCH  25  26
ATOM     26  C   UNL A   1      44.572  20.297  24.417  1.00  0.00     0.338 C 
ATOM     27  O   UNL A   1      45.459  19.546  24.047  1.00  0.00    -0.246 OA
BRANCH  26  28
ATOM     28  C   UNL A   1      44.829  21.689  24.794  1.00  0.00     0.060 A 
ATOM     29  C   UNL A   1      45.875  21.935  25.689  1.00  0.00     0.016 A 
ATOM     30  C   UNL A   1      43.855  22.654  24.506  1.00  0.00     0.016 A 
ATOM     31  C   UNL A   1      45.849  23.097  26.430  1.00  0.00     0.010 A 
ATOM     32  C   UNL A   1      43.820  23.802  25.256  1.00  0.00     0.010 A 
ATOM     33  C   UNL A   1      44.775  23.973  26.260  1.00  0.00    -0.014 A 
BRANCH  33  34
ATOM     34  C   UNL A   1      44.674  25.125  27.130  1.00  0.00     0.031 A 
ATOM     35  C   UNL A   1      45.733  26.142  26.932  1.00  0.00     0.074 A 
ATOM     36  C   UNL A   1      43.588  25.309  27.905  1.00  0.00     0.049 A 
ATOM     37  N   UNL A   1      46.506  26.671  27.821  1.00  0.00    -0.248 NA
ATOM     38  C   UNL A   1      46.033  26.556  25.551  1.00  0.00     0.031 C 
ATOM     39  C   UNL A   1      42.360  24.508  27.939  1.00  0.00     0.029 A 
ATOM     40  N   UNL A   1      43.295  26.350  28.728  1.00  0.00    -0.354 N 
ATOM     41  C   UNL A   1      47.291  27.596  27.139  1.00  0.00     0.074 A 
ATOM     42  C   UNL A   1      47.056  27.388  25.736  1.00  0.00     0.031 C 
ATOM     43  C   UNL A   1      41.384  25.223  28.539  1.00  0.00     0.029 A 
ATOM     44  C   UNL A   1      41.944  26.480  29.011  1.00  0.00     0.049 A 
ATOM     45  H   UNL A   1      43.981  26.957  29.090  1.00  0.00     0.167 HD
ATOM     46  C   UNL A   1      47.921  28.609  27.791  1.00  0.00     0.037 A 
ATOM     47  C   UNL A   1      41.330  27.588  29.494  1.00  0.00     0.037 A 
ATOM     48  C   UNL A   1      48.058  28.330  29.195  1.00  0.00     0.049 A 
ATOM     49  C   UNL A   1      42.383  28.468  30.072  1.00  0.00     0.074 A 
ATOM     50  C   UNL A   1      48.666  27.321  29.915  1.00  0.00     0.029 A 
ATOM     51  N   UNL A   1      47.210  28.956  30.076  1.00  0.00    -0.354 N 
ATOM     52  N   UNL A   1      43.045  28.195  31.163  1.00  0.00    -0.248 NA
ATOM     53  C   UNL A   1      43.019  29.435  29.186  1.00  0.00     0.031 C 
ATOM     54  C   UNL A   1      47.799  27.079  31.018  1.00  0.00     0.029 A 
ATOM     55  C   UNL A   1      46.746  27.989  30.932  1.00  0.00     0.049 A 
ATOM     56  H   UNL A   1      46.980  29.914  30.090  1.00  0.00     0.167 HD
ATOM     57  C   UNL A   1      44.344  28.602  30.898  1.00  0.00     0.074 A 
ATOM     58  C   UNL A   1      44.249  29.444  29.709  1.00  0.00     0.031 C 
ATOM     59  C   UNL A   1      45.413  27.984  31.481  1.00  0.00     0.037 A 
BRANCH  46  60
ATOM     60  C   UNL A   1      48.105  29.986  27.214  1.00  0.00     0.064 A 
ATOM     61  C   UNL A   1      49.382  30.576  27.234  1.00  0.00     0.173 A 
ATOM     62  C   UNL A   1      47.031  30.858  26.923  1.00  0.00     0.173 A 
ATOM     63  F   UNL A   1      50.469  29.843  27.519  1.00  0.00    -0.203 F 
ATOM     64  C   UNL A   1      49.559  31.950  27.057  1.00  0.00     0.198 A 
ATOM     65  C   UNL A   1      47.219  32.218  26.690  1.00  0.00     0.198 A 
ATOM     66  F   UNL A   1      45.755  30.457  26.967  1.00  0.00    -0.203 F 
ATOM     67  F   UNL A   1      50.776  32.488  27.215  1.00  0.00    -0.200 F 
ATOM     68  C   UNL A   1      48.478  32.770  26.792  1.00  0.00     0.200 A 
ATOM     69  F   UNL A   1      46.156  32.998  26.453  1.00  0.00    -0.200 F 
ATOM     70  F   UNL A   1      48.638  34.096  26.685  1.00  0.00    -0.200 F 
ENDBRANCH  46  60
BRANCH  47  71
ATOM     71  C   UNL A   1      39.946  28.055  29.229  1.00  0.00     0.064 A 
ATOM     72  C   UNL A   1      38.992  28.122  30.257  1.00  0.00     0.173 A 
ATOM     73  C   UNL A   1      39.586  28.669  28.010  1.00  0.00     0.173 A 
ATOM     74  F   UNL A   1      39.268  27.613  31.467  1.00  0.00    -0.203 F 
ATOM     75  C   UNL A   1      37.763  28.769  30.081  1.00  0.00     0.198 A 
ATOM     76  C   UNL A   1      38.354  29.297  27.830  1.00  0.00     0.198 A 
ATOM     77  F   UNL A   1      40.456  28.757  26.994  1.00  0.00    -0.203 F 
ATOM     78  F   UNL A   1      36.904  28.863  31.105  1.00  0.00    -0.200 F 
ATOM     79  C   UNL A   1      37.446  29.358  28.868  1.00  0.00     0.200 A 
ATOM     80  F   UNL A   1      38.077  29.891  26.659  1.00  0.00    -0.200 F 
ATOM     81  F   UNL A   1      36.290  30.018  28.713  1.00  0.00    -0.200 F 
ENDBRANCH  47  71
BRANCH  59  82
ATOM     82  C   UNL A   1      45.150  27.021  32.603  1.00  0.00     0.064 A 
ATOM     83  C   UNL A   1      45.014  27.406  33.948  1.00  0.00     0.173 A 
ATOM     84  C   UNL A   1      44.865  25.685  32.286  1.00  0.00     0.173 A 
ATOM     85  F   UNL A   1      45.153  28.685  34.318  1.00  0.00    -0.203 F 
ATOM     86  C   UNL A   1      44.663  26.487  34.934  1.00  0.00     0.198 A 
ATOM     87  C   UNL A   1      44.474  24.778  33.267  1.00  0.00     0.198 A 
ATOM     88  F   UNL A   1      44.914  25.272  31.010  1.00  0.00    -0.203 F 
ATOM     89  F   UNL A   1      44.556  26.881  36.212  1.00  0.00    -0.200 F 
ATOM     90  C   UNL A   1      44.386  25.175  34.591  1.00  0.00     0.200 A 
ATOM     91  F   UNL A   1      44.153  23.523  32.922  1.00  0.00    -0.200 F 
ATOM     92  F   UNL A   1      44.005  24.300  35.532  1.00  0.00    -0.200 F 
ENDBRANCH  59  82
ENDBRANCH  33  34
ENDBRANCH  26  28
ENDBRANCH  25  26
ENDBRANCH  24  25
ENDBRANCH   1  24
TORSDOF 14
ENDMDL
MODEL 3
REMARK VINA RESULT:     -12.0      4.305      9.364
REMARK SMILES Cc1nc2scc(C)n2c1CNc1ccc(C(=O)OCCOC(=O)c2ccc(-c3c4nc(c(-c5c(F)c(F)c(F)c(F)c5F)c5ccc([nH]5)c(-c5c(F)c(F)c(F)c(F)c5F)c5nc(c(-c6c(F)c(F)c(F)c(F)c6F)c6ccc3[nH]6)C=C5)C=C4)cc2)cc1
REMARK SMILES IDX 20 1 19 2 17 3 18 4 16 5 13 6 14 7 89 8 15 9 88 10 12 11
REMARK SMILES IDX 11 13 10 14 1 15 2 16 3 17 4 18 9 19 5 20 7 21 6 22 8 23
REMARK SMILES IDX 21 24 22 25 23 26 24 27 25 28 26 29 87 30 27 31 86 32 28 33
REMARK SMILES IDX 29 34 30 35 80 36 31 37 85 38 79 39 81 40 32 41 84 42 78 43
REMARK SMILES IDX 77 44 33 46 65 47 45 48 64 49 46 50 49 51 63 52 82 53 47 54
REMARK SMILES IDX 48 55 62 57 83 58 50 59 34 60 35 61 43 62 36 63 37 64 41 65
REMARK SMILES IDX 44 66 38 67 39 68 42 69 40 70 66 71 67 72 75 73 68 74 69 75
REMARK SMILES IDX 73 76 76 77 70 78 71 79 74 80 72 81 51 82 52 83 60 84 53 85
REMARK SMILES IDX 54 86 58 87 61 88 55 89 56 90 59 91 57 92
REMARK H PARENT 12 12 81 45 49 56
REMARK Flexibility Score: inf
ROOT
ATOM      1  C   UNL A   1      33.791  35.252  28.729  1.00  0.00     0.275 C 
ENDROOT
BRANCH   1   2
ATOM      2  O   UNL A   1      33.619  33.827  28.732  1.00  0.00    -0.458 OA
BRANCH   2   3
ATOM      3  C   UNL A   1      34.462  33.133  27.928  1.00  0.00     0.338 C 
ATOM      4  O   UNL A   1      35.567  33.496  27.549  1.00  0.00    -0.246 OA
BRANCH   3   5
ATOM      5  C   UNL A   1      33.907  31.794  27.622  1.00  0.00     0.060 A 
ATOM      6  C   UNL A   1      33.028  29.302  26.697  1.00  0.00     0.034 A 
ATOM      7  C   UNL A   1      34.325  29.448  27.194  1.00  0.00     0.026 A 
ATOM      8  C   UNL A   1      32.133  30.372  26.829  1.00  0.00     0.026 A 
ATOM      9  C   UNL A   1      34.774  30.695  27.629  1.00  0.00     0.018 A 
ATOM     10  C   UNL A   1      32.563  31.614  27.292  1.00  0.00     0.018 A 
BRANCH   6  11
ATOM     11  N   UNL A   1      32.731  28.208  25.896  1.00  0.00    -0.379 N 
ATOM     12  H   UNL A   1      31.825  28.078  25.529  1.00  0.00     0.160 HD
BRANCH  11  13
ATOM     13  C   UNL A   1      33.795  27.258  25.616  1.00  0.00     0.169 C 
BRANCH  13  14
ATOM     14  C   UNL A   1      33.681  26.579  24.302  1.00  0.00     0.066 A 
ATOM     15  C   UNL A   1      33.997  28.519  22.600  1.00  0.00     0.069 C 
ATOM     16  C   UNL A   1      33.765  27.115  23.015  1.00  0.00     0.062 A 
ATOM     17  N   UNL A   1      33.652  26.138  22.050  1.00  0.00    -0.224 NA
ATOM     18  C   UNL A   1      33.524  25.044  22.743  1.00  0.00     0.194 A 
ATOM     19  N   UNL A   1      33.559  25.218  24.100  1.00  0.00    -0.290 N 
ATOM     20  S   UNL A   1      33.381  23.374  22.297  1.00  0.00    -0.105 S 
ATOM     21  C   UNL A   1      33.491  24.029  24.825  1.00  0.00     0.032 A 
ATOM     22  C   UNL A   1      33.397  22.960  24.006  1.00  0.00     0.090 A 
ATOM     23  C   UNL A   1      33.548  23.908  26.303  1.00  0.00     0.066 C 
ENDBRANCH  13  14
ENDBRANCH  11  13
ENDBRANCH   6  11
ENDBRANCH   3   5
ENDBRANCH   2   3
ENDBRANCH   1   2
BRANCH   1  24
ATOM     24  C   UNL A   1      33.096  35.888  29.924  1.00  0.00     0.275 C 
BRANCH  24  25
ATOM     25  O   UNL A   1      32.719  34.909  30.893  1.00  0.00    -0.458 OA
BRANCH  25  26
ATOM     26  C   UNL A   1      33.015  35.227  32.172  1.00  0.00     0.338 C 
ATOM     27  O   UNL A   1      32.488  36.078  32.870  1.00  0.00    -0.246 OA
BRANCH  26  28
ATOM     28  C   UNL A   1      34.245  34.538  32.568  1.00  0.00     0.060 A 
ATOM     29  C   UNL A   1      35.333  35.328  32.956  1.00  0.00     0.016 A 
ATOM     30  C   UNL A   1      34.386  33.181  32.255  1.00  0.00     0.016 A 
ATOM     31  C   UNL A   1      36.601  34.794  32.863  1.00  0.00     0.010 A 
ATOM     32  C   UNL A   1      35.650  32.656  32.145  1.00  0.00     0.010 A 
ATOM     33  C   UNL A   1      36.742  33.491  32.378  1.00  0.00    -0.014 A 
BRANCH  33  34
ATOM     34  C   UNL A   1      38.076  32.977  32.152  1.00  0.00     0.031 A 
ATOM     35  C   UNL A   1      38.931  32.926  33.361  1.00  0.00     0.074 A 
ATOM     36  C   UNL A   1      38.408  32.423  30.970  1.00  0.00     0.049 A 
ATOM     37  N   UNL A   1      40.120  33.404  33.517  1.00  0.00    -0.248 NA
ATOM     38  C   UNL A   1      38.349  32.349  34.585  1.00  0.00     0.031 C 
ATOM     39  C   UNL A   1      37.535  32.160  29.822  1.00  0.00     0.029 A 
ATOM     40  N   UNL A   1      39.580  31.839  30.603  1.00  0.00    -0.354 N 
ATOM     41  C   UNL A   1      40.501  33.060  34.810  1.00  0.00     0.074 A 
ATOM     42  C   UNL A   1      39.332  32.535  35.464  1.00  0.00     0.031 C 
ATOM     43  C   UNL A   1      38.135  31.263  29.009  1.00  0.00     0.029 A 
ATOM     44  C   UNL A   1      39.460  30.969  29.530  1.00  0.00     0.049 A 
ATOM     45  H   UNL A   1      40.434  32.017  31.058  1.00  0.00     0.167 HD
ATOM     46  C   UNL A   1      41.809  33.037  35.183  1.00  0.00     0.037 A 
ATOM     47  C   UNL A   1      40.348  30.005  29.177  1.00  0.00     0.037 A 
ATOM     48  C   UNL A   1      42.625  33.819  34.294  1.00  0.00     0.049 A 
ATOM     49  C   UNL A   1      41.641  30.323  29.844  1.00  0.00     0.074 A 
ATOM     50  C   UNL A   1      42.626  35.147  33.915  1.00  0.00     0.029 A 
ATOM     51  N   UNL A   1      43.395  33.166  33.362  1.00  0.00    -0.354 N 
ATOM     52  N   UNL A   1      42.401  31.332  29.520  1.00  0.00    -0.248 NA
ATOM     53  C   UNL A   1      41.867  29.779  31.177  1.00  0.00     0.031 C 
ATOM     54  C   UNL A   1      42.963  35.137  32.532  1.00  0.00     0.029 A 
ATOM     55  C   UNL A   1      43.200  33.813  32.167  1.00  0.00     0.049 A 
ATOM     56  H   UNL A   1      43.975  32.387  33.521  1.00  0.00     0.167 HD
ATOM     57  C   UNL A   1      42.875  31.819  30.730  1.00  0.00     0.074 A 
ATOM     58  C   UNL A   1      42.594  30.768  31.704  1.00  0.00     0.031 C 
ATOM     59  C   UNL A   1      43.179  33.140  30.892  1.00  0.00     0.037 A 
BRANCH  46  60
ATOM     60  C   UNL A   1      42.385  32.036  36.147  1.00  0.00     0.064 A 
ATOM     61  C   UNL A   1      43.163  32.490  37.228  1.00  0.00     0.173 A 
ATOM     62  C   UNL A   1      42.456  30.650  35.880  1.00  0.00     0.173 A 
ATOM     63  F   UNL A   1      43.184  33.792  37.554  1.00  0.00    -0.203 F 
ATOM     64  C   UNL A   1      44.010  31.634  37.935  1.00  0.00     0.198 A 
ATOM     65  C   UNL A   1      43.259  29.790  36.625  1.00  0.00     0.198 A 
ATOM     66  F   UNL A   1      41.849  30.095  34.824  1.00  0.00    -0.203 F 
ATOM     67  F   UNL A   1      44.830  32.135  38.869  1.00  0.00    -0.200 F 
ATOM     68  C   UNL A   1      44.061  30.287  37.629  1.00  0.00     0.200 A 
ATOM     69  F   UNL A   1      43.308  28.490  36.300  1.00  0.00    -0.200 F 
ATOM     70  F   UNL A   1      44.920  29.477  38.263  1.00  0.00    -0.200 F 
ENDBRANCH  46  60
BRANCH  47  71
ATOM     71  C   UNL A   1      40.068  28.693  28.543  1.00  0.00     0.064 A 
ATOM     72  C   UNL A   1      40.603  28.364  27.287  1.00  0.00     0.173 A 
ATOM     73  C   UNL A   1      39.463  27.635  29.254  1.00  0.00     0.173 A 
ATOM     74  F   UNL A   1      41.245  29.293  26.563  1.00  0.00    -0.203 F 
ATOM     75  C   UNL A   1      40.542  27.061  26.779  1.00  0.00     0.198 A 
ATOM     76  C   UNL A   1      39.387  26.341  28.739  1.00  0.00     0.198 A 
ATOM     77  F   UNL A   1      39.011  27.808  30.504  1.00  0.00    -0.203 F 
ATOM     78  F   UNL A   1      41.117  26.775  25.602  1.00  0.00    -0.200 F 
ATOM     79  C   UNL A   1      39.937  26.050  27.507  1.00  0.00     0.200 A 
ATOM     80  F   UNL A   1      38.827  25.367  29.472  1.00  0.00    -0.200 F 
ATOM     81  F   UNL A   1      39.921  24.793  27.043  1.00  0.00    -0.200 F 
ENDBRANCH  47  71
BRANCH  59  82
ATOM     82  C   UNL A   1      43.228  34.012  29.669  1.00  0.00     0.064 A 
ATOM     83  C   UNL A   1      44.359  34.138  28.844  1.00  0.00     0.173 A 
ATOM     84  C   UNL A   1      42.041  34.612  29.227  1.00  0.00     0.173 A 
ATOM     85  F   UNL A   1      45.499  33.499  29.132  1.00  0.00    -0.203 F 
ATOM     86  C   UNL A   1      44.317  34.874  27.663  1.00  0.00     0.198 A 
ATOM     87  C   UNL A   1      41.991  35.313  28.025  1.00  0.00     0.198 A 
ATOM     88  F   UNL A   1      40.911  34.473  29.938  1.00  0.00    -0.203 F 
ATOM     89  F   UNL A   1      45.417  34.989  26.904  1.00  0.00    -0.200 F 
ATOM     90  C   UNL A   1      43.130  35.455  27.251  1.00  0.00     0.200 A 
ATOM     91  F   UNL A   1      40.827  35.826  27.603  1.00  0.00    -0.200 F 
ATOM     92  F   UNL A   1      43.077  36.126  26.092  1.00  0.00    -0.200 F 
ENDBRANCH  59  82
ENDBRANCH  33  34
ENDBRANCH  26  28
ENDBRANCH  25  26
ENDBRANCH  24  25
ENDBRANCH   1  24
TORSDOF 14
ENDMDL
