MODEL 1
REMARK VINA RESULT:     -12.9      0.000      0.000
REMARK SMILES O=C(OCCOC(=O)[C@@H]1Cc2[nH]cnc2CN1C(=O)c1csc(-c2cccs2)n1)c1ccc(-c2c3nc(c(-c4c(F)c(F)c(F)c(F)c4F)c4ccc([nH]4)c(-c4c(F)c(F)c(F)c(F)c4F)c4nc(c(-c5c(F)c(F)c(F)c(F)c5F)c5ccc2[nH]5)C=C4)C=C3)cc1
REMARK SMILES IDX 5 1 4 2 3 3 2 4 1 5 30 6 31 7 92 8 32 9 91 10 33 11 34 12
REMARK SMILES IDX 35 13 85 14 36 15 90 16 84 17 86 18 37 19 89 20 83 21 82 22
REMARK SMILES IDX 38 24 70 25 50 26 69 27 51 28 54 29 68 30 87 31 52 32 53 33
REMARK SMILES IDX 67 35 88 36 55 37 39 38 40 39 48 40 41 41 42 42 46 43 49 44
REMARK SMILES IDX 43 45 44 46 47 47 45 48 71 49 72 50 80 51 73 52 74 53 78 54
REMARK SMILES IDX 81 55 75 56 76 57 79 58 77 59 56 60 57 61 65 62 58 63 59 64
REMARK SMILES IDX 63 65 66 66 60 67 61 68 64 69 62 70 6 71 7 72 8 73 9 74
REMARK SMILES IDX 10 75 17 76 11 77 16 78 12 79 15 80 13 81 14 83 18 84 19 85
REMARK SMILES IDX 20 86 21 87 29 88 22 89 23 90 24 91 25 92 28 93 26 94 27 95
REMARK H PARENT 86 23 54 34 12 82
REMARK Flexibility Score: inf
ROOT
ATOM      1  C   UNL A   1      36.504  21.317  25.064  1.00  0.00     0.274 C 
ENDROOT
BRANCH   1   2
ATOM      2  C   UNL A   1      38.017  21.141  25.160  1.00  0.00     0.275 C 
BRANCH   2   3
ATOM      3  O   UNL A   1      38.800  22.297  25.529  1.00  0.00    -0.458 OA
BRANCH   3   4
ATOM      4  C   UNL A   1      39.587  22.244  26.630  1.00  0.00     0.338 C 
ATOM      5  O   UNL A   1      40.084  21.237  27.080  1.00  0.00    -0.246 OA
BRANCH   4   6
ATOM      6  C   UNL A   1      39.931  23.598  27.130  1.00  0.00     0.060 A 
ATOM      7  C   UNL A   1      41.076  23.841  27.896  1.00  0.00     0.016 A 
ATOM      8  C   UNL A   1      39.076  24.655  26.795  1.00  0.00     0.016 A 
ATOM      9  C   UNL A   1      41.335  25.116  28.376  1.00  0.00     0.010 A 
ATOM     10  C   UNL A   1      39.333  25.933  27.278  1.00  0.00     0.010 A 
ATOM     11  C   UNL A   1      40.447  26.152  28.094  1.00  0.00    -0.014 A 
BRANCH  11  12
ATOM     12  C   UNL A   1      40.716  27.450  28.701  1.00  0.00     0.031 A 
ATOM     13  C   UNL A   1      41.860  28.256  28.183  1.00  0.00     0.074 A 
ATOM     14  C   UNL A   1      39.880  28.016  29.588  1.00  0.00     0.049 A 
ATOM     15  N   UNL A   1      42.870  28.748  28.832  1.00  0.00    -0.248 NA
ATOM     16  C   UNL A   1      41.852  28.582  26.752  1.00  0.00     0.031 C 
ATOM     17  C   UNL A   1      38.529  27.601  29.966  1.00  0.00     0.029 A 
ATOM     18  N   UNL A   1      40.046  29.194  30.249  1.00  0.00    -0.354 N 
ATOM     19  C   UNL A   1      43.570  29.547  27.926  1.00  0.00     0.074 A 
ATOM     20  C   UNL A   1      42.922  29.371  26.649  1.00  0.00     0.031 C 
ATOM     21  C   UNL A   1      37.920  28.629  30.599  1.00  0.00     0.029 A 
ATOM     22  C   UNL A   1      38.879  29.706  30.782  1.00  0.00     0.049 A 
ATOM     23  H   UNL A   1      40.919  29.640  30.340  1.00  0.00     0.167 HD
ATOM     24  C   UNL A   1      44.564  30.407  28.292  1.00  0.00     0.037 A 
ATOM     25  C   UNL A   1      38.706  30.965  31.244  1.00  0.00     0.037 A 
ATOM     26  C   UNL A   1      45.062  30.154  29.613  1.00  0.00     0.049 A 
ATOM     27  C   UNL A   1      40.042  31.547  31.526  1.00  0.00     0.074 A 
ATOM     28  C   UNL A   1      45.644  29.069  30.244  1.00  0.00     0.029 A 
ATOM     29  N   UNL A   1      44.746  31.020  30.629  1.00  0.00    -0.354 N 
ATOM     30  N   UNL A   1      40.824  31.169  32.498  1.00  0.00    -0.248 NA
ATOM     31  C   UNL A   1      40.687  32.304  30.462  1.00  0.00     0.031 C 
ATOM     32  C   UNL A   1      45.138  29.108  31.578  1.00  0.00     0.029 A 
ATOM     33  C   UNL A   1      44.304  30.223  31.653  1.00  0.00     0.049 A 
ATOM     34  H   UNL A   1      44.821  32.002  30.625  1.00  0.00     0.167 HD
ATOM     35  C   UNL A   1      42.109  31.294  31.992  1.00  0.00     0.074 A 
ATOM     36  C   UNL A   1      41.967  32.085  30.773  1.00  0.00     0.031 C 
ATOM     37  C   UNL A   1      43.139  30.521  32.444  1.00  0.00     0.037 A 
BRANCH  24  38
ATOM     38  C   UNL A   1      44.962  31.639  27.526  1.00  0.00     0.064 A 
ATOM     39  C   UNL A   1      46.268  31.766  27.013  1.00  0.00     0.173 A 
ATOM     40  C   UNL A   1      44.173  32.807  27.493  1.00  0.00     0.173 A 
ATOM     41  F   UNL A   1      47.118  30.728  27.040  1.00  0.00    -0.203 F 
ATOM     42  C   UNL A   1      46.754  32.981  26.521  1.00  0.00     0.198 A 
ATOM     43  C   UNL A   1      44.642  34.004  26.952  1.00  0.00     0.198 A 
ATOM     44  F   UNL A   1      42.965  32.849  28.072  1.00  0.00    -0.203 F 
ATOM     45  F   UNL A   1      48.029  33.078  26.126  1.00  0.00    -0.200 F 
ATOM     46  C   UNL A   1      45.938  34.097  26.486  1.00  0.00     0.200 A 
ATOM     47  F   UNL A   1      43.846  35.082  26.946  1.00  0.00    -0.200 F 
ATOM     48  F   UNL A   1      46.411  35.270  26.045  1.00  0.00    -0.200 F 
ENDBRANCH  24  38
BRANCH  25  49
ATOM     49  C   UNL A   1      37.478  31.784  31.161  1.00  0.00     0.064 A 
ATOM     50  C   UNL A   1      36.802  32.195  32.317  1.00  0.00     0.173 A 
ATOM     51  C   UNL A   1      37.080  32.384  29.949  1.00  0.00     0.173 A 
ATOM     52  F   UNL A   1      37.162  31.716  33.515  1.00  0.00    -0.203 F 
ATOM     53  C   UNL A   1      35.784  33.152  32.264  1.00  0.00     0.198 A 
ATOM     54  C   UNL A   1      36.056  33.327  29.895  1.00  0.00     0.198 A 
ATOM     55  F   UNL A   1      37.737  32.133  28.807  1.00  0.00    -0.203 F 
ATOM     56  F   UNL A   1      35.193  33.561  33.395  1.00  0.00    -0.200 F 
ATOM     57  C   UNL A   1      35.414  33.718  31.054  1.00  0.00     0.200 A 
ATOM     58  F   UNL A   1      35.736  33.893  28.723  1.00  0.00    -0.200 F 
ATOM     59  F   UNL A   1      34.470  34.668  31.010  1.00  0.00    -0.200 F 
ENDBRANCH  25  49
BRANCH  37  60
ATOM     60  C   UNL A   1      42.919  29.681  33.666  1.00  0.00     0.064 A 
ATOM     61  C   UNL A   1      43.190  30.134  34.968  1.00  0.00     0.173 A 
ATOM     62  C   UNL A   1      42.255  28.454  33.533  1.00  0.00     0.173 A 
ATOM     63  F   UNL A   1      43.713  31.349  35.178  1.00  0.00    -0.203 F 
ATOM     64  C   UNL A   1      42.856  29.370  36.083  1.00  0.00     0.198 A 
ATOM     65  C   UNL A   1      41.891  27.708  34.651  1.00  0.00     0.198 A 
ATOM     66  F   UNL A   1      41.909  28.004  32.316  1.00  0.00    -0.203 F 
ATOM     67  F   UNL A   1      43.129  29.825  37.315  1.00  0.00    -0.200 F 
ATOM     68  C   UNL A   1      42.200  28.161  35.923  1.00  0.00     0.200 A 
ATOM     69  F   UNL A   1      41.208  26.565  34.496  1.00  0.00    -0.200 F 
ATOM     70  F   UNL A   1      41.837  27.448  36.998  1.00  0.00    -0.200 F 
ENDBRANCH  37  60
ENDBRANCH  11  12
ENDBRANCH   4   6
ENDBRANCH   3   4
ENDBRANCH   2   3
ENDBRANCH   1   2
BRANCH   1  71
ATOM     71  O   UNL A   1      35.948  21.837  26.291  1.00  0.00    -0.461 OA
BRANCH  71  72
ATOM     72  C   UNL A   1      35.205  22.974  26.118  1.00  0.00     0.329 C 
ATOM     73  O   UNL A   1      35.576  23.924  25.440  1.00  0.00    -0.250 OA
BRANCH  72  74
ATOM     74  C   UNL A   1      33.911  22.946  26.960  1.00  0.00     0.201 C 
ATOM     75  C   UNL A   1      33.653  21.499  27.483  1.00  0.00     0.093 C 
ATOM     76  N   UNL A   1      32.751  23.416  26.134  1.00  0.00    -0.317 N 
ATOM     77  C   UNL A   1      33.117  20.682  26.364  1.00  0.00     0.042 A 
ATOM     78  C   UNL A   1      32.474  22.648  24.890  1.00  0.00     0.179 C 
ATOM     79  N   UNL A   1      33.156  19.331  26.197  1.00  0.00    -0.348 N 
ATOM     80  C   UNL A   1      32.580  21.189  25.200  1.00  0.00     0.081 A 
ATOM     81  C   UNL A   1      32.657  19.076  24.946  1.00  0.00     0.197 A 
ATOM     82  H   UNL A   1      33.480  18.666  26.848  1.00  0.00     0.167 HD
ATOM     83  N   UNL A   1      32.283  20.177  24.328  1.00  0.00    -0.240 NA
BRANCH  76  84
ATOM     84  C   UNL A   1      31.809  24.376  26.501  1.00  0.00     0.274 C 
ATOM     85  O   UNL A   1      30.873  24.103  27.251  1.00  0.00    -0.267 OA
BRANCH  84  86
ATOM     86  C   UNL A   1      31.929  25.745  25.986  1.00  0.00     0.140 A 
ATOM     87  C   UNL A   1      31.060  26.336  25.086  1.00  0.00     0.101 A 
ATOM     88  N   UNL A   1      32.874  26.625  26.523  1.00  0.00    -0.230 NA
ATOM     89  S   UNL A   1      31.403  28.011  24.944  1.00  0.00    -0.121 S 
ATOM     90  C   UNL A   1      32.635  27.860  26.135  1.00  0.00     0.134 A 
BRANCH  90  91
ATOM     91  C   UNL A   1      33.378  28.977  26.671  1.00  0.00     0.063 A 
ATOM     92  C   UNL A   1      34.681  28.949  27.137  1.00  0.00     0.023 A 
ATOM     93  S   UNL A   1      32.694  30.540  26.877  1.00  0.00    -0.141 S 
ATOM     94  C   UNL A   1      35.118  30.210  27.646  1.00  0.00     0.012 A 
ATOM     95  C   UNL A   1      34.118  31.153  27.597  1.00  0.00     0.065 A 
ENDBRANCH  90  91
ENDBRANCH  84  86
ENDBRANCH  76  84
ENDBRANCH  72  74
ENDBRANCH  71  72
ENDBRANCH   1  71
TORSDOF 14
ENDMDL
MODEL 2
REMARK VINA RESULT:     -12.8      3.419      8.782
REMARK SMILES O=C(OCCOC(=O)[C@@H]1Cc2[nH]cnc2CN1C(=O)c1csc(-c2cccs2)n1)c1ccc(-c2c3nc(c(-c4c(F)c(F)c(F)c(F)c4F)c4ccc([nH]4)c(-c4c(F)c(F)c(F)c(F)c4F)c4nc(c(-c5c(F)c(F)c(F)c(F)c5F)c5ccc2[nH]5)C=C4)C=C3)cc1
REMARK SMILES IDX 5 1 4 2 3 3 2 4 1 5 30 6 31 7 92 8 32 9 91 10 33 11 34 12
REMARK SMILES IDX 35 13 85 14 36 15 90 16 84 17 86 18 37 19 89 20 83 21 82 22
REMARK SMILES IDX 38 24 70 25 50 26 69 27 51 28 54 29 68 30 87 31 52 32 53 33
REMARK SMILES IDX 67 35 88 36 55 37 39 38 40 39 48 40 41 41 42 42 46 43 49 44
REMARK SMILES IDX 43 45 44 46 47 47 45 48 71 49 72 50 80 51 73 52 74 53 78 54
REMARK SMILES IDX 81 55 75 56 76 57 79 58 77 59 56 60 57 61 65 62 58 63 59 64
REMARK SMILES IDX 63 65 66 66 60 67 61 68 64 69 62 70 6 71 7 72 8 73 9 74
REMARK SMILES IDX 10 75 17 76 11 77 16 78 12 79 15 80 13 81 14 83 18 84 19 85
REMARK SMILES IDX 20 86 21 87 29 88 22 89 23 90 24 91 25 92 28 93 26 94 27 95
REMARK H PARENT 86 23 54 34 12 82
REMARK Flexibility Score: inf
ROOT
ATOM      1  C   UNL A   1      32.238  30.063  26.072  1.00  0.00     0.274 C 
ENDROOT
BRANCH   1   2
ATOM      2  C   UNL A   1      32.773  31.067  27.089  1.00  0.00     0.275 C 
BRANCH   2   3
ATOM      3  O   UNL A   1      33.898  30.660  27.898  1.00  0.00    -0.458 OA
BRANCH   3   4
ATOM      4  C   UNL A   1      34.777  31.594  28.333  1.00  0.00     0.338 C 
ATOM      5  O   UNL A   1      34.499  32.744  28.589  1.00  0.00    -0.246 OA
BRANCH   4   6
ATOM      6  C   UNL A   1      36.103  31.004  28.646  1.00  0.00     0.060 A 
ATOM      7  C   UNL A   1      37.232  31.793  28.887  1.00  0.00     0.016 A 
ATOM      8  C   UNL A   1      36.196  29.609  28.715  1.00  0.00     0.016 A 
ATOM      9  C   UNL A   1      38.459  31.197  29.136  1.00  0.00     0.010 A 
ATOM     10  C   UNL A   1      37.426  29.009  28.960  1.00  0.00     0.010 A 
ATOM     11  C   UNL A   1      38.561  29.806  29.139  1.00  0.00    -0.014 A 
BRANCH  11  12
ATOM     12  C   UNL A   1      39.889  29.233  29.310  1.00  0.00     0.031 A 
ATOM     13  C   UNL A   1      40.432  29.088  30.693  1.00  0.00     0.074 A 
ATOM     14  C   UNL A   1      40.571  28.680  28.292  1.00  0.00     0.049 A 
ATOM     15  N   UNL A   1      41.545  29.539  31.183  1.00  0.00    -0.248 NA
ATOM     16  C   UNL A   1      39.633  28.304  31.643  1.00  0.00     0.031 C 
ATOM     17  C   UNL A   1      40.103  28.367  26.941  1.00  0.00     0.029 A 
ATOM     18  N   UNL A   1      41.826  28.156  28.321  1.00  0.00    -0.354 N 
ATOM     19  C   UNL A   1      41.656  29.005  32.468  1.00  0.00     0.074 A 
ATOM     20  C   UNL A   1      40.428  28.288  32.713  1.00  0.00     0.031 C 
ATOM     21  C   UNL A   1      40.975  27.506  26.368  1.00  0.00     0.029 A 
ATOM     22  C   UNL A   1      42.111  27.324  27.257  1.00  0.00     0.049 A 
ATOM     23  H   UNL A   1      42.474  28.353  29.037  1.00  0.00     0.167 HD
ATOM     24  C   UNL A   1      42.797  29.069  33.214  1.00  0.00     0.037 A 
ATOM     25  C   UNL A   1      43.159  26.473  27.175  1.00  0.00     0.037 A 
ATOM     26  C   UNL A   1      43.734  30.034  32.716  1.00  0.00     0.049 A 
ATOM     27  C   UNL A   1      44.186  26.904  28.156  1.00  0.00     0.074 A 
ATOM     28  C   UNL A   1      43.700  31.396  32.486  1.00  0.00     0.029 A 
ATOM     29  N   UNL A   1      44.875  29.601  32.088  1.00  0.00    -0.354 N 
ATOM     30  N   UNL A   1      44.903  27.988  28.051  1.00  0.00    -0.248 NA
ATOM     31  C   UNL A   1      44.142  26.309  29.485  1.00  0.00     0.031 C 
ATOM     32  C   UNL A   1      44.479  31.586  31.305  1.00  0.00     0.029 A 
ATOM     33  C   UNL A   1      44.937  30.325  30.925  1.00  0.00     0.049 A 
ATOM     34  H   UNL A   1      45.512  28.919  32.403  1.00  0.00     0.167 HD
ATOM     35  C   UNL A   1      45.076  28.429  29.355  1.00  0.00     0.074 A 
ATOM     36  C   UNL A   1      44.670  27.307  30.197  1.00  0.00     0.031 C 
ATOM     37  C   UNL A   1      45.269  29.748  29.649  1.00  0.00     0.037 A 
BRANCH  24  38
ATOM     38  C   UNL A   1      43.171  28.098  34.300  1.00  0.00     0.064 A 
ATOM     39  C   UNL A   1      43.437  28.559  35.605  1.00  0.00     0.173 A 
ATOM     40  C   UNL A   1      43.517  26.757  34.040  1.00  0.00     0.173 A 
ATOM     41  F   UNL A   1      43.189  29.833  35.944  1.00  0.00    -0.203 F 
ATOM     42  C   UNL A   1      44.026  27.740  36.572  1.00  0.00     0.198 A 
ATOM     43  C   UNL A   1      44.055  25.926  35.024  1.00  0.00     0.198 A 
ATOM     44  F   UNL A   1      43.438  26.242  32.805  1.00  0.00    -0.203 F 
ATOM     45  F   UNL A   1      44.342  28.245  37.771  1.00  0.00    -0.200 F 
ATOM     46  C   UNL A   1      44.328  26.422  36.282  1.00  0.00     0.200 A 
ATOM     47  F   UNL A   1      44.363  24.657  34.719  1.00  0.00    -0.200 F 
ATOM     48  F   UNL A   1      44.922  25.644  37.196  1.00  0.00    -0.200 F 
ENDBRANCH  24  38
BRANCH  25  49
ATOM     49  C   UNL A   1      43.184  25.149  26.520  1.00  0.00     0.064 A 
ATOM     50  C   UNL A   1      43.997  24.907  25.405  1.00  0.00     0.173 A 
ATOM     51  C   UNL A   1      42.591  24.022  27.126  1.00  0.00     0.173 A 
ATOM     52  F   UNL A   1      44.644  25.919  24.809  1.00  0.00    -0.203 F 
ATOM     53  C   UNL A   1      44.205  23.611  24.921  1.00  0.00     0.198 A 
ATOM     54  C   UNL A   1      42.788  22.733  26.635  1.00  0.00     0.198 A 
ATOM     55  F   UNL A   1      41.883  24.142  28.258  1.00  0.00    -0.203 F 
ATOM     56  F   UNL A   1      45.030  23.410  23.884  1.00  0.00    -0.200 F 
ATOM     57  C   UNL A   1      43.602  22.527  25.538  1.00  0.00     0.200 A 
ATOM     58  F   UNL A   1      42.229  21.690  27.266  1.00  0.00    -0.200 F 
ATOM     59  F   UNL A   1      43.838  21.281  25.103  1.00  0.00    -0.200 F 
ENDBRANCH  25  49
BRANCH  37  60
ATOM     60  C   UNL A   1      45.519  30.703  28.521  1.00  0.00     0.064 A 
ATOM     61  C   UNL A   1      44.489  31.257  27.742  1.00  0.00     0.173 A 
ATOM     62  C   UNL A   1      46.814  31.205  28.334  1.00  0.00     0.173 A 
ATOM     63  F   UNL A   1      43.211  30.915  27.948  1.00  0.00    -0.203 F 
ATOM     64  C   UNL A   1      44.753  32.234  26.786  1.00  0.00     0.198 A 
ATOM     65  C   UNL A   1      47.069  32.206  27.401  1.00  0.00     0.198 A 
ATOM     66  F   UNL A   1      47.825  30.761  29.098  1.00  0.00    -0.203 F 
ATOM     67  F   UNL A   1      43.752  32.745  26.054  1.00  0.00    -0.200 F 
ATOM     68  C   UNL A   1      46.042  32.713  26.621  1.00  0.00     0.200 A 
ATOM     69  F   UNL A   1      48.308  32.707  27.282  1.00  0.00    -0.200 F 
ATOM     70  F   UNL A   1      46.288  33.687  25.734  1.00  0.00    -0.200 F 
ENDBRANCH  37  60
ENDBRANCH  11  12
ENDBRANCH   4   6
ENDBRANCH   3   4
ENDBRANCH   2   3
ENDBRANCH   1   2
BRANCH   1  71
ATOM     71  O   UNL A   1      33.283  29.569  25.208  1.00  0.00    -0.461 OA
BRANCH  71  72
ATOM     72  C   UNL A   1      33.293  28.205  25.083  1.00  0.00     0.329 C 
ATOM     73  O   UNL A   1      33.074  27.442  26.016  1.00  0.00    -0.250 OA
BRANCH  72  74
ATOM     74  C   UNL A   1      33.713  27.763  23.665  1.00  0.00     0.201 C 
ATOM     75  C   UNL A   1      33.403  28.901  22.643  1.00  0.00     0.093 C 
ATOM     76  N   UNL A   1      32.988  26.508  23.282  1.00  0.00    -0.317 N 
ATOM     77  C   UNL A   1      31.943  28.902  22.369  1.00  0.00     0.042 A 
ATOM     78  C   UNL A   1      31.502  26.577  23.290  1.00  0.00     0.179 C 
ATOM     79  N   UNL A   1      31.157  29.923  21.927  1.00  0.00    -0.348 N 
ATOM     80  C   UNL A   1      31.083  27.862  22.650  1.00  0.00     0.081 A 
ATOM     81  C   UNL A   1      29.864  29.469  21.967  1.00  0.00     0.197 A 
ATOM     82  H   UNL A   1      31.458  30.814  21.634  1.00  0.00     0.167 HD
ATOM     83  N   UNL A   1      29.791  28.220  22.381  1.00  0.00    -0.240 NA
BRANCH  76  84
ATOM     84  C   UNL A   1      33.559  25.351  22.754  1.00  0.00     0.274 C 
ATOM     85  O   UNL A   1      33.691  25.196  21.541  1.00  0.00    -0.267 OA
BRANCH  84  86
ATOM     86  C   UNL A   1      34.017  24.288  23.658  1.00  0.00     0.140 A 
ATOM     87  C   UNL A   1      33.408  23.056  23.809  1.00  0.00     0.101 A 
ATOM     88  N   UNL A   1      35.241  24.403  24.324  1.00  0.00    -0.230 NA
ATOM     89  S   UNL A   1      34.394  22.021  24.757  1.00  0.00    -0.121 S 
ATOM     90  C   UNL A   1      35.595  23.248  24.849  1.00  0.00     0.134 A 
BRANCH  90  91
ATOM     91  C   UNL A   1      36.891  23.064  25.462  1.00  0.00     0.063 A 
ATOM     92  C   UNL A   1      37.624  24.024  26.137  1.00  0.00     0.023 A 
ATOM     93  S   UNL A   1      37.764  21.587  25.371  1.00  0.00    -0.141 S 
ATOM     94  C   UNL A   1      38.890  23.542  26.589  1.00  0.00     0.012 A 
ATOM     95  C   UNL A   1      39.106  22.239  26.205  1.00  0.00     0.065 A 
ENDBRANCH  90  91
ENDBRANCH  84  86
ENDBRANCH  76  84
ENDBRANCH  72  74
ENDBRANCH  71  72
ENDBRANCH   1  71
TORSDOF 14
ENDMDL
MODEL 3
REMARK VINA RESULT:     -12.7      3.200      8.605
REMARK SMILES O=C(OCCOC(=O)[C@@H]1Cc2[nH]cnc2CN1C(=O)c1csc(-c2cccs2)n1)c1ccc(-c2c3nc(c(-c4c(F)c(F)c(F)c(F)c4F)c4ccc([nH]4)c(-c4c(F)c(F)c(F)c(F)c4F)c4nc(c(-c5c(F)c(F)c(F)c(F)c5F)c5ccc2[nH]5)C=C4)C=C3)cc1
REMARK SMILES IDX 5 1 4 2 3 3 2 4 1 5 30 6 31 7 92 8 32 9 91 10 33 11 34 12
REMARK SMILES IDX 35 13 85 14 36 15 90 16 84 17 86 18 37 19 89 20 83 21 82 22
REMARK SMILES IDX 38 24 70 25 50 26 69 27 51 28 54 29 68 30 87 31 52 32 53 33
REMARK SMILES IDX 67 35 88 36 55 37 39 38 40 39 48 40 41 41 42 42 46 43 49 44
REMARK SMILES IDX 43 45 44 46 47 47 45 48 71 49 72 50 80 51 73 52 74 53 78 54
REMARK SMILES IDX 81 55 75 56 76 57 79 58 77 59 56 60 57 61 65 62 58 63 59 64
REMARK SMILES IDX 63 65 66 66 60 67 61 68 64 69 62 70 6 71 7 72 8 73 9 74
REMARK SMILES IDX 10 75 17 76 11 77 16 78 12 79 15 80 13 81 14 83 18 84 19 85
REMARK SMILES IDX 20 86 21 87 29 88 22 89 23 90 24 91 25 92 28 93 26 94 27 95
REMARK H PARENT 86 23 54 34 12 82
REMARK Flexibility Score: inf
ROOT
ATOM      1  C   UNL A   1      32.529  30.066  26.170  1.00  0.00     0.274 C 
ENDROOT
BRANCH   1   2
ATOM      2  C   UNL A   1      32.700  31.278  27.082  1.00  0.00     0.275 C 
BRANCH   2   3
ATOM      3  O   UNL A   1      33.776  31.241  28.044  1.00  0.00    -0.458 OA
BRANCH   3   4
ATOM      4  C   UNL A   1      34.854  32.040  27.867  1.00  0.00     0.338 C 
ATOM      5  O   UNL A   1      34.808  33.216  27.583  1.00  0.00    -0.246 OA
BRANCH   4   6
ATOM      6  C   UNL A   1      36.118  31.358  28.244  1.00  0.00     0.060 A 
ATOM      7  C   UNL A   1      37.190  32.043  28.824  1.00  0.00     0.016 A 
ATOM      8  C   UNL A   1      36.207  29.980  28.018  1.00  0.00     0.016 A 
ATOM      9  C   UNL A   1      38.366  31.371  29.123  1.00  0.00     0.010 A 
ATOM     10  C   UNL A   1      37.387  29.306  28.313  1.00  0.00     0.010 A 
ATOM     11  C   UNL A   1      38.474  30.011  28.837  1.00  0.00    -0.014 A 
BRANCH  11  12
ATOM     12  C   UNL A   1      39.763  29.376  29.081  1.00  0.00     0.031 A 
ATOM     13  C   UNL A   1      40.160  29.086  30.490  1.00  0.00     0.074 A 
ATOM     14  C   UNL A   1      40.527  28.893  28.086  1.00  0.00     0.049 A 
ATOM     15  N   UNL A   1      41.230  29.450  31.126  1.00  0.00    -0.248 NA
ATOM     16  C   UNL A   1      39.249  28.250  31.280  1.00  0.00     0.031 C 
ATOM     17  C   UNL A   1      40.188  28.722  26.673  1.00  0.00     0.029 A 
ATOM     18  N   UNL A   1      41.758  28.322  28.188  1.00  0.00    -0.354 N 
ATOM     19  C   UNL A   1      41.198  28.797  32.360  1.00  0.00     0.074 A 
ATOM     20  C   UNL A   1      39.932  28.107  32.417  1.00  0.00     0.031 C 
ATOM     21  C   UNL A   1      41.088  27.885  26.109  1.00  0.00     0.029 A 
ATOM     22  C   UNL A   1      42.124  27.580  27.083  1.00  0.00     0.049 A 
ATOM     23  H   UNL A   1      42.336  28.430  28.978  1.00  0.00     0.167 HD
ATOM     24  C   UNL A   1      42.259  28.752  33.216  1.00  0.00     0.037 A 
ATOM     25  C   UNL A   1      43.152  26.703  27.024  1.00  0.00     0.037 A 
ATOM     26  C   UNL A   1      43.268  29.722  32.905  1.00  0.00     0.049 A 
ATOM     27  C   UNL A   1      44.087  27.004  28.136  1.00  0.00     0.074 A 
ATOM     28  C   UNL A   1      43.295  31.101  32.801  1.00  0.00     0.029 A 
ATOM     29  N   UNL A   1      44.453  29.307  32.352  1.00  0.00    -0.354 N 
ATOM     30  N   UNL A   1      44.840  28.067  28.204  1.00  0.00    -0.248 NA
ATOM     31  C   UNL A   1      43.894  26.293  29.393  1.00  0.00     0.031 C 
ATOM     32  C   UNL A   1      44.193  31.367  31.724  1.00  0.00     0.029 A 
ATOM     33  C   UNL A   1      44.651  30.130  31.274  1.00  0.00     0.049 A 
ATOM     34  H   UNL A   1      45.036  28.576  32.662  1.00  0.00     0.167 HD
ATOM     35  C   UNL A   1      44.894  28.381  29.553  1.00  0.00     0.074 A 
ATOM     36  C   UNL A   1      44.375  27.203  30.242  1.00  0.00     0.031 C 
ATOM     37  C   UNL A   1      45.093  29.660  29.987  1.00  0.00     0.037 A 
BRANCH  24  38
ATOM     38  C   UNL A   1      42.495  27.673  34.237  1.00  0.00     0.064 A 
ATOM     39  C   UNL A   1      43.144  26.478  33.871  1.00  0.00     0.173 A 
ATOM     40  C   UNL A   1      41.884  27.675  35.507  1.00  0.00     0.173 A 
ATOM     41  F   UNL A   1      43.719  26.352  32.665  1.00  0.00    -0.203 F 
ATOM     42  C   UNL A   1      43.161  25.359  34.709  1.00  0.00     0.198 A 
ATOM     43  C   UNL A   1      41.948  26.576  36.363  1.00  0.00     0.198 A 
ATOM     44  F   UNL A   1      41.123  28.701  35.914  1.00  0.00    -0.203 F 
ATOM     45  F   UNL A   1      43.713  24.215  34.283  1.00  0.00    -0.200 F 
ATOM     46  C   UNL A   1      42.568  25.412  35.957  1.00  0.00     0.200 A 
ATOM     47  F   UNL A   1      41.349  26.635  37.561  1.00  0.00    -0.200 F 
ATOM     48  F   UNL A   1      42.555  24.331  36.749  1.00  0.00    -0.200 F 
ENDBRANCH  24  38
BRANCH  25  49
ATOM     49  C   UNL A   1      43.205  25.443  26.252  1.00  0.00     0.064 A 
ATOM     50  C   UNL A   1      44.249  25.187  25.353  1.00  0.00     0.173 A 
ATOM     51  C   UNL A   1      42.360  24.359  26.564  1.00  0.00     0.173 A 
ATOM     52  F   UNL A   1      45.131  26.151  25.053  1.00  0.00    -0.203 F 
ATOM     53  C   UNL A   1      44.437  23.919  24.796  1.00  0.00     0.198 A 
ATOM     54  C   UNL A   1      42.539  23.099  25.997  1.00  0.00     0.198 A 
ATOM     55  F   UNL A   1      41.399  24.479  27.492  1.00  0.00    -0.203 F 
ATOM     56  F   UNL A   1      45.476  23.696  23.980  1.00  0.00    -0.200 F 
ATOM     57  C   UNL A   1      43.584  22.876  25.120  1.00  0.00     0.200 A 
ATOM     58  F   UNL A   1      41.729  22.091  26.351  1.00  0.00    -0.200 F 
ATOM     59  F   UNL A   1      43.791  21.649  24.622  1.00  0.00    -0.200 F 
ENDBRANCH  25  49
BRANCH  37  60
ATOM     60  C   UNL A   1      45.482  30.703  28.984  1.00  0.00     0.064 A 
ATOM     61  C   UNL A   1      44.548  31.386  28.187  1.00  0.00     0.173 A 
ATOM     62  C   UNL A   1      46.810  31.148  28.949  1.00  0.00     0.173 A 
ATOM     63  F   UNL A   1      43.242  31.097  28.257  1.00  0.00    -0.203 F 
ATOM     64  C   UNL A   1      44.936  32.434  27.356  1.00  0.00     0.198 A 
ATOM     65  C   UNL A   1      47.190  32.218  28.145  1.00  0.00     0.198 A 
ATOM     66  F   UNL A   1      47.732  30.577  29.741  1.00  0.00    -0.203 F 
ATOM     67  F   UNL A   1      44.025  33.068  26.604  1.00  0.00    -0.200 F 
ATOM     68  C   UNL A   1      46.256  32.854  27.342  1.00  0.00     0.200 A 
ATOM     69  F   UNL A   1      48.456  32.658  28.173  1.00  0.00    -0.200 F 
ATOM     70  F   UNL A   1      46.621  33.893  26.578  1.00  0.00    -0.200 F 
ENDBRANCH  37  60
ENDBRANCH  11  12
ENDBRANCH   4   6
ENDBRANCH   3   4
ENDBRANCH   2   3
ENDBRANCH   1   2
BRANCH   1  71
ATOM     71  O   UNL A   1      33.171  28.892  26.716  1.00  0.00    -0.461 OA
BRANCH  71  72
ATOM     72  C   UNL A   1      32.305  27.864  26.975  1.00  0.00     0.329 C 
ATOM     73  O   UNL A   1      31.399  27.937  27.796  1.00  0.00    -0.250 OA
BRANCH  72  74
ATOM     74  C   UNL A   1      32.680  26.589  26.188  1.00  0.00     0.201 C 
ATOM     75  C   UNL A   1      33.053  26.964  24.721  1.00  0.00     0.093 C 
ATOM     76  N   UNL A   1      31.534  25.621  26.203  1.00  0.00    -0.317 N 
ATOM     77  C   UNL A   1      31.799  27.235  23.971  1.00  0.00     0.042 A 
ATOM     78  C   UNL A   1      30.248  26.114  25.640  1.00  0.00     0.179 C 
ATOM     79  N   UNL A   1      31.619  27.992  22.853  1.00  0.00    -0.348 N 
ATOM     80  C   UNL A   1      30.537  26.852  24.372  1.00  0.00     0.081 A 
ATOM     81  C   UNL A   1      30.267  28.046  22.630  1.00  0.00     0.197 A 
ATOM     82  H   UNL A   1      32.322  28.417  22.309  1.00  0.00     0.167 HD
ATOM     83  N   UNL A   1      29.590  27.351  23.520  1.00  0.00    -0.240 NA
BRANCH  76  84
ATOM     84  C   UNL A   1      31.600  24.266  26.523  1.00  0.00     0.274 C 
ATOM     85  O   UNL A   1      30.849  23.766  27.359  1.00  0.00    -0.267 OA
BRANCH  84  86
ATOM     86  C   UNL A   1      32.586  23.409  25.853  1.00  0.00     0.140 A 
ATOM     87  C   UNL A   1      32.388  22.762  24.646  1.00  0.00     0.101 A 
ATOM     88  N   UNL A   1      33.896  23.326  26.333  1.00  0.00    -0.230 NA
ATOM     89  S   UNL A   1      33.861  22.082  24.091  1.00  0.00    -0.121 S 
ATOM     90  C   UNL A   1      34.681  22.746  25.449  1.00  0.00     0.134 A 
BRANCH  90  91
ATOM     91  C   UNL A   1      36.111  22.673  25.641  1.00  0.00     0.063 A 
ATOM     92  C   UNL A   1      36.936  23.700  26.069  1.00  0.00     0.023 A 
ATOM     93  S   UNL A   1      37.031  21.267  25.283  1.00  0.00    -0.141 S 
ATOM     94  C   UNL A   1      38.313  23.325  26.116  1.00  0.00     0.012 A 
ATOM     95  C   UNL A   1      38.505  22.036  25.677  1.00  0.00     0.065 A 
ENDBRANCH  90  91
ENDBRANCH  84  86
ENDBRANCH  76  84
ENDBRANCH  72  74
ENDBRANCH  71  72
ENDBRANCH   1  71
TORSDOF 14
ENDMDL
