MODEL 1
REMARK VINA RESULT:     -12.8      0.000      0.000
REMARK SMILES Cc1cccc(CS[C@@H]2CC[C@]([NH3+])(C(=O)OCCOC(=O)c3ccc(-c4c5nc(c(-c6c(F)c(F)c(F)c(F)c6F)c6ccc([nH]6)c(-c6c(F)c(F)c(F)c(F)c6F)c6nc(c(-c7c(F)c(F)c(F)c(F)c7F)c7ccc4[nH]7)C=C6)C=C5)cc3)C2)c1
REMARK SMILES IDX 17 1 16 2 14 3 15 4 12 5 9 6 10 7 85 8 11 9 8 10 7 11 6 12
REMARK SMILES IDX 1 13 2 14 3 15 86 16 4 17 5 18 13 19 18 23 19 24 20 25 21 26
REMARK SMILES IDX 22 27 23 28 84 29 24 30 83 31 25 32 26 33 27 34 77 35 28 36
REMARK SMILES IDX 82 37 76 38 78 39 29 40 81 41 75 42 74 43 30 45 62 46 42 47
REMARK SMILES IDX 61 48 43 49 46 50 60 51 79 52 44 53 45 54 59 56 80 57 47 58
REMARK SMILES IDX 31 59 32 60 40 61 33 62 34 63 38 64 41 65 35 66 36 67 39 68
REMARK SMILES IDX 37 69 63 70 64 71 72 72 65 73 66 74 70 75 73 76 67 77 68 78
REMARK SMILES IDX 71 79 69 80 48 81 49 82 57 83 50 84 51 85 55 86 58 87 52 88
REMARK SMILES IDX 53 89 56 90 54 91
REMARK H PARENT 13 20 13 21 13 22 78 44 46 55
REMARK Flexibility Score: inf
ROOT
ATOM      1  C   UNL A   1      32.544  29.981  27.095  1.00  0.00     0.274 C 
ENDROOT
BRANCH   1   2
ATOM      2  O   UNL A   1      31.854  29.043  26.258  1.00  0.00    -0.457 OA
BRANCH   2   3
ATOM      3  C   UNL A   1      31.535  27.862  26.831  1.00  0.00     0.368 C 
ATOM      4  O   UNL A   1      31.239  27.739  28.018  1.00  0.00    -0.245 OA
BRANCH   3   5
ATOM      5  C   UNL A   1      31.394  26.682  25.828  1.00  0.00     0.193 C 
ATOM      6  C   UNL A   1      32.092  25.228  24.077  1.00  0.00     0.054 C 
ATOM      7  C   UNL A   1      31.017  26.108  23.443  1.00  0.00     0.022 C 
ATOM      8  C   UNL A   1      32.684  26.156  25.152  1.00  0.00     0.095 C 
ATOM      9  C   UNL A   1      30.488  26.974  24.607  1.00  0.00     0.082 C 
BRANCH   6  10
ATOM     10  S   UNL A   1      33.181  24.199  23.042  1.00  0.00    -0.154 SA
BRANCH  10  11
ATOM     11  C   UNL A   1      33.629  22.793  24.075  1.00  0.00     0.105 C 
BRANCH  11  12
ATOM     12  C   UNL A   1      35.042  22.751  24.584  1.00  0.00    -0.038 A 
ATOM     13  C   UNL A   1      37.638  20.043  24.869  1.00  0.00     0.044 C 
ATOM     14  C   UNL A   1      36.989  21.373  25.009  1.00  0.00    -0.051 A 
ATOM     15  C   UNL A   1      37.675  22.476  25.521  1.00  0.00     0.003 A 
ATOM     16  C   UNL A   1      35.689  21.518  24.537  1.00  0.00     0.008 A 
ATOM     17  C   UNL A   1      37.064  23.727  25.522  1.00  0.00     0.001 A 
ATOM     18  C   UNL A   1      35.763  23.868  25.032  1.00  0.00     0.004 A 
ENDBRANCH  11  12
ENDBRANCH  10  11
ENDBRANCH   6  10
BRANCH   5  19
ATOM     19  N   UNL A   1      30.763  25.571  26.618  1.00  0.00    -0.343 N 
ATOM     20  H   UNL A   1      31.300  25.411  27.470  1.00  0.00     0.345 HD
ATOM     21  H   UNL A   1      30.752  24.719  26.058  1.00  0.00     0.345 HD
ATOM     22  H   UNL A   1      29.806  25.829  26.863  1.00  0.00     0.345 HD
ENDBRANCH   5  19
ENDBRANCH   3   5
ENDBRANCH   2   3
ENDBRANCH   1   2
BRANCH   1  23
ATOM     23  C   UNL A   1      34.068  29.853  27.327  1.00  0.00     0.275 C 
BRANCH  23  24
ATOM     24  O   UNL A   1      34.837  30.954  27.874  1.00  0.00    -0.458 OA
BRANCH  24  25
ATOM     25  C   UNL A   1      35.539  31.007  29.030  1.00  0.00     0.338 C 
ATOM     26  O   UNL A   1      35.111  31.508  30.061  1.00  0.00    -0.246 OA
BRANCH  25  27
ATOM     27  C   UNL A   1      36.826  30.310  29.027  1.00  0.00     0.060 A 
ATOM     28  C   UNL A   1      37.079  29.361  30.026  1.00  0.00     0.016 A 
ATOM     29  C   UNL A   1      37.685  30.485  27.949  1.00  0.00     0.016 A 
ATOM     30  C   UNL A   1      38.139  28.469  29.868  1.00  0.00     0.010 A 
ATOM     31  C   UNL A   1      38.680  29.554  27.752  1.00  0.00     0.010 A 
ATOM     32  C   UNL A   1      38.920  28.549  28.711  1.00  0.00    -0.014 A 
BRANCH  32  33
ATOM     33  C   UNL A   1      40.228  27.912  28.584  1.00  0.00     0.031 A 
ATOM     34  C   UNL A   1      40.493  26.526  28.134  1.00  0.00     0.074 A 
ATOM     35  C   UNL A   1      41.225  28.730  28.989  1.00  0.00     0.049 A 
ATOM     36  N   UNL A   1      41.664  25.984  28.213  1.00  0.00    -0.248 NA
ATOM     37  C   UNL A   1      39.483  25.600  27.623  1.00  0.00     0.031 C 
ATOM     38  C   UNL A   1      42.661  28.590  28.853  1.00  0.00     0.029 A 
ATOM     39  N   UNL A   1      41.055  29.843  29.830  1.00  0.00    -0.354 N 
ATOM     40  C   UNL A   1      41.592  24.683  27.780  1.00  0.00     0.074 A 
ATOM     41  C   UNL A   1      40.222  24.508  27.350  1.00  0.00     0.031 C 
ATOM     42  C   UNL A   1      43.252  29.384  29.763  1.00  0.00     0.029 A 
ATOM     43  C   UNL A   1      42.205  29.932  30.613  1.00  0.00     0.049 A 
ATOM     44  H   UNL A   1      40.275  30.442  29.862  1.00  0.00     0.167 HD
ATOM     45  C   UNL A   1      42.701  23.893  27.851  1.00  0.00     0.037 A 
ATOM     46  C   UNL A   1      42.120  29.792  31.964  1.00  0.00     0.037 A 
ATOM     47  C   UNL A   1      43.764  24.505  28.639  1.00  0.00     0.049 A 
ATOM     48  C   UNL A   1      42.970  28.657  32.473  1.00  0.00     0.074 A 
ATOM     49  C   UNL A   1      44.691  25.491  28.355  1.00  0.00     0.029 A 
ATOM     50  N   UNL A   1      43.773  24.344  30.019  1.00  0.00    -0.354 N 
ATOM     51  N   UNL A   1      43.319  27.622  31.757  1.00  0.00    -0.248 NA
ATOM     52  C   UNL A   1      43.487  28.609  33.833  1.00  0.00     0.031 C 
ATOM     53  C   UNL A   1      45.112  26.053  29.590  1.00  0.00     0.029 A 
ATOM     54  C   UNL A   1      44.485  25.372  30.623  1.00  0.00     0.049 A 
ATOM     55  H   UNL A   1      43.337  23.605  30.501  1.00  0.00     0.167 HD
ATOM     56  C   UNL A   1      44.069  26.773  32.528  1.00  0.00     0.074 A 
ATOM     57  C   UNL A   1      44.175  27.457  33.805  1.00  0.00     0.031 C 
ATOM     58  C   UNL A   1      44.498  25.555  32.075  1.00  0.00     0.037 A 
BRANCH  45  59
ATOM     59  C   UNL A   1      42.890  22.623  27.079  1.00  0.00     0.064 A 
ATOM     60  C   UNL A   1      42.122  21.490  27.428  1.00  0.00     0.173 A 
ATOM     61  C   UNL A   1      43.819  22.440  26.045  1.00  0.00     0.173 A 
ATOM     62  F   UNL A   1      41.201  21.555  28.400  1.00  0.00    -0.203 F 
ATOM     63  C   UNL A   1      42.302  20.250  26.813  1.00  0.00     0.198 A 
ATOM     64  C   UNL A   1      44.025  21.187  25.455  1.00  0.00     0.198 A 
ATOM     65  F   UNL A   1      44.530  23.473  25.571  1.00  0.00    -0.203 F 
ATOM     66  F   UNL A   1      41.548  19.205  27.183  1.00  0.00    -0.200 F 
ATOM     67  C   UNL A   1      43.269  20.093  25.842  1.00  0.00     0.200 A 
ATOM     68  F   UNL A   1      44.966  21.040  24.512  1.00  0.00    -0.200 F 
ATOM     69  F   UNL A   1      43.472  18.893  25.279  1.00  0.00    -0.200 F 
ENDBRANCH  45  59
BRANCH  46  70
ATOM     70  C   UNL A   1      40.827  30.242  32.568  1.00  0.00     0.064 A 
ATOM     71  C   UNL A   1      40.522  31.621  32.577  1.00  0.00     0.173 A 
ATOM     72  C   UNL A   1      39.783  29.365  32.888  1.00  0.00     0.173 A 
ATOM     73  F   UNL A   1      41.474  32.518  32.273  1.00  0.00    -0.203 F 
ATOM     74  C   UNL A   1      39.230  32.091  32.814  1.00  0.00     0.198 A 
ATOM     75  C   UNL A   1      38.488  29.838  33.136  1.00  0.00     0.198 A 
ATOM     76  F   UNL A   1      39.986  28.041  32.896  1.00  0.00    -0.203 F 
ATOM     77  F   UNL A   1      38.971  33.404  32.731  1.00  0.00    -0.200 F 
ATOM     78  C   UNL A   1      38.209  31.196  33.081  1.00  0.00     0.200 A 
ATOM     79  F   UNL A   1      37.494  28.968  33.369  1.00  0.00    -0.200 F 
ATOM     80  F   UNL A   1      36.956  31.636  33.260  1.00  0.00    -0.200 F 
ENDBRANCH  46  70
BRANCH  58  81
ATOM     81  C   UNL A   1      45.023  24.470  32.983  1.00  0.00     0.064 A 
ATOM     82  C   UNL A   1      44.308  23.296  33.291  1.00  0.00     0.173 A 
ATOM     83  C   UNL A   1      46.337  24.527  33.493  1.00  0.00     0.173 A 
ATOM     84  F   UNL A   1      43.124  23.029  32.723  1.00  0.00    -0.203 F 
ATOM     85  C   UNL A   1      44.813  22.322  34.152  1.00  0.00     0.198 A 
ATOM     86  C   UNL A   1      46.869  23.515  34.292  1.00  0.00     0.198 A 
ATOM     87  F   UNL A   1      47.154  25.551  33.204  1.00  0.00    -0.203 F 
ATOM     88  F   UNL A   1      44.055  21.265  34.476  1.00  0.00    -0.200 F 
ATOM     89  C   UNL A   1      46.096  22.429  34.650  1.00  0.00     0.200 A 
ATOM     90  F   UNL A   1      48.144  23.592  34.701  1.00  0.00    -0.200 F 
ATOM     91  F   UNL A   1      46.595  21.474  35.446  1.00  0.00    -0.200 F 
ENDBRANCH  58  81
ENDBRANCH  32  33
ENDBRANCH  25  27
ENDBRANCH  24  25
ENDBRANCH  23  24
ENDBRANCH   1  23
TORSDOF 15
ENDMDL
MODEL 2
REMARK VINA RESULT:     -12.4      4.066     10.273
REMARK SMILES Cc1cccc(CS[C@@H]2CC[C@]([NH3+])(C(=O)OCCOC(=O)c3ccc(-c4c5nc(c(-c6c(F)c(F)c(F)c(F)c6F)c6ccc([nH]6)c(-c6c(F)c(F)c(F)c(F)c6F)c6nc(c(-c7c(F)c(F)c(F)c(F)c7F)c7ccc4[nH]7)C=C6)C=C5)cc3)C2)c1
REMARK SMILES IDX 17 1 16 2 14 3 15 4 12 5 9 6 10 7 85 8 11 9 8 10 7 11 6 12
REMARK SMILES IDX 1 13 2 14 3 15 86 16 4 17 5 18 13 19 18 23 19 24 20 25 21 26
REMARK SMILES IDX 22 27 23 28 84 29 24 30 83 31 25 32 26 33 27 34 77 35 28 36
REMARK SMILES IDX 82 37 76 38 78 39 29 40 81 41 75 42 74 43 30 45 62 46 42 47
REMARK SMILES IDX 61 48 43 49 46 50 60 51 79 52 44 53 45 54 59 56 80 57 47 58
REMARK SMILES IDX 31 59 32 60 40 61 33 62 34 63 38 64 41 65 35 66 36 67 39 68
REMARK SMILES IDX 37 69 63 70 64 71 72 72 65 73 66 74 70 75 73 76 67 77 68 78
REMARK SMILES IDX 71 79 69 80 48 81 49 82 57 83 50 84 51 85 55 86 58 87 52 88
REMARK SMILES IDX 53 89 56 90 54 91
REMARK H PARENT 13 20 13 21 13 22 78 44 46 55
REMARK Flexibility Score: inf
ROOT
ATOM      1  C   UNL A   1      36.431  22.863  25.860  1.00  0.00     0.274 C 
ENDROOT
BRANCH   1   2
ATOM      2  O   UNL A   1      35.890  22.160  24.733  1.00  0.00    -0.457 OA
BRANCH   2   3
ATOM      3  C   UNL A   1      35.451  22.928  23.712  1.00  0.00     0.368 C 
ATOM      4  O   UNL A   1      36.144  23.234  22.744  1.00  0.00    -0.245 OA
BRANCH   3   5
ATOM      5  C   UNL A   1      33.931  23.254  23.764  1.00  0.00     0.193 C 
ATOM      6  C   UNL A   1      31.952  24.234  24.652  1.00  0.00     0.054 C 
ATOM      7  C   UNL A   1      31.808  22.742  24.942  1.00  0.00     0.022 C 
ATOM      8  C   UNL A   1      33.478  24.425  24.670  1.00  0.00     0.095 C 
ATOM      9  C   UNL A   1      33.037  22.095  24.269  1.00  0.00     0.082 C 
BRANCH   6  10
ATOM     10  S   UNL A   1      30.859  25.448  25.457  1.00  0.00    -0.154 SA
BRANCH  10  11
ATOM     11  C   UNL A   1      31.303  27.038  24.736  1.00  0.00     0.105 C 
BRANCH  11  12
ATOM     12  C   UNL A   1      32.026  28.006  25.629  1.00  0.00    -0.038 A 
ATOM     13  C   UNL A   1      31.542  31.639  26.479  1.00  0.00     0.044 C 
ATOM     14  C   UNL A   1      32.156  30.286  26.441  1.00  0.00    -0.051 A 
ATOM     15  C   UNL A   1      33.270  29.960  27.218  1.00  0.00     0.003 A 
ATOM     16  C   UNL A   1      31.538  29.311  25.664  1.00  0.00     0.008 A 
ATOM     17  C   UNL A   1      33.735  28.648  27.238  1.00  0.00     0.001 A 
ATOM     18  C   UNL A   1      33.100  27.671  26.467  1.00  0.00     0.004 A 
ENDBRANCH  11  12
ENDBRANCH  10  11
ENDBRANCH   6  10
BRANCH   5  19
ATOM     19  N   UNL A   1      33.546  23.551  22.343  1.00  0.00    -0.343 N 
ATOM     20  H   UNL A   1      32.559  23.807  22.304  1.00  0.00     0.345 HD
ATOM     21  H   UNL A   1      33.705  22.724  21.768  1.00  0.00     0.345 HD
ATOM     22  H   UNL A   1      34.112  24.324  21.991  1.00  0.00     0.345 HD
ENDBRANCH   5  19
ENDBRANCH   3   5
ENDBRANCH   2   3
ENDBRANCH   1   2
BRANCH   1  23
ATOM     23  C   UNL A   1      37.764  23.638  25.736  1.00  0.00     0.275 C 
BRANCH  23  24
ATOM     24  O   UNL A   1      38.944  23.218  26.468  1.00  0.00    -0.458 OA
BRANCH  24  25
ATOM     25  C   UNL A   1      40.143  23.838  26.570  1.00  0.00     0.338 C 
ATOM     26  O   UNL A   1      41.161  23.440  26.019  1.00  0.00    -0.246 OA
BRANCH  25  27
ATOM     27  C   UNL A   1      40.144  25.111  27.292  1.00  0.00     0.060 A 
ATOM     28  C   UNL A   1      40.482  26.279  26.596  1.00  0.00     0.016 A 
ATOM     29  C   UNL A   1      39.653  25.149  28.591  1.00  0.00     0.016 A 
ATOM     30  C   UNL A   1      40.187  27.519  27.159  1.00  0.00     0.010 A 
ATOM     31  C   UNL A   1      39.287  26.370  29.114  1.00  0.00     0.010 A 
ATOM     32  C   UNL A   1      39.559  27.560  28.409  1.00  0.00    -0.014 A 
BRANCH  32  33
ATOM     33  C   UNL A   1      39.502  28.763  29.236  1.00  0.00     0.031 A 
ATOM     34  C   UNL A   1      38.451  29.806  29.203  1.00  0.00     0.074 A 
ATOM     35  C   UNL A   1      40.583  28.868  30.040  1.00  0.00     0.049 A 
ATOM     36  N   UNL A   1      38.563  30.922  29.845  1.00  0.00    -0.248 NA
ATOM     37  C   UNL A   1      37.224  29.738  28.410  1.00  0.00     0.031 C 
ATOM     38  C   UNL A   1      40.841  29.774  31.143  1.00  0.00     0.029 A 
ATOM     39  N   UNL A   1      41.806  28.208  29.829  1.00  0.00    -0.354 N 
ATOM     40  C   UNL A   1      37.471  31.710  29.579  1.00  0.00     0.074 A 
ATOM     41  C   UNL A   1      36.622  30.898  28.734  1.00  0.00     0.031 C 
ATOM     42  C   UNL A   1      42.169  29.819  31.351  1.00  0.00     0.029 A 
ATOM     43  C   UNL A   1      42.807  29.067  30.280  1.00  0.00     0.049 A 
ATOM     44  H   UNL A   1      41.931  27.314  29.438  1.00  0.00     0.167 HD
ATOM     45  C   UNL A   1      37.416  32.972  30.093  1.00  0.00     0.037 A 
ATOM     46  C   UNL A   1      43.731  29.551  29.407  1.00  0.00     0.037 A 
ATOM     47  C   UNL A   1      38.693  33.392  30.658  1.00  0.00     0.049 A 
ATOM     48  C   UNL A   1      43.735  31.057  29.359  1.00  0.00     0.074 A 
ATOM     49  C   UNL A   1      39.323  33.113  31.857  1.00  0.00     0.029 A 
ATOM     50  N   UNL A   1      39.656  33.956  29.832  1.00  0.00    -0.354 N 
ATOM     51  N   UNL A   1      42.707  31.804  29.661  1.00  0.00    -0.248 NA
ATOM     52  C   UNL A   1      44.904  31.829  28.963  1.00  0.00     0.031 C 
ATOM     53  C   UNL A   1      40.713  33.335  31.673  1.00  0.00     0.029 A 
ATOM     54  C   UNL A   1      40.921  33.802  30.384  1.00  0.00     0.049 A 
ATOM     55  H   UNL A   1      39.468  34.403  28.975  1.00  0.00     0.167 HD
ATOM     56  C   UNL A   1      43.043  33.121  29.490  1.00  0.00     0.074 A 
ATOM     57  C   UNL A   1      44.439  33.081  29.090  1.00  0.00     0.031 C 
ATOM     58  C   UNL A   1      42.136  34.136  29.640  1.00  0.00     0.037 A 
BRANCH  45  59
ATOM     59  C   UNL A   1      36.163  33.782  30.224  1.00  0.00     0.064 A 
ATOM     60  C   UNL A   1      35.712  34.140  31.514  1.00  0.00     0.173 A 
ATOM     61  C   UNL A   1      35.351  34.188  29.155  1.00  0.00     0.173 A 
ATOM     62  F   UNL A   1      36.414  33.806  32.606  1.00  0.00    -0.203 F 
ATOM     63  C   UNL A   1      34.511  34.820  31.721  1.00  0.00     0.198 A 
ATOM     64  C   UNL A   1      34.128  34.836  29.366  1.00  0.00     0.198 A 
ATOM     65  F   UNL A   1      35.736  33.985  27.887  1.00  0.00    -0.203 F 
ATOM     66  F   UNL A   1      34.127  35.134  32.966  1.00  0.00    -0.200 F 
ATOM     67  C   UNL A   1      33.707  35.148  30.648  1.00  0.00     0.200 A 
ATOM     68  F   UNL A   1      33.352  35.153  28.320  1.00  0.00    -0.200 F 
ATOM     69  F   UNL A   1      32.533  35.764  30.847  1.00  0.00    -0.200 F 
ENDBRANCH  45  59
BRANCH  46  70
ATOM     70  C   UNL A   1      44.050  28.648  28.257  1.00  0.00     0.064 A 
ATOM     71  C   UNL A   1      44.759  27.452  28.504  1.00  0.00     0.173 A 
ATOM     72  C   UNL A   1      43.466  28.782  26.991  1.00  0.00     0.173 A 
ATOM     73  F   UNL A   1      45.338  27.254  29.700  1.00  0.00    -0.203 F 
ATOM     74  C   UNL A   1      44.811  26.417  27.570  1.00  0.00     0.198 A 
ATOM     75  C   UNL A   1      43.529  27.747  26.049  1.00  0.00     0.198 A 
ATOM     76  F   UNL A   1      42.771  29.884  26.676  1.00  0.00    -0.203 F 
ATOM     77  F   UNL A   1      45.426  25.267  27.882  1.00  0.00    -0.200 F 
ATOM     78  C   UNL A   1      44.184  26.561  26.346  1.00  0.00     0.200 A 
ATOM     79  F   UNL A   1      42.897  27.877  24.873  1.00  0.00    -0.200 F 
ATOM     80  F   UNL A   1      44.188  25.552  25.463  1.00  0.00    -0.200 F 
ENDBRANCH  46  70
BRANCH  58  81
ATOM     81  C   UNL A   1      42.372  35.540  29.141  1.00  0.00     0.064 A 
ATOM     82  C   UNL A   1      41.738  36.082  28.006  1.00  0.00     0.173 A 
ATOM     83  C   UNL A   1      43.176  36.441  29.871  1.00  0.00     0.173 A 
ATOM     84  F   UNL A   1      40.808  35.396  27.330  1.00  0.00    -0.203 F 
ATOM     85  C   UNL A   1      41.996  37.379  27.559  1.00  0.00     0.198 A 
ATOM     86  C   UNL A   1      43.372  37.761  29.464  1.00  0.00     0.198 A 
ATOM     87  F   UNL A   1      43.769  36.075  31.018  1.00  0.00    -0.203 F 
ATOM     88  F   UNL A   1      41.427  37.815  26.426  1.00  0.00    -0.200 F 
ATOM     89  C   UNL A   1      42.810  38.220  28.290  1.00  0.00     0.200 A 
ATOM     90  F   UNL A   1      44.099  38.590  30.227  1.00  0.00    -0.200 F 
ATOM     91  F   UNL A   1      43.026  39.476  27.881  1.00  0.00    -0.200 F 
ENDBRANCH  58  81
ENDBRANCH  32  33
ENDBRANCH  25  27
ENDBRANCH  24  25
ENDBRANCH  23  24
ENDBRANCH   1  23
TORSDOF 15
ENDMDL
MODEL 3
REMARK VINA RESULT:     -12.3      4.116     10.301
REMARK SMILES Cc1cccc(CS[C@@H]2CC[C@]([NH3+])(C(=O)OCCOC(=O)c3ccc(-c4c5nc(c(-c6c(F)c(F)c(F)c(F)c6F)c6ccc([nH]6)c(-c6c(F)c(F)c(F)c(F)c6F)c6nc(c(-c7c(F)c(F)c(F)c(F)c7F)c7ccc4[nH]7)C=C6)C=C5)cc3)C2)c1
REMARK SMILES IDX 17 1 16 2 14 3 15 4 12 5 9 6 10 7 85 8 11 9 8 10 7 11 6 12
REMARK SMILES IDX 1 13 2 14 3 15 86 16 4 17 5 18 13 19 18 23 19 24 20 25 21 26
REMARK SMILES IDX 22 27 23 28 84 29 24 30 83 31 25 32 26 33 27 34 77 35 28 36
REMARK SMILES IDX 82 37 76 38 78 39 29 40 81 41 75 42 74 43 30 45 62 46 42 47
REMARK SMILES IDX 61 48 43 49 46 50 60 51 79 52 44 53 45 54 59 56 80 57 47 58
REMARK SMILES IDX 31 59 32 60 40 61 33 62 34 63 38 64 41 65 35 66 36 67 39 68
REMARK SMILES IDX 37 69 63 70 64 71 72 72 65 73 66 74 70 75 73 76 67 77 68 78
REMARK SMILES IDX 71 79 69 80 48 81 49 82 57 83 50 84 51 85 55 86 58 87 52 88
REMARK SMILES IDX 53 89 56 90 54 91
REMARK H PARENT 13 20 13 21 13 22 78 44 46 55
REMARK Flexibility Score: inf
ROOT
ATOM      1  C   UNL A   1      37.365  21.608  24.640  1.00  0.00     0.274 C 
ENDROOT
BRANCH   1   2
ATOM      2  O   UNL A   1      35.947  21.821  24.664  1.00  0.00    -0.457 OA
BRANCH   2   3
ATOM      3  C   UNL A   1      35.197  20.767  25.055  1.00  0.00     0.368 C 
ATOM      4  O   UNL A   1      35.510  19.596  24.850  1.00  0.00    -0.245 OA
BRANCH   3   5
ATOM      5  C   UNL A   1      33.984  21.143  25.952  1.00  0.00     0.193 C 
ATOM      6  C   UNL A   1      32.092  22.426  26.615  1.00  0.00     0.054 C 
ATOM      7  C   UNL A   1      33.166  22.761  27.647  1.00  0.00     0.022 C 
ATOM      8  C   UNL A   1      32.928  22.109  25.363  1.00  0.00     0.095 C 
ATOM      9  C   UNL A   1      34.355  21.846  27.281  1.00  0.00     0.082 C 
BRANCH   6  10
ATOM     10  S   UNL A   1      30.579  23.432  26.487  1.00  0.00    -0.154 SA
BRANCH  10  11
ATOM     11  C   UNL A   1      30.686  24.248  24.884  1.00  0.00     0.105 C 
BRANCH  11  12
ATOM     12  C   UNL A   1      30.904  25.733  24.895  1.00  0.00    -0.038 A 
ATOM     13  C   UNL A   1      31.728  28.233  27.584  1.00  0.00     0.044 C 
ATOM     14  C   UNL A   1      31.373  27.690  26.247  1.00  0.00    -0.051 A 
ATOM     15  C   UNL A   1      31.308  28.504  25.114  1.00  0.00     0.003 A 
ATOM     16  C   UNL A   1      31.182  26.317  26.130  1.00  0.00     0.008 A 
ATOM     17  C   UNL A   1      31.089  27.930  23.866  1.00  0.00     0.001 A 
ATOM     18  C   UNL A   1      30.913  26.548  23.754  1.00  0.00     0.004 A 
ENDBRANCH  11  12
ENDBRANCH  10  11
ENDBRANCH   6  10
BRANCH   5  19
ATOM     19  N   UNL A   1      33.326  19.835  26.288  1.00  0.00    -0.343 N 
ATOM     20  H   UNL A   1      32.955  19.413  25.436  1.00  0.00     0.345 HD
ATOM     21  H   UNL A   1      32.565  19.997  26.947  1.00  0.00     0.345 HD
ATOM     22  H   UNL A   1      34.012  19.207  26.707  1.00  0.00     0.345 HD
ENDBRANCH   5  19
ENDBRANCH   3   5
ENDBRANCH   2   3
ENDBRANCH   1   2
BRANCH   1  23
ATOM     23  C   UNL A   1      38.234  21.969  25.868  1.00  0.00     0.275 C 
BRANCH  23  24
ATOM     24  O   UNL A   1      38.686  23.328  26.092  1.00  0.00    -0.458 OA
BRANCH  24  25
ATOM     25  C   UNL A   1      39.910  23.763  26.469  1.00  0.00     0.338 C 
ATOM     26  O   UNL A   1      40.955  23.223  26.132  1.00  0.00    -0.246 OA
BRANCH  25  27
ATOM     27  C   UNL A   1      39.938  25.016  27.224  1.00  0.00     0.060 A 
ATOM     28  C   UNL A   1      40.385  26.179  26.581  1.00  0.00     0.016 A 
ATOM     29  C   UNL A   1      39.369  25.054  28.491  1.00  0.00     0.016 A 
ATOM     30  C   UNL A   1      40.127  27.421  27.159  1.00  0.00     0.010 A 
ATOM     31  C   UNL A   1      39.040  26.281  29.022  1.00  0.00     0.010 A 
ATOM     32  C   UNL A   1      39.423  27.469  28.367  1.00  0.00    -0.014 A 
BRANCH  32  33
ATOM     33  C   UNL A   1      39.383  28.654  29.221  1.00  0.00     0.031 A 
ATOM     34  C   UNL A   1      38.344  29.710  29.214  1.00  0.00     0.074 A 
ATOM     35  C   UNL A   1      40.467  28.729  30.025  1.00  0.00     0.049 A 
ATOM     36  N   UNL A   1      38.471  30.810  29.880  1.00  0.00    -0.248 NA
ATOM     37  C   UNL A   1      37.114  29.674  28.423  1.00  0.00     0.031 C 
ATOM     38  C   UNL A   1      40.739  29.606  31.146  1.00  0.00     0.029 A 
ATOM     39  N   UNL A   1      41.682  28.059  29.795  1.00  0.00    -0.354 N 
ATOM     40  C   UNL A   1      37.387  31.616  29.635  1.00  0.00     0.074 A 
ATOM     41  C   UNL A   1      36.527  30.833  28.775  1.00  0.00     0.031 C 
ATOM     42  C   UNL A   1      42.067  29.632  31.351  1.00  0.00     0.029 A 
ATOM     43  C   UNL A   1      42.694  28.896  30.263  1.00  0.00     0.049 A 
ATOM     44  H   UNL A   1      41.795  27.173  29.384  1.00  0.00     0.167 HD
ATOM     45  C   UNL A   1      37.349  32.867  30.177  1.00  0.00     0.037 A 
ATOM     46  C   UNL A   1      43.622  29.389  29.398  1.00  0.00     0.037 A 
ATOM     47  C   UNL A   1      38.631  33.260  30.748  1.00  0.00     0.049 A 
ATOM     48  C   UNL A   1      43.642  30.896  29.383  1.00  0.00     0.074 A 
ATOM     49  C   UNL A   1      39.261  32.946  31.939  1.00  0.00     0.029 A 
ATOM     50  N   UNL A   1      39.599  33.831  29.932  1.00  0.00    -0.354 N 
ATOM     51  N   UNL A   1      42.624  31.648  29.704  1.00  0.00    -0.248 NA
ATOM     52  C   UNL A   1      44.819  31.662  29.001  1.00  0.00     0.031 C 
ATOM     53  C   UNL A   1      40.654  33.157  31.756  1.00  0.00     0.029 A 
ATOM     54  C   UNL A   1      40.863  33.649  30.477  1.00  0.00     0.049 A 
ATOM     55  H   UNL A   1      39.414  34.298  29.085  1.00  0.00     0.167 HD
ATOM     56  C   UNL A   1      42.975  32.964  29.562  1.00  0.00     0.074 A 
ATOM     57  C   UNL A   1      44.370  32.917  29.157  1.00  0.00     0.031 C 
ATOM     58  C   UNL A   1      42.080  33.986  29.737  1.00  0.00     0.037 A 
BRANCH  45  59
ATOM     59  C   UNL A   1      36.105  33.688  30.330  1.00  0.00     0.064 A 
ATOM     60  C   UNL A   1      35.619  33.958  31.629  1.00  0.00     0.173 A 
ATOM     61  C   UNL A   1      35.335  34.188  29.270  1.00  0.00     0.173 A 
ATOM     62  F   UNL A   1      36.280  33.531  32.714  1.00  0.00    -0.203 F 
ATOM     63  C   UNL A   1      34.423  34.643  31.849  1.00  0.00     0.198 A 
ATOM     64  C   UNL A   1      34.116  34.841  29.491  1.00  0.00     0.198 A 
ATOM     65  F   UNL A   1      35.756  34.072  28.003  1.00  0.00    -0.203 F 
ATOM     66  F   UNL A   1      34.004  34.871  33.102  1.00  0.00    -0.200 F 
ATOM     67  C   UNL A   1      33.660  35.065  30.779  1.00  0.00     0.200 A 
ATOM     68  F   UNL A   1      33.379  35.249  28.448  1.00  0.00    -0.200 F 
ATOM     69  F   UNL A   1      32.490  35.686  30.988  1.00  0.00    -0.200 F 
ENDBRANCH  45  59
BRANCH  46  70
ATOM     70  C   UNL A   1      43.927  28.509  28.227  1.00  0.00     0.064 A 
ATOM     71  C   UNL A   1      44.591  27.282  28.450  1.00  0.00     0.173 A 
ATOM     72  C   UNL A   1      43.366  28.698  26.957  1.00  0.00     0.173 A 
ATOM     73  F   UNL A   1      45.145  27.031  29.647  1.00  0.00    -0.203 F 
ATOM     74  C   UNL A   1      44.622  26.273  27.487  1.00  0.00     0.198 A 
ATOM     75  C   UNL A   1      43.408  27.688  25.987  1.00  0.00     0.198 A 
ATOM     76  F   UNL A   1      42.714  29.831  26.664  1.00  0.00    -0.203 F 
ATOM     77  F   UNL A   1      45.193  25.094  27.775  1.00  0.00    -0.200 F 
ATOM     78  C   UNL A   1      44.018  26.472  26.259  1.00  0.00     0.200 A 
ATOM     79  F   UNL A   1      42.800  27.873  24.806  1.00  0.00    -0.200 F 
ATOM     80  F   UNL A   1      44.001  25.489  25.348  1.00  0.00    -0.200 F 
ENDBRANCH  46  70
BRANCH  58  81
ATOM     81  C   UNL A   1      42.332  35.398  29.269  1.00  0.00     0.064 A 
ATOM     82  C   UNL A   1      43.244  36.275  29.888  1.00  0.00     0.173 A 
ATOM     83  C   UNL A   1      41.734  35.885  28.087  1.00  0.00     0.173 A 
ATOM     84  F   UNL A   1      44.017  35.875  30.906  1.00  0.00    -0.203 F 
ATOM     85  C   UNL A   1      43.438  37.583  29.442  1.00  0.00     0.198 A 
ATOM     86  C   UNL A   1      41.987  37.168  27.600  1.00  0.00     0.198 A 
ATOM     87  F   UNL A   1      40.911  35.119  27.355  1.00  0.00    -0.203 F 
ATOM     88  F   UNL A   1      44.256  38.400  30.119  1.00  0.00    -0.200 F 
ATOM     89  C   UNL A   1      42.812  38.029  28.295  1.00  0.00     0.200 A 
ATOM     90  F   UNL A   1      41.437  37.558  26.441  1.00  0.00    -0.200 F 
ATOM     91  F   UNL A   1      43.028  39.271  27.846  1.00  0.00    -0.200 F 
ENDBRANCH  58  81
ENDBRANCH  32  33
ENDBRANCH  25  27
ENDBRANCH  24  25
ENDBRANCH  23  24
ENDBRANCH   1  23
TORSDOF 15
ENDMDL
