MODEL 1
REMARK VINA RESULT:     -13.0      0.000      0.000
REMARK SMILES Cc1cc(C(=O)N[C@@H]2C(=O)N3C(C(=O)OCCOC(=O)c4ccc(-c5c6nc(c(-c7c(F)c(F)c(F)c(F)c7F)c7ccc([nH]7)c(-c7c(F)c(F)c(F)c(F)c7F)c7nc(c(-c8c(F)c(F)c(F)c(F)c8F)c8ccc5[nH]8)C=C7)C=C6)cc4)=C(CSc4nnc(C)s4)CS[C@H]23)n(C)n1
REMARK SMILES IDX 16 1 15 2 13 3 14 4 12 5 8 6 9 7 95 8 10 9 11 10 94 11 93 12
REMARK SMILES IDX 84 13 7 14 5 15 6 16 4 18 1 19 2 20 3 21 98 22 96 23 97 24
REMARK SMILES IDX 85 25 86 26 87 27 88 28 92 29 89 30 90 31 91 32 17 33 18 34
REMARK SMILES IDX 19 35 20 36 21 37 22 38 83 39 23 40 82 41 24 42 25 43 26 44
REMARK SMILES IDX 76 45 27 46 81 47 75 48 77 49 28 50 80 51 74 52 73 53 29 55
REMARK SMILES IDX 61 56 41 57 60 58 42 59 45 60 59 61 78 62 43 63 44 64 58 66
REMARK SMILES IDX 79 67 46 68 30 69 31 70 39 71 32 72 33 73 37 74 40 75 34 76
REMARK SMILES IDX 35 77 38 78 36 79 62 80 63 81 71 82 64 83 65 84 69 85 72 86
REMARK SMILES IDX 66 87 67 88 70 89 68 90 47 91 48 92 56 93 49 94 50 95 54 96
REMARK SMILES IDX 57 97 51 98 52 99 55 100 53 101
REMARK H PARENT 7 17 77 54 45 65
REMARK Flexibility Score: inf
ROOT
ATOM      1  C   UNL A   1      36.157  21.663  25.647  1.00  0.00     0.275 C 
ENDROOT
BRANCH   1   2
ATOM      2  O   UNL A   1      36.087  22.938  24.974  1.00  0.00    -0.457 OA
BRANCH   2   3
ATOM      3  C   UNL A   1      35.489  22.954  23.766  1.00  0.00     0.355 C 
ATOM      4  O   UNL A   1      36.044  22.760  22.691  1.00  0.00    -0.244 OA
BRANCH   3   5
ATOM      5  C   UNL A   1      34.026  23.284  23.832  1.00  0.00     0.132 C 
ATOM      6  C   UNL A   1      33.032  26.527  24.127  1.00  0.00     0.206 C 
ATOM      7  C   UNL A   1      33.649  25.612  23.021  1.00  0.00     0.253 C 
ATOM      8  C   UNL A   1      32.678  25.141  24.764  1.00  0.00     0.181 C 
ATOM      9  O   UNL A   1      33.891  25.698  21.833  1.00  0.00    -0.272 OA
ATOM     10  N   UNL A   1      33.752  24.618  23.938  1.00  0.00    -0.289 N 
ATOM     11  S   UNL A   1      31.127  24.365  24.231  1.00  0.00    -0.129 SA
ATOM     12  C   UNL A   1      31.686  22.688  24.598  1.00  0.00     0.106 C 
ATOM     13  C   UNL A   1      33.101  22.347  24.152  1.00  0.00    -0.019 C 
BRANCH   6  14
ATOM     14  N   UNL A   1      31.994  27.494  23.717  1.00  0.00    -0.336 N 
ATOM     15  C   UNL A   1      31.671  28.719  24.259  1.00  0.00     0.270 C 
ATOM     16  O   UNL A   1      30.830  29.396  23.672  1.00  0.00    -0.268 OA
ATOM     17  H   UNL A   1      31.452  27.224  22.941  1.00  0.00     0.164 HD
BRANCH  15  18
ATOM     18  C   UNL A   1      32.270  29.102  25.513  1.00  0.00     0.126 A 
ATOM     19  C   UNL A   1      35.004  30.179  27.671  1.00  0.00     0.069 C 
ATOM     20  C   UNL A   1      33.738  29.713  27.057  1.00  0.00     0.060 A 
ATOM     21  C   UNL A   1      33.167  30.110  25.831  1.00  0.00     0.059 A 
ATOM     22  N   UNL A   1      33.028  28.737  27.624  1.00  0.00    -0.178 NA
ATOM     23  N   UNL A   1      32.070  28.456  26.712  1.00  0.00    -0.263 N 
ATOM     24  C   UNL A   1      31.057  27.493  27.077  1.00  0.00     0.174 C 
ENDBRANCH  15  18
ENDBRANCH   6  14
BRANCH  13  25
ATOM     25  C   UNL A   1      33.379  20.863  24.245  1.00  0.00     0.111 C 
BRANCH  25  26
ATOM     26  S   UNL A   1      32.384  19.768  23.208  1.00  0.00    -0.089 SA
BRANCH  26  27
ATOM     27  C   UNL A   1      32.830  18.149  23.669  1.00  0.00     0.174 A 
ATOM     28  N   UNL A   1      33.399  17.297  22.847  1.00  0.00    -0.132 NA
ATOM     29  S   UNL A   1      32.450  17.497  25.208  1.00  0.00    -0.091 S 
ATOM     30  N   UNL A   1      33.564  16.050  23.422  1.00  0.00    -0.143 NA
ATOM     31  C   UNL A   1      33.082  16.003  24.647  1.00  0.00     0.115 A 
ATOM     32  C   UNL A   1      33.020  14.776  25.483  1.00  0.00     0.081 C 
ENDBRANCH  26  27
ENDBRANCH  25  26
ENDBRANCH  13  25
ENDBRANCH   3   5
ENDBRANCH   2   3
ENDBRANCH   1   2
BRANCH   1  33
ATOM     33  C   UNL A   1      37.289  20.827  25.062  1.00  0.00     0.275 C 
BRANCH  33  34
ATOM     34  O   UNL A   1      38.512  21.585  25.112  1.00  0.00    -0.458 OA
BRANCH  34  35
ATOM     35  C   UNL A   1      39.307  21.297  26.168  1.00  0.00     0.338 C 
ATOM     36  O   UNL A   1      39.634  20.191  26.563  1.00  0.00    -0.246 OA
BRANCH  35  37
ATOM     37  C   UNL A   1      39.772  22.546  26.789  1.00  0.00     0.060 A 
ATOM     38  C   UNL A   1      39.297  23.765  26.313  1.00  0.00     0.016 A 
ATOM     39  C   UNL A   1      40.825  22.511  27.698  1.00  0.00     0.016 A 
ATOM     40  C   UNL A   1      39.986  24.936  26.614  1.00  0.00     0.010 A 
ATOM     41  C   UNL A   1      41.417  23.710  28.113  1.00  0.00     0.010 A 
ATOM     42  C   UNL A   1      41.043  24.936  27.535  1.00  0.00    -0.014 A 
BRANCH  42  43
ATOM     43  C   UNL A   1      41.757  26.205  27.869  1.00  0.00     0.031 A 
ATOM     44  C   UNL A   1      41.093  27.266  28.712  1.00  0.00     0.074 A 
ATOM     45  C   UNL A   1      43.015  26.409  27.426  1.00  0.00     0.049 A 
ATOM     46  N   UNL A   1      41.462  28.507  28.925  1.00  0.00    -0.248 NA
ATOM     47  C   UNL A   1      39.842  26.895  29.389  1.00  0.00     0.031 C 
ATOM     48  C   UNL A   1      43.804  25.457  26.642  1.00  0.00     0.029 A 
ATOM     49  N   UNL A   1      43.857  27.486  27.573  1.00  0.00    -0.354 N 
ATOM     50  C   UNL A   1      40.457  29.080  29.697  1.00  0.00     0.074 A 
ATOM     51  C   UNL A   1      39.462  28.051  29.915  1.00  0.00     0.031 C 
ATOM     52  C   UNL A   1      45.026  25.962  26.428  1.00  0.00     0.029 A 
ATOM     53  C   UNL A   1      45.065  27.325  26.938  1.00  0.00     0.049 A 
ATOM     54  H   UNL A   1      43.619  28.293  28.084  1.00  0.00     0.167 HD
ATOM     55  C   UNL A   1      40.373  30.347  30.171  1.00  0.00     0.037 A 
ATOM     56  C   UNL A   1      46.072  28.191  26.722  1.00  0.00     0.037 A 
ATOM     57  C   UNL A   1      41.402  31.345  29.999  1.00  0.00     0.049 A 
ATOM     58  C   UNL A   1      45.939  29.600  27.218  1.00  0.00     0.074 A 
ATOM     59  C   UNL A   1      41.428  32.649  30.466  1.00  0.00     0.029 A 
ATOM     60  N   UNL A   1      42.593  31.147  29.315  1.00  0.00    -0.354 N 
ATOM     61  N   UNL A   1      44.959  30.149  27.891  1.00  0.00    -0.248 NA
ATOM     62  C   UNL A   1      47.042  30.515  26.904  1.00  0.00     0.031 C 
ATOM     63  C   UNL A   1      42.606  33.255  30.017  1.00  0.00     0.029 A 
ATOM     64  C   UNL A   1      43.348  32.311  29.326  1.00  0.00     0.049 A 
ATOM     65  H   UNL A   1      42.864  30.303  28.885  1.00  0.00     0.167 HD
ATOM     66  C   UNL A   1      45.332  31.469  28.097  1.00  0.00     0.074 A 
ATOM     67  C   UNL A   1      46.640  31.630  27.496  1.00  0.00     0.031 C 
ATOM     68  C   UNL A   1      44.649  32.459  28.723  1.00  0.00     0.037 A 
BRANCH  55  69
ATOM     69  C   UNL A   1      39.111  30.754  30.882  1.00  0.00     0.064 A 
ATOM     70  C   UNL A   1      38.954  30.628  32.271  1.00  0.00     0.173 A 
ATOM     71  C   UNL A   1      38.052  31.327  30.158  1.00  0.00     0.173 A 
ATOM     72  F   UNL A   1      39.929  30.083  33.013  1.00  0.00    -0.203 F 
ATOM     73  C   UNL A   1      37.777  31.028  32.900  1.00  0.00     0.198 A 
ATOM     74  C   UNL A   1      36.890  31.759  30.795  1.00  0.00     0.198 A 
ATOM     75  F   UNL A   1      38.148  31.484  28.829  1.00  0.00    -0.203 F 
ATOM     76  F   UNL A   1      37.630  30.850  34.220  1.00  0.00    -0.200 F 
ATOM     77  C   UNL A   1      36.749  31.600  32.164  1.00  0.00     0.200 A 
ATOM     78  F   UNL A   1      35.909  32.328  30.082  1.00  0.00    -0.200 F 
ATOM     79  F   UNL A   1      35.622  31.993  32.773  1.00  0.00    -0.200 F 
ENDBRANCH  55  69
BRANCH  56  80
ATOM     80  C   UNL A   1      47.263  27.754  25.945  1.00  0.00     0.064 A 
ATOM     81  C   UNL A   1      47.259  27.771  24.545  1.00  0.00     0.173 A 
ATOM     82  C   UNL A   1      48.440  27.337  26.588  1.00  0.00     0.173 A 
ATOM     83  F   UNL A   1      46.151  28.137  23.883  1.00  0.00    -0.203 F 
ATOM     84  C   UNL A   1      48.383  27.384  23.818  1.00  0.00     0.198 A 
ATOM     85  C   UNL A   1      49.576  26.990  25.861  1.00  0.00     0.198 A 
ATOM     86  F   UNL A   1      48.500  27.305  27.928  1.00  0.00    -0.203 F 
ATOM     87  F   UNL A   1      48.340  27.374  22.478  1.00  0.00    -0.200 F 
ATOM     88  C   UNL A   1      49.544  27.007  24.476  1.00  0.00     0.200 A 
ATOM     89  F   UNL A   1      50.702  26.651  26.503  1.00  0.00    -0.200 F 
ATOM     90  F   UNL A   1      50.631  26.658  23.775  1.00  0.00    -0.200 F 
ENDBRANCH  56  80
BRANCH  68  91
ATOM     91  C   UNL A   1      45.327  33.795  28.823  1.00  0.00     0.064 A 
ATOM     92  C   UNL A   1      46.187  34.110  29.886  1.00  0.00     0.173 A 
ATOM     93  C   UNL A   1      45.123  34.768  27.832  1.00  0.00     0.173 A 
ATOM     94  F   UNL A   1      46.400  33.222  30.869  1.00  0.00    -0.203 F 
ATOM     95  C   UNL A   1      46.788  35.363  29.971  1.00  0.00     0.198 A 
ATOM     96  C   UNL A   1      45.755  36.006  27.903  1.00  0.00     0.198 A 
ATOM     97  F   UNL A   1      44.314  34.515  26.792  1.00  0.00    -0.203 F 
ATOM     98  F   UNL A   1      47.556  35.665  31.028  1.00  0.00    -0.200 F 
ATOM     99  C   UNL A   1      46.577  36.307  28.977  1.00  0.00     0.200 A 
ATOM    100  F   UNL A   1      45.559  36.912  26.935  1.00  0.00    -0.200 F 
ATOM    101  F   UNL A   1      47.159  37.511  29.060  1.00  0.00    -0.200 F 
ENDBRANCH  68  91
ENDBRANCH  42  43
ENDBRANCH  35  37
ENDBRANCH  34  35
ENDBRANCH  33  34
ENDBRANCH   1  33
TORSDOF 16
ENDMDL
MODEL 2
REMARK VINA RESULT:     -12.8      4.306     10.253
REMARK SMILES Cc1cc(C(=O)N[C@@H]2C(=O)N3C(C(=O)OCCOC(=O)c4ccc(-c5c6nc(c(-c7c(F)c(F)c(F)c(F)c7F)c7ccc([nH]7)c(-c7c(F)c(F)c(F)c(F)c7F)c7nc(c(-c8c(F)c(F)c(F)c(F)c8F)c8ccc5[nH]8)C=C7)C=C6)cc4)=C(CSc4nnc(C)s4)CS[C@H]23)n(C)n1
REMARK SMILES IDX 16 1 15 2 13 3 14 4 12 5 8 6 9 7 95 8 10 9 11 10 94 11 93 12
REMARK SMILES IDX 84 13 7 14 5 15 6 16 4 18 1 19 2 20 3 21 98 22 96 23 97 24
REMARK SMILES IDX 85 25 86 26 87 27 88 28 92 29 89 30 90 31 91 32 17 33 18 34
REMARK SMILES IDX 19 35 20 36 21 37 22 38 83 39 23 40 82 41 24 42 25 43 26 44
REMARK SMILES IDX 76 45 27 46 81 47 75 48 77 49 28 50 80 51 74 52 73 53 29 55
REMARK SMILES IDX 61 56 41 57 60 58 42 59 45 60 59 61 78 62 43 63 44 64 58 66
REMARK SMILES IDX 79 67 46 68 30 69 31 70 39 71 32 72 33 73 37 74 40 75 34 76
REMARK SMILES IDX 35 77 38 78 36 79 62 80 63 81 71 82 64 83 65 84 69 85 72 86
REMARK SMILES IDX 66 87 67 88 70 89 68 90 47 91 48 92 56 93 49 94 50 95 54 96
REMARK SMILES IDX 57 97 51 98 52 99 55 100 53 101
REMARK H PARENT 7 17 77 54 45 65
REMARK Flexibility Score: inf
ROOT
ATOM      1  C   UNL A   1      32.444  28.600  25.716  1.00  0.00     0.275 C 
ENDROOT
BRANCH   1   2
ATOM      2  O   UNL A   1      33.752  28.320  25.175  1.00  0.00    -0.457 OA
BRANCH   2   3
ATOM      3  C   UNL A   1      33.812  27.988  23.871  1.00  0.00     0.355 C 
ATOM      4  O   UNL A   1      34.384  28.627  22.995  1.00  0.00    -0.244 OA
BRANCH   3   5
ATOM      5  C   UNL A   1      33.054  26.734  23.541  1.00  0.00     0.132 C 
ATOM      6  C   UNL A   1      34.559  23.701  23.907  1.00  0.00     0.206 C 
ATOM      7  C   UNL A   1      33.989  24.820  24.838  1.00  0.00     0.253 C 
ATOM      8  C   UNL A   1      33.667  24.435  22.850  1.00  0.00     0.181 C 
ATOM      9  O   UNL A   1      33.774  24.959  26.026  1.00  0.00    -0.272 OA
ATOM     10  N   UNL A   1      33.759  25.581  23.739  1.00  0.00    -0.289 N 
ATOM     11  S   UNL A   1      31.926  23.934  22.756  1.00  0.00    -0.129 SA
ATOM     12  C   UNL A   1      31.368  25.519  22.093  1.00  0.00     0.106 C 
ATOM     13  C   UNL A   1      31.947  26.758  22.762  1.00  0.00    -0.019 C 
BRANCH   6  14
ATOM     14  N   UNL A   1      34.322  22.297  24.298  1.00  0.00    -0.336 N 
ATOM     15  C   UNL A   1      35.041  21.491  25.154  1.00  0.00     0.270 C 
ATOM     16  O   UNL A   1      34.582  20.379  25.406  1.00  0.00    -0.268 OA
ATOM     17  H   UNL A   1      33.534  21.874  23.888  1.00  0.00     0.164 HD
BRANCH  15  18
ATOM     18  C   UNL A   1      36.316  21.956  25.639  1.00  0.00     0.126 A 
ATOM     19  C   UNL A   1      38.827  24.483  26.420  1.00  0.00     0.069 C 
ATOM     20  C   UNL A   1      38.029  23.258  26.175  1.00  0.00     0.060 A 
ATOM     21  C   UNL A   1      36.656  23.049  26.421  1.00  0.00     0.059 A 
ATOM     22  N   UNL A   1      38.574  22.201  25.572  1.00  0.00    -0.178 NA
ATOM     23  N   UNL A   1      37.530  21.372  25.354  1.00  0.00    -0.263 N 
ATOM     24  C   UNL A   1      37.810  20.069  24.797  1.00  0.00     0.174 C 
ENDBRANCH  15  18
ENDBRANCH   6  14
BRANCH  13  25
ATOM     25  C   UNL A   1      31.222  28.016  22.339  1.00  0.00     0.111 C 
BRANCH  25  26
ATOM     26  S   UNL A   1      29.486  28.172  22.815  1.00  0.00    -0.089 SA
BRANCH  26  27
ATOM     27  C   UNL A   1      29.067  29.838  22.531  1.00  0.00     0.174 A 
ATOM     28  N   UNL A   1      28.779  30.315  21.341  1.00  0.00    -0.132 NA
ATOM     29  S   UNL A   1      29.119  31.020  23.770  1.00  0.00    -0.091 S 
ATOM     30  N   UNL A   1      28.577  31.682  21.363  1.00  0.00    -0.143 NA
ATOM     31  C   UNL A   1      28.756  32.189  22.566  1.00  0.00     0.115 A 
ATOM     32  C   UNL A   1      28.711  33.639  22.887  1.00  0.00     0.081 C 
ENDBRANCH  26  27
ENDBRANCH  25  26
ENDBRANCH  13  25
ENDBRANCH   3   5
ENDBRANCH   2   3
ENDBRANCH   1   2
BRANCH   1  33
ATOM     33  C   UNL A   1      32.252  30.105  25.859  1.00  0.00     0.275 C 
BRANCH  33  34
ATOM     34  O   UNL A   1      32.504  30.487  27.224  1.00  0.00    -0.458 OA
BRANCH  34  35
ATOM     35  C   UNL A   1      33.234  31.616  27.364  1.00  0.00     0.338 C 
ATOM     36  O   UNL A   1      32.854  32.764  27.205  1.00  0.00    -0.246 OA
BRANCH  35  37
ATOM     37  C   UNL A   1      34.601  31.270  27.783  1.00  0.00     0.060 A 
ATOM     38  C   UNL A   1      34.893  29.960  28.150  1.00  0.00     0.016 A 
ATOM     39  C   UNL A   1      35.529  32.284  28.005  1.00  0.00     0.016 A 
ATOM     40  C   UNL A   1      36.040  29.693  28.891  1.00  0.00     0.010 A 
ATOM     41  C   UNL A   1      36.750  31.978  28.619  1.00  0.00     0.010 A 
ATOM     42  C   UNL A   1      37.000  30.688  29.121  1.00  0.00    -0.014 A 
BRANCH  42  43
ATOM     43  C   UNL A   1      38.240  30.381  29.896  1.00  0.00     0.031 A 
ATOM     44  C   UNL A   1      39.334  29.531  29.298  1.00  0.00     0.074 A 
ATOM     45  C   UNL A   1      38.397  30.875  31.142  1.00  0.00     0.049 A 
ATOM     46  N   UNL A   1      40.371  28.983  29.884  1.00  0.00    -0.248 NA
ATOM     47  C   UNL A   1      39.243  29.240  27.860  1.00  0.00     0.031 C 
ATOM     48  C   UNL A   1      37.449  31.749  31.835  1.00  0.00     0.029 A 
ATOM     49  N   UNL A   1      39.416  30.715  32.051  1.00  0.00    -0.354 N 
ATOM     50  C   UNL A   1      41.012  28.229  28.906  1.00  0.00     0.074 A 
ATOM     51  C   UNL A   1      40.246  28.391  27.688  1.00  0.00     0.031 C 
ATOM     52  C   UNL A   1      37.952  32.095  33.027  1.00  0.00     0.029 A 
ATOM     53  C   UNL A   1      39.191  31.360  33.243  1.00  0.00     0.049 A 
ATOM     54  H   UNL A   1      40.228  30.190  31.866  1.00  0.00     0.167 HD
ATOM     55  C   UNL A   1      42.131  27.471  29.021  1.00  0.00     0.037 A 
ATOM     56  C   UNL A   1      39.859  31.320  34.410  1.00  0.00     0.037 A 
ATOM     57  C   UNL A   1      42.920  27.369  30.224  1.00  0.00     0.049 A 
ATOM     58  C   UNL A   1      41.068  30.440  34.525  1.00  0.00     0.074 A 
ATOM     59  C   UNL A   1      44.086  26.652  30.435  1.00  0.00     0.029 A 
ATOM     60  N   UNL A   1      42.631  28.013  31.420  1.00  0.00    -0.354 N 
ATOM     61  N   UNL A   1      41.629  29.684  33.616  1.00  0.00    -0.248 NA
ATOM     62  C   UNL A   1      41.724  30.392  35.838  1.00  0.00     0.031 C 
ATOM     63  C   UNL A   1      44.470  26.816  31.770  1.00  0.00     0.029 A 
ATOM     64  C   UNL A   1      43.582  27.689  32.377  1.00  0.00     0.049 A 
ATOM     65  H   UNL A   1      41.863  28.612  31.567  1.00  0.00     0.167 HD
ATOM     66  C   UNL A   1      42.713  29.081  34.238  1.00  0.00     0.074 A 
ATOM     67  C   UNL A   1      42.743  29.580  35.597  1.00  0.00     0.031 C 
ATOM     68  C   UNL A   1      43.600  28.191  33.727  1.00  0.00     0.037 A 
BRANCH  55  69
ATOM     69  C   UNL A   1      42.551  26.649  27.832  1.00  0.00     0.064 A 
ATOM     70  C   UNL A   1      43.414  27.141  26.842  1.00  0.00     0.173 A 
ATOM     71  C   UNL A   1      42.113  25.319  27.710  1.00  0.00     0.173 A 
ATOM     72  F   UNL A   1      43.859  28.405  26.902  1.00  0.00    -0.203 F 
ATOM     73  C   UNL A   1      43.795  26.348  25.761  1.00  0.00     0.198 A 
ATOM     74  C   UNL A   1      42.525  24.517  26.648  1.00  0.00     0.198 A 
ATOM     75  F   UNL A   1      41.297  24.788  28.632  1.00  0.00    -0.203 F 
ATOM     76  F   UNL A   1      44.579  26.857  24.801  1.00  0.00    -0.200 F 
ATOM     77  C   UNL A   1      43.357  25.035  25.668  1.00  0.00     0.200 A 
ATOM     78  F   UNL A   1      42.115  23.243  26.573  1.00  0.00    -0.200 F 
ATOM     79  F   UNL A   1      43.734  24.271  24.634  1.00  0.00    -0.200 F 
ENDBRANCH  55  69
BRANCH  56  80
ATOM     80  C   UNL A   1      39.352  32.095  35.574  1.00  0.00     0.064 A 
ATOM     81  C   UNL A   1      38.504  31.506  36.521  1.00  0.00     0.173 A 
ATOM     82  C   UNL A   1      39.728  33.432  35.780  1.00  0.00     0.173 A 
ATOM     83  F   UNL A   1      38.097  30.239  36.357  1.00  0.00    -0.203 F 
ATOM     84  C   UNL A   1      38.049  32.225  37.624  1.00  0.00     0.198 A 
ATOM     85  C   UNL A   1      39.306  34.137  36.904  1.00  0.00     0.198 A 
ATOM     86  F   UNL A   1      40.542  34.044  34.905  1.00  0.00    -0.203 F 
ATOM     87  F   UNL A   1      37.209  31.649  38.495  1.00  0.00    -0.200 F 
ATOM     88  C   UNL A   1      38.460  33.535  37.822  1.00  0.00     0.200 A 
ATOM     89  F   UNL A   1      39.727  35.393  37.102  1.00  0.00    -0.200 F 
ATOM     90  F   UNL A   1      38.040  34.217  38.895  1.00  0.00    -0.200 F 
ENDBRANCH  56  80
BRANCH  68  91
ATOM     91  C   UNL A   1      44.701  27.732  34.639  1.00  0.00     0.064 A 
ATOM     92  C   UNL A   1      45.948  28.374  34.674  1.00  0.00     0.173 A 
ATOM     93  C   UNL A   1      44.500  26.640  35.499  1.00  0.00     0.173 A 
ATOM     94  F   UNL A   1      46.198  29.410  33.858  1.00  0.00    -0.203 F 
ATOM     95  C   UNL A   1      46.963  27.919  35.510  1.00  0.00     0.198 A 
ATOM     96  C   UNL A   1      45.507  26.211  36.358  1.00  0.00     0.198 A 
ATOM     97  F   UNL A   1      43.325  25.994  35.507  1.00  0.00    -0.203 F 
ATOM     98  F   UNL A   1      48.167  28.509  35.482  1.00  0.00    -0.200 F 
ATOM     99  C   UNL A   1      46.740  26.842  36.356  1.00  0.00     0.200 A 
ATOM    100  F   UNL A   1      45.285  25.178  37.184  1.00  0.00    -0.200 F 
ATOM    101  F   UNL A   1      47.719  26.407  37.162  1.00  0.00    -0.200 F 
ENDBRANCH  68  91
ENDBRANCH  42  43
ENDBRANCH  35  37
ENDBRANCH  34  35
ENDBRANCH  33  34
ENDBRANCH   1  33
TORSDOF 16
ENDMDL
MODEL 3
REMARK VINA RESULT:     -12.7      4.365     10.368
REMARK SMILES Cc1cc(C(=O)N[C@@H]2C(=O)N3C(C(=O)OCCOC(=O)c4ccc(-c5c6nc(c(-c7c(F)c(F)c(F)c(F)c7F)c7ccc([nH]7)c(-c7c(F)c(F)c(F)c(F)c7F)c7nc(c(-c8c(F)c(F)c(F)c(F)c8F)c8ccc5[nH]8)C=C7)C=C6)cc4)=C(CSc4nnc(C)s4)CS[C@H]23)n(C)n1
REMARK SMILES IDX 16 1 15 2 13 3 14 4 12 5 8 6 9 7 95 8 10 9 11 10 94 11 93 12
REMARK SMILES IDX 84 13 7 14 5 15 6 16 4 18 1 19 2 20 3 21 98 22 96 23 97 24
REMARK SMILES IDX 85 25 86 26 87 27 88 28 92 29 89 30 90 31 91 32 17 33 18 34
REMARK SMILES IDX 19 35 20 36 21 37 22 38 83 39 23 40 82 41 24 42 25 43 26 44
REMARK SMILES IDX 76 45 27 46 81 47 75 48 77 49 28 50 80 51 74 52 73 53 29 55
REMARK SMILES IDX 61 56 41 57 60 58 42 59 45 60 59 61 78 62 43 63 44 64 58 66
REMARK SMILES IDX 79 67 46 68 30 69 31 70 39 71 32 72 33 73 37 74 40 75 34 76
REMARK SMILES IDX 35 77 38 78 36 79 62 80 63 81 71 82 64 83 65 84 69 85 72 86
REMARK SMILES IDX 66 87 67 88 70 89 68 90 47 91 48 92 56 93 49 94 50 95 54 96
REMARK SMILES IDX 57 97 51 98 52 99 55 100 53 101
REMARK H PARENT 7 17 77 54 45 65
REMARK Flexibility Score: inf
ROOT
ATOM      1  C   UNL A   1      31.391  30.073  25.035  1.00  0.00     0.275 C 
ENDROOT
BRANCH   1   2
ATOM      2  O   UNL A   1      32.649  29.627  24.486  1.00  0.00    -0.457 OA
BRANCH   2   3
ATOM      3  C   UNL A   1      32.606  28.570  23.652  1.00  0.00     0.355 C 
ATOM      4  O   UNL A   1      33.152  28.500  22.558  1.00  0.00    -0.244 OA
BRANCH   3   5
ATOM      5  C   UNL A   1      31.765  27.438  24.169  1.00  0.00     0.132 C 
ATOM      6  C   UNL A   1      33.192  24.998  26.067  1.00  0.00     0.206 C 
ATOM      7  C   UNL A   1      32.795  26.500  26.238  1.00  0.00     0.253 C 
ATOM      8  C   UNL A   1      32.193  25.100  24.866  1.00  0.00     0.181 C 
ATOM      9  O   UNL A   1      32.748  27.306  27.146  1.00  0.00    -0.272 OA
ATOM     10  N   UNL A   1      32.447  26.529  24.927  1.00  0.00    -0.289 N 
ATOM     11  S   UNL A   1      30.438  24.823  25.232  1.00  0.00    -0.129 SA
ATOM     12  C   UNL A   1      29.855  25.808  23.835  1.00  0.00     0.106 C 
ATOM     13  C   UNL A   1      30.564  27.138  23.620  1.00  0.00    -0.019 C 
BRANCH   6  14
ATOM     14  N   UNL A   1      32.959  24.093  27.210  1.00  0.00    -0.336 N 
ATOM     15  C   UNL A   1      33.065  22.721  27.280  1.00  0.00     0.270 C 
ATOM     16  O   UNL A   1      32.922  22.196  28.382  1.00  0.00    -0.268 OA
ATOM     17  H   UNL A   1      32.689  24.535  28.047  1.00  0.00     0.164 HD
BRANCH  15  18
ATOM     18  C   UNL A   1      33.254  21.976  26.061  1.00  0.00     0.126 A 
ATOM     19  C   UNL A   1      32.565  19.289  23.695  1.00  0.00     0.069 C 
ATOM     20  C   UNL A   1      33.081  20.442  24.470  1.00  0.00     0.060 A 
ATOM     21  C   UNL A   1      32.345  21.414  25.179  1.00  0.00     0.059 A 
ATOM     22  N   UNL A   1      34.392  20.613  24.643  1.00  0.00    -0.178 NA
ATOM     23  N   UNL A   1      34.477  21.627  25.533  1.00  0.00    -0.263 N 
ATOM     24  C   UNL A   1      35.792  22.129  25.855  1.00  0.00     0.174 C 
ENDBRANCH  15  18
ENDBRANCH   6  14
BRANCH  13  25
ATOM     25  C   UNL A   1      29.835  28.009  22.620  1.00  0.00     0.111 C 
BRANCH  25  26
ATOM     26  S   UNL A   1      28.205  28.627  23.094  1.00  0.00    -0.089 SA
BRANCH  26  27
ATOM     27  C   UNL A   1      28.154  30.281  22.553  1.00  0.00     0.174 A 
ATOM     28  N   UNL A   1      28.102  31.306  23.373  1.00  0.00    -0.132 NA
ATOM     29  S   UNL A   1      28.043  30.700  20.894  1.00  0.00    -0.091 S 
ATOM     30  N   UNL A   1      27.970  32.506  22.699  1.00  0.00    -0.143 NA
ATOM     31  C   UNL A   1      27.894  32.335  21.395  1.00  0.00     0.115 A 
ATOM     32  C   UNL A   1      27.646  33.423  20.414  1.00  0.00     0.081 C 
ENDBRANCH  26  27
ENDBRANCH  25  26
ENDBRANCH  13  25
ENDBRANCH   3   5
ENDBRANCH   2   3
ENDBRANCH   1   2
BRANCH   1  33
ATOM     33  C   UNL A   1      31.640  31.051  26.177  1.00  0.00     0.275 C 
BRANCH  33  34
ATOM     34  O   UNL A   1      32.886  30.724  26.818  1.00  0.00    -0.458 OA
BRANCH  34  35
ATOM     35  C   UNL A   1      33.532  31.780  27.362  1.00  0.00     0.338 C 
ATOM     36  O   UNL A   1      33.092  32.905  27.529  1.00  0.00    -0.246 OA
BRANCH  35  37
ATOM     37  C   UNL A   1      34.884  31.373  27.774  1.00  0.00     0.060 A 
ATOM     38  C   UNL A   1      35.128  30.040  28.095  1.00  0.00     0.016 A 
ATOM     39  C   UNL A   1      35.845  32.344  28.034  1.00  0.00     0.016 A 
ATOM     40  C   UNL A   1      36.262  29.708  28.831  1.00  0.00     0.010 A 
ATOM     41  C   UNL A   1      37.052  31.975  28.641  1.00  0.00     0.010 A 
ATOM     42  C   UNL A   1      37.255  30.661  29.099  1.00  0.00    -0.014 A 
BRANCH  42  43
ATOM     43  C   UNL A   1      38.480  30.284  29.866  1.00  0.00     0.031 A 
ATOM     44  C   UNL A   1      39.524  29.380  29.260  1.00  0.00     0.074 A 
ATOM     45  C   UNL A   1      38.667  30.761  31.114  1.00  0.00     0.049 A 
ATOM     46  N   UNL A   1      40.534  28.774  29.839  1.00  0.00    -0.248 NA
ATOM     47  C   UNL A   1      39.413  29.103  27.820  1.00  0.00     0.031 C 
ATOM     48  C   UNL A   1      37.770  31.681  31.816  1.00  0.00     0.029 A 
ATOM     49  N   UNL A   1      39.680  30.542  32.018  1.00  0.00    -0.354 N 
ATOM     50  C   UNL A   1      41.129  27.994  28.854  1.00  0.00     0.074 A 
ATOM     51  C   UNL A   1      40.369  28.202  27.640  1.00  0.00     0.031 C 
ATOM     52  C   UNL A   1      38.295  31.992  33.008  1.00  0.00     0.029 A 
ATOM     53  C   UNL A   1      39.494  31.192  33.215  1.00  0.00     0.049 A 
ATOM     54  H   UNL A   1      40.462  29.976  31.827  1.00  0.00     0.167 HD
ATOM     55  C   UNL A   1      42.206  27.176  28.959  1.00  0.00     0.037 A 
ATOM     56  C   UNL A   1      40.163  31.110  34.379  1.00  0.00     0.037 A 
ATOM     57  C   UNL A   1      42.994  27.025  30.159  1.00  0.00     0.049 A 
ATOM     58  C   UNL A   1      41.325  30.167  34.485  1.00  0.00     0.074 A 
ATOM     59  C   UNL A   1      44.121  26.247  30.361  1.00  0.00     0.029 A 
ATOM     60  N   UNL A   1      42.744  27.677  31.359  1.00  0.00    -0.354 N 
ATOM     61  N   UNL A   1      41.841  29.386  33.568  1.00  0.00    -0.248 NA
ATOM     62  C   UNL A   1      41.982  30.076  35.794  1.00  0.00     0.031 C 
ATOM     63  C   UNL A   1      44.518  26.382  31.696  1.00  0.00     0.029 A 
ATOM     64  C   UNL A   1      43.680  27.298  32.311  1.00  0.00     0.049 A 
ATOM     65  H   UNL A   1      42.010  28.315  31.513  1.00  0.00     0.167 HD
ATOM     66  C   UNL A   1      42.894  28.724  34.183  1.00  0.00     0.074 A 
ATOM     67  C   UNL A   1      42.955  29.212  35.545  1.00  0.00     0.031 C 
ATOM     68  C   UNL A   1      43.730  27.790  33.664  1.00  0.00     0.037 A 
BRANCH  55  69
ATOM     69  C   UNL A   1      42.578  26.340  27.765  1.00  0.00     0.064 A 
ATOM     70  C   UNL A   1      43.571  26.727  26.852  1.00  0.00     0.173 A 
ATOM     71  C   UNL A   1      41.954  25.097  27.558  1.00  0.00     0.173 A 
ATOM     72  F   UNL A   1      44.195  27.905  26.995  1.00  0.00    -0.203 F 
ATOM     73  C   UNL A   1      43.900  25.922  25.764  1.00  0.00     0.198 A 
ATOM     74  C   UNL A   1      42.312  24.278  26.489  1.00  0.00     0.198 A 
ATOM     75  F   UNL A   1      41.006  24.667  28.404  1.00  0.00    -0.203 F 
ATOM     76  F   UNL A   1      44.815  26.337  24.877  1.00  0.00    -0.200 F 
ATOM     77  C   UNL A   1      43.277  24.695  25.587  1.00  0.00     0.200 A 
ATOM     78  F   UNL A   1      41.721  23.085  26.334  1.00  0.00    -0.200 F 
ATOM     79  F   UNL A   1      43.603  23.917  24.546  1.00  0.00    -0.200 F 
ENDBRANCH  55  69
BRANCH  56  80
ATOM     80  C   UNL A   1      39.703  31.904  35.550  1.00  0.00     0.064 A 
ATOM     81  C   UNL A   1      40.249  33.164  35.828  1.00  0.00     0.173 A 
ATOM     82  C   UNL A   1      38.688  31.432  36.398  1.00  0.00     0.173 A 
ATOM     83  F   UNL A   1      41.237  33.648  35.062  1.00  0.00    -0.203 F 
ATOM     84  C   UNL A   1      39.801  33.918  36.911  1.00  0.00     0.198 A 
ATOM     85  C   UNL A   1      38.214  32.204  37.455  1.00  0.00     0.198 A 
ATOM     86  F   UNL A   1      38.128  30.233  36.175  1.00  0.00    -0.203 F 
ATOM     87  F   UNL A   1      40.367  35.104  37.176  1.00  0.00    -0.200 F 
ATOM     88  C   UNL A   1      38.776  33.444  37.716  1.00  0.00     0.200 A 
ATOM     89  F   UNL A   1      37.206  31.751  38.213  1.00  0.00    -0.200 F 
ATOM     90  F   UNL A   1      38.331  34.180  38.742  1.00  0.00    -0.200 F 
ENDBRANCH  56  80
BRANCH  68  91
ATOM     91  C   UNL A   1      44.809  27.268  34.568  1.00  0.00     0.064 A 
ATOM     92  C   UNL A   1      44.632  26.109  35.339  1.00  0.00     0.173 A 
ATOM     93  C   UNL A   1      46.043  27.932  34.654  1.00  0.00     0.173 A 
ATOM     94  F   UNL A   1      43.465  25.449  35.308  1.00  0.00    -0.203 F 
ATOM     95  C   UNL A   1      45.638  25.655  36.188  1.00  0.00     0.198 A 
ATOM     96  C   UNL A   1      47.058  27.454  35.477  1.00  0.00     0.198 A 
ATOM     97  F   UNL A   1      46.265  29.042  33.934  1.00  0.00    -0.203 F 
ATOM     98  F   UNL A   1      45.424  24.582  36.963  1.00  0.00    -0.200 F 
ATOM     99  C   UNL A   1      46.851  26.324  36.251  1.00  0.00     0.200 A 
ATOM    100  F   UNL A   1      48.235  28.095  35.527  1.00  0.00    -0.200 F 
ATOM    101  F   UNL A   1      47.819  25.884  37.068  1.00  0.00    -0.200 F 
ENDBRANCH  68  91
ENDBRANCH  42  43
ENDBRANCH  35  37
ENDBRANCH  34  35
ENDBRANCH  33  34
ENDBRANCH   1  33
TORSDOF 16
ENDMDL
