MODEL 1
REMARK VINA RESULT:     -13.3      0.000      0.000
REMARK SMILES O=C(OCCOC(=O)c1cccc(N2NC(=O)[C@H]3CC=CC[C@H]3C2=O)c1)c1ccc(-c2c3nc(c(-c4c(F)c(F)c(F)c(F)c4F)c4ccc([nH]4)c(-c4c(F)c(F)c(F)c(F)c4F)c4nc(c(-c5c(F)c(F)c(F)c(F)c5F)c5ccc2[nH]5)C=C4)C=C3)cc1
REMARK SMILES IDX 4 1 3 2 2 3 1 4 27 5 28 6 89 7 29 8 88 9 30 10 31 11 32 12
REMARK SMILES IDX 82 13 33 14 87 15 81 16 83 17 34 18 86 19 80 20 79 21 35 23
REMARK SMILES IDX 67 24 47 25 66 26 48 27 51 28 65 29 84 30 49 31 50 32 64 34
REMARK SMILES IDX 85 35 52 36 36 37 37 38 45 39 38 40 39 41 43 42 46 43 40 44
REMARK SMILES IDX 41 45 44 46 42 47 68 48 69 49 77 50 70 51 71 52 75 53 78 54
REMARK SMILES IDX 72 55 73 56 76 57 74 58 53 59 54 60 62 61 55 62 56 63 60 64
REMARK SMILES IDX 63 65 57 66 58 67 61 68 59 69 5 70 6 71 7 72 8 73 9 74 10 75
REMARK SMILES IDX 26 76 11 77 13 78 12 79 14 80 15 81 24 82 16 83 23 85 25 86
REMARK SMILES IDX 17 87 18 88 22 89 19 90 21 91 20 92
REMARK H PARENT 83 22 51 33 15 84
REMARK Flexibility Score: inf
ROOT
ATOM      1  C   UNL A   1      44.028  21.985  24.991  1.00  0.00     0.275 C 
ENDROOT
BRANCH   1   2
ATOM      2  O   UNL A   1      43.670  23.338  24.650  1.00  0.00    -0.458 OA
BRANCH   2   3
ATOM      3  C   UNL A   1      44.213  24.510  25.054  1.00  0.00     0.338 C 
ATOM      4  O   UNL A   1      45.320  24.830  24.623  1.00  0.00    -0.246 OA
BRANCH   3   5
ATOM      5  C   UNL A   1      43.620  25.368  26.127  1.00  0.00     0.060 A 
ATOM      6  C   UNL A   1      43.935  26.703  26.377  1.00  0.00     0.016 A 
ATOM      7  C   UNL A   1      42.663  24.755  26.960  1.00  0.00     0.016 A 
ATOM      8  C   UNL A   1      43.268  27.427  27.368  1.00  0.00     0.010 A 
ATOM      9  C   UNL A   1      41.977  25.477  27.941  1.00  0.00     0.010 A 
ATOM     10  C   UNL A   1      42.283  26.823  28.152  1.00  0.00    -0.014 A 
BRANCH  10  11
ATOM     11  C   UNL A   1      41.716  27.578  29.291  1.00  0.00     0.031 A 
ATOM     12  C   UNL A   1      42.398  27.470  30.625  1.00  0.00     0.074 A 
ATOM     13  C   UNL A   1      40.695  28.436  29.103  1.00  0.00     0.049 A 
ATOM     14  N   UNL A   1      42.158  28.119  31.734  1.00  0.00    -0.248 NA
ATOM     15  C   UNL A   1      43.535  26.536  30.709  1.00  0.00     0.031 C 
ATOM     16  C   UNL A   1      40.016  28.690  27.832  1.00  0.00     0.029 A 
ATOM     17  N   UNL A   1      40.057  29.267  29.988  1.00  0.00    -0.354 N 
ATOM     18  C   UNL A   1      43.149  27.720  32.621  1.00  0.00     0.074 A 
ATOM     19  C   UNL A   1      43.943  26.712  31.956  1.00  0.00     0.031 C 
ATOM     20  C   UNL A   1      39.030  29.585  28.026  1.00  0.00     0.029 A 
ATOM     21  C   UNL A   1      39.015  29.968  29.432  1.00  0.00     0.049 A 
ATOM     22  H   UNL A   1      40.321  29.352  30.933  1.00  0.00     0.167 HD
ATOM     23  C   UNL A   1      43.402  28.192  33.864  1.00  0.00     0.037 A 
ATOM     24  C   UNL A   1      38.145  30.812  30.013  1.00  0.00     0.037 A 
ATOM     25  C   UNL A   1      42.575  29.155  34.538  1.00  0.00     0.049 A 
ATOM     26  C   UNL A   1      38.304  31.128  31.471  1.00  0.00     0.074 A 
ATOM     27  C   UNL A   1      42.714  29.682  35.808  1.00  0.00     0.029 A 
ATOM     28  N   UNL A   1      41.433  29.722  33.989  1.00  0.00    -0.354 N 
ATOM     29  N   UNL A   1      39.237  30.742  32.305  1.00  0.00    -0.248 NA
ATOM     30  C   UNL A   1      37.291  32.012  32.060  1.00  0.00     0.031 C 
ATOM     31  C   UNL A   1      41.630  30.535  36.046  1.00  0.00     0.029 A 
ATOM     32  C   UNL A   1      40.844  30.577  34.906  1.00  0.00     0.049 A 
ATOM     33  H   UNL A   1      41.092  29.543  33.084  1.00  0.00     0.167 HD
ATOM     34  C   UNL A   1      38.953  31.373  33.506  1.00  0.00     0.074 A 
ATOM     35  C   UNL A   1      37.748  32.151  33.294  1.00  0.00     0.031 C 
ATOM     36  C   UNL A   1      39.643  31.334  34.671  1.00  0.00     0.037 A 
BRANCH  23  37
ATOM     37  C   UNL A   1      44.624  27.668  34.556  1.00  0.00     0.064 A 
ATOM     38  C   UNL A   1      45.879  28.273  34.369  1.00  0.00     0.173 A 
ATOM     39  C   UNL A   1      44.551  26.561  35.411  1.00  0.00     0.173 A 
ATOM     40  F   UNL A   1      46.005  29.324  33.544  1.00  0.00    -0.203 F 
ATOM     41  C   UNL A   1      47.016  27.774  34.996  1.00  0.00     0.198 A 
ATOM     42  C   UNL A   1      45.688  26.078  36.056  1.00  0.00     0.198 A 
ATOM     43  F   UNL A   1      43.378  25.944  35.621  1.00  0.00    -0.203 F 
ATOM     44  F   UNL A   1      48.209  28.338  34.766  1.00  0.00    -0.200 F 
ATOM     45  C   UNL A   1      46.920  26.680  35.842  1.00  0.00     0.200 A 
ATOM     46  F   UNL A   1      45.593  25.024  36.878  1.00  0.00    -0.200 F 
ATOM     47  F   UNL A   1      48.016  26.199  36.446  1.00  0.00    -0.200 F 
ENDBRANCH  23  37
BRANCH  24  48
ATOM     48  C   UNL A   1      37.012  31.393  29.257  1.00  0.00     0.064 A 
ATOM     49  C   UNL A   1      36.960  32.753  28.926  1.00  0.00     0.173 A 
ATOM     50  C   UNL A   1      35.899  30.603  28.952  1.00  0.00     0.173 A 
ATOM     51  F   UNL A   1      37.978  33.561  29.254  1.00  0.00    -0.203 F 
ATOM     52  C   UNL A   1      35.833  33.297  28.311  1.00  0.00     0.198 A 
ATOM     53  C   UNL A   1      34.782  31.143  28.318  1.00  0.00     0.198 A 
ATOM     54  F   UNL A   1      35.886  29.308  29.300  1.00  0.00    -0.203 F 
ATOM     55  F   UNL A   1      35.783  34.610  28.046  1.00  0.00    -0.200 F 
ATOM     56  C   UNL A   1      34.747  32.491  28.001  1.00  0.00     0.200 A 
ATOM     57  F   UNL A   1      33.733  30.360  28.033  1.00  0.00    -0.200 F 
ATOM     58  F   UNL A   1      33.660  33.014  27.420  1.00  0.00    -0.200 F 
ENDBRANCH  24  48
BRANCH  36  59
ATOM     59  C   UNL A   1      39.141  32.217  35.771  1.00  0.00     0.064 A 
ATOM     60  C   UNL A   1      39.563  33.547  35.907  1.00  0.00     0.173 A 
ATOM     61  C   UNL A   1      38.236  31.708  36.715  1.00  0.00     0.173 A 
ATOM     62  F   UNL A   1      40.450  34.064  35.045  1.00  0.00    -0.203 F 
ATOM     63  C   UNL A   1      39.120  34.327  36.971  1.00  0.00     0.198 A 
ATOM     64  C   UNL A   1      37.771  32.502  37.758  1.00  0.00     0.198 A 
ATOM     65  F   UNL A   1      37.808  30.440  36.627  1.00  0.00    -0.203 F 
ATOM     66  F   UNL A   1      39.586  35.574  37.122  1.00  0.00    -0.200 F 
ATOM     67  C   UNL A   1      38.222  33.806  37.891  1.00  0.00     0.200 A 
ATOM     68  F   UNL A   1      36.899  31.999  38.642  1.00  0.00    -0.200 F 
ATOM     69  F   UNL A   1      37.803  34.557  38.918  1.00  0.00    -0.200 F 
ENDBRANCH  36  59
ENDBRANCH  10  11
ENDBRANCH   3   5
ENDBRANCH   2   3
ENDBRANCH   1   2
BRANCH   1  70
ATOM     70  C   UNL A   1      43.086  21.303  25.987  1.00  0.00     0.275 C 
BRANCH  70  71
ATOM     71  O   UNL A   1      41.708  21.336  25.583  1.00  0.00    -0.458 OA
BRANCH  71  72
ATOM     72  C   UNL A   1      40.822  21.083  26.580  1.00  0.00     0.338 C 
ATOM     73  O   UNL A   1      40.994  20.370  27.554  1.00  0.00    -0.246 OA
BRANCH  72  74
ATOM     74  C   UNL A   1      39.640  21.945  26.411  1.00  0.00     0.062 A 
ATOM     75  C   UNL A   1      39.642  23.174  27.075  1.00  0.00     0.016 A 
ATOM     76  C   UNL A   1      38.551  21.562  25.618  1.00  0.00     0.044 A 
ATOM     77  C   UNL A   1      38.600  24.071  26.871  1.00  0.00     0.003 A 
ATOM     78  C   UNL A   1      37.476  22.448  25.446  1.00  0.00     0.067 A 
ATOM     79  C   UNL A   1      37.537  23.720  26.040  1.00  0.00     0.028 A 
BRANCH  78  80
ATOM     80  N   UNL A   1      36.268  22.033  24.808  1.00  0.00    -0.221 N 
ATOM     81  N   UNL A   1      35.366  21.320  25.607  1.00  0.00    -0.260 N 
ATOM     82  C   UNL A   1      35.876  22.574  23.580  1.00  0.00     0.249 C 
ATOM     83  C   UNL A   1      34.019  21.270  25.394  1.00  0.00     0.243 C 
ATOM     84  H   UNL A   1      35.729  20.821  26.374  1.00  0.00     0.192 HD
ATOM     85  C   UNL A   1      34.388  22.761  23.386  1.00  0.00     0.097 C 
ATOM     86  O   UNL A   1      36.660  23.045  22.752  1.00  0.00    -0.272 OA
ATOM     87  O   UNL A   1      33.291  20.779  26.254  1.00  0.00    -0.273 OA
ATOM     88  C   UNL A   1      33.540  21.668  24.020  1.00  0.00     0.097 C 
ATOM     89  C   UNL A   1      34.075  24.173  23.910  1.00  0.00     0.041 C 
ATOM     90  C   UNL A   1      32.039  22.001  23.991  1.00  0.00     0.041 C 
ATOM     91  C   UNL A   1      32.634  24.417  24.212  1.00  0.00    -0.030 C 
ATOM     92  C   UNL A   1      31.718  23.443  24.244  1.00  0.00    -0.030 C 
ENDBRANCH  78  80
ENDBRANCH  72  74
ENDBRANCH  71  72
ENDBRANCH  70  71
ENDBRANCH   1  70
TORSDOF 12
ENDMDL
MODEL 2
REMARK VINA RESULT:     -13.1      3.319      8.481
REMARK SMILES O=C(OCCOC(=O)c1cccc(N2NC(=O)[C@H]3CC=CC[C@H]3C2=O)c1)c1ccc(-c2c3nc(c(-c4c(F)c(F)c(F)c(F)c4F)c4ccc([nH]4)c(-c4c(F)c(F)c(F)c(F)c4F)c4nc(c(-c5c(F)c(F)c(F)c(F)c5F)c5ccc2[nH]5)C=C4)C=C3)cc1
REMARK SMILES IDX 4 1 3 2 2 3 1 4 27 5 28 6 89 7 29 8 88 9 30 10 31 11 32 12
REMARK SMILES IDX 82 13 33 14 87 15 81 16 83 17 34 18 86 19 80 20 79 21 35 23
REMARK SMILES IDX 67 24 47 25 66 26 48 27 51 28 65 29 84 30 49 31 50 32 64 34
REMARK SMILES IDX 85 35 52 36 36 37 37 38 45 39 38 40 39 41 43 42 46 43 40 44
REMARK SMILES IDX 41 45 44 46 42 47 68 48 69 49 77 50 70 51 71 52 75 53 78 54
REMARK SMILES IDX 72 55 73 56 76 57 74 58 53 59 54 60 62 61 55 62 56 63 60 64
REMARK SMILES IDX 63 65 57 66 58 67 61 68 59 69 5 70 6 71 7 72 8 73 9 74 10 75
REMARK SMILES IDX 26 76 11 77 13 78 12 79 14 80 15 81 24 82 16 83 23 85 25 86
REMARK SMILES IDX 17 87 18 88 22 89 19 90 21 91 20 92
REMARK H PARENT 83 22 51 33 15 84
REMARK Flexibility Score: inf
ROOT
ATOM      1  C   UNL A   1      31.639  32.300  27.071  1.00  0.00     0.275 C 
ENDROOT
BRANCH   1   2
ATOM      2  O   UNL A   1      32.254  33.597  27.194  1.00  0.00    -0.458 OA
BRANCH   2   3
ATOM      3  C   UNL A   1      32.923  34.147  28.234  1.00  0.00     0.338 C 
ATOM      4  O   UNL A   1      32.558  35.242  28.661  1.00  0.00    -0.246 OA
BRANCH   3   5
ATOM      5  C   UNL A   1      34.189  33.579  28.794  1.00  0.00     0.060 A 
ATOM      6  C   UNL A   1      35.484  33.970  28.455  1.00  0.00     0.016 A 
ATOM      7  C   UNL A   1      34.044  32.548  29.744  1.00  0.00     0.016 A 
ATOM      8  C   UNL A   1      36.594  33.412  29.094  1.00  0.00     0.010 A 
ATOM      9  C   UNL A   1      35.149  31.999  30.402  1.00  0.00     0.010 A 
ATOM     10  C   UNL A   1      36.436  32.429  30.072  1.00  0.00    -0.014 A 
BRANCH  10  11
ATOM     11  C   UNL A   1      37.639  31.755  30.607  1.00  0.00     0.031 A 
ATOM     12  C   UNL A   1      38.079  32.087  32.005  1.00  0.00     0.074 A 
ATOM     13  C   UNL A   1      38.244  30.777  29.906  1.00  0.00     0.049 A 
ATOM     14  N   UNL A   1      39.026  31.548  32.727  1.00  0.00    -0.248 NA
ATOM     15  C   UNL A   1      37.318  33.140  32.701  1.00  0.00     0.031 C 
ATOM     16  C   UNL A   1      37.847  30.308  28.578  1.00  0.00     0.029 A 
ATOM     17  N   UNL A   1      39.322  29.991  30.223  1.00  0.00    -0.354 N 
ATOM     18  C   UNL A   1      38.932  32.149  33.974  1.00  0.00     0.074 A 
ATOM     19  C   UNL A   1      37.895  33.153  33.892  1.00  0.00     0.031 C 
ATOM     20  C   UNL A   1      38.693  29.342  28.177  1.00  0.00     0.029 A 
ATOM     21  C   UNL A   1      39.685  29.124  29.222  1.00  0.00     0.049 A 
ATOM     22  H   UNL A   1      39.791  30.043  31.087  1.00  0.00     0.167 HD
ATOM     23  C   UNL A   1      39.617  31.854  35.102  1.00  0.00     0.037 A 
ATOM     24  C   UNL A   1      40.717  28.264  29.167  1.00  0.00     0.037 A 
ATOM     25  C   UNL A   1      40.684  30.892  35.161  1.00  0.00     0.049 A 
ATOM     26  C   UNL A   1      41.620  28.137  30.358  1.00  0.00     0.074 A 
ATOM     27  C   UNL A   1      41.471  30.532  36.240  1.00  0.00     0.029 A 
ATOM     28  N   UNL A   1      41.123  30.147  34.076  1.00  0.00    -0.354 N 
ATOM     29  N   UNL A   1      41.530  28.712  31.530  1.00  0.00    -0.248 NA
ATOM     30  C   UNL A   1      42.760  27.223  30.216  1.00  0.00     0.031 C 
ATOM     31  C   UNL A   1      42.418  29.602  35.795  1.00  0.00     0.029 A 
ATOM     32  C   UNL A   1      42.188  29.346  34.453  1.00  0.00     0.049 A 
ATOM     33  H   UNL A   1      40.737  30.184  33.171  1.00  0.00     0.167 HD
ATOM     34  C   UNL A   1      42.572  28.198  32.284  1.00  0.00     0.074 A 
ATOM     35  C   UNL A   1      43.293  27.277  31.427  1.00  0.00     0.031 C 
ATOM     36  C   UNL A   1      42.889  28.443  33.578  1.00  0.00     0.037 A 
BRANCH  23  37
ATOM     37  C   UNL A   1      39.221  32.581  36.352  1.00  0.00     0.064 A 
ATOM     38  C   UNL A   1      39.757  33.843  36.658  1.00  0.00     0.173 A 
ATOM     39  C   UNL A   1      38.303  32.023  37.251  1.00  0.00     0.173 A 
ATOM     40  F   UNL A   1      40.656  34.412  35.838  1.00  0.00    -0.203 F 
ATOM     41  C   UNL A   1      39.405  34.508  37.828  1.00  0.00     0.198 A 
ATOM     42  C   UNL A   1      37.934  32.702  38.411  1.00  0.00     0.198 A 
ATOM     43  F   UNL A   1      37.764  30.819  37.009  1.00  0.00    -0.203 F 
ATOM     44  F   UNL A   1      39.965  35.690  38.121  1.00  0.00    -0.200 F 
ATOM     45  C   UNL A   1      38.491  33.940  38.701  1.00  0.00     0.200 A 
ATOM     46  F   UNL A   1      37.046  32.155  39.252  1.00  0.00    -0.200 F 
ATOM     47  F   UNL A   1      38.151  34.580  39.829  1.00  0.00    -0.200 F 
ENDBRANCH  23  37
BRANCH  24  48
ATOM     48  C   UNL A   1      41.006  27.482  27.942  1.00  0.00     0.064 A 
ATOM     49  C   UNL A   1      40.573  26.160  27.786  1.00  0.00     0.173 A 
ATOM     50  C   UNL A   1      41.827  28.023  26.948  1.00  0.00     0.173 A 
ATOM     51  F   UNL A   1      39.835  25.580  28.744  1.00  0.00    -0.203 F 
ATOM     52  C   UNL A   1      40.951  25.410  26.673  1.00  0.00     0.198 A 
ATOM     53  C   UNL A   1      42.186  27.281  25.825  1.00  0.00     0.198 A 
ATOM     54  F   UNL A   1      42.307  29.268  27.083  1.00  0.00    -0.203 F 
ATOM     55  F   UNL A   1      40.567  24.130  26.567  1.00  0.00    -0.200 F 
ATOM     56  C   UNL A   1      41.751  25.972  25.690  1.00  0.00     0.200 A 
ATOM     57  F   UNL A   1      42.969  27.827  24.886  1.00  0.00    -0.200 F 
ATOM     58  F   UNL A   1      42.124  25.250  24.626  1.00  0.00    -0.200 F 
ENDBRANCH  24  48
BRANCH  36  59
ATOM     59  C   UNL A   1      44.019  27.644  34.150  1.00  0.00     0.064 A 
ATOM     60  C   UNL A   1      45.339  28.115  34.141  1.00  0.00     0.173 A 
ATOM     61  C   UNL A   1      43.770  26.377  34.697  1.00  0.00     0.173 A 
ATOM     62  F   UNL A   1      45.627  29.308  33.600  1.00  0.00    -0.203 F 
ATOM     63  C   UNL A   1      46.377  27.327  34.630  1.00  0.00     0.198 A 
ATOM     64  C   UNL A   1      44.805  25.607  35.215  1.00  0.00     0.198 A 
ATOM     65  F   UNL A   1      42.522  25.884  34.723  1.00  0.00    -0.203 F 
ATOM     66  F   UNL A   1      47.640  27.766  34.553  1.00  0.00    -0.200 F 
ATOM     67  C   UNL A   1      46.108  26.078  35.171  1.00  0.00     0.200 A 
ATOM     68  F   UNL A   1      44.544  24.403  35.742  1.00  0.00    -0.200 F 
ATOM     69  F   UNL A   1      47.110  25.319  35.635  1.00  0.00    -0.200 F 
ENDBRANCH  36  59
ENDBRANCH  10  11
ENDBRANCH   3   5
ENDBRANCH   2   3
ENDBRANCH   1   2
BRANCH   1  70
ATOM     70  C   UNL A   1      32.565  31.198  26.547  1.00  0.00     0.275 C 
BRANCH  70  71
ATOM     71  O   UNL A   1      32.307  29.912  27.131  1.00  0.00    -0.458 OA
BRANCH  71  72
ATOM     72  C   UNL A   1      33.326  29.022  27.009  1.00  0.00     0.338 C 
ATOM     73  O   UNL A   1      34.481  29.173  27.369  1.00  0.00    -0.246 OA
BRANCH  72  74
ATOM     74  C   UNL A   1      32.796  27.740  26.516  1.00  0.00     0.062 A 
ATOM     75  C   UNL A   1      31.407  27.604  26.446  1.00  0.00     0.016 A 
ATOM     76  C   UNL A   1      33.638  26.691  26.127  1.00  0.00     0.044 A 
ATOM     77  C   UNL A   1      30.852  26.456  25.894  1.00  0.00     0.003 A 
ATOM     78  C   UNL A   1      33.078  25.511  25.610  1.00  0.00     0.067 A 
ATOM     79  C   UNL A   1      31.684  25.428  25.455  1.00  0.00     0.028 A 
BRANCH  78  80
ATOM     80  N   UNL A   1      33.877  24.350  25.380  1.00  0.00    -0.221 N 
ATOM     81  N   UNL A   1      34.119  23.541  26.496  1.00  0.00    -0.260 N 
ATOM     82  C   UNL A   1      34.126  23.890  24.084  1.00  0.00     0.249 C 
ATOM     83  C   UNL A   1      34.395  22.206  26.437  1.00  0.00     0.243 C 
ATOM     84  H   UNL A   1      34.088  23.964  27.385  1.00  0.00     0.192 HD
ATOM     85  C   UNL A   1      34.206  22.388  23.922  1.00  0.00     0.097 C 
ATOM     86  O   UNL A   1      34.112  24.609  23.082  1.00  0.00    -0.272 OA
ATOM     87  O   UNL A   1      34.402  21.545  27.473  1.00  0.00    -0.273 OA
ATOM     88  C   UNL A   1      34.850  21.673  25.100  1.00  0.00     0.097 C 
ATOM     89  C   UNL A   1      32.769  21.925  23.623  1.00  0.00     0.041 C 
ATOM     90  C   UNL A   1      34.719  20.144  24.999  1.00  0.00     0.041 C 
ATOM     91  C   UNL A   1      32.528  20.469  23.844  1.00  0.00    -0.030 C 
ATOM     92  C   UNL A   1      33.406  19.667  24.458  1.00  0.00    -0.030 C 
ENDBRANCH  78  80
ENDBRANCH  72  74
ENDBRANCH  71  72
ENDBRANCH  70  71
ENDBRANCH   1  70
TORSDOF 12
ENDMDL
MODEL 3
REMARK VINA RESULT:     -13.1      0.374      1.635
REMARK SMILES O=C(OCCOC(=O)c1cccc(N2NC(=O)[C@H]3CC=CC[C@H]3C2=O)c1)c1ccc(-c2c3nc(c(-c4c(F)c(F)c(F)c(F)c4F)c4ccc([nH]4)c(-c4c(F)c(F)c(F)c(F)c4F)c4nc(c(-c5c(F)c(F)c(F)c(F)c5F)c5ccc2[nH]5)C=C4)C=C3)cc1
REMARK SMILES IDX 4 1 3 2 2 3 1 4 27 5 28 6 89 7 29 8 88 9 30 10 31 11 32 12
REMARK SMILES IDX 82 13 33 14 87 15 81 16 83 17 34 18 86 19 80 20 79 21 35 23
REMARK SMILES IDX 67 24 47 25 66 26 48 27 51 28 65 29 84 30 49 31 50 32 64 34
REMARK SMILES IDX 85 35 52 36 36 37 37 38 45 39 38 40 39 41 43 42 46 43 40 44
REMARK SMILES IDX 41 45 44 46 42 47 68 48 69 49 77 50 70 51 71 52 75 53 78 54
REMARK SMILES IDX 72 55 73 56 76 57 74 58 53 59 54 60 62 61 55 62 56 63 60 64
REMARK SMILES IDX 63 65 57 66 58 67 61 68 59 69 5 70 6 71 7 72 8 73 9 74 10 75
REMARK SMILES IDX 26 76 11 77 13 78 12 79 14 80 15 81 24 82 16 83 23 85 25 86
REMARK SMILES IDX 17 87 18 88 22 89 19 90 21 91 20 92
REMARK H PARENT 83 22 51 33 15 84
REMARK Flexibility Score: inf
ROOT
ATOM      1  C   UNL A   1      44.292  21.694  25.281  1.00  0.00     0.275 C 
ENDROOT
BRANCH   1   2
ATOM      2  O   UNL A   1      43.948  22.993  24.763  1.00  0.00    -0.458 OA
BRANCH   2   3
ATOM      3  C   UNL A   1      44.452  24.212  25.067  1.00  0.00     0.338 C 
ATOM      4  O   UNL A   1      45.515  24.559  24.553  1.00  0.00    -0.246 OA
BRANCH   3   5
ATOM      5  C   UNL A   1      43.878  25.104  26.124  1.00  0.00     0.060 A 
ATOM      6  C   UNL A   1      44.219  26.437  26.346  1.00  0.00     0.016 A 
ATOM      7  C   UNL A   1      42.912  24.525  26.971  1.00  0.00     0.016 A 
ATOM      8  C   UNL A   1      43.567  27.194  27.323  1.00  0.00     0.010 A 
ATOM      9  C   UNL A   1      42.241  25.280  27.938  1.00  0.00     0.010 A 
ATOM     10  C   UNL A   1      42.572  26.624  28.121  1.00  0.00    -0.014 A 
BRANCH  10  11
ATOM     11  C   UNL A   1      42.022  27.412  29.245  1.00  0.00     0.031 A 
ATOM     12  C   UNL A   1      42.734  27.356  30.568  1.00  0.00     0.074 A 
ATOM     13  C   UNL A   1      40.990  28.255  29.050  1.00  0.00     0.049 A 
ATOM     14  N   UNL A   1      42.511  28.041  31.659  1.00  0.00    -0.248 NA
ATOM     15  C   UNL A   1      43.881  26.436  30.660  1.00  0.00     0.031 C 
ATOM     16  C   UNL A   1      40.282  28.458  27.786  1.00  0.00     0.029 A 
ATOM     17  N   UNL A   1      40.362  29.109  29.919  1.00  0.00    -0.354 N 
ATOM     18  C   UNL A   1      43.523  27.681  32.538  1.00  0.00     0.074 A 
ATOM     19  C   UNL A   1      44.313  26.658  31.891  1.00  0.00     0.031 C 
ATOM     20  C   UNL A   1      39.292  29.351  27.970  1.00  0.00     0.029 A 
ATOM     21  C   UNL A   1      39.303  29.782  29.363  1.00  0.00     0.049 A 
ATOM     22  H   UNL A   1      40.645  29.230  30.855  1.00  0.00     0.167 HD
ATOM     23  C   UNL A   1      43.798  28.197  33.758  1.00  0.00     0.037 A 
ATOM     24  C   UNL A   1      38.437  30.638  29.933  1.00  0.00     0.037 A 
ATOM     25  C   UNL A   1      42.977  29.176  34.416  1.00  0.00     0.049 A 
ATOM     26  C   UNL A   1      38.624  31.005  31.375  1.00  0.00     0.074 A 
ATOM     27  C   UNL A   1      43.137  29.747  35.665  1.00  0.00     0.029 A 
ATOM     28  N   UNL A   1      41.818  29.714  33.873  1.00  0.00    -0.354 N 
ATOM     29  N   UNL A   1      39.577  30.656  32.202  1.00  0.00    -0.248 NA
ATOM     30  C   UNL A   1      37.614  31.900  31.955  1.00  0.00     0.031 C 
ATOM     31  C   UNL A   1      42.050  30.598  35.896  1.00  0.00     0.029 A 
ATOM     32  C   UNL A   1      41.240  30.594  34.773  1.00  0.00     0.049 A 
ATOM     33  H   UNL A   1      41.460  29.501  32.982  1.00  0.00     0.167 HD
ATOM     34  C   UNL A   1      39.313  31.325  33.386  1.00  0.00     0.074 A 
ATOM     35  C   UNL A   1      38.096  32.085  33.174  1.00  0.00     0.031 C 
ATOM     36  C   UNL A   1      40.027  31.333  34.537  1.00  0.00     0.037 A 
BRANCH  23  37
ATOM     37  C   UNL A   1      45.040  27.708  34.442  1.00  0.00     0.064 A 
ATOM     38  C   UNL A   1      45.011  26.574  35.272  1.00  0.00     0.173 A 
ATOM     39  C   UNL A   1      46.264  28.366  34.272  1.00  0.00     0.173 A 
ATOM     40  F   UNL A   1      43.858  25.920  35.483  1.00  0.00    -0.203 F 
ATOM     41  C   UNL A   1      46.159  26.134  35.923  1.00  0.00     0.198 A 
ATOM     42  C   UNL A   1      47.417  27.908  34.907  1.00  0.00     0.198 A 
ATOM     43  F   UNL A   1      46.345  29.456  33.493  1.00  0.00    -0.203 F 
ATOM     44  F   UNL A   1      46.098  25.078  36.746  1.00  0.00    -0.200 F 
ATOM     45  C   UNL A   1      47.361  26.797  35.737  1.00  0.00     0.200 A 
ATOM     46  F   UNL A   1      48.580  28.547  34.722  1.00  0.00    -0.200 F 
ATOM     47  F   UNL A   1      48.467  26.372  36.364  1.00  0.00    -0.200 F 
ENDBRANCH  23  37
BRANCH  24  48
ATOM     48  C   UNL A   1      37.282  31.183  29.181  1.00  0.00     0.064 A 
ATOM     49  C   UNL A   1      37.200  32.535  28.826  1.00  0.00     0.173 A 
ATOM     50  C   UNL A   1      36.181  30.366  28.907  1.00  0.00     0.173 A 
ATOM     51  F   UNL A   1      38.207  33.368  29.125  1.00  0.00    -0.203 F 
ATOM     52  C   UNL A   1      36.054  33.045  28.216  1.00  0.00     0.198 A 
ATOM     53  C   UNL A   1      35.046  30.872  28.278  1.00  0.00     0.198 A 
ATOM     54  F   UNL A   1      36.198  29.077  29.279  1.00  0.00    -0.203 F 
ATOM     55  F   UNL A   1      35.975  34.352  27.928  1.00  0.00    -0.200 F 
ATOM     56  C   UNL A   1      34.981  32.213  27.937  1.00  0.00     0.200 A 
ATOM     57  F   UNL A   1      34.009  30.064  28.023  1.00  0.00    -0.200 F 
ATOM     58  F   UNL A   1      33.876  32.704  27.361  1.00  0.00    -0.200 F 
ENDBRANCH  24  48
BRANCH  36  59
ATOM     59  C   UNL A   1      39.540  32.248  35.617  1.00  0.00     0.064 A 
ATOM     60  C   UNL A   1      38.620  31.828  36.588  1.00  0.00     0.173 A 
ATOM     61  C   UNL A   1      39.992  33.576  35.662  1.00  0.00     0.173 A 
ATOM     62  F   UNL A   1      38.139  30.576  36.564  1.00  0.00    -0.203 F 
ATOM     63  C   UNL A   1      38.143  32.717  37.547  1.00  0.00     0.198 A 
ATOM     64  C   UNL A   1      39.538  34.451  36.642  1.00  0.00     0.198 A 
ATOM     65  F   UNL A   1      40.869  34.023  34.751  1.00  0.00    -0.203 F 
ATOM     66  F   UNL A   1      37.215  32.315  38.425  1.00  0.00    -0.200 F 
ATOM     67  C   UNL A   1      38.607  34.024  37.576  1.00  0.00     0.200 A 
ATOM     68  F   UNL A   1      39.990  35.712  36.673  1.00  0.00    -0.200 F 
ATOM     69  F   UNL A   1      38.141  34.879  38.496  1.00  0.00    -0.200 F 
ENDBRANCH  36  59
ENDBRANCH  10  11
ENDBRANCH   3   5
ENDBRANCH   2   3
ENDBRANCH   1   2
BRANCH   1  70
ATOM     70  C   UNL A   1      43.110  20.887  25.827  1.00  0.00     0.275 C 
BRANCH  70  71
ATOM     71  O   UNL A   1      41.841  21.525  25.621  1.00  0.00    -0.458 OA
BRANCH  71  72
ATOM     72  C   UNL A   1      40.824  21.012  26.362  1.00  0.00     0.338 C 
ATOM     73  O   UNL A   1      40.876  20.059  27.121  1.00  0.00    -0.246 OA
BRANCH  72  74
ATOM     74  C   UNL A   1      39.648  21.891  26.250  1.00  0.00     0.062 A 
ATOM     75  C   UNL A   1      39.685  23.103  26.944  1.00  0.00     0.016 A 
ATOM     76  C   UNL A   1      38.532  21.542  25.479  1.00  0.00     0.044 A 
ATOM     77  C   UNL A   1      38.648  24.017  26.794  1.00  0.00     0.003 A 
ATOM     78  C   UNL A   1      37.463  22.444  25.362  1.00  0.00     0.067 A 
ATOM     79  C   UNL A   1      37.558  23.699  25.987  1.00  0.00     0.028 A 
BRANCH  78  80
ATOM     80  N   UNL A   1      36.232  22.059  24.749  1.00  0.00    -0.221 N 
ATOM     81  N   UNL A   1      35.347  21.334  25.555  1.00  0.00    -0.260 N 
ATOM     82  C   UNL A   1      35.811  22.638  23.548  1.00  0.00     0.249 C 
ATOM     83  C   UNL A   1      33.993  21.304  25.382  1.00  0.00     0.243 C 
ATOM     84  H   UNL A   1      35.726  20.811  26.298  1.00  0.00     0.192 HD
ATOM     85  C   UNL A   1      34.319  22.845  23.405  1.00  0.00     0.097 C 
ATOM     86  O   UNL A   1      36.576  23.122  22.711  1.00  0.00    -0.272 OA
ATOM     87  O   UNL A   1      33.286  20.798  26.250  1.00  0.00    -0.273 OA
ATOM     88  C   UNL A   1      33.479  21.745  24.034  1.00  0.00     0.097 C 
ATOM     89  C   UNL A   1      34.039  24.246  23.975  1.00  0.00     0.041 C 
ATOM     90  C   UNL A   1      31.981  22.094  24.059  1.00  0.00     0.041 C 
ATOM     91  C   UNL A   1      32.610  24.497  24.326  1.00  0.00    -0.030 C 
ATOM     92  C   UNL A   1      31.684  23.532  24.359  1.00  0.00    -0.030 C 
ENDBRANCH  78  80
ENDBRANCH  72  74
ENDBRANCH  71  72
ENDBRANCH  70  71
ENDBRANCH   1  70
TORSDOF 12
ENDMDL
