MODEL 1
REMARK VINA RESULT:     -11.5      0.000      0.000
REMARK SMILES CC[C@H](C(=O)OCCOC(=O)c1ccc(-c2c3nc(c(-c4c(F)c(F)c(F)c(F)c4F)c4ccc([nH]4)c(-c4c(F)c(F)c(F)c(F)c4F)c4nc(c(-c5c(F)c(F)c(F)c(F)c5F)c5ccc2[nH]5)C=C4)C=C3)cc1)N(C)c1cc(C)ccc1[N+](=O)[O-]
REMARK SMILES IDX 7 1 6 2 4 3 5 4 3 5 2 6 1 7 75 8 76 9 77 10 78 11 83 12
REMARK SMILES IDX 79 13 82 14 80 15 81 16 84 17 85 18 86 19 8 20 9 21 10 22
REMARK SMILES IDX 11 23 12 24 13 25 74 26 14 27 73 28 15 29 16 30 17 31 67 32
REMARK SMILES IDX 18 33 72 34 66 35 68 36 19 37 71 38 65 39 64 40 20 42 52 43
REMARK SMILES IDX 32 44 51 45 33 46 36 47 50 48 69 49 34 50 35 51 49 53 70 54
REMARK SMILES IDX 37 55 21 56 22 57 30 58 23 59 24 60 28 61 31 62 25 63 26 64
REMARK SMILES IDX 29 65 27 66 53 67 54 68 62 69 55 70 56 71 60 72 63 73 57 74
REMARK SMILES IDX 58 75 61 76 59 77 38 78 39 79 47 80 40 81 41 82 45 83 48 84
REMARK SMILES IDX 42 85 43 86 46 87 44 88
REMARK H PARENT 68 41 36 52
REMARK Flexibility Score: inf
ROOT
ATOM      1  C   UNL A   1      31.551  28.533  27.294  1.00  0.00     0.274 C 
ENDROOT
BRANCH   1   2
ATOM      2  O   UNL A   1      31.048  27.200  26.998  1.00  0.00    -0.461 OA
BRANCH   2   3
ATOM      3  C   UNL A   1      31.953  26.439  26.341  1.00  0.00     0.328 C 
ATOM      4  O   UNL A   1      33.149  26.657  26.427  1.00  0.00    -0.250 OA
BRANCH   3   5
ATOM      5  C   UNL A   1      31.439  25.214  25.599  1.00  0.00     0.192 C 
BRANCH   5   6
ATOM      6  C   UNL A   1      30.542  24.158  26.255  1.00  0.00     0.034 C 
ATOM      7  C   UNL A   1      31.188  22.931  26.864  1.00  0.00     0.007 C 
ENDBRANCH   5   6
BRANCH   5   8
ATOM      8  N   UNL A   1      30.991  25.563  24.194  1.00  0.00    -0.356 N 
ATOM      9  C   UNL A   1      30.667  24.361  23.390  1.00  0.00     0.145 C 
BRANCH   8  10
ATOM     10  C   UNL A   1      30.848  26.829  23.592  1.00  0.00     0.116 A 
ATOM     11  C   UNL A   1      29.529  27.374  23.550  1.00  0.00     0.036 A 
ATOM     12  C   UNL A   1      31.791  27.688  22.957  1.00  0.00     0.292 A 
ATOM     13  C   UNL A   1      29.173  28.604  22.954  1.00  0.00    -0.049 A 
ATOM     14  C   UNL A   1      31.464  28.984  22.475  1.00  0.00     0.088 A 
ATOM     15  C   UNL A   1      27.728  28.977  22.795  1.00  0.00     0.044 C 
ATOM     16  C   UNL A   1      30.163  29.442  22.484  1.00  0.00     0.010 A 
BRANCH  12  17
ATOM     17  N   UNL A   1      33.144  27.356  22.529  1.00  0.00     0.064 N 
ATOM     18  O   UNL A   1      34.062  27.614  23.328  1.00  0.00    -0.258 OA
ATOM     19  O   UNL A   1      33.279  26.680  21.501  1.00  0.00    -0.258 OA
ENDBRANCH  12  17
ENDBRANCH   8  10
ENDBRANCH   5   8
ENDBRANCH   3   5
ENDBRANCH   2   3
ENDBRANCH   1   2
BRANCH   1  20
ATOM     20  C   UNL A   1      31.733  29.501  26.089  1.00  0.00     0.275 C 
BRANCH  20  21
ATOM     21  O   UNL A   1      33.054  30.106  25.993  1.00  0.00    -0.458 OA
BRANCH  21  22
ATOM     22  C   UNL A   1      33.304  31.162  26.817  1.00  0.00     0.338 C 
ATOM     23  O   UNL A   1      32.527  32.070  27.077  1.00  0.00    -0.246 OA
BRANCH  22  24
ATOM     24  C   UNL A   1      34.576  30.992  27.579  1.00  0.00     0.060 A 
ATOM     25  C   UNL A   1      34.855  29.706  28.048  1.00  0.00     0.016 A 
ATOM     26  C   UNL A   1      35.445  32.030  27.914  1.00  0.00     0.016 A 
ATOM     27  C   UNL A   1      36.022  29.420  28.759  1.00  0.00     0.010 A 
ATOM     28  C   UNL A   1      36.600  31.756  28.684  1.00  0.00     0.010 A 
ATOM     29  C   UNL A   1      36.907  30.445  29.095  1.00  0.00    -0.014 A 
BRANCH  29  30
ATOM     30  C   UNL A   1      38.101  30.108  29.921  1.00  0.00     0.031 A 
ATOM     31  C   UNL A   1      39.227  29.318  29.318  1.00  0.00     0.074 A 
ATOM     32  C   UNL A   1      38.244  30.597  31.166  1.00  0.00     0.049 A 
ATOM     33  N   UNL A   1      40.316  28.858  29.883  1.00  0.00    -0.248 NA
ATOM     34  C   UNL A   1      39.117  29.014  27.885  1.00  0.00     0.031 C 
ATOM     35  C   UNL A   1      37.289  31.478  31.828  1.00  0.00     0.029 A 
ATOM     36  N   UNL A   1      39.258  30.451  32.086  1.00  0.00    -0.354 N 
ATOM     37  C   UNL A   1      40.990  28.157  28.892  1.00  0.00     0.074 A 
ATOM     38  C   UNL A   1      40.215  28.300  27.677  1.00  0.00     0.031 C 
ATOM     39  C   UNL A   1      37.776  31.822  33.033  1.00  0.00     0.029 A 
ATOM     40  C   UNL A   1      39.046  31.137  33.261  1.00  0.00     0.049 A 
ATOM     41  H   UNL A   1      40.062  29.907  31.920  1.00  0.00     0.167 HD
ATOM     42  C   UNL A   1      42.126  27.426  29.001  1.00  0.00     0.037 A 
ATOM     43  C   UNL A   1      39.774  31.178  34.397  1.00  0.00     0.037 A 
ATOM     44  C   UNL A   1      42.890  27.283  30.214  1.00  0.00     0.049 A 
ATOM     45  C   UNL A   1      40.998  30.299  34.515  1.00  0.00     0.074 A 
ATOM     46  C   UNL A   1      44.024  26.518  30.436  1.00  0.00     0.029 A 
ATOM     47  N   UNL A   1      42.598  27.915  31.413  1.00  0.00    -0.354 N 
ATOM     48  N   UNL A   1      41.587  29.568  33.601  1.00  0.00    -0.248 NA
ATOM     49  C   UNL A   1      41.624  30.207  35.845  1.00  0.00     0.031 C 
ATOM     50  C   UNL A   1      44.378  26.639  31.783  1.00  0.00     0.029 A 
ATOM     51  C   UNL A   1      43.505  27.529  32.388  1.00  0.00     0.049 A 
ATOM     52  H   UNL A   1      41.853  28.545  31.552  1.00  0.00     0.167 HD
ATOM     53  C   UNL A   1      42.632  28.915  34.245  1.00  0.00     0.074 A 
ATOM     54  C   UNL A   1      42.635  29.381  35.616  1.00  0.00     0.031 C 
ATOM     55  C   UNL A   1      43.492  27.989  33.753  1.00  0.00     0.037 A 
BRANCH  42  56
ATOM     56  C   UNL A   1      42.542  26.627  27.801  1.00  0.00     0.064 A 
ATOM     57  C   UNL A   1      43.466  27.103  26.862  1.00  0.00     0.173 A 
ATOM     58  C   UNL A   1      41.994  25.350  27.593  1.00  0.00     0.173 A 
ATOM     59  F   UNL A   1      44.005  28.323  27.004  1.00  0.00    -0.203 F 
ATOM     60  C   UNL A   1      43.801  26.345  25.741  1.00  0.00     0.198 A 
ATOM     61  C   UNL A   1      42.354  24.582  26.490  1.00  0.00     0.198 A 
ATOM     62  F   UNL A   1      41.107  24.844  28.465  1.00  0.00    -0.203 F 
ATOM     63  F   UNL A   1      44.641  26.844  24.824  1.00  0.00    -0.200 F 
ATOM     64  C   UNL A   1      43.249  25.086  25.559  1.00  0.00     0.200 A 
ATOM     65  F   UNL A   1      41.829  23.360  26.325  1.00  0.00    -0.200 F 
ATOM     66  F   UNL A   1      43.571  24.359  24.480  1.00  0.00    -0.200 F 
ENDBRANCH  42  56
BRANCH  43  67
ATOM     67  C   UNL A   1      39.345  32.018  35.554  1.00  0.00     0.064 A 
ATOM     68  C   UNL A   1      38.481  31.507  36.536  1.00  0.00     0.173 A 
ATOM     69  C   UNL A   1      39.744  33.357  35.683  1.00  0.00     0.173 A 
ATOM     70  F   UNL A   1      38.034  30.246  36.445  1.00  0.00    -0.203 F 
ATOM     71  C   UNL A   1      38.029  32.304  37.589  1.00  0.00     0.198 A 
ATOM     72  C   UNL A   1      39.326  34.139  36.759  1.00  0.00     0.198 A 
ATOM     73  F   UNL A   1      40.546  33.913  34.763  1.00  0.00    -0.203 F 
ATOM     74  F   UNL A   1      37.156  31.806  38.476  1.00  0.00    -0.200 F 
ATOM     75  C   UNL A   1      38.461  33.615  37.706  1.00  0.00     0.200 A 
ATOM     76  F   UNL A   1      39.757  35.403  36.873  1.00  0.00    -0.200 F 
ATOM     77  F   UNL A   1      38.033  34.378  38.721  1.00  0.00    -0.200 F 
ENDBRANCH  43  67
BRANCH  55  78
ATOM     78  C   UNL A   1      44.497  27.399  34.703  1.00  0.00     0.064 A 
ATOM     79  C   UNL A   1      45.730  28.025  34.944  1.00  0.00     0.173 A 
ATOM     80  C   UNL A   1      44.204  26.232  35.427  1.00  0.00     0.173 A 
ATOM     81  F   UNL A   1      46.066  29.135  34.268  1.00  0.00    -0.203 F 
ATOM     82  C   UNL A   1      46.637  27.498  35.860  1.00  0.00     0.198 A 
ATOM     83  C   UNL A   1      45.100  25.725  36.365  1.00  0.00     0.198 A 
ATOM     84  F   UNL A   1      43.038  25.596  35.240  1.00  0.00    -0.203 F 
ATOM     85  F   UNL A   1      47.824  28.092  36.043  1.00  0.00    -0.200 F 
ATOM     86  C   UNL A   1      46.317  26.355  36.576  1.00  0.00     0.200 A 
ATOM     87  F   UNL A   1      44.783  24.628  37.067  1.00  0.00    -0.200 F 
ATOM     88  F   UNL A   1      47.185  25.857  37.469  1.00  0.00    -0.200 F 
ENDBRANCH  55  78
ENDBRANCH  29  30
ENDBRANCH  22  24
ENDBRANCH  21  22
ENDBRANCH  20  21
ENDBRANCH   1  20
TORSDOF 15
ENDMDL
MODEL 2
REMARK VINA RESULT:     -11.3      1.761      3.177
REMARK SMILES CC[C@H](C(=O)OCCOC(=O)c1ccc(-c2c3nc(c(-c4c(F)c(F)c(F)c(F)c4F)c4ccc([nH]4)c(-c4c(F)c(F)c(F)c(F)c4F)c4nc(c(-c5c(F)c(F)c(F)c(F)c5F)c5ccc2[nH]5)C=C4)C=C3)cc1)N(C)c1cc(C)ccc1[N+](=O)[O-]
REMARK SMILES IDX 7 1 6 2 4 3 5 4 3 5 2 6 1 7 75 8 76 9 77 10 78 11 83 12
REMARK SMILES IDX 79 13 82 14 80 15 81 16 84 17 85 18 86 19 8 20 9 21 10 22
REMARK SMILES IDX 11 23 12 24 13 25 74 26 14 27 73 28 15 29 16 30 17 31 67 32
REMARK SMILES IDX 18 33 72 34 66 35 68 36 19 37 71 38 65 39 64 40 20 42 52 43
REMARK SMILES IDX 32 44 51 45 33 46 36 47 50 48 69 49 34 50 35 51 49 53 70 54
REMARK SMILES IDX 37 55 21 56 22 57 30 58 23 59 24 60 28 61 31 62 25 63 26 64
REMARK SMILES IDX 29 65 27 66 53 67 54 68 62 69 55 70 56 71 60 72 63 73 57 74
REMARK SMILES IDX 58 75 61 76 59 77 38 78 39 79 47 80 40 81 41 82 45 83 48 84
REMARK SMILES IDX 42 85 43 86 46 87 44 88
REMARK H PARENT 68 41 36 52
REMARK Flexibility Score: inf
ROOT
ATOM      1  C   UNL A   1      31.425  28.633  24.411  1.00  0.00     0.274 C 
ENDROOT
BRANCH   1   2
ATOM      2  O   UNL A   1      31.286  27.335  25.055  1.00  0.00    -0.461 OA
BRANCH   2   3
ATOM      3  C   UNL A   1      32.364  26.541  24.855  1.00  0.00     0.328 C 
ATOM      4  O   UNL A   1      33.482  26.892  25.184  1.00  0.00    -0.250 OA
BRANCH   3   5
ATOM      5  C   UNL A   1      32.115  25.135  24.328  1.00  0.00     0.192 C 
BRANCH   5   6
ATOM      6  C   UNL A   1      32.478  24.702  22.903  1.00  0.00     0.034 C 
ATOM      7  C   UNL A   1      32.314  25.699  21.775  1.00  0.00     0.007 C 
ENDBRANCH   5   6
BRANCH   5   8
ATOM      8  N   UNL A   1      32.469  24.084  25.362  1.00  0.00    -0.356 N 
ATOM      9  C   UNL A   1      31.533  24.084  26.511  1.00  0.00     0.145 C 
BRANCH   8  10
ATOM     10  C   UNL A   1      33.525  23.151  25.360  1.00  0.00     0.116 A 
ATOM     11  C   UNL A   1      34.830  23.658  25.646  1.00  0.00     0.036 A 
ATOM     12  C   UNL A   1      33.555  21.754  25.080  1.00  0.00     0.292 A 
ATOM     13  C   UNL A   1      36.018  22.896  25.651  1.00  0.00    -0.049 A 
ATOM     14  C   UNL A   1      34.724  20.957  25.213  1.00  0.00     0.088 A 
ATOM     15  C   UNL A   1      37.351  23.575  25.768  1.00  0.00     0.044 C 
ATOM     16  C   UNL A   1      35.946  21.525  25.507  1.00  0.00     0.010 A 
BRANCH  12  17
ATOM     17  N   UNL A   1      32.510  20.953  24.456  1.00  0.00     0.064 N 
ATOM     18  O   UNL A   1      32.310  21.142  23.242  1.00  0.00    -0.258 OA
ATOM     19  O   UNL A   1      32.026  20.020  25.108  1.00  0.00    -0.258 OA
ENDBRANCH  12  17
ENDBRANCH   8  10
ENDBRANCH   5   8
ENDBRANCH   3   5
ENDBRANCH   2   3
ENDBRANCH   1   2
BRANCH   1  20
ATOM     20  C   UNL A   1      31.592  29.868  25.344  1.00  0.00     0.275 C 
BRANCH  20  21
ATOM     21  O   UNL A   1      32.952  30.091  25.813  1.00  0.00    -0.458 OA
BRANCH  21  22
ATOM     22  C   UNL A   1      33.131  31.100  26.711  1.00  0.00     0.338 C 
ATOM     23  O   UNL A   1      32.303  31.947  27.014  1.00  0.00    -0.246 OA
BRANCH  22  24
ATOM     24  C   UNL A   1      34.397  30.945  27.486  1.00  0.00     0.060 A 
ATOM     25  C   UNL A   1      34.701  29.656  27.932  1.00  0.00     0.016 A 
ATOM     26  C   UNL A   1      35.236  31.997  27.853  1.00  0.00     0.016 A 
ATOM     27  C   UNL A   1      35.865  29.384  28.653  1.00  0.00     0.010 A 
ATOM     28  C   UNL A   1      36.387  31.734  28.633  1.00  0.00     0.010 A 
ATOM     29  C   UNL A   1      36.721  30.422  29.022  1.00  0.00    -0.014 A 
BRANCH  29  30
ATOM     30  C   UNL A   1      37.912  30.097  29.856  1.00  0.00     0.031 A 
ATOM     31  C   UNL A   1      39.052  29.322  29.261  1.00  0.00     0.074 A 
ATOM     32  C   UNL A   1      38.039  30.586  31.104  1.00  0.00     0.049 A 
ATOM     33  N   UNL A   1      40.141  28.873  29.834  1.00  0.00    -0.248 NA
ATOM     34  C   UNL A   1      38.957  29.019  27.826  1.00  0.00     0.031 C 
ATOM     35  C   UNL A   1      37.069  31.454  31.760  1.00  0.00     0.029 A 
ATOM     36  N   UNL A   1      39.048  30.449  32.032  1.00  0.00    -0.354 N 
ATOM     37  C   UNL A   1      40.831  28.182  28.846  1.00  0.00     0.074 A 
ATOM     38  C   UNL A   1      40.064  28.318  27.626  1.00  0.00     0.031 C 
ATOM     39  C   UNL A   1      37.542  31.801  32.970  1.00  0.00     0.029 A 
ATOM     40  C   UNL A   1      38.818  31.129  33.206  1.00  0.00     0.049 A 
ATOM     41  H   UNL A   1      39.859  29.914  31.870  1.00  0.00     0.167 HD
ATOM     42  C   UNL A   1      41.974  27.463  28.963  1.00  0.00     0.037 A 
ATOM     43  C   UNL A   1      39.537  31.177  34.348  1.00  0.00     0.037 A 
ATOM     44  C   UNL A   1      42.731  27.326  30.181  1.00  0.00     0.049 A 
ATOM     45  C   UNL A   1      40.770  30.311  34.474  1.00  0.00     0.074 A 
ATOM     46  C   UNL A   1      43.871  26.574  30.411  1.00  0.00     0.029 A 
ATOM     47  N   UNL A   1      42.421  27.952  31.380  1.00  0.00    -0.354 N 
ATOM     48  N   UNL A   1      41.374  29.589  33.563  1.00  0.00    -0.248 NA
ATOM     49  C   UNL A   1      41.386  30.223  35.808  1.00  0.00     0.031 C 
ATOM     50  C   UNL A   1      44.213  26.696  31.761  1.00  0.00     0.029 A 
ATOM     51  C   UNL A   1      43.325  27.574  32.361  1.00  0.00     0.049 A 
ATOM     52  H   UNL A   1      41.668  28.573  31.514  1.00  0.00     0.167 HD
ATOM     53  C   UNL A   1      42.422  28.947  34.214  1.00  0.00     0.074 A 
ATOM     54  C   UNL A   1      42.408  29.410  35.585  1.00  0.00     0.031 C 
ATOM     55  C   UNL A   1      43.296  28.031  33.727  1.00  0.00     0.037 A 
BRANCH  42  56
ATOM     56  C   UNL A   1      42.409  26.672  27.765  1.00  0.00     0.064 A 
ATOM     57  C   UNL A   1      43.370  27.141  26.859  1.00  0.00     0.173 A 
ATOM     58  C   UNL A   1      41.841  25.409  27.523  1.00  0.00     0.173 A 
ATOM     59  F   UNL A   1      43.929  28.348  27.034  1.00  0.00    -0.203 F 
ATOM     60  C   UNL A   1      43.722  26.391  25.738  1.00  0.00     0.198 A 
ATOM     61  C   UNL A   1      42.218  24.649  26.420  1.00  0.00     0.198 A 
ATOM     62  F   UNL A   1      40.920  24.911  28.362  1.00  0.00    -0.203 F 
ATOM     63  F   UNL A   1      44.599  26.884  24.853  1.00  0.00    -0.200 F 
ATOM     64  C   UNL A   1      43.150  25.146  25.523  1.00  0.00     0.200 A 
ATOM     65  F   UNL A   1      41.674  23.440  26.224  1.00  0.00    -0.200 F 
ATOM     66  F   UNL A   1      43.488  24.427  24.444  1.00  0.00    -0.200 F 
ENDBRANCH  42  56
BRANCH  43  67
ATOM     67  C   UNL A   1      39.089  32.009  35.503  1.00  0.00     0.064 A 
ATOM     68  C   UNL A   1      39.490  33.349  35.627  1.00  0.00     0.173 A 
ATOM     69  C   UNL A   1      38.293  31.479  36.530  1.00  0.00     0.173 A 
ATOM     70  F   UNL A   1      40.284  33.899  34.697  1.00  0.00    -0.203 F 
ATOM     71  C   UNL A   1      39.123  34.116  36.734  1.00  0.00     0.198 A 
ATOM     72  C   UNL A   1      37.890  32.260  37.613  1.00  0.00     0.198 A 
ATOM     73  F   UNL A   1      37.898  30.199  36.484  1.00  0.00    -0.203 F 
ATOM     74  F   UNL A   1      39.574  35.373  36.854  1.00  0.00    -0.200 F 
ATOM     75  C   UNL A   1      38.314  33.574  37.720  1.00  0.00     0.200 A 
ATOM     76  F   UNL A   1      37.098  31.734  38.557  1.00  0.00    -0.200 F 
ATOM     77  F   UNL A   1      37.955  34.313  38.778  1.00  0.00    -0.200 F 
ENDBRANCH  43  67
BRANCH  55  78
ATOM     78  C   UNL A   1      44.300  27.450  34.684  1.00  0.00     0.064 A 
ATOM     79  C   UNL A   1      45.524  28.090  34.934  1.00  0.00     0.173 A 
ATOM     80  C   UNL A   1      44.013  26.280  35.403  1.00  0.00     0.173 A 
ATOM     81  F   UNL A   1      45.854  29.204  34.263  1.00  0.00    -0.203 F 
ATOM     82  C   UNL A   1      46.430  27.570  35.857  1.00  0.00     0.198 A 
ATOM     83  C   UNL A   1      44.908  25.781  36.347  1.00  0.00     0.198 A 
ATOM     84  F   UNL A   1      42.856  25.632  35.207  1.00  0.00    -0.203 F 
ATOM     85  F   UNL A   1      47.609  28.177  36.050  1.00  0.00    -0.200 F 
ATOM     86  C   UNL A   1      46.117  26.423  36.569  1.00  0.00     0.200 A 
ATOM     87  F   UNL A   1      44.598  24.680  37.046  1.00  0.00    -0.200 F 
ATOM     88  F   UNL A   1      46.983  25.933  37.467  1.00  0.00    -0.200 F 
ENDBRANCH  55  78
ENDBRANCH  29  30
ENDBRANCH  22  24
ENDBRANCH  21  22
ENDBRANCH  20  21
ENDBRANCH   1  20
TORSDOF 15
ENDMDL
MODEL 3
REMARK VINA RESULT:     -11.3      1.466      2.944
REMARK SMILES CC[C@H](C(=O)OCCOC(=O)c1ccc(-c2c3nc(c(-c4c(F)c(F)c(F)c(F)c4F)c4ccc([nH]4)c(-c4c(F)c(F)c(F)c(F)c4F)c4nc(c(-c5c(F)c(F)c(F)c(F)c5F)c5ccc2[nH]5)C=C4)C=C3)cc1)N(C)c1cc(C)ccc1[N+](=O)[O-]
REMARK SMILES IDX 7 1 6 2 4 3 5 4 3 5 2 6 1 7 75 8 76 9 77 10 78 11 83 12
REMARK SMILES IDX 79 13 82 14 80 15 81 16 84 17 85 18 86 19 8 20 9 21 10 22
REMARK SMILES IDX 11 23 12 24 13 25 74 26 14 27 73 28 15 29 16 30 17 31 67 32
REMARK SMILES IDX 18 33 72 34 66 35 68 36 19 37 71 38 65 39 64 40 20 42 52 43
REMARK SMILES IDX 32 44 51 45 33 46 36 47 50 48 69 49 34 50 35 51 49 53 70 54
REMARK SMILES IDX 37 55 21 56 22 57 30 58 23 59 24 60 28 61 31 62 25 63 26 64
REMARK SMILES IDX 29 65 27 66 53 67 54 68 62 69 55 70 56 71 60 72 63 73 57 74
REMARK SMILES IDX 58 75 61 76 59 77 38 78 39 79 47 80 40 81 41 82 45 83 48 84
REMARK SMILES IDX 42 85 43 86 46 87 44 88
REMARK H PARENT 68 41 36 52
REMARK Flexibility Score: inf
ROOT
ATOM      1  C   UNL A   1      31.433  29.211  24.469  1.00  0.00     0.274 C 
ENDROOT
BRANCH   1   2
ATOM      2  O   UNL A   1      32.179  27.984  24.226  1.00  0.00    -0.461 OA
BRANCH   2   3
ATOM      3  C   UNL A   1      31.372  26.908  24.081  1.00  0.00     0.328 C 
ATOM      4  O   UNL A   1      30.319  26.817  24.686  1.00  0.00    -0.250 OA
BRANCH   3   5
ATOM      5  C   UNL A   1      31.756  25.876  23.031  1.00  0.00     0.192 C 
BRANCH   5   6
ATOM      6  C   UNL A   1      32.701  26.185  21.865  1.00  0.00     0.034 C 
ATOM      7  C   UNL A   1      32.487  25.473  20.545  1.00  0.00     0.007 C 
ENDBRANCH   5   6
BRANCH   5   8
ATOM      8  N   UNL A   1      32.032  24.523  23.657  1.00  0.00    -0.356 N 
ATOM      9  C   UNL A   1      30.987  23.524  23.325  1.00  0.00     0.145 C 
BRANCH   8  10
ATOM     10  C   UNL A   1      33.108  24.119  24.472  1.00  0.00     0.116 A 
ATOM     11  C   UNL A   1      34.325  23.781  23.806  1.00  0.00     0.036 A 
ATOM     12  C   UNL A   1      33.213  23.938  25.882  1.00  0.00     0.292 A 
ATOM     13  C   UNL A   1      35.499  23.316  24.438  1.00  0.00    -0.049 A 
ATOM     14  C   UNL A   1      34.428  23.599  26.535  1.00  0.00     0.088 A 
ATOM     15  C   UNL A   1      36.647  22.803  23.618  1.00  0.00     0.044 C 
ATOM     16  C   UNL A   1      35.567  23.300  25.817  1.00  0.00     0.010 A 
BRANCH  12  17
ATOM     17  N   UNL A   1      32.126  23.877  26.851  1.00  0.00     0.064 N 
ATOM     18  O   UNL A   1      32.064  22.853  27.556  1.00  0.00    -0.258 OA
ATOM     19  O   UNL A   1      31.462  24.903  27.044  1.00  0.00    -0.258 OA
ENDBRANCH  12  17
ENDBRANCH   8  10
ENDBRANCH   5   8
ENDBRANCH   3   5
ENDBRANCH   2   3
ENDBRANCH   1   2
BRANCH   1  20
ATOM     20  C   UNL A   1      31.725  29.962  25.800  1.00  0.00     0.275 C 
BRANCH  20  21
ATOM     21  O   UNL A   1      33.090  30.454  25.929  1.00  0.00    -0.458 OA
BRANCH  21  22
ATOM     22  C   UNL A   1      33.306  31.421  26.864  1.00  0.00     0.338 C 
ATOM     23  O   UNL A   1      32.504  32.277  27.210  1.00  0.00    -0.246 OA
BRANCH  22  24
ATOM     24  C   UNL A   1      34.575  31.201  27.618  1.00  0.00     0.060 A 
ATOM     25  C   UNL A   1      34.798  29.908  28.100  1.00  0.00     0.016 A 
ATOM     26  C   UNL A   1      35.494  32.201  27.933  1.00  0.00     0.016 A 
ATOM     27  C   UNL A   1      35.955  29.577  28.806  1.00  0.00     0.010 A 
ATOM     28  C   UNL A   1      36.641  31.882  28.698  1.00  0.00     0.010 A 
ATOM     29  C   UNL A   1      36.890  30.563  29.122  1.00  0.00    -0.014 A 
BRANCH  29  30
ATOM     30  C   UNL A   1      38.074  30.180  29.943  1.00  0.00     0.031 A 
ATOM     31  C   UNL A   1      39.172  29.358  29.332  1.00  0.00     0.074 A 
ATOM     32  C   UNL A   1      38.236  30.656  31.191  1.00  0.00     0.049 A 
ATOM     33  N   UNL A   1      40.246  28.858  29.891  1.00  0.00    -0.248 NA
ATOM     34  C   UNL A   1      39.049  29.068  27.897  1.00  0.00     0.031 C 
ATOM     35  C   UNL A   1      37.312  31.562  31.862  1.00  0.00     0.029 A 
ATOM     36  N   UNL A   1      39.247  30.469  32.108  1.00  0.00    -0.354 N 
ATOM     37  C   UNL A   1      40.894  28.142  28.893  1.00  0.00     0.074 A 
ATOM     38  C   UNL A   1      40.122  28.320  27.681  1.00  0.00     0.031 C 
ATOM     39  C   UNL A   1      37.812  31.881  33.069  1.00  0.00     0.029 A 
ATOM     40  C   UNL A   1      39.059  31.153  33.288  1.00  0.00     0.049 A 
ATOM     41  H   UNL A   1      40.031  29.899  31.936  1.00  0.00     0.167 HD
ATOM     42  C   UNL A   1      42.005  27.373  28.995  1.00  0.00     0.037 A 
ATOM     43  C   UNL A   1      39.791  31.162  34.423  1.00  0.00     0.037 A 
ATOM     44  C   UNL A   1      42.767  27.196  30.204  1.00  0.00     0.049 A 
ATOM     45  C   UNL A   1      40.985  30.241  34.532  1.00  0.00     0.074 A 
ATOM     46  C   UNL A   1      43.875  26.392  30.418  1.00  0.00     0.029 A 
ATOM     47  N   UNL A   1      42.498  27.828  31.409  1.00  0.00    -0.354 N 
ATOM     48  N   UNL A   1      41.548  29.497  33.611  1.00  0.00    -0.248 NA
ATOM     49  C   UNL A   1      41.610  30.118  35.859  1.00  0.00     0.031 C 
ATOM     50  C   UNL A   1      44.236  26.491  31.765  1.00  0.00     0.029 A 
ATOM     51  C   UNL A   1      43.394  27.405  32.379  1.00  0.00     0.049 A 
ATOM     52  H   UNL A   1      41.775  28.481  31.555  1.00  0.00     0.167 HD
ATOM     53  C   UNL A   1      42.572  28.806  34.249  1.00  0.00     0.074 A 
ATOM     54  C   UNL A   1      42.593  29.262  35.622  1.00  0.00     0.031 C 
ATOM     55  C   UNL A   1      43.399  27.855  33.748  1.00  0.00     0.037 A 
BRANCH  42  56
ATOM     56  C   UNL A   1      42.392  26.569  27.788  1.00  0.00     0.064 A 
ATOM     57  C   UNL A   1      43.340  27.015  26.857  1.00  0.00     0.173 A 
ATOM     58  C   UNL A   1      41.791  25.319  27.564  1.00  0.00     0.173 A 
ATOM     59  F   UNL A   1      43.931  28.209  27.015  1.00  0.00    -0.203 F 
ATOM     60  C   UNL A   1      43.647  26.255  25.730  1.00  0.00     0.198 A 
ATOM     61  C   UNL A   1      42.123  24.549  26.454  1.00  0.00     0.198 A 
ATOM     62  F   UNL A   1      40.879  24.843  28.427  1.00  0.00    -0.203 F 
ATOM     63  F   UNL A   1      44.513  26.727  24.822  1.00  0.00    -0.200 F 
ATOM     64  C   UNL A   1      43.042  25.023  25.532  1.00  0.00     0.200 A 
ATOM     65  F   UNL A   1      41.547  23.352  26.274  1.00  0.00    -0.200 F 
ATOM     66  F   UNL A   1      43.338  24.295  24.447  1.00  0.00    -0.200 F 
ENDBRANCH  42  56
BRANCH  43  67
ATOM     67  C   UNL A   1      39.392  32.007  35.587  1.00  0.00     0.064 A 
ATOM     68  C   UNL A   1      38.476  31.536  36.541  1.00  0.00     0.173 A 
ATOM     69  C   UNL A   1      39.874  33.315  35.750  1.00  0.00     0.173 A 
ATOM     70  F   UNL A   1      37.950  30.309  36.417  1.00  0.00    -0.203 F 
ATOM     71  C   UNL A   1      38.053  32.341  37.600  1.00  0.00     0.198 A 
ATOM     72  C   UNL A   1      39.485  34.103  36.833  1.00  0.00     0.198 A 
ATOM     73  F   UNL A   1      40.731  33.833  34.858  1.00  0.00    -0.203 F 
ATOM     74  F   UNL A   1      37.131  31.885  38.459  1.00  0.00    -0.200 F 
ATOM     75  C   UNL A   1      38.567  33.619  37.751  1.00  0.00     0.200 A 
ATOM     76  F   UNL A   1      39.995  35.333  36.980  1.00  0.00    -0.200 F 
ATOM     77  F   UNL A   1      38.168  34.390  38.772  1.00  0.00    -0.200 F 
ENDBRANCH  43  67
BRANCH  55  78
ATOM     78  C   UNL A   1      44.386  27.225  34.691  1.00  0.00     0.064 A 
ATOM     79  C   UNL A   1      44.092  26.026  35.360  1.00  0.00     0.173 A 
ATOM     80  C   UNL A   1      45.658  27.786  34.881  1.00  0.00     0.173 A 
ATOM     81  F   UNL A   1      42.885  25.456  35.225  1.00  0.00    -0.203 F 
ATOM     82  C   UNL A   1      45.029  25.423  36.196  1.00  0.00     0.198 A 
ATOM     83  C   UNL A   1      46.603  27.162  35.694  1.00  0.00     0.198 A 
ATOM     84  F   UNL A   1      45.993  28.927  34.262  1.00  0.00    -0.203 F 
ATOM     85  F   UNL A   1      44.711  24.300  36.856  1.00  0.00    -0.200 F 
ATOM     86  C   UNL A   1      46.286  25.986  36.355  1.00  0.00     0.200 A 
ATOM     87  F   UNL A   1      47.823  27.701  35.833  1.00  0.00    -0.200 F 
ATOM     88  F   UNL A   1      47.191  25.396  37.147  1.00  0.00    -0.200 F 
ENDBRANCH  55  78
ENDBRANCH  29  30
ENDBRANCH  22  24
ENDBRANCH  21  22
ENDBRANCH  20  21
ENDBRANCH   1  20
TORSDOF 15
ENDMDL
