MODEL 1
REMARK VINA RESULT:     -13.2      0.000      0.000
REMARK SMILES O=C(C[C@@H](C(=O)OCCOC(=O)c1ccc(-c2c3nc(c(-c4c(F)c(F)c(F)c(F)c4F)c4ccc([nH]4)c(-c4c(F)c(F)c(F)c(F)c4F)c4nc(c(-c5c(F)c(F)c(F)c(F)c5F)c5ccc2[nH]5)C=C4)C=C3)cc1)c1ccccc1)Nc1cc(C(F)(F)F)ccc1-n1cncn1
REMARK SMILES IDX 8 1 7 2 5 3 6 4 4 5 3 6 2 7 1 8 82 9 83 11 84 12 92 13 85 14
REMARK SMILES IDX 91 15 90 16 93 17 94 18 97 19 95 20 96 21 86 22 87 23 88 24
REMARK SMILES IDX 89 25 76 26 77 27 81 28 78 29 80 30 79 31 9 32 10 33 11 34
REMARK SMILES IDX 12 35 13 36 14 37 75 38 15 39 74 40 16 41 17 42 18 43 68 44
REMARK SMILES IDX 19 45 73 46 67 47 69 48 20 49 72 50 66 51 65 52 21 54 53 55
REMARK SMILES IDX 33 56 52 57 34 58 37 59 51 60 70 61 35 62 36 63 50 65 71 66
REMARK SMILES IDX 38 67 22 68 23 69 31 70 24 71 25 72 29 73 32 74 26 75 27 76
REMARK SMILES IDX 30 77 28 78 54 79 55 80 63 81 56 82 57 83 61 84 64 85 58 86
REMARK SMILES IDX 59 87 62 88 60 89 39 90 40 91 48 92 41 93 42 94 46 95 49 96
REMARK SMILES IDX 43 97 44 98 47 99 45 100
REMARK H PARENT 82 10 69 53 37 64
REMARK Flexibility Score: inf
ROOT
ATOM      1  C   UNL A   1      33.541  29.361  24.173  1.00  0.00     0.274 C 
ENDROOT
BRANCH   1   2
ATOM      2  O   UNL A   1      33.704  27.924  24.075  1.00  0.00    -0.462 OA
BRANCH   2   3
ATOM      3  C   UNL A   1      33.445  27.355  22.862  1.00  0.00     0.314 C 
ATOM      4  O   UNL A   1      34.023  27.693  21.835  1.00  0.00    -0.252 OA
BRANCH   3   5
ATOM      5  C   UNL A   1      32.363  26.249  22.919  1.00  0.00     0.138 C 
BRANCH   5   6
ATOM      6  C   UNL A   1      32.485  25.223  21.782  1.00  0.00     0.120 C 
BRANCH   6   7
ATOM      7  C   UNL A   1      32.882  23.846  22.257  1.00  0.00     0.225 C 
ATOM      8  O   UNL A   1      34.052  23.482  22.273  1.00  0.00    -0.275 OA
ATOM      9  N   UNL A   1      31.810  23.072  22.669  1.00  0.00    -0.324 N 
ATOM     10  H   UNL A   1      30.899  23.408  22.503  1.00  0.00     0.170 HD
BRANCH   9  11
ATOM     11  C   UNL A   1      31.960  21.830  23.312  1.00  0.00     0.067 A 
ATOM     12  C   UNL A   1      32.011  20.708  22.474  1.00  0.00     0.041 A 
ATOM     13  C   UNL A   1      32.146  21.667  24.697  1.00  0.00     0.090 A 
ATOM     14  C   UNL A   1      32.338  19.438  22.978  1.00  0.00     0.058 A 
ATOM     15  C   UNL A   1      32.494  20.402  25.201  1.00  0.00     0.031 A 
ATOM     16  C   UNL A   1      32.590  19.299  24.347  1.00  0.00     0.015 A 
BRANCH  13  17
ATOM     17  N   UNL A   1      31.883  22.704  25.631  1.00  0.00    -0.219 N 
ATOM     18  C   UNL A   1      30.889  22.776  26.582  1.00  0.00     0.226 A 
ATOM     19  N   UNL A   1      32.717  23.764  25.797  1.00  0.00    -0.155 NA
ATOM     20  N   UNL A   1      30.958  23.908  27.243  1.00  0.00    -0.223 NA
ATOM     21  C   UNL A   1      32.068  24.488  26.711  1.00  0.00     0.246 A 
ENDBRANCH  13  17
BRANCH  14  22
ATOM     22  C   UNL A   1      32.479  18.272  22.030  1.00  0.00     0.416 C 
ATOM     23  F   UNL A   1      31.456  17.380  22.152  1.00  0.00    -0.166 F 
ATOM     24  F   UNL A   1      32.471  18.665  20.726  1.00  0.00    -0.166 F 
ATOM     25  F   UNL A   1      33.623  17.558  22.204  1.00  0.00    -0.166 F 
ENDBRANCH  14  22
ENDBRANCH   9  11
ENDBRANCH   6   7
ENDBRANCH   5   6
BRANCH   5  26
ATOM     26  C   UNL A   1      30.940  26.840  23.027  1.00  0.00    -0.033 A 
ATOM     27  C   UNL A   1      30.568  28.060  22.427  1.00  0.00     0.004 A 
ATOM     28  C   UNL A   1      29.948  26.150  23.747  1.00  0.00     0.004 A 
ATOM     29  C   UNL A   1      29.272  28.572  22.552  1.00  0.00     0.000 A 
ATOM     30  C   UNL A   1      28.656  26.671  23.886  1.00  0.00     0.000 A 
ATOM     31  C   UNL A   1      28.316  27.880  23.287  1.00  0.00     0.000 A 
ENDBRANCH   5  26
ENDBRANCH   3   5
ENDBRANCH   2   3
ENDBRANCH   1   2
BRANCH   1  32
ATOM     32  C   UNL A   1      32.381  29.682  25.125  1.00  0.00     0.275 C 
BRANCH  32  33
ATOM     33  O   UNL A   1      32.881  29.757  26.473  1.00  0.00    -0.458 OA
BRANCH  33  34
ATOM     34  C   UNL A   1      33.187  31.002  26.904  1.00  0.00     0.338 C 
ATOM     35  O   UNL A   1      32.463  31.988  26.897  1.00  0.00    -0.246 OA
BRANCH  34  36
ATOM     36  C   UNL A   1      34.414  30.889  27.701  1.00  0.00     0.060 A 
ATOM     37  C   UNL A   1      34.851  29.595  27.970  1.00  0.00     0.016 A 
ATOM     38  C   UNL A   1      35.144  31.986  28.151  1.00  0.00     0.016 A 
ATOM     39  C   UNL A   1      36.003  29.379  28.708  1.00  0.00     0.010 A 
ATOM     40  C   UNL A   1      36.328  31.767  28.873  1.00  0.00     0.010 A 
ATOM     41  C   UNL A   1      36.766  30.459  29.156  1.00  0.00    -0.014 A 
BRANCH  41  42
ATOM     42  C   UNL A   1      38.002  30.188  29.932  1.00  0.00     0.031 A 
ATOM     43  C   UNL A   1      39.095  29.354  29.336  1.00  0.00     0.074 A 
ATOM     44  C   UNL A   1      38.181  30.752  31.143  1.00  0.00     0.049 A 
ATOM     45  N   UNL A   1      40.179  28.884  29.898  1.00  0.00    -0.248 NA
ATOM     46  C   UNL A   1      38.954  29.013  27.914  1.00  0.00     0.031 C 
ATOM     47  C   UNL A   1      37.249  31.676  31.790  1.00  0.00     0.029 A 
ATOM     48  N   UNL A   1      39.215  30.640  32.040  1.00  0.00    -0.354 N 
ATOM     49  C   UNL A   1      40.830  28.158  28.911  1.00  0.00     0.074 A 
ATOM     50  C   UNL A   1      40.022  28.254  27.713  1.00  0.00     0.031 C 
ATOM     51  C   UNL A   1      37.758  32.055  32.973  1.00  0.00     0.029 A 
ATOM     52  C   UNL A   1      39.006  31.333  33.205  1.00  0.00     0.049 A 
ATOM     53  H   UNL A   1      40.028  30.111  31.864  1.00  0.00     0.167 HD
ATOM     54  C   UNL A   1      41.991  27.465  29.005  1.00  0.00     0.037 A 
ATOM     55  C   UNL A   1      39.705  31.343  34.357  1.00  0.00     0.037 A 
ATOM     56  C   UNL A   1      42.800  27.395  30.194  1.00  0.00     0.049 A 
ATOM     57  C   UNL A   1      40.934  30.487  34.475  1.00  0.00     0.074 A 
ATOM     58  C   UNL A   1      43.986  26.710  30.394  1.00  0.00     0.029 A 
ATOM     59  N   UNL A   1      42.506  28.040  31.387  1.00  0.00    -0.354 N 
ATOM     60  N   UNL A   1      41.503  29.731  33.567  1.00  0.00    -0.248 NA
ATOM     61  C   UNL A   1      41.600  30.459  35.784  1.00  0.00     0.031 C 
ATOM     62  C   UNL A   1      44.385  26.902  31.722  1.00  0.00     0.029 A 
ATOM     63  C   UNL A   1      43.471  27.743  32.337  1.00  0.00     0.049 A 
ATOM     64  H   UNL A   1      41.727  28.622  31.537  1.00  0.00     0.167 HD
ATOM     65  C   UNL A   1      42.586  29.131  34.194  1.00  0.00     0.074 A 
ATOM     66  C   UNL A   1      42.614  29.635  35.552  1.00  0.00     0.031 C 
ATOM     67  C   UNL A   1      43.471  28.234  33.692  1.00  0.00     0.037 A 
BRANCH  54  68
ATOM     68  C   UNL A   1      42.413  26.675  27.804  1.00  0.00     0.064 A 
ATOM     69  C   UNL A   1      41.973  25.363  27.581  1.00  0.00     0.173 A 
ATOM     70  C   UNL A   1      43.280  27.247  26.859  1.00  0.00     0.173 A 
ATOM     71  F   UNL A   1      41.160  24.765  28.465  1.00  0.00    -0.203 F 
ATOM     72  C   UNL A   1      42.409  24.642  26.472  1.00  0.00     0.198 A 
ATOM     73  C   UNL A   1      43.693  26.533  25.739  1.00  0.00     0.198 A 
ATOM     74  F   UNL A   1      43.729  28.501  27.026  1.00  0.00    -0.203 F 
ATOM     75  F   UNL A   1      42.019  23.370  26.305  1.00  0.00    -0.200 F 
ATOM     76  C   UNL A   1      43.265  25.228  25.551  1.00  0.00     0.200 A 
ATOM     77  F   UNL A   1      44.514  27.105  24.847  1.00  0.00    -0.200 F 
ATOM     78  F   UNL A   1      43.688  24.531  24.486  1.00  0.00    -0.200 F 
ENDBRANCH  54  68
BRANCH  55  79
ATOM     79  C   UNL A   1      39.199  32.128  35.513  1.00  0.00     0.064 A 
ATOM     80  C   UNL A   1      38.410  31.538  36.507  1.00  0.00     0.173 A 
ATOM     81  C   UNL A   1      39.517  33.489  35.653  1.00  0.00     0.173 A 
ATOM     82  F   UNL A   1      38.053  30.249  36.401  1.00  0.00    -0.203 F 
ATOM     83  C   UNL A   1      37.961  32.276  37.600  1.00  0.00     0.198 A 
ATOM     84  C   UNL A   1      39.094  34.218  36.761  1.00  0.00     0.198 A 
ATOM     85  F   UNL A   1      40.264  34.104  34.724  1.00  0.00    -0.203 F 
ATOM     86  F   UNL A   1      37.181  31.697  38.523  1.00  0.00    -0.200 F 
ATOM     87  C   UNL A   1      38.312  33.612  37.732  1.00  0.00     0.200 A 
ATOM     88  F   UNL A   1      39.449  35.504  36.890  1.00  0.00    -0.200 F 
ATOM     89  F   UNL A   1      37.894  34.317  38.792  1.00  0.00    -0.200 F 
ENDBRANCH  55  79
BRANCH  67  90
ATOM     90  C   UNL A   1      44.533  27.728  34.622  1.00  0.00     0.064 A 
ATOM     91  C   UNL A   1      45.753  28.403  34.768  1.00  0.00     0.173 A 
ATOM     92  C   UNL A   1      44.314  26.585  35.405  1.00  0.00     0.173 A 
ATOM     93  F   UNL A   1      46.016  29.490  34.027  1.00  0.00    -0.203 F 
ATOM     94  C   UNL A   1      46.724  27.942  35.654  1.00  0.00     0.198 A 
ATOM     95  C   UNL A   1      45.276  26.142  36.308  1.00  0.00     0.198 A 
ATOM     96  F   UNL A   1      43.161  25.907  35.303  1.00  0.00    -0.203 F 
ATOM     97  F   UNL A   1      47.898  28.582  35.752  1.00  0.00    -0.200 F 
ATOM     98  C   UNL A   1      46.481  26.818  36.429  1.00  0.00     0.200 A 
ATOM     99  F   UNL A   1      45.037  25.061  37.063  1.00  0.00    -0.200 F 
ATOM    100  F   UNL A   1      47.412  26.381  37.288  1.00  0.00    -0.200 F 
ENDBRANCH  67  90
ENDBRANCH  41  42
ENDBRANCH  34  36
ENDBRANCH  33  34
ENDBRANCH  32  33
ENDBRANCH   1  32
TORSDOF 17
ENDMDL
MODEL 2
REMARK VINA RESULT:     -13.0      2.118      2.922
REMARK SMILES O=C(C[C@@H](C(=O)OCCOC(=O)c1ccc(-c2c3nc(c(-c4c(F)c(F)c(F)c(F)c4F)c4ccc([nH]4)c(-c4c(F)c(F)c(F)c(F)c4F)c4nc(c(-c5c(F)c(F)c(F)c(F)c5F)c5ccc2[nH]5)C=C4)C=C3)cc1)c1ccccc1)Nc1cc(C(F)(F)F)ccc1-n1cncn1
REMARK SMILES IDX 8 1 7 2 5 3 6 4 4 5 3 6 2 7 1 8 82 9 83 11 84 12 92 13 85 14
REMARK SMILES IDX 91 15 90 16 93 17 94 18 97 19 95 20 96 21 86 22 87 23 88 24
REMARK SMILES IDX 89 25 76 26 77 27 81 28 78 29 80 30 79 31 9 32 10 33 11 34
REMARK SMILES IDX 12 35 13 36 14 37 75 38 15 39 74 40 16 41 17 42 18 43 68 44
REMARK SMILES IDX 19 45 73 46 67 47 69 48 20 49 72 50 66 51 65 52 21 54 53 55
REMARK SMILES IDX 33 56 52 57 34 58 37 59 51 60 70 61 35 62 36 63 50 65 71 66
REMARK SMILES IDX 38 67 22 68 23 69 31 70 24 71 25 72 29 73 32 74 26 75 27 76
REMARK SMILES IDX 30 77 28 78 54 79 55 80 63 81 56 82 57 83 61 84 64 85 58 86
REMARK SMILES IDX 59 87 62 88 60 89 39 90 40 91 48 92 41 93 42 94 46 95 49 96
REMARK SMILES IDX 43 97 44 98 47 99 45 100
REMARK H PARENT 82 10 69 53 37 64
REMARK Flexibility Score: inf
ROOT
ATOM      1  C   UNL A   1      31.848  27.941  27.528  1.00  0.00     0.274 C 
ENDROOT
BRANCH   1   2
ATOM      2  O   UNL A   1      30.845  27.079  26.933  1.00  0.00    -0.462 OA
BRANCH   2   3
ATOM      3  C   UNL A   1      31.296  25.961  26.291  1.00  0.00     0.314 C 
ATOM      4  O   UNL A   1      31.515  24.906  26.875  1.00  0.00    -0.252 OA
BRANCH   3   5
ATOM      5  C   UNL A   1      31.494  26.163  24.769  1.00  0.00     0.138 C 
BRANCH   5   6
ATOM      6  C   UNL A   1      32.891  26.690  24.404  1.00  0.00     0.120 C 
BRANCH   6   7
ATOM      7  C   UNL A   1      33.895  25.593  24.141  1.00  0.00     0.225 C 
ATOM      8  O   UNL A   1      34.436  25.464  23.050  1.00  0.00    -0.275 OA
ATOM      9  N   UNL A   1      34.135  24.787  25.241  1.00  0.00    -0.324 N 
ATOM     10  H   UNL A   1      33.562  24.895  26.035  1.00  0.00     0.170 HD
BRANCH   9  11
ATOM     11  C   UNL A   1      35.157  23.821  25.278  1.00  0.00     0.067 A 
ATOM     12  C   UNL A   1      36.399  24.262  25.753  1.00  0.00     0.041 A 
ATOM     13  C   UNL A   1      34.982  22.462  24.960  1.00  0.00     0.090 A 
ATOM     14  C   UNL A   1      37.444  23.357  26.006  1.00  0.00     0.058 A 
ATOM     15  C   UNL A   1      36.017  21.551  25.233  1.00  0.00     0.031 A 
ATOM     16  C   UNL A   1      37.235  21.997  25.753  1.00  0.00     0.015 A 
BRANCH  13  17
ATOM     17  N   UNL A   1      33.841  21.981  24.263  1.00  0.00    -0.219 N 
ATOM     18  C   UNL A   1      32.912  21.049  24.670  1.00  0.00     0.226 A 
ATOM     19  N   UNL A   1      33.430  22.514  23.083  1.00  0.00    -0.155 NA
ATOM     20  N   UNL A   1      32.012  20.849  23.736  1.00  0.00    -0.223 NA
ATOM     21  C   UNL A   1      32.385  21.742  22.778  1.00  0.00     0.246 A 
ENDBRANCH  13  17
BRANCH  14  22
ATOM     22  C   UNL A   1      38.734  23.856  26.610  1.00  0.00     0.416 C 
ATOM     23  F   UNL A   1      39.668  22.869  26.720  1.00  0.00    -0.166 F 
ATOM     24  F   UNL A   1      39.314  24.828  25.854  1.00  0.00    -0.166 F 
ATOM     25  F   UNL A   1      38.591  24.379  27.857  1.00  0.00    -0.166 F 
ENDBRANCH  14  22
ENDBRANCH   9  11
ENDBRANCH   6   7
ENDBRANCH   5   6
BRANCH   5  26
ATOM     26  C   UNL A   1      30.365  27.014  24.148  1.00  0.00    -0.033 A 
ATOM     27  C   UNL A   1      29.024  26.582  24.083  1.00  0.00     0.004 A 
ATOM     28  C   UNL A   1      30.655  28.285  23.620  1.00  0.00     0.004 A 
ATOM     29  C   UNL A   1      28.026  27.374  23.505  1.00  0.00     0.000 A 
ATOM     30  C   UNL A   1      29.659  29.070  23.026  1.00  0.00     0.000 A 
ATOM     31  C   UNL A   1      28.345  28.617  22.971  1.00  0.00     0.000 A 
ENDBRANCH   5  26
ENDBRANCH   3   5
ENDBRANCH   2   3
ENDBRANCH   1   2
BRANCH   1  32
ATOM     32  C   UNL A   1      31.779  29.330  26.881  1.00  0.00     0.275 C 
BRANCH  32  33
ATOM     33  O   UNL A   1      33.113  29.780  26.580  1.00  0.00    -0.458 OA
BRANCH  33  34
ATOM     34  C   UNL A   1      33.423  31.011  27.044  1.00  0.00     0.338 C 
ATOM     35  O   UNL A   1      32.696  31.994  27.082  1.00  0.00    -0.246 OA
BRANCH  34  36
ATOM     36  C   UNL A   1      34.666  30.878  27.813  1.00  0.00     0.060 A 
ATOM     37  C   UNL A   1      34.921  29.620  28.349  1.00  0.00     0.016 A 
ATOM     38  C   UNL A   1      35.577  31.916  27.989  1.00  0.00     0.016 A 
ATOM     39  C   UNL A   1      36.071  29.387  29.085  1.00  0.00     0.010 A 
ATOM     40  C   UNL A   1      36.757  31.672  28.710  1.00  0.00     0.010 A 
ATOM     41  C   UNL A   1      37.012  30.403  29.263  1.00  0.00    -0.014 A 
BRANCH  41  42
ATOM     42  C   UNL A   1      38.239  30.112  30.046  1.00  0.00     0.031 A 
ATOM     43  C   UNL A   1      39.321  29.257  29.457  1.00  0.00     0.074 A 
ATOM     44  C   UNL A   1      38.422  30.675  31.257  1.00  0.00     0.049 A 
ATOM     45  N   UNL A   1      40.393  28.770  30.026  1.00  0.00    -0.248 NA
ATOM     46  C   UNL A   1      39.181  28.916  28.035  1.00  0.00     0.031 C 
ATOM     47  C   UNL A   1      37.503  31.616  31.897  1.00  0.00     0.029 A 
ATOM     48  N   UNL A   1      39.449  30.546  32.159  1.00  0.00    -0.354 N 
ATOM     49  C   UNL A   1      41.037  28.030  29.044  1.00  0.00     0.074 A 
ATOM     50  C   UNL A   1      40.237  28.138  27.841  1.00  0.00     0.031 C 
ATOM     51  C   UNL A   1      38.011  31.988  33.081  1.00  0.00     0.029 A 
ATOM     52  C   UNL A   1      39.245  31.246  33.322  1.00  0.00     0.049 A 
ATOM     53  H   UNL A   1      40.253  30.003  31.989  1.00  0.00     0.167 HD
ATOM     54  C   UNL A   1      42.184  27.317  29.146  1.00  0.00     0.037 A 
ATOM     55  C   UNL A   1      39.939  31.246  34.478  1.00  0.00     0.037 A 
ATOM     56  C   UNL A   1      42.986  27.235  30.339  1.00  0.00     0.049 A 
ATOM     57  C   UNL A   1      41.152  30.368  34.604  1.00  0.00     0.074 A 
ATOM     58  C   UNL A   1      44.158  26.530  30.547  1.00  0.00     0.029 A 
ATOM     59  N   UNL A   1      42.697  27.888  31.529  1.00  0.00    -0.354 N 
ATOM     60  N   UNL A   1      41.713  29.601  33.700  1.00  0.00    -0.248 NA
ATOM     61  C   UNL A   1      41.811  30.331  35.916  1.00  0.00     0.031 C 
ATOM     62  C   UNL A   1      44.554  26.718  31.876  1.00  0.00     0.029 A 
ATOM     63  C   UNL A   1      43.652  27.576  32.485  1.00  0.00     0.049 A 
ATOM     64  H   UNL A   1      41.927  28.484  31.673  1.00  0.00     0.167 HD
ATOM     65  C   UNL A   1      42.781  28.983  34.335  1.00  0.00     0.074 A 
ATOM     66  C   UNL A   1      42.811  29.489  35.691  1.00  0.00     0.031 C 
ATOM     67  C   UNL A   1      43.653  28.070  33.838  1.00  0.00     0.037 A 
BRANCH  54  68
ATOM     68  C   UNL A   1      42.599  26.517  27.948  1.00  0.00     0.064 A 
ATOM     69  C   UNL A   1      42.185  25.192  27.756  1.00  0.00     0.173 A 
ATOM     70  C   UNL A   1      43.432  27.094  26.976  1.00  0.00     0.173 A 
ATOM     71  F   UNL A   1      41.405  24.590  28.666  1.00  0.00    -0.203 F 
ATOM     72  C   UNL A   1      42.614  24.463  26.649  1.00  0.00     0.198 A 
ATOM     73  C   UNL A   1      43.837  26.371  25.858  1.00  0.00     0.198 A 
ATOM     74  F   UNL A   1      43.855  28.360  27.113  1.00  0.00    -0.203 F 
ATOM     75  F   UNL A   1      42.251  23.180  26.511  1.00  0.00    -0.200 F 
ATOM     76  C   UNL A   1      43.436  25.054  25.700  1.00  0.00     0.200 A 
ATOM     77  F   UNL A   1      44.626  26.946  24.939  1.00  0.00    -0.200 F 
ATOM     78  F   UNL A   1      43.852  24.348  24.638  1.00  0.00    -0.200 F 
ENDBRANCH  54  68
BRANCH  55  79
ATOM     79  C   UNL A   1      39.441  32.042  35.629  1.00  0.00     0.064 A 
ATOM     80  C   UNL A   1      38.523  31.510  36.542  1.00  0.00     0.173 A 
ATOM     81  C   UNL A   1      39.894  33.353  35.848  1.00  0.00     0.173 A 
ATOM     82  F   UNL A   1      38.036  30.273  36.359  1.00  0.00    -0.203 F 
ATOM     83  C   UNL A   1      38.080  32.255  37.633  1.00  0.00     0.198 A 
ATOM     84  C   UNL A   1      39.475  34.086  36.955  1.00  0.00     0.198 A 
ATOM     85  F   UNL A   1      40.767  33.913  34.997  1.00  0.00    -0.203 F 
ATOM     86  F   UNL A   1      37.179  31.735  38.477  1.00  0.00    -0.200 F 
ATOM     87  C   UNL A   1      38.565  33.538  37.844  1.00  0.00     0.200 A 
ATOM     88  F   UNL A   1      39.958  35.319  37.161  1.00  0.00    -0.200 F 
ATOM     89  F   UNL A   1      38.152  34.248  38.904  1.00  0.00    -0.200 F 
ENDBRANCH  55  79
BRANCH  67  90
ATOM     90  C   UNL A   1      44.701  27.547  34.775  1.00  0.00     0.064 A 
ATOM     91  C   UNL A   1      45.928  28.208  34.936  1.00  0.00     0.173 A 
ATOM     92  C   UNL A   1      44.462  26.403  35.550  1.00  0.00     0.173 A 
ATOM     93  F   UNL A   1      46.209  29.295  34.203  1.00  0.00    -0.203 F 
ATOM     94  C   UNL A   1      46.885  27.731  35.828  1.00  0.00     0.198 A 
ATOM     95  C   UNL A   1      45.411  25.945  36.460  1.00  0.00     0.198 A 
ATOM     96  F   UNL A   1      43.303  25.738  35.436  1.00  0.00    -0.203 F 
ATOM     97  F   UNL A   1      48.065  28.357  35.939  1.00  0.00    -0.200 F 
ATOM     98  C   UNL A   1      46.623  26.606  36.594  1.00  0.00     0.200 A 
ATOM     99  F   UNL A   1      45.153  24.863  37.207  1.00  0.00    -0.200 F 
ATOM    100  F   UNL A   1      47.541  26.154  37.459  1.00  0.00    -0.200 F 
ENDBRANCH  67  90
ENDBRANCH  41  42
ENDBRANCH  34  36
ENDBRANCH  33  34
ENDBRANCH  32  33
ENDBRANCH   1  32
TORSDOF 17
ENDMDL
MODEL 3
REMARK VINA RESULT:     -12.7      4.641      9.849
REMARK SMILES O=C(C[C@@H](C(=O)OCCOC(=O)c1ccc(-c2c3nc(c(-c4c(F)c(F)c(F)c(F)c4F)c4ccc([nH]4)c(-c4c(F)c(F)c(F)c(F)c4F)c4nc(c(-c5c(F)c(F)c(F)c(F)c5F)c5ccc2[nH]5)C=C4)C=C3)cc1)c1ccccc1)Nc1cc(C(F)(F)F)ccc1-n1cncn1
REMARK SMILES IDX 8 1 7 2 5 3 6 4 4 5 3 6 2 7 1 8 82 9 83 11 84 12 92 13 85 14
REMARK SMILES IDX 91 15 90 16 93 17 94 18 97 19 95 20 96 21 86 22 87 23 88 24
REMARK SMILES IDX 89 25 76 26 77 27 81 28 78 29 80 30 79 31 9 32 10 33 11 34
REMARK SMILES IDX 12 35 13 36 14 37 75 38 15 39 74 40 16 41 17 42 18 43 68 44
REMARK SMILES IDX 19 45 73 46 67 47 69 48 20 49 72 50 66 51 65 52 21 54 53 55
REMARK SMILES IDX 33 56 52 57 34 58 37 59 51 60 70 61 35 62 36 63 50 65 71 66
REMARK SMILES IDX 38 67 22 68 23 69 31 70 24 71 25 72 29 73 32 74 26 75 27 76
REMARK SMILES IDX 30 77 28 78 54 79 55 80 63 81 56 82 57 83 61 84 64 85 58 86
REMARK SMILES IDX 59 87 62 88 60 89 39 90 40 91 48 92 41 93 42 94 46 95 49 96
REMARK SMILES IDX 43 97 44 98 47 99 45 100
REMARK H PARENT 82 10 69 53 37 64
REMARK Flexibility Score: inf
ROOT
ATOM      1  C   UNL A   1      36.551  22.705  23.583  1.00  0.00     0.274 C 
ENDROOT
BRANCH   1   2
ATOM      2  O   UNL A   1      35.428  23.556  23.925  1.00  0.00    -0.462 OA
BRANCH   2   3
ATOM      3  C   UNL A   1      34.227  23.250  23.353  1.00  0.00     0.314 C 
ATOM      4  O   UNL A   1      34.029  23.329  22.146  1.00  0.00    -0.252 OA
BRANCH   3   5
ATOM      5  C   UNL A   1      33.157  22.794  24.375  1.00  0.00     0.138 C 
BRANCH   5   6
ATOM      6  C   UNL A   1      33.419  23.310  25.798  1.00  0.00     0.120 C 
BRANCH   6   7
ATOM      7  C   UNL A   1      32.810  24.666  26.066  1.00  0.00     0.225 C 
ATOM      8  O   UNL A   1      31.883  24.811  26.854  1.00  0.00    -0.275 OA
ATOM      9  N   UNL A   1      33.407  25.691  25.353  1.00  0.00    -0.324 N 
ATOM     10  H   UNL A   1      34.061  25.458  24.655  1.00  0.00     0.170 HD
BRANCH   9  11
ATOM     11  C   UNL A   1      33.122  27.051  25.577  1.00  0.00     0.067 A 
ATOM     12  C   UNL A   1      34.028  27.740  26.395  1.00  0.00     0.041 A 
ATOM     13  C   UNL A   1      32.064  27.754  24.972  1.00  0.00     0.090 A 
ATOM     14  C   UNL A   1      33.955  29.134  26.547  1.00  0.00     0.058 A 
ATOM     15  C   UNL A   1      32.001  29.152  25.105  1.00  0.00     0.031 A 
ATOM     16  C   UNL A   1      32.940  29.834  25.885  1.00  0.00     0.015 A 
BRANCH  13  17
ATOM     17  N   UNL A   1      30.983  27.100  24.324  1.00  0.00    -0.219 N 
ATOM     18  C   UNL A   1      29.662  27.485  24.251  1.00  0.00     0.226 A 
ATOM     19  N   UNL A   1      31.159  26.008  23.535  1.00  0.00    -0.155 NA
ATOM     20  N   UNL A   1      28.956  26.603  23.581  1.00  0.00    -0.223 NA
ATOM     21  C   UNL A   1      29.905  25.709  23.190  1.00  0.00     0.246 A 
ENDBRANCH  13  17
BRANCH  14  22
ATOM     22  C   UNL A   1      35.006  29.853  27.358  1.00  0.00     0.416 C 
ATOM     23  F   UNL A   1      34.783  31.196  27.418  1.00  0.00    -0.166 F 
ATOM     24  F   UNL A   1      35.039  29.428  28.650  1.00  0.00    -0.166 F 
ATOM     25  F   UNL A   1      36.269  29.702  26.876  1.00  0.00    -0.166 F 
ENDBRANCH  14  22
ENDBRANCH   9  11
ENDBRANCH   6   7
ENDBRANCH   5   6
BRANCH   5  26
ATOM     26  C   UNL A   1      32.936  21.266  24.335  1.00  0.00    -0.033 A 
ATOM     27  C   UNL A   1      33.295  20.411  25.397  1.00  0.00     0.004 A 
ATOM     28  C   UNL A   1      32.349  20.672  23.204  1.00  0.00     0.004 A 
ATOM     29  C   UNL A   1      33.090  19.029  25.326  1.00  0.00     0.000 A 
ATOM     30  C   UNL A   1      32.160  19.286  23.125  1.00  0.00     0.000 A 
ATOM     31  C   UNL A   1      32.528  18.465  24.186  1.00  0.00     0.000 A 
ENDBRANCH   5  26
ENDBRANCH   3   5
ENDBRANCH   2   3
ENDBRANCH   1   2
BRANCH   1  32
ATOM     32  C   UNL A   1      36.678  21.582  24.621  1.00  0.00     0.275 C 
BRANCH  32  33
ATOM     33  O   UNL A   1      37.287  22.105  25.815  1.00  0.00    -0.458 OA
BRANCH  33  34
ATOM     34  C   UNL A   1      38.512  21.611  26.100  1.00  0.00     0.338 C 
ATOM     35  O   UNL A   1      38.951  20.505  25.812  1.00  0.00    -0.246 OA
BRANCH  34  36
ATOM     36  C   UNL A   1      39.347  22.747  26.509  1.00  0.00     0.060 A 
ATOM     37  C   UNL A   1      38.913  24.003  26.098  1.00  0.00     0.016 A 
ATOM     38  C   UNL A   1      40.494  22.617  27.288  1.00  0.00     0.016 A 
ATOM     39  C   UNL A   1      39.626  25.141  26.438  1.00  0.00     0.010 A 
ATOM     40  C   UNL A   1      41.201  23.774  27.657  1.00  0.00     0.010 A 
ATOM     41  C   UNL A   1      40.769  25.045  27.235  1.00  0.00    -0.014 A 
BRANCH  41  42
ATOM     42  C   UNL A   1      41.499  26.288  27.589  1.00  0.00     0.031 A 
ATOM     43  C   UNL A   1      40.829  27.342  28.418  1.00  0.00     0.074 A 
ATOM     44  C   UNL A   1      42.790  26.442  27.236  1.00  0.00     0.049 A 
ATOM     45  N   UNL A   1      41.237  28.550  28.710  1.00  0.00    -0.248 NA
ATOM     46  C   UNL A   1      39.530  26.984  29.004  1.00  0.00     0.031 C 
ATOM     47  C   UNL A   1      43.596  25.446  26.529  1.00  0.00     0.029 A 
ATOM     48  N   UNL A   1      43.654  27.491  27.433  1.00  0.00    -0.354 N 
ATOM     49  C   UNL A   1      40.229  29.112  29.480  1.00  0.00     0.074 A 
ATOM     50  C   UNL A   1      39.191  28.110  29.615  1.00  0.00     0.031 C 
ATOM     51  C   UNL A   1      44.838  25.926  26.362  1.00  0.00     0.029 A 
ATOM     52  C   UNL A   1      44.890  27.294  26.870  1.00  0.00     0.049 A 
ATOM     53  H   UNL A   1      43.410  28.307  27.929  1.00  0.00     0.167 HD
ATOM     54  C   UNL A   1      40.173  30.356  30.015  1.00  0.00     0.037 A 
ATOM     55  C   UNL A   1      45.931  28.138  26.723  1.00  0.00     0.037 A 
ATOM     56  C   UNL A   1      41.220  31.337  29.896  1.00  0.00     0.049 A 
ATOM     57  C   UNL A   1      45.810  29.546  27.232  1.00  0.00     0.074 A 
ATOM     58  C   UNL A   1      41.255  32.630  30.391  1.00  0.00     0.029 A 
ATOM     59  N   UNL A   1      42.424  31.130  29.238  1.00  0.00    -0.354 N 
ATOM     60  N   UNL A   1      44.820  30.104  27.887  1.00  0.00    -0.248 NA
ATOM     61  C   UNL A   1      46.934  30.450  26.957  1.00  0.00     0.031 C 
ATOM     62  C   UNL A   1      42.459  33.220  29.992  1.00  0.00     0.029 A 
ATOM     63  C   UNL A   1      43.195  32.281  29.286  1.00  0.00     0.049 A 
ATOM     64  H   UNL A   1      42.691  30.290  28.801  1.00  0.00     0.167 HD
ATOM     65  C   UNL A   1      45.195  31.424  28.092  1.00  0.00     0.074 A 
ATOM     66  C   UNL A   1      46.518  31.576  27.521  1.00  0.00     0.031 C 
ATOM     67  C   UNL A   1      44.500  32.423  28.692  1.00  0.00     0.037 A 
BRANCH  54  68
ATOM     68  C   UNL A   1      38.907  30.742  30.717  1.00  0.00     0.064 A 
ATOM     69  C   UNL A   1      38.751  30.607  32.104  1.00  0.00     0.173 A 
ATOM     70  C   UNL A   1      37.827  31.256  29.981  1.00  0.00     0.173 A 
ATOM     71  F   UNL A   1      39.746  30.101  32.848  1.00  0.00    -0.203 F 
ATOM     72  C   UNL A   1      37.550  30.943  32.724  1.00  0.00     0.198 A 
ATOM     73  C   UNL A   1      36.638  31.615  30.608  1.00  0.00     0.198 A 
ATOM     74  F   UNL A   1      37.926  31.405  28.651  1.00  0.00    -0.203 F 
ATOM     75  F   UNL A   1      37.403  30.755  34.043  1.00  0.00    -0.200 F 
ATOM     76  C   UNL A   1      36.497  31.450  31.976  1.00  0.00     0.200 A 
ATOM     77  F   UNL A   1      35.625  32.111  29.884  1.00  0.00    -0.200 F 
ATOM     78  F   UNL A   1      35.340  31.768  32.575  1.00  0.00    -0.200 F 
ENDBRANCH  54  68
BRANCH  55  79
ATOM     79  C   UNL A   1      47.139  27.687  25.983  1.00  0.00     0.064 A 
ATOM     80  C   UNL A   1      48.262  27.191  26.654  1.00  0.00     0.173 A 
ATOM     81  C   UNL A   1      47.181  27.728  24.580  1.00  0.00     0.173 A 
ATOM     82  F   UNL A   1      48.282  27.161  27.996  1.00  0.00    -0.203 F 
ATOM     83  C   UNL A   1      49.380  26.747  25.952  1.00  0.00     0.198 A 
ATOM     84  C   UNL A   1      48.286  27.256  23.878  1.00  0.00     0.198 A 
ATOM     85  F   UNL A   1      46.133  28.203  23.890  1.00  0.00    -0.203 F 
ATOM     86  F   UNL A   1      50.456  26.304  26.617  1.00  0.00    -0.200 F 
ATOM     87  C   UNL A   1      49.388  26.770  24.564  1.00  0.00     0.200 A 
ATOM     88  F   UNL A   1      48.280  27.268  22.537  1.00  0.00    -0.200 F 
ATOM     89  F   UNL A   1      50.457  26.327  23.889  1.00  0.00    -0.200 F 
ENDBRANCH  55  79
BRANCH  67  90
ATOM     90  C   UNL A   1      45.152  33.773  28.744  1.00  0.00     0.064 A 
ATOM     91  C   UNL A   1      44.907  34.738  27.756  1.00  0.00     0.173 A 
ATOM     92  C   UNL A   1      45.994  34.120  29.810  1.00  0.00     0.173 A 
ATOM     93  F   UNL A   1      44.123  34.445  26.707  1.00  0.00    -0.203 F 
ATOM     94  C   UNL A   1      45.494  35.998  27.827  1.00  0.00     0.198 A 
ATOM     95  C   UNL A   1      46.559  35.390  29.890  1.00  0.00     0.198 A 
ATOM     96  F   UNL A   1      46.257  33.233  30.782  1.00  0.00    -0.203 F 
ATOM     97  F   UNL A   1      45.275  36.893  26.853  1.00  0.00    -0.200 F 
ATOM     98  C   UNL A   1      46.313  36.326  28.897  1.00  0.00     0.200 A 
ATOM     99  F   UNL A   1      47.342  35.709  30.930  1.00  0.00    -0.200 F 
ATOM    100  F   UNL A   1      46.871  37.542  28.968  1.00  0.00    -0.200 F 
ENDBRANCH  67  90
ENDBRANCH  41  42
ENDBRANCH  34  36
ENDBRANCH  33  34
ENDBRANCH  32  33
ENDBRANCH   1  32
TORSDOF 17
ENDMDL
