MODEL 1
REMARK VINA RESULT:     -13.5      0.000      0.000
REMARK SMILES O=C(OCCOC(=O)c1ccc2nc(-c3c[nH]nc3-c3ccc(F)cc3F)[nH]c2c1)c1ccc(-c2c3nc(c(-c4c(F)c(F)c(F)c(F)c4F)c4ccc([nH]4)c(-c4c(F)c(F)c(F)c(F)c4F)c4nc(c(-c5c(F)c(F)c(F)c(F)c5F)c5ccc2[nH]5)C=C4)C=C3)cc1
REMARK SMILES IDX 4 1 3 2 2 3 1 4 31 5 32 6 93 7 33 8 92 9 34 10 35 11 36 12
REMARK SMILES IDX 86 13 37 14 91 15 85 16 87 17 38 18 90 19 84 20 83 21 39 23
REMARK SMILES IDX 71 24 51 25 70 26 52 27 55 28 69 29 88 30 53 31 54 32 68 34
REMARK SMILES IDX 89 35 56 36 40 37 41 38 49 39 42 40 43 41 47 42 50 43 44 44
REMARK SMILES IDX 45 45 48 46 46 47 72 48 73 49 81 50 74 51 75 52 79 53 82 54
REMARK SMILES IDX 76 55 77 56 80 57 78 58 57 59 58 60 66 61 59 62 60 63 64 64
REMARK SMILES IDX 67 65 61 66 62 67 65 68 63 69 5 70 6 71 7 72 8 73 9 74 10 75
REMARK SMILES IDX 30 76 11 77 29 78 12 79 28 80 13 81 14 82 15 84 16 85 19 86
REMARK SMILES IDX 17 87 18 88 20 90 21 91 26 92 22 93 25 94 27 95 23 96 24 97
REMARK H PARENT 87 22 55 33 28 83 17 89
REMARK Flexibility Score: inf
ROOT
ATOM      1  C   UNL A   1      43.776  21.978  25.359  1.00  0.00     0.275 C 
ENDROOT
BRANCH   1   2
ATOM      2  O   UNL A   1      43.421  23.276  24.848  1.00  0.00    -0.458 OA
BRANCH   2   3
ATOM      3  C   UNL A   1      43.948  24.493  25.112  1.00  0.00     0.338 C 
ATOM      4  O   UNL A   1      44.983  24.831  24.537  1.00  0.00    -0.246 OA
BRANCH   3   5
ATOM      5  C   UNL A   1      43.437  25.405  26.182  1.00  0.00     0.060 A 
ATOM      6  C   UNL A   1      43.903  26.690  26.463  1.00  0.00     0.016 A 
ATOM      7  C   UNL A   1      42.403  24.889  26.987  1.00  0.00     0.016 A 
ATOM      8  C   UNL A   1      43.305  27.468  27.459  1.00  0.00     0.010 A 
ATOM      9  C   UNL A   1      41.788  25.667  27.970  1.00  0.00     0.010 A 
ATOM     10  C   UNL A   1      42.243  26.964  28.212  1.00  0.00    -0.014 A 
BRANCH  10  11
ATOM     11  C   UNL A   1      41.715  27.741  29.354  1.00  0.00     0.031 A 
ATOM     12  C   UNL A   1      42.397  27.613  30.681  1.00  0.00     0.074 A 
ATOM     13  C   UNL A   1      40.673  28.575  29.190  1.00  0.00     0.049 A 
ATOM     14  N   UNL A   1      42.144  28.231  31.803  1.00  0.00    -0.248 NA
ATOM     15  C   UNL A   1      43.534  26.680  30.748  1.00  0.00     0.031 C 
ATOM     16  C   UNL A   1      39.975  28.812  27.930  1.00  0.00     0.029 A 
ATOM     17  N   UNL A   1      40.014  29.372  30.091  1.00  0.00    -0.354 N 
ATOM     18  C   UNL A   1      43.115  27.798  32.692  1.00  0.00     0.074 A 
ATOM     19  C   UNL A   1      43.915  26.807  32.009  1.00  0.00     0.031 C 
ATOM     20  C   UNL A   1      38.954  29.657  28.143  1.00  0.00     0.029 A 
ATOM     21  C   UNL A   1      38.930  30.024  29.556  1.00  0.00     0.049 A 
ATOM     22  H   UNL A   1      40.292  29.468  31.031  1.00  0.00     0.167 HD
ATOM     23  C   UNL A   1      43.344  28.226  33.953  1.00  0.00     0.037 A 
ATOM     24  C   UNL A   1      38.021  30.821  30.149  1.00  0.00     0.037 A 
ATOM     25  C   UNL A   1      42.525  29.193  34.629  1.00  0.00     0.049 A 
ATOM     26  C   UNL A   1      38.207  31.172  31.599  1.00  0.00     0.074 A 
ATOM     27  C   UNL A   1      42.661  29.696  35.909  1.00  0.00     0.029 A 
ATOM     28  N   UNL A   1      41.400  29.791  34.076  1.00  0.00    -0.354 N 
ATOM     29  N   UNL A   1      39.164  30.806  32.418  1.00  0.00    -0.248 NA
ATOM     30  C   UNL A   1      37.212  32.067  32.205  1.00  0.00     0.031 C 
ATOM     31  C   UNL A   1      41.593  30.566  36.146  1.00  0.00     0.029 A 
ATOM     32  C   UNL A   1      40.817  30.641  34.999  1.00  0.00     0.049 A 
ATOM     33  H   UNL A   1      41.068  29.633  33.162  1.00  0.00     0.167 HD
ATOM     34  C   UNL A   1      38.914  31.456  33.618  1.00  0.00     0.074 A 
ATOM     35  C   UNL A   1      37.709  32.238  33.422  1.00  0.00     0.031 C 
ATOM     36  C   UNL A   1      39.626  31.421  34.771  1.00  0.00     0.037 A 
BRANCH  23  37
ATOM     37  C   UNL A   1      44.529  27.649  34.664  1.00  0.00     0.064 A 
ATOM     38  C   UNL A   1      44.411  26.482  35.429  1.00  0.00     0.173 A 
ATOM     39  C   UNL A   1      45.791  28.260  34.582  1.00  0.00     0.173 A 
ATOM     40  F   UNL A   1      43.228  25.858  35.531  1.00  0.00    -0.203 F 
ATOM     41  C   UNL A   1      45.514  25.945  36.087  1.00  0.00     0.198 A 
ATOM     42  C   UNL A   1      46.896  27.707  35.222  1.00  0.00     0.198 A 
ATOM     43  F   UNL A   1      45.959  29.366  33.842  1.00  0.00    -0.203 F 
ATOM     44  F   UNL A   1      45.378  24.829  36.819  1.00  0.00    -0.200 F 
ATOM     45  C   UNL A   1      46.756  26.553  35.977  1.00  0.00     0.200 A 
ATOM     46  F   UNL A   1      48.102  28.279  35.089  1.00  0.00    -0.200 F 
ATOM     47  F   UNL A   1      47.821  26.019  36.591  1.00  0.00    -0.200 F 
ENDBRANCH  23  37
BRANCH  24  48
ATOM     48  C   UNL A   1      36.880  31.355  29.359  1.00  0.00     0.064 A 
ATOM     49  C   UNL A   1      36.830  32.706  28.981  1.00  0.00     0.173 A 
ATOM     50  C   UNL A   1      35.809  30.535  28.982  1.00  0.00     0.173 A 
ATOM     51  F   UNL A   1      37.829  33.534  29.319  1.00  0.00    -0.203 F 
ATOM     52  C   UNL A   1      35.747  33.217  28.268  1.00  0.00     0.198 A 
ATOM     53  C   UNL A   1      34.735  31.043  28.251  1.00  0.00     0.198 A 
ATOM     54  F   UNL A   1      35.816  29.233  29.305  1.00  0.00    -0.203 F 
ATOM     55  F   UNL A   1      35.713  34.516  27.941  1.00  0.00    -0.200 F 
ATOM     56  C   UNL A   1      34.703  32.383  27.900  1.00  0.00     0.200 A 
ATOM     57  F   UNL A   1      33.735  30.230  27.882  1.00  0.00    -0.200 F 
ATOM     58  F   UNL A   1      33.665  32.872  27.206  1.00  0.00    -0.200 F 
ENDBRANCH  24  48
BRANCH  36  59
ATOM     59  C   UNL A   1      39.151  32.277  35.904  1.00  0.00     0.064 A 
ATOM     60  C   UNL A   1      39.642  33.584  36.054  1.00  0.00     0.173 A 
ATOM     61  C   UNL A   1      38.291  31.777  36.891  1.00  0.00     0.173 A 
ATOM     62  F   UNL A   1      40.474  34.103  35.138  1.00  0.00    -0.203 F 
ATOM     63  C   UNL A   1      39.307  34.349  37.166  1.00  0.00     0.198 A 
ATOM     64  C   UNL A   1      37.937  32.555  37.988  1.00  0.00     0.198 A 
ATOM     65  F   UNL A   1      37.787  30.538  36.782  1.00  0.00    -0.203 F 
ATOM     66  F   UNL A   1      39.821  35.578  37.311  1.00  0.00    -0.200 F 
ATOM     67  C   UNL A   1      38.454  33.835  38.132  1.00  0.00     0.200 A 
ATOM     68  F   UNL A   1      37.096  32.067  38.911  1.00  0.00    -0.200 F 
ATOM     69  F   UNL A   1      38.131  34.574  39.201  1.00  0.00    -0.200 F 
ENDBRANCH  36  59
ENDBRANCH  10  11
ENDBRANCH   3   5
ENDBRANCH   2   3
ENDBRANCH   1   2
BRANCH   1  70
ATOM     70  C   UNL A   1      42.654  21.241  26.094  1.00  0.00     0.275 C 
BRANCH  70  71
ATOM     71  O   UNL A   1      41.339  21.612  25.655  1.00  0.00    -0.458 OA
BRANCH  71  72
ATOM     72  C   UNL A   1      40.354  21.364  26.557  1.00  0.00     0.338 C 
ATOM     73  O   UNL A   1      40.451  20.748  27.605  1.00  0.00    -0.246 OA
BRANCH  72  74
ATOM     74  C   UNL A   1      39.133  22.079  26.149  1.00  0.00     0.062 A 
ATOM     75  C   UNL A   1      38.925  23.411  26.523  1.00  0.00     0.018 A 
ATOM     76  C   UNL A   1      38.191  21.365  25.389  1.00  0.00     0.044 A 
ATOM     77  C   UNL A   1      37.760  24.078  26.124  1.00  0.00     0.031 A 
ATOM     78  C   UNL A   1      37.000  22.030  25.099  1.00  0.00     0.067 A 
ATOM     79  C   UNL A   1      36.786  23.367  25.408  1.00  0.00     0.089 A 
ATOM     80  N   UNL A   1      35.820  21.622  24.525  1.00  0.00    -0.338 N 
ATOM     81  N   UNL A   1      35.589  23.792  24.905  1.00  0.00    -0.228 NA
ATOM     82  C   UNL A   1      35.019  22.726  24.385  1.00  0.00     0.142 A 
ATOM     83  H   UNL A   1      35.589  20.702  24.263  1.00  0.00     0.168 HD
BRANCH  82  84
ATOM     84  C   UNL A   1      33.733  22.759  23.657  1.00  0.00     0.063 A 
ATOM     85  C   UNL A   1      33.156  23.836  23.030  1.00  0.00     0.117 A 
ATOM     86  C   UNL A   1      32.819  21.679  23.500  1.00  0.00     0.106 A 
ATOM     87  N   UNL A   1      32.016  23.346  22.459  1.00  0.00    -0.284 N 
ATOM     88  N   UNL A   1      31.757  22.066  22.774  1.00  0.00    -0.175 NA
ATOM     89  H   UNL A   1      31.438  23.880  21.868  1.00  0.00     0.189 HD
BRANCH  86  90
ATOM     90  C   UNL A   1      32.873  20.384  24.168  1.00  0.00     0.039 A 
ATOM     91  C   UNL A   1      32.900  19.212  23.389  1.00  0.00     0.016 A 
ATOM     92  C   UNL A   1      32.880  20.268  25.559  1.00  0.00     0.135 A 
ATOM     93  C   UNL A   1      32.907  17.957  23.994  1.00  0.00     0.040 A 
ATOM     94  C   UNL A   1      32.897  19.016  26.170  1.00  0.00     0.079 A 
ATOM     95  F   UNL A   1      32.846  21.356  26.344  1.00  0.00    -0.206 F 
ATOM     96  C   UNL A   1      32.904  17.872  25.380  1.00  0.00     0.126 A 
ATOM     97  F   UNL A   1      32.908  16.666  25.962  1.00  0.00    -0.207 F 
ENDBRANCH  86  90
ENDBRANCH  82  84
ENDBRANCH  72  74
ENDBRANCH  71  72
ENDBRANCH  70  71
ENDBRANCH   1  70
TORSDOF 13
ENDMDL
MODEL 2
REMARK VINA RESULT:     -13.4      1.549      2.775
REMARK SMILES O=C(OCCOC(=O)c1ccc2nc(-c3c[nH]nc3-c3ccc(F)cc3F)[nH]c2c1)c1ccc(-c2c3nc(c(-c4c(F)c(F)c(F)c(F)c4F)c4ccc([nH]4)c(-c4c(F)c(F)c(F)c(F)c4F)c4nc(c(-c5c(F)c(F)c(F)c(F)c5F)c5ccc2[nH]5)C=C4)C=C3)cc1
REMARK SMILES IDX 4 1 3 2 2 3 1 4 31 5 32 6 93 7 33 8 92 9 34 10 35 11 36 12
REMARK SMILES IDX 86 13 37 14 91 15 85 16 87 17 38 18 90 19 84 20 83 21 39 23
REMARK SMILES IDX 71 24 51 25 70 26 52 27 55 28 69 29 88 30 53 31 54 32 68 34
REMARK SMILES IDX 89 35 56 36 40 37 41 38 49 39 42 40 43 41 47 42 50 43 44 44
REMARK SMILES IDX 45 45 48 46 46 47 72 48 73 49 81 50 74 51 75 52 79 53 82 54
REMARK SMILES IDX 76 55 77 56 80 57 78 58 57 59 58 60 66 61 59 62 60 63 64 64
REMARK SMILES IDX 67 65 61 66 62 67 65 68 63 69 5 70 6 71 7 72 8 73 9 74 10 75
REMARK SMILES IDX 30 76 11 77 29 78 12 79 28 80 13 81 14 82 15 84 16 85 19 86
REMARK SMILES IDX 17 87 18 88 20 90 21 91 26 92 22 93 25 94 27 95 23 96 24 97
REMARK H PARENT 87 22 55 33 28 83 17 89
REMARK Flexibility Score: inf
ROOT
ATOM      1  C   UNL A   1      43.831  21.776  25.366  1.00  0.00     0.275 C 
ENDROOT
BRANCH   1   2
ATOM      2  O   UNL A   1      43.539  23.071  24.809  1.00  0.00    -0.458 OA
BRANCH   2   3
ATOM      3  C   UNL A   1      44.077  24.281  25.081  1.00  0.00     0.338 C 
ATOM      4  O   UNL A   1      45.122  24.608  24.518  1.00  0.00    -0.246 OA
BRANCH   3   5
ATOM      5  C   UNL A   1      43.566  25.197  26.147  1.00  0.00     0.060 A 
ATOM      6  C   UNL A   1      44.068  26.460  26.461  1.00  0.00     0.016 A 
ATOM      7  C   UNL A   1      42.488  24.709  26.911  1.00  0.00     0.016 A 
ATOM      8  C   UNL A   1      43.467  27.246  27.449  1.00  0.00     0.010 A 
ATOM      9  C   UNL A   1      41.869  25.497  27.884  1.00  0.00     0.010 A 
ATOM     10  C   UNL A   1      42.363  26.772  28.160  1.00  0.00    -0.014 A 
BRANCH  10  11
ATOM     11  C   UNL A   1      41.827  27.553  29.295  1.00  0.00     0.031 A 
ATOM     12  C   UNL A   1      42.523  27.460  30.618  1.00  0.00     0.074 A 
ATOM     13  C   UNL A   1      40.765  28.361  29.129  1.00  0.00     0.049 A 
ATOM     14  N   UNL A   1      42.265  28.088  31.733  1.00  0.00    -0.248 NA
ATOM     15  C   UNL A   1      43.682  26.555  30.688  1.00  0.00     0.031 C 
ATOM     16  C   UNL A   1      40.051  28.563  27.872  1.00  0.00     0.029 A 
ATOM     17  N   UNL A   1      40.095  29.155  30.024  1.00  0.00    -0.354 N 
ATOM     18  C   UNL A   1      43.253  27.690  32.619  1.00  0.00     0.074 A 
ATOM     19  C   UNL A   1      44.070  26.708  31.944  1.00  0.00     0.031 C 
ATOM     20  C   UNL A   1      39.012  29.387  28.081  1.00  0.00     0.029 A 
ATOM     21  C   UNL A   1      38.991  29.773  29.490  1.00  0.00     0.049 A 
ATOM     22  H   UNL A   1      40.378  29.270  30.960  1.00  0.00     0.167 HD
ATOM     23  C   UNL A   1      43.482  28.141  33.873  1.00  0.00     0.037 A 
ATOM     24  C   UNL A   1      38.069  30.558  30.079  1.00  0.00     0.037 A 
ATOM     25  C   UNL A   1      42.647  29.098  34.542  1.00  0.00     0.049 A 
ATOM     26  C   UNL A   1      38.259  30.933  31.523  1.00  0.00     0.074 A 
ATOM     27  C   UNL A   1      42.782  29.623  35.814  1.00  0.00     0.029 A 
ATOM     28  N   UNL A   1      41.504  29.662  33.991  1.00  0.00    -0.354 N 
ATOM     29  N   UNL A   1      39.232  30.601  32.338  1.00  0.00    -0.248 NA
ATOM     30  C   UNL A   1      37.248  31.814  32.124  1.00  0.00     0.031 C 
ATOM     31  C   UNL A   1      41.696  30.471  36.047  1.00  0.00     0.029 A 
ATOM     32  C   UNL A   1      40.909  30.511  34.906  1.00  0.00     0.049 A 
ATOM     33  H   UNL A   1      41.168  29.483  33.082  1.00  0.00     0.167 HD
ATOM     34  C   UNL A   1      38.976  31.263  33.531  1.00  0.00     0.074 A 
ATOM     35  C   UNL A   1      37.751  32.014  33.335  1.00  0.00     0.031 C 
ATOM     36  C   UNL A   1      39.698  31.260  34.678  1.00  0.00     0.037 A 
BRANCH  23  37
ATOM     37  C   UNL A   1      44.687  27.602  34.581  1.00  0.00     0.064 A 
ATOM     38  C   UNL A   1      44.607  26.431  35.345  1.00  0.00     0.173 A 
ATOM     39  C   UNL A   1      45.929  28.252  34.498  1.00  0.00     0.173 A 
ATOM     40  F   UNL A   1      43.445  25.769  35.450  1.00  0.00    -0.203 F 
ATOM     41  C   UNL A   1      45.728  25.929  36.002  1.00  0.00     0.198 A 
ATOM     42  C   UNL A   1      47.052  27.735  35.136  1.00  0.00     0.198 A 
ATOM     43  F   UNL A   1      46.060  29.364  33.759  1.00  0.00    -0.203 F 
ATOM     44  F   UNL A   1      45.629  24.809  36.733  1.00  0.00    -0.200 F 
ATOM     45  C   UNL A   1      46.949  26.576  35.890  1.00  0.00     0.200 A 
ATOM     46  F   UNL A   1      48.238  28.345  35.001  1.00  0.00    -0.200 F 
ATOM     47  F   UNL A   1      48.032  26.076  36.502  1.00  0.00    -0.200 F 
ENDBRANCH  23  37
BRANCH  24  48
ATOM     48  C   UNL A   1      36.909  31.054  29.292  1.00  0.00     0.064 A 
ATOM     49  C   UNL A   1      35.820  30.218  29.001  1.00  0.00     0.173 A 
ATOM     50  C   UNL A   1      36.872  32.365  28.799  1.00  0.00     0.173 A 
ATOM     51  F   UNL A   1      35.808  28.953  29.446  1.00  0.00    -0.203 F 
ATOM     52  C   UNL A   1      34.746  30.670  28.237  1.00  0.00     0.198 A 
ATOM     53  C   UNL A   1      35.787  32.823  28.052  1.00  0.00     0.198 A 
ATOM     54  F   UNL A   1      37.880  33.208  29.063  1.00  0.00    -0.203 F 
ATOM     55  F   UNL A   1      33.731  29.843  27.952  1.00  0.00    -0.200 F 
ATOM     56  C   UNL A   1      34.729  31.974  27.766  1.00  0.00     0.200 A 
ATOM     57  F   UNL A   1      35.766  34.089  27.613  1.00  0.00    -0.200 F 
ATOM     58  F   UNL A   1      33.692  32.413  27.040  1.00  0.00    -0.200 F 
ENDBRANCH  24  48
BRANCH  36  59
ATOM     59  C   UNL A   1      39.213  32.122  35.803  1.00  0.00     0.064 A 
ATOM     60  C   UNL A   1      39.729  33.416  35.973  1.00  0.00     0.173 A 
ATOM     61  C   UNL A   1      38.316  31.636  36.764  1.00  0.00     0.173 A 
ATOM     62  F   UNL A   1      40.597  33.920  35.083  1.00  0.00    -0.203 F 
ATOM     63  C   UNL A   1      39.382  34.183  37.081  1.00  0.00     0.198 A 
ATOM     64  C   UNL A   1      37.951  32.417  37.856  1.00  0.00     0.198 A 
ATOM     65  F   UNL A   1      37.788  30.409  36.635  1.00  0.00    -0.203 F 
ATOM     66  F   UNL A   1      39.920  35.399  37.245  1.00  0.00    -0.200 F 
ATOM     67  C   UNL A   1      38.492  33.684  38.020  1.00  0.00     0.200 A 
ATOM     68  F   UNL A   1      37.075  31.943  38.754  1.00  0.00    -0.200 F 
ATOM     69  F   UNL A   1      38.159  34.424  39.085  1.00  0.00    -0.200 F 
ENDBRANCH  36  59
ENDBRANCH  10  11
ENDBRANCH   3   5
ENDBRANCH   2   3
ENDBRANCH   1   2
BRANCH   1  70
ATOM     70  C   UNL A   1      42.639  21.062  26.006  1.00  0.00     0.275 C 
BRANCH  70  71
ATOM     71  O   UNL A   1      41.373  21.657  25.687  1.00  0.00    -0.458 OA
BRANCH  71  72
ATOM     72  C   UNL A   1      40.363  21.317  26.529  1.00  0.00     0.338 C 
ATOM     73  O   UNL A   1      40.432  20.603  27.514  1.00  0.00    -0.246 OA
BRANCH  72  74
ATOM     74  C   UNL A   1      39.149  22.063  26.154  1.00  0.00     0.062 A 
ATOM     75  C   UNL A   1      39.005  23.412  26.495  1.00  0.00     0.018 A 
ATOM     76  C   UNL A   1      38.149  21.360  25.460  1.00  0.00     0.044 A 
ATOM     77  C   UNL A   1      37.845  24.109  26.129  1.00  0.00     0.031 A 
ATOM     78  C   UNL A   1      36.969  22.059  25.204  1.00  0.00     0.067 A 
ATOM     79  C   UNL A   1      36.816  23.411  25.480  1.00  0.00     0.089 A 
ATOM     80  N   UNL A   1      35.750  21.677  24.697  1.00  0.00    -0.338 N 
ATOM     81  N   UNL A   1      35.612  23.864  25.019  1.00  0.00    -0.228 NA
ATOM     82  C   UNL A   1      34.982  22.803  24.559  1.00  0.00     0.142 A 
ATOM     83  H   UNL A   1      35.477  20.757  24.475  1.00  0.00     0.168 HD
BRANCH  82  84
ATOM     84  C   UNL A   1      33.666  22.861  23.889  1.00  0.00     0.063 A 
ATOM     85  C   UNL A   1      33.040  21.857  23.192  1.00  0.00     0.117 A 
ATOM     86  C   UNL A   1      32.806  23.992  23.803  1.00  0.00     0.106 A 
ATOM     87  N   UNL A   1      31.832  22.380  22.824  1.00  0.00    -0.284 N 
ATOM     88  N   UNL A   1      31.689  23.681  23.126  1.00  0.00    -0.175 NA
ATOM     89  H   UNL A   1      31.131  21.851  22.380  1.00  0.00     0.189 HD
BRANCH  86  90
ATOM     90  C   UNL A   1      33.120  25.360  24.196  1.00  0.00     0.039 A 
ATOM     91  C   UNL A   1      32.945  25.745  25.539  1.00  0.00     0.016 A 
ATOM     92  C   UNL A   1      33.574  26.309  23.277  1.00  0.00     0.135 A 
ATOM     93  C   UNL A   1      33.193  27.056  25.940  1.00  0.00     0.040 A 
ATOM     94  C   UNL A   1      33.833  27.619  23.675  1.00  0.00     0.079 A 
ATOM     95  F   UNL A   1      33.747  25.992  21.985  1.00  0.00    -0.206 F 
ATOM     96  C   UNL A   1      33.634  27.981  25.002  1.00  0.00     0.126 A 
ATOM     97  F   UNL A   1      33.870  29.242  25.387  1.00  0.00    -0.207 F 
ENDBRANCH  86  90
ENDBRANCH  82  84
ENDBRANCH  72  74
ENDBRANCH  71  72
ENDBRANCH  70  71
ENDBRANCH   1  70
TORSDOF 13
ENDMDL
MODEL 3
REMARK VINA RESULT:     -13.1      5.449     10.014
REMARK SMILES O=C(OCCOC(=O)c1ccc2nc(-c3c[nH]nc3-c3ccc(F)cc3F)[nH]c2c1)c1ccc(-c2c3nc(c(-c4c(F)c(F)c(F)c(F)c4F)c4ccc([nH]4)c(-c4c(F)c(F)c(F)c(F)c4F)c4nc(c(-c5c(F)c(F)c(F)c(F)c5F)c5ccc2[nH]5)C=C4)C=C3)cc1
REMARK SMILES IDX 4 1 3 2 2 3 1 4 31 5 32 6 93 7 33 8 92 9 34 10 35 11 36 12
REMARK SMILES IDX 86 13 37 14 91 15 85 16 87 17 38 18 90 19 84 20 83 21 39 23
REMARK SMILES IDX 71 24 51 25 70 26 52 27 55 28 69 29 88 30 53 31 54 32 68 34
REMARK SMILES IDX 89 35 56 36 40 37 41 38 49 39 42 40 43 41 47 42 50 43 44 44
REMARK SMILES IDX 45 45 48 46 46 47 72 48 73 49 81 50 74 51 75 52 79 53 82 54
REMARK SMILES IDX 76 55 77 56 80 57 78 58 57 59 58 60 66 61 59 62 60 63 64 64
REMARK SMILES IDX 67 65 61 66 62 67 65 68 63 69 5 70 6 71 7 72 8 73 9 74 10 75
REMARK SMILES IDX 30 76 11 77 29 78 12 79 28 80 13 81 14 82 15 84 16 85 19 86
REMARK SMILES IDX 17 87 18 88 20 90 21 91 26 92 22 93 25 94 27 95 23 96 24 97
REMARK H PARENT 87 22 55 33 28 83 17 89
REMARK Flexibility Score: inf
ROOT
ATOM      1  C   UNL A   1      34.495  33.294  29.461  1.00  0.00     0.275 C 
ENDROOT
BRANCH   1   2
ATOM      2  O   UNL A   1      34.426  32.335  30.533  1.00  0.00    -0.458 OA
BRANCH   2   3
ATOM      3  C   UNL A   1      35.364  31.961  31.432  1.00  0.00     0.338 C 
ATOM      4  O   UNL A   1      35.234  32.308  32.606  1.00  0.00    -0.246 OA
BRANCH   3   5
ATOM      5  C   UNL A   1      36.642  31.277  31.064  1.00  0.00     0.060 A 
ATOM      6  C   UNL A   1      37.548  30.689  31.947  1.00  0.00     0.016 A 
ATOM      7  C   UNL A   1      36.954  31.256  29.691  1.00  0.00     0.016 A 
ATOM      8  C   UNL A   1      38.687  30.030  31.474  1.00  0.00     0.010 A 
ATOM      9  C   UNL A   1      38.078  30.582  29.209  1.00  0.00     0.010 A 
ATOM     10  C   UNL A   1      38.954  29.968  30.105  1.00  0.00    -0.014 A 
BRANCH  10  11
ATOM     11  C   UNL A   1      40.231  29.393  29.629  1.00  0.00     0.031 A 
ATOM     12  C   UNL A   1      41.448  30.265  29.625  1.00  0.00     0.074 A 
ATOM     13  C   UNL A   1      40.302  28.105  29.250  1.00  0.00     0.049 A 
ATOM     14  N   UNL A   1      42.677  29.966  29.301  1.00  0.00    -0.248 NA
ATOM     15  C   UNL A   1      41.262  31.656  30.069  1.00  0.00     0.031 C 
ATOM     16  C   UNL A   1      39.189  27.161  29.268  1.00  0.00     0.029 A 
ATOM     17  N   UNL A   1      41.354  27.371  28.767  1.00  0.00    -0.354 N 
ATOM     18  C   UNL A   1      43.415  31.113  29.545  1.00  0.00     0.074 A 
ATOM     19  C   UNL A   1      42.490  32.140  29.968  1.00  0.00     0.031 C 
ATOM     20  C   UNL A   1      39.601  25.983  28.771  1.00  0.00     0.029 A 
ATOM     21  C   UNL A   1      41.010  26.092  28.404  1.00  0.00     0.049 A 
ATOM     22  H   UNL A   1      42.269  27.727  28.687  1.00  0.00     0.167 HD
ATOM     23  C   UNL A   1      44.754  31.279  29.465  1.00  0.00     0.037 A 
ATOM     24  C   UNL A   1      41.753  25.124  27.835  1.00  0.00     0.037 A 
ATOM     25  C   UNL A   1      45.659  30.258  29.017  1.00  0.00     0.049 A 
ATOM     26  C   UNL A   1      43.219  25.377  27.614  1.00  0.00     0.074 A 
ATOM     27  C   UNL A   1      47.034  30.317  28.893  1.00  0.00     0.029 A 
ATOM     28  N   UNL A   1      45.269  28.991  28.604  1.00  0.00    -0.354 N 
ATOM     29  N   UNL A   1      43.923  26.446  27.906  1.00  0.00    -0.248 NA
ATOM     30  C   UNL A   1      44.005  24.288  27.018  1.00  0.00     0.031 C 
ATOM     31  C   UNL A   1      47.472  29.100  28.361  1.00  0.00     0.029 A 
ATOM     32  C   UNL A   1      46.376  28.266  28.198  1.00  0.00     0.049 A 
ATOM     33  H   UNL A   1      44.342  28.658  28.600  1.00  0.00     0.167 HD
ATOM     34  C   UNL A   1      45.235  26.146  27.570  1.00  0.00     0.074 A 
ATOM     35  C   UNL A   1      45.230  24.793  27.047  1.00  0.00     0.031 C 
ATOM     36  C   UNL A   1      46.344  26.914  27.698  1.00  0.00     0.037 A 
BRANCH  23  37
ATOM     37  C   UNL A   1      45.302  32.610  29.879  1.00  0.00     0.064 A 
ATOM     38  C   UNL A   1      45.696  32.843  31.203  1.00  0.00     0.173 A 
ATOM     39  C   UNL A   1      45.437  33.658  28.955  1.00  0.00     0.173 A 
ATOM     40  F   UNL A   1      45.594  31.871  32.121  1.00  0.00    -0.203 F 
ATOM     41  C   UNL A   1      46.208  34.080  31.588  1.00  0.00     0.198 A 
ATOM     42  C   UNL A   1      45.970  34.885  29.338  1.00  0.00     0.198 A 
ATOM     43  F   UNL A   1      45.094  33.474  27.671  1.00  0.00    -0.203 F 
ATOM     44  F   UNL A   1      46.575  34.285  32.861  1.00  0.00    -0.200 F 
ATOM     45  C   UNL A   1      46.351  35.096  30.654  1.00  0.00     0.200 A 
ATOM     46  F   UNL A   1      46.136  35.855  28.428  1.00  0.00    -0.200 F 
ATOM     47  F   UNL A   1      46.867  36.277  31.022  1.00  0.00    -0.200 F 
ENDBRANCH  23  37
BRANCH  24  48
ATOM     48  C   UNL A   1      41.123  23.829  27.465  1.00  0.00     0.064 A 
ATOM     49  C   UNL A   1      41.516  22.631  28.083  1.00  0.00     0.173 A 
ATOM     50  C   UNL A   1      40.132  23.757  26.478  1.00  0.00     0.173 A 
ATOM     51  F   UNL A   1      42.463  22.644  29.031  1.00  0.00    -0.203 F 
ATOM     52  C   UNL A   1      40.950  21.411  27.716  1.00  0.00     0.198 A 
ATOM     53  C   UNL A   1      39.552  22.539  26.127  1.00  0.00     0.198 A 
ATOM     54  F   UNL A   1      39.711  24.876  25.870  1.00  0.00    -0.203 F 
ATOM     55  F   UNL A   1      41.361  20.279  28.303  1.00  0.00    -0.200 F 
ATOM     56  C   UNL A   1      39.965  21.367  26.741  1.00  0.00     0.200 A 
ATOM     57  F   UNL A   1      38.587  22.503  25.197  1.00  0.00    -0.200 F 
ATOM     58  F   UNL A   1      39.413  20.196  26.396  1.00  0.00    -0.200 F 
ENDBRANCH  24  48
BRANCH  36  59
ATOM     59  C   UNL A   1      47.656  26.308  27.304  1.00  0.00     0.064 A 
ATOM     60  C   UNL A   1      48.387  25.548  28.231  1.00  0.00     0.173 A 
ATOM     61  C   UNL A   1      48.233  26.558  26.053  1.00  0.00     0.173 A 
ATOM     62  F   UNL A   1      47.878  25.289  29.445  1.00  0.00    -0.203 F 
ATOM     63  C   UNL A   1      49.660  25.080  27.924  1.00  0.00     0.198 A 
ATOM     64  C   UNL A   1      49.496  26.065  25.740  1.00  0.00     0.198 A 
ATOM     65  F   UNL A   1      47.566  27.269  25.131  1.00  0.00    -0.203 F 
ATOM     66  F   UNL A   1      50.358  24.392  28.839  1.00  0.00    -0.200 F 
ATOM     67  C   UNL A   1      50.214  25.338  26.679  1.00  0.00     0.200 A 
ATOM     68  F   UNL A   1      50.023  26.297  24.529  1.00  0.00    -0.200 F 
ATOM     69  F   UNL A   1      51.440  24.886  26.384  1.00  0.00    -0.200 F 
ENDBRANCH  36  59
ENDBRANCH  10  11
ENDBRANCH   3   5
ENDBRANCH   2   3
ENDBRANCH   1   2
BRANCH   1  70
ATOM     70  C   UNL A   1      33.614  32.979  28.251  1.00  0.00     0.275 C 
BRANCH  70  71
ATOM     71  O   UNL A   1      33.718  31.620  27.802  1.00  0.00    -0.458 OA
BRANCH  71  72
ATOM     72  C   UNL A   1      32.610  31.148  27.174  1.00  0.00     0.338 C 
ATOM     73  O   UNL A   1      31.654  31.793  26.780  1.00  0.00    -0.246 OA
BRANCH  72  74
ATOM     74  C   UNL A   1      32.784  29.710  26.901  1.00  0.00     0.062 A 
ATOM     75  C   UNL A   1      34.025  29.204  26.502  1.00  0.00     0.018 A 
ATOM     76  C   UNL A   1      31.655  28.886  27.044  1.00  0.00     0.044 A 
ATOM     77  C   UNL A   1      34.175  27.834  26.249  1.00  0.00     0.031 A 
ATOM     78  C   UNL A   1      31.819  27.548  26.685  1.00  0.00     0.067 A 
ATOM     79  C   UNL A   1      33.049  27.003  26.339  1.00  0.00     0.089 A 
ATOM     80  N   UNL A   1      30.936  26.504  26.551  1.00  0.00    -0.338 N 
ATOM     81  N   UNL A   1      32.943  25.654  26.153  1.00  0.00    -0.228 NA
ATOM     82  C   UNL A   1      31.662  25.374  26.278  1.00  0.00     0.142 A 
ATOM     83  H   UNL A   1      29.957  26.557  26.636  1.00  0.00     0.168 HD
BRANCH  82  84
ATOM     84  C   UNL A   1      31.117  24.001  26.230  1.00  0.00     0.063 A 
ATOM     85  C   UNL A   1      30.039  23.507  26.921  1.00  0.00     0.117 A 
ATOM     86  C   UNL A   1      31.637  22.907  25.481  1.00  0.00     0.106 A 
ATOM     87  N   UNL A   1      29.903  22.216  26.492  1.00  0.00    -0.284 N 
ATOM     88  N   UNL A   1      30.885  21.811  25.671  1.00  0.00    -0.175 NA
ATOM     89  H   UNL A   1      29.152  21.638  26.759  1.00  0.00     0.189 HD
BRANCH  86  90
ATOM     90  C   UNL A   1      32.902  22.866  24.758  1.00  0.00     0.039 A 
ATOM     91  C   UNL A   1      34.032  22.307  25.384  1.00  0.00     0.016 A 
ATOM     92  C   UNL A   1      33.033  23.379  23.466  1.00  0.00     0.135 A 
ATOM     93  C   UNL A   1      35.267  22.292  24.739  1.00  0.00     0.040 A 
ATOM     94  C   UNL A   1      34.263  23.358  22.812  1.00  0.00     0.079 A 
ATOM     95  F   UNL A   1      31.987  23.930  22.832  1.00  0.00    -0.206 F 
ATOM     96  C   UNL A   1      35.369  22.819  23.458  1.00  0.00     0.126 A 
ATOM     97  F   UNL A   1      36.557  22.806  22.838  1.00  0.00    -0.207 F 
ENDBRANCH  86  90
ENDBRANCH  82  84
ENDBRANCH  72  74
ENDBRANCH  71  72
ENDBRANCH  70  71
ENDBRANCH   1  70
TORSDOF 13
ENDMDL
