MODEL 1
REMARK VINA RESULT:     -12.2      0.000      0.000
REMARK SMILES COc1cc(C(=O)OCCOC(=O)c2ccc(-c3c4nc(c(-c5c(F)c(F)c(F)c(F)c5F)c5ccc([nH]5)c(-c5c(F)c(F)c(F)c(F)c5F)c5nc(c(-c6c(F)c(F)c(F)c(F)c6F)c6ccc3[nH]6)C=C5)C=C4)cc2)ccc1OCC(=O)N[C@H]1CCCC[C@H]1C
REMARK SMILES IDX 9 1 8 2 6 3 7 4 5 5 3 6 4 7 79 8 78 9 77 10 2 11 1 12 80 13
REMARK SMILES IDX 81 14 82 15 83 16 84 17 85 19 86 20 90 21 87 22 89 23 91 24
REMARK SMILES IDX 88 25 10 26 11 27 12 28 13 29 14 30 15 31 76 32 16 33 75 34
REMARK SMILES IDX 17 35 18 36 19 37 69 38 20 39 74 40 68 41 70 42 21 43 73 44
REMARK SMILES IDX 67 45 66 46 22 48 54 49 34 50 53 51 35 52 38 53 52 54 71 55
REMARK SMILES IDX 36 56 37 57 51 59 72 60 39 61 23 62 24 63 32 64 25 65 26 66
REMARK SMILES IDX 30 67 33 68 27 69 28 70 31 71 29 72 55 73 56 74 64 75 57 76
REMARK SMILES IDX 58 77 62 78 65 79 59 80 60 81 63 82 61 83 40 84 41 85 49 86
REMARK SMILES IDX 42 87 43 88 47 89 50 90 44 91 45 92 48 93 46 94
REMARK H PARENT 84 18 70 47 38 58
REMARK Flexibility Score: inf
ROOT
ATOM      1  C   UNL A   1      31.307  30.017  24.297  1.00  0.00     0.275 C 
ENDROOT
BRANCH   1   2
ATOM      2  O   UNL A   1      29.930  29.974  23.865  1.00  0.00    -0.458 OA
BRANCH   2   3
ATOM      3  C   UNL A   1      29.664  29.296  22.718  1.00  0.00     0.338 C 
ATOM      4  O   UNL A   1      29.380  29.764  21.637  1.00  0.00    -0.246 OA
BRANCH   3   5
ATOM      5  C   UNL A   1      29.929  27.851  22.942  1.00  0.00     0.064 A 
ATOM      6  C   UNL A   1      31.408  25.939  22.633  1.00  0.00     0.161 A 
ATOM      7  C   UNL A   1      31.059  27.263  22.347  1.00  0.00     0.066 A 
ATOM      8  C   UNL A   1      30.543  25.162  23.409  1.00  0.00     0.161 A 
ATOM      9  C   UNL A   1      29.417  25.755  24.001  1.00  0.00     0.051 A 
ATOM     10  C   UNL A   1      29.109  27.095  23.778  1.00  0.00     0.020 A 
BRANCH   6  11
ATOM     11  O   UNL A   1      32.614  25.390  22.304  1.00  0.00    -0.493 OA
ATOM     12  C   UNL A   1      32.903  25.196  20.927  1.00  0.00     0.278 C 
ENDBRANCH   6  11
BRANCH   8  13
ATOM     13  O   UNL A   1      30.655  23.825  23.673  1.00  0.00    -0.480 OA
BRANCH  13  14
ATOM     14  C   UNL A   1      30.668  23.363  25.014  1.00  0.00     0.329 C 
BRANCH  14  15
ATOM     15  C   UNL A   1      31.659  23.826  26.104  1.00  0.00     0.258 C 
ATOM     16  O   UNL A   1      31.265  24.078  27.251  1.00  0.00    -0.271 OA
ATOM     17  N   UNL A   1      32.996  23.950  25.904  1.00  0.00    -0.350 N 
ATOM     18  H   UNL A   1      33.417  24.634  26.472  1.00  0.00     0.163 HD
BRANCH  17  19
ATOM     19  C   UNL A   1      33.935  23.272  25.009  1.00  0.00     0.085 C 
ATOM     20  C   UNL A   1      35.237  24.012  24.712  1.00  0.00     0.025 C 
ATOM     21  C   UNL A   1      34.225  21.850  25.569  1.00  0.00     0.008 C 
ATOM     22  C   UNL A   1      36.162  23.223  23.792  1.00  0.00     0.002 C 
ATOM     23  C   UNL A   1      35.160  21.076  24.627  1.00  0.00     0.005 C 
ATOM     24  C   UNL A   1      34.772  21.864  27.011  1.00  0.00     0.010 C 
ATOM     25  C   UNL A   1      36.453  21.833  24.334  1.00  0.00     0.000 C 
ENDBRANCH  17  19
ENDBRANCH  14  15
ENDBRANCH  13  14
ENDBRANCH   8  13
ENDBRANCH   3   5
ENDBRANCH   2   3
ENDBRANCH   1   2
BRANCH   1  26
ATOM     26  C   UNL A   1      31.363  30.323  25.794  1.00  0.00     0.275 C 
BRANCH  26  27
ATOM     27  O   UNL A   1      32.744  30.363  26.195  1.00  0.00    -0.458 OA
BRANCH  27  28
ATOM     28  C   UNL A   1      33.117  31.388  26.995  1.00  0.00     0.338 C 
ATOM     29  O   UNL A   1      32.477  32.387  27.275  1.00  0.00    -0.246 OA
BRANCH  28  30
ATOM     30  C   UNL A   1      34.455  31.097  27.547  1.00  0.00     0.060 A 
ATOM     31  C   UNL A   1      34.796  29.783  27.848  1.00  0.00     0.016 A 
ATOM     32  C   UNL A   1      35.338  32.125  27.864  1.00  0.00     0.016 A 
ATOM     33  C   UNL A   1      35.953  29.505  28.570  1.00  0.00     0.010 A 
ATOM     34  C   UNL A   1      36.559  31.825  28.491  1.00  0.00     0.010 A 
ATOM     35  C   UNL A   1      36.863  30.515  28.904  1.00  0.00    -0.014 A 
BRANCH  35  36
ATOM     36  C   UNL A   1      38.085  30.210  29.717  1.00  0.00     0.031 A 
ATOM     37  C   UNL A   1      39.190  29.352  29.144  1.00  0.00     0.074 A 
ATOM     38  C   UNL A   1      38.240  30.707  30.964  1.00  0.00     0.049 A 
ATOM     39  N   UNL A   1      40.197  28.776  29.754  1.00  0.00    -0.248 NA
ATOM     40  C   UNL A   1      39.144  29.087  27.697  1.00  0.00     0.031 C 
ATOM     41  C   UNL A   1      37.303  31.594  31.656  1.00  0.00     0.029 A 
ATOM     42  N   UNL A   1      39.257  30.537  31.878  1.00  0.00    -0.354 N 
ATOM     43  C   UNL A   1      40.845  28.014  28.787  1.00  0.00     0.074 A 
ATOM     44  C   UNL A   1      40.127  28.211  27.547  1.00  0.00     0.031 C 
ATOM     45  C   UNL A   1      37.806  31.930  32.851  1.00  0.00     0.029 A 
ATOM     46  C   UNL A   1      39.042  31.189  33.068  1.00  0.00     0.049 A 
ATOM     47  H   UNL A   1      40.061  29.999  31.695  1.00  0.00     0.167 HD
ATOM     48  C   UNL A   1      41.936  27.220  28.924  1.00  0.00     0.037 A 
ATOM     49  C   UNL A   1      39.718  31.155  34.233  1.00  0.00     0.037 A 
ATOM     50  C   UNL A   1      42.714  27.103  30.131  1.00  0.00     0.049 A 
ATOM     51  C   UNL A   1      40.924  30.268  34.363  1.00  0.00     0.074 A 
ATOM     52  C   UNL A   1      43.859  26.356  30.350  1.00  0.00     0.029 A 
ATOM     53  N   UNL A   1      42.445  27.774  31.314  1.00  0.00    -0.354 N 
ATOM     54  N   UNL A   1      41.479  29.491  33.466  1.00  0.00    -0.248 NA
ATOM     55  C   UNL A   1      41.582  30.233  35.677  1.00  0.00     0.031 C 
ATOM     56  C   UNL A   1      44.264  26.547  31.675  1.00  0.00     0.029 A 
ATOM     57  C   UNL A   1      43.395  27.447  32.269  1.00  0.00     0.049 A 
ATOM     58  H   UNL A   1      41.691  28.391  31.455  1.00  0.00     0.167 HD
ATOM     59  C   UNL A   1      42.551  28.883  34.102  1.00  0.00     0.074 A 
ATOM     60  C   UNL A   1      42.586  29.398  35.454  1.00  0.00     0.031 C 
ATOM     61  C   UNL A   1      43.423  27.970  33.610  1.00  0.00     0.037 A 
BRANCH  48  62
ATOM     62  C   UNL A   1      42.342  26.376  27.751  1.00  0.00     0.064 A 
ATOM     63  C   UNL A   1      43.350  26.766  26.859  1.00  0.00     0.173 A 
ATOM     64  C   UNL A   1      41.748  25.118  27.559  1.00  0.00     0.173 A 
ATOM     65  F   UNL A   1      43.944  27.961  26.993  1.00  0.00    -0.203 F 
ATOM     66  C   UNL A   1      43.731  25.938  25.804  1.00  0.00     0.198 A 
ATOM     67  C   UNL A   1      42.151  24.281  26.523  1.00  0.00     0.198 A 
ATOM     68  F   UNL A   1      40.786  24.691  28.392  1.00  0.00    -0.203 F 
ATOM     69  F   UNL A   1      44.671  26.347  24.940  1.00  0.00    -0.200 F 
ATOM     70  C   UNL A   1      43.139  24.694  25.642  1.00  0.00     0.200 A 
ATOM     71  F   UNL A   1      41.588  23.073  26.379  1.00  0.00    -0.200 F 
ATOM     72  F   UNL A   1      43.518  23.895  24.636  1.00  0.00    -0.200 F 
ENDBRANCH  48  62
BRANCH  49  73
ATOM     73  C   UNL A   1      39.225  31.938  35.397  1.00  0.00     0.064 A 
ATOM     74  C   UNL A   1      39.588  33.280  35.573  1.00  0.00     0.173 A 
ATOM     75  C   UNL A   1      38.379  31.361  36.357  1.00  0.00     0.173 A 
ATOM     76  F   UNL A   1      40.419  33.870  34.700  1.00  0.00    -0.203 F 
ATOM     77  C   UNL A   1      39.131  34.011  36.668  1.00  0.00     0.198 A 
ATOM     78  C   UNL A   1      37.895  32.101  37.431  1.00  0.00     0.198 A 
ATOM     79  F   UNL A   1      38.003  30.078  36.237  1.00  0.00    -0.203 F 
ATOM     80  F   UNL A   1      39.528  35.280  36.837  1.00  0.00    -0.200 F 
ATOM     81  C   UNL A   1      38.277  33.424  37.590  1.00  0.00     0.200 A 
ATOM     82  F   UNL A   1      37.057  31.535  38.309  1.00  0.00    -0.200 F 
ATOM     83  F   UNL A   1      37.828  34.132  38.637  1.00  0.00    -0.200 F 
ENDBRANCH  49  73
BRANCH  61  84
ATOM     84  C   UNL A   1      44.507  27.492  34.529  1.00  0.00     0.064 A 
ATOM     85  C   UNL A   1      45.728  28.174  34.638  1.00  0.00     0.173 A 
ATOM     86  C   UNL A   1      44.312  26.356  35.327  1.00  0.00     0.173 A 
ATOM     87  F   UNL A   1      45.968  29.254  33.881  1.00  0.00    -0.203 F 
ATOM     88  C   UNL A   1      46.724  27.721  35.499  1.00  0.00     0.198 A 
ATOM     89  C   UNL A   1      45.301  25.921  36.206  1.00  0.00     0.198 A 
ATOM     90  F   UNL A   1      43.161  25.672  35.262  1.00  0.00    -0.203 F 
ATOM     91  F   UNL A   1      47.900  28.362  35.556  1.00  0.00    -0.200 F 
ATOM     92  C   UNL A   1      46.507  26.600  36.287  1.00  0.00     0.200 A 
ATOM     93  F   UNL A   1      45.088  24.843  36.973  1.00  0.00    -0.200 F 
ATOM     94  F   UNL A   1      47.467  26.167  37.116  1.00  0.00    -0.200 F 
ENDBRANCH  61  84
ENDBRANCH  35  36
ENDBRANCH  28  30
ENDBRANCH  27  28
ENDBRANCH  26  27
ENDBRANCH   1  26
TORSDOF 16
ENDMDL
MODEL 2
REMARK VINA RESULT:     -12.1      1.570      2.716
REMARK SMILES COc1cc(C(=O)OCCOC(=O)c2ccc(-c3c4nc(c(-c5c(F)c(F)c(F)c(F)c5F)c5ccc([nH]5)c(-c5c(F)c(F)c(F)c(F)c5F)c5nc(c(-c6c(F)c(F)c(F)c(F)c6F)c6ccc3[nH]6)C=C5)C=C4)cc2)ccc1OCC(=O)N[C@H]1CCCC[C@H]1C
REMARK SMILES IDX 9 1 8 2 6 3 7 4 5 5 3 6 4 7 79 8 78 9 77 10 2 11 1 12 80 13
REMARK SMILES IDX 81 14 82 15 83 16 84 17 85 19 86 20 90 21 87 22 89 23 91 24
REMARK SMILES IDX 88 25 10 26 11 27 12 28 13 29 14 30 15 31 76 32 16 33 75 34
REMARK SMILES IDX 17 35 18 36 19 37 69 38 20 39 74 40 68 41 70 42 21 43 73 44
REMARK SMILES IDX 67 45 66 46 22 48 54 49 34 50 53 51 35 52 38 53 52 54 71 55
REMARK SMILES IDX 36 56 37 57 51 59 72 60 39 61 23 62 24 63 32 64 25 65 26 66
REMARK SMILES IDX 30 67 33 68 27 69 28 70 31 71 29 72 55 73 56 74 64 75 57 76
REMARK SMILES IDX 58 77 62 78 65 79 59 80 60 81 63 82 61 83 40 84 41 85 49 86
REMARK SMILES IDX 42 87 43 88 47 89 50 90 44 91 45 92 48 93 46 94
REMARK H PARENT 84 18 70 47 38 58
REMARK Flexibility Score: inf
ROOT
ATOM      1  C   UNL A   1      31.213  29.631  25.200  1.00  0.00     0.275 C 
ENDROOT
BRANCH   1   2
ATOM      2  O   UNL A   1      32.396  28.811  25.295  1.00  0.00    -0.458 OA
BRANCH   2   3
ATOM      3  C   UNL A   1      32.583  27.881  24.322  1.00  0.00     0.338 C 
ATOM      4  O   UNL A   1      32.602  28.065  23.124  1.00  0.00    -0.246 OA
BRANCH   3   5
ATOM      5  C   UNL A   1      32.928  26.582  24.958  1.00  0.00     0.064 A 
ATOM      6  C   UNL A   1      32.303  24.788  26.484  1.00  0.00     0.161 A 
ATOM      7  C   UNL A   1      32.078  26.061  25.950  1.00  0.00     0.066 A 
ATOM      8  C   UNL A   1      33.462  24.096  26.121  1.00  0.00     0.161 A 
ATOM      9  C   UNL A   1      34.305  24.621  25.130  1.00  0.00     0.051 A 
ATOM     10  C   UNL A   1      34.042  25.856  24.542  1.00  0.00     0.020 A 
BRANCH   6  11
ATOM     11  O   UNL A   1      31.390  24.120  27.247  1.00  0.00    -0.493 OA
ATOM     12  C   UNL A   1      30.294  23.503  26.586  1.00  0.00     0.278 C 
ENDBRANCH   6  11
BRANCH   8  13
ATOM     13  O   UNL A   1      33.907  22.913  26.643  1.00  0.00    -0.480 OA
BRANCH  13  14
ATOM     14  C   UNL A   1      33.947  21.749  25.832  1.00  0.00     0.329 C 
BRANCH  14  15
ATOM     15  C   UNL A   1      32.812  21.275  24.900  1.00  0.00     0.258 C 
ATOM     16  O   UNL A   1      32.193  22.084  24.196  1.00  0.00    -0.271 OA
ATOM     17  N   UNL A   1      32.445  19.976  24.759  1.00  0.00    -0.350 N 
ATOM     18  H   UNL A   1      31.497  19.858  24.521  1.00  0.00     0.163 HD
BRANCH  17  19
ATOM     19  C   UNL A   1      33.177  18.716  24.892  1.00  0.00     0.085 C 
ATOM     20  C   UNL A   1      32.482  17.614  25.689  1.00  0.00     0.025 C 
ATOM     21  C   UNL A   1      33.566  18.208  23.474  1.00  0.00     0.008 C 
ATOM     22  C   UNL A   1      33.306  16.332  25.756  1.00  0.00     0.002 C 
ATOM     23  C   UNL A   1      34.392  16.917  23.568  1.00  0.00     0.005 C 
ATOM     24  C   UNL A   1      32.353  18.029  22.537  1.00  0.00     0.010 C 
ATOM     25  C   UNL A   1      33.688  15.828  24.373  1.00  0.00     0.000 C 
ENDBRANCH  17  19
ENDBRANCH  14  15
ENDBRANCH  13  14
ENDBRANCH   8  13
ENDBRANCH   3   5
ENDBRANCH   2   3
ENDBRANCH   1   2
BRANCH   1  26
ATOM     26  C   UNL A   1      31.422  30.923  25.990  1.00  0.00     0.275 C 
BRANCH  26  27
ATOM     27  O   UNL A   1      32.565  30.750  26.846  1.00  0.00    -0.458 OA
BRANCH  27  28
ATOM     28  C   UNL A   1      33.196  31.873  27.256  1.00  0.00     0.338 C 
ATOM     29  O   UNL A   1      32.768  33.015  27.247  1.00  0.00    -0.246 OA
BRANCH  28  30
ATOM     30  C   UNL A   1      34.525  31.507  27.782  1.00  0.00     0.060 A 
ATOM     31  C   UNL A   1      34.780  30.184  28.124  1.00  0.00     0.016 A 
ATOM     32  C   UNL A   1      35.488  32.479  28.036  1.00  0.00     0.016 A 
ATOM     33  C   UNL A   1      35.935  29.848  28.825  1.00  0.00     0.010 A 
ATOM     34  C   UNL A   1      36.703  32.114  28.641  1.00  0.00     0.010 A 
ATOM     35  C   UNL A   1      36.924  30.801  29.095  1.00  0.00    -0.014 A 
BRANCH  35  36
ATOM     36  C   UNL A   1      38.145  30.438  29.887  1.00  0.00     0.031 A 
ATOM     37  C   UNL A   1      39.209  29.549  29.285  1.00  0.00     0.074 A 
ATOM     38  C   UNL A   1      38.335  30.909  31.140  1.00  0.00     0.049 A 
ATOM     39  N   UNL A   1      40.202  28.926  29.873  1.00  0.00    -0.248 NA
ATOM     40  C   UNL A   1      39.134  29.308  27.836  1.00  0.00     0.031 C 
ATOM     41  C   UNL A   1      37.441  31.819  31.857  1.00  0.00     0.029 A 
ATOM     42  N   UNL A   1      39.357  30.687  32.036  1.00  0.00    -0.354 N 
ATOM     43  C   UNL A   1      40.808  28.156  28.886  1.00  0.00     0.074 A 
ATOM     44  C   UNL A   1      40.081  28.399  27.659  1.00  0.00     0.031 C 
ATOM     45  C   UNL A   1      37.972  32.118  33.050  1.00  0.00     0.029 A 
ATOM     46  C   UNL A   1      39.183  31.328  33.239  1.00  0.00     0.049 A 
ATOM     47  H   UNL A   1      40.137  30.122  31.834  1.00  0.00     0.167 HD
ATOM     48  C   UNL A   1      41.870  27.320  28.995  1.00  0.00     0.037 A 
ATOM     49  C   UNL A   1      39.872  31.250  34.394  1.00  0.00     0.037 A 
ATOM     50  C   UNL A   1      42.660  27.155  30.189  1.00  0.00     0.049 A 
ATOM     51  C   UNL A   1      41.046  30.317  34.493  1.00  0.00     0.074 A 
ATOM     52  C   UNL A   1      43.779  26.362  30.380  1.00  0.00     0.029 A 
ATOM     53  N   UNL A   1      42.431  27.816  31.386  1.00  0.00    -0.354 N 
ATOM     54  N   UNL A   1      41.559  29.534  33.577  1.00  0.00    -0.248 NA
ATOM     55  C   UNL A   1      41.719  30.237  35.797  1.00  0.00     0.031 C 
ATOM     56  C   UNL A   1      44.208  26.517  31.703  1.00  0.00     0.029 A 
ATOM     57  C   UNL A   1      43.381  27.439  32.323  1.00  0.00     0.049 A 
ATOM     58  H   UNL A   1      41.703  28.459  31.546  1.00  0.00     0.167 HD
ATOM     59  C   UNL A   1      42.616  28.877  34.189  1.00  0.00     0.074 A 
ATOM     60  C   UNL A   1      42.688  29.368  35.547  1.00  0.00     0.031 C 
ATOM     61  C   UNL A   1      43.447  27.940  33.671  1.00  0.00     0.037 A 
BRANCH  48  62
ATOM     62  C   UNL A   1      42.229  26.480  27.804  1.00  0.00     0.064 A 
ATOM     63  C   UNL A   1      43.257  26.833  26.919  1.00  0.00     0.173 A 
ATOM     64  C   UNL A   1      41.565  25.261  27.585  1.00  0.00     0.173 A 
ATOM     65  F   UNL A   1      43.917  27.989  27.078  1.00  0.00    -0.203 F 
ATOM     66  C   UNL A   1      43.592  26.007  25.846  1.00  0.00     0.198 A 
ATOM     67  C   UNL A   1      41.922  24.426  26.531  1.00  0.00     0.198 A 
ATOM     68  F   UNL A   1      40.581  24.871  28.410  1.00  0.00    -0.203 F 
ATOM     69  F   UNL A   1      44.553  26.382  24.990  1.00  0.00    -0.200 F 
ATOM     70  C   UNL A   1      42.931  24.802  25.658  1.00  0.00     0.200 A 
ATOM     71  F   UNL A   1      41.292  23.255  26.362  1.00  0.00    -0.200 F 
ATOM     72  F   UNL A   1      43.265  24.005  24.635  1.00  0.00    -0.200 F 
ENDBRANCH  48  62
BRANCH  49  73
ATOM     73  C   UNL A   1      39.424  32.033  35.576  1.00  0.00     0.064 A 
ATOM     74  C   UNL A   1      39.937  33.311  35.836  1.00  0.00     0.173 A 
ATOM     75  C   UNL A   1      38.472  31.519  36.472  1.00  0.00     0.173 A 
ATOM     76  F   UNL A   1      40.871  33.835  35.028  1.00  0.00    -0.203 F 
ATOM     77  C   UNL A   1      39.522  34.041  36.948  1.00  0.00     0.198 A 
ATOM     78  C   UNL A   1      38.032  32.262  37.562  1.00  0.00     0.198 A 
ATOM     79  F   UNL A   1      37.952  30.299  36.271  1.00  0.00    -0.203 F 
ATOM     80  F   UNL A   1      40.059  35.242  37.198  1.00  0.00    -0.200 F 
ATOM     81  C   UNL A   1      38.562  33.520  37.805  1.00  0.00     0.200 A 
ATOM     82  F   UNL A   1      37.094  31.762  38.376  1.00  0.00    -0.200 F 
ATOM     83  F   UNL A   1      38.155  34.227  38.868  1.00  0.00    -0.200 F 
ENDBRANCH  49  73
BRANCH  61  84
ATOM     84  C   UNL A   1      44.524  27.408  34.567  1.00  0.00     0.064 A 
ATOM     85  C   UNL A   1      44.332  26.252  35.338  1.00  0.00     0.173 A 
ATOM     86  C   UNL A   1      45.771  28.047  34.636  1.00  0.00     0.173 A 
ATOM     87  F   UNL A   1      43.150  25.617  35.319  1.00  0.00    -0.203 F 
ATOM     88  C   UNL A   1      45.343  25.767  36.163  1.00  0.00     0.198 A 
ATOM     89  C   UNL A   1      46.788  27.544  35.443  1.00  0.00     0.198 A 
ATOM     90  F   UNL A   1      46.005  29.153  33.916  1.00  0.00    -0.203 F 
ATOM     91  F   UNL A   1      45.123  24.686  36.925  1.00  0.00    -0.200 F 
ATOM     92  C   UNL A   1      46.572  26.409  36.210  1.00  0.00     0.200 A 
ATOM     93  F   UNL A   1      47.978  28.160  35.481  1.00  0.00    -0.200 F 
ATOM     94  F   UNL A   1      47.544  25.939  37.003  1.00  0.00    -0.200 F 
ENDBRANCH  61  84
ENDBRANCH  35  36
ENDBRANCH  28  30
ENDBRANCH  27  28
ENDBRANCH  26  27
ENDBRANCH   1  26
TORSDOF 16
ENDMDL
MODEL 3
REMARK VINA RESULT:     -12.1      1.182      2.495
REMARK SMILES COc1cc(C(=O)OCCOC(=O)c2ccc(-c3c4nc(c(-c5c(F)c(F)c(F)c(F)c5F)c5ccc([nH]5)c(-c5c(F)c(F)c(F)c(F)c5F)c5nc(c(-c6c(F)c(F)c(F)c(F)c6F)c6ccc3[nH]6)C=C5)C=C4)cc2)ccc1OCC(=O)N[C@H]1CCCC[C@H]1C
REMARK SMILES IDX 9 1 8 2 6 3 7 4 5 5 3 6 4 7 79 8 78 9 77 10 2 11 1 12 80 13
REMARK SMILES IDX 81 14 82 15 83 16 84 17 85 19 86 20 90 21 87 22 89 23 91 24
REMARK SMILES IDX 88 25 10 26 11 27 12 28 13 29 14 30 15 31 76 32 16 33 75 34
REMARK SMILES IDX 17 35 18 36 19 37 69 38 20 39 74 40 68 41 70 42 21 43 73 44
REMARK SMILES IDX 67 45 66 46 22 48 54 49 34 50 53 51 35 52 38 53 52 54 71 55
REMARK SMILES IDX 36 56 37 57 51 59 72 60 39 61 23 62 24 63 32 64 25 65 26 66
REMARK SMILES IDX 30 67 33 68 27 69 28 70 31 71 29 72 55 73 56 74 64 75 57 76
REMARK SMILES IDX 58 77 62 78 65 79 59 80 60 81 63 82 61 83 40 84 41 85 49 86
REMARK SMILES IDX 42 87 43 88 47 89 50 90 44 91 45 92 48 93 46 94
REMARK H PARENT 84 18 70 47 38 58
REMARK Flexibility Score: inf
ROOT
ATOM      1  C   UNL A   1      31.092  29.080  24.680  1.00  0.00     0.275 C 
ENDROOT
BRANCH   1   2
ATOM      2  O   UNL A   1      31.331  27.712  24.284  1.00  0.00    -0.458 OA
BRANCH   2   3
ATOM      3  C   UNL A   1      30.240  26.947  24.017  1.00  0.00     0.338 C 
ATOM      4  O   UNL A   1      29.223  27.290  23.454  1.00  0.00    -0.246 OA
BRANCH   3   5
ATOM      5  C   UNL A   1      30.538  25.539  24.389  1.00  0.00     0.064 A 
ATOM      6  C   UNL A   1      30.667  23.833  26.123  1.00  0.00     0.161 A 
ATOM      7  C   UNL A   1      30.511  25.170  25.745  1.00  0.00     0.066 A 
ATOM      8  C   UNL A   1      30.988  22.885  25.147  1.00  0.00     0.161 A 
ATOM      9  C   UNL A   1      31.013  23.260  23.794  1.00  0.00     0.051 A 
ATOM     10  C   UNL A   1      30.784  24.578  23.409  1.00  0.00     0.020 A 
BRANCH   6  11
ATOM     11  O   UNL A   1      30.397  23.369  27.378  1.00  0.00    -0.493 OA
ATOM     12  C   UNL A   1      29.165  22.691  27.586  1.00  0.00     0.278 C 
ENDBRANCH   6  11
BRANCH   8  13
ATOM     13  O   UNL A   1      31.307  21.571  25.352  1.00  0.00    -0.480 OA
BRANCH  13  14
ATOM     14  C   UNL A   1      32.118  20.881  24.416  1.00  0.00     0.329 C 
BRANCH  14  15
ATOM     15  C   UNL A   1      33.349  20.020  24.771  1.00  0.00     0.258 C 
ATOM     16  O   UNL A   1      33.347  18.799  24.565  1.00  0.00    -0.271 OA
ATOM     17  N   UNL A   1      34.501  20.525  25.282  1.00  0.00    -0.350 N 
ATOM     18  H   UNL A   1      34.991  19.889  25.851  1.00  0.00     0.163 HD
BRANCH  17  19
ATOM     19  C   UNL A   1      35.156  21.828  25.159  1.00  0.00     0.085 C 
ATOM     20  C   UNL A   1      35.461  22.555  26.466  1.00  0.00     0.025 C 
ATOM     21  C   UNL A   1      36.448  21.662  24.307  1.00  0.00     0.008 C 
ATOM     22  C   UNL A   1      36.164  23.890  26.243  1.00  0.00     0.002 C 
ATOM     23  C   UNL A   1      37.138  23.018  24.098  1.00  0.00     0.005 C 
ATOM     24  C   UNL A   1      37.427  20.619  24.884  1.00  0.00     0.010 C 
ATOM     25  C   UNL A   1      37.429  23.735  25.414  1.00  0.00     0.000 C 
ENDBRANCH  17  19
ENDBRANCH  14  15
ENDBRANCH  13  14
ENDBRANCH   8  13
ENDBRANCH   3   5
ENDBRANCH   2   3
ENDBRANCH   1   2
BRANCH   1  26
ATOM     26  C   UNL A   1      31.681  29.319  26.070  1.00  0.00     0.275 C 
BRANCH  26  27
ATOM     27  O   UNL A   1      32.875  30.108  25.926  1.00  0.00    -0.458 OA
BRANCH  27  28
ATOM     28  C   UNL A   1      33.101  31.049  26.871  1.00  0.00     0.338 C 
ATOM     29  O   UNL A   1      32.333  31.910  27.266  1.00  0.00    -0.246 OA
BRANCH  28  30
ATOM     30  C   UNL A   1      34.459  30.857  27.416  1.00  0.00     0.060 A 
ATOM     31  C   UNL A   1      34.925  29.568  27.644  1.00  0.00     0.016 A 
ATOM     32  C   UNL A   1      35.237  31.946  27.801  1.00  0.00     0.016 A 
ATOM     33  C   UNL A   1      36.102  29.360  28.359  1.00  0.00     0.010 A 
ATOM     34  C   UNL A   1      36.480  31.730  28.419  1.00  0.00     0.010 A 
ATOM     35  C   UNL A   1      36.908  30.433  28.759  1.00  0.00    -0.014 A 
BRANCH  35  36
ATOM     36  C   UNL A   1      38.151  30.201  29.564  1.00  0.00     0.031 A 
ATOM     37  C   UNL A   1      39.294  29.394  28.990  1.00  0.00     0.074 A 
ATOM     38  C   UNL A   1      38.292  30.719  30.804  1.00  0.00     0.049 A 
ATOM     39  N   UNL A   1      40.335  28.878  29.598  1.00  0.00    -0.248 NA
ATOM     40  C   UNL A   1      39.249  29.110  27.547  1.00  0.00     0.031 C 
ATOM     41  C   UNL A   1      37.316  31.565  31.494  1.00  0.00     0.029 A 
ATOM     42  N   UNL A   1      39.324  30.612  31.710  1.00  0.00    -0.354 N 
ATOM     43  C   UNL A   1      41.013  28.139  28.633  1.00  0.00     0.074 A 
ATOM     44  C   UNL A   1      40.274  28.284  27.398  1.00  0.00     0.031 C 
ATOM     45  C   UNL A   1      37.812  31.941  32.681  1.00  0.00     0.029 A 
ATOM     46  C   UNL A   1      39.087  31.267  32.895  1.00  0.00     0.049 A 
ATOM     47  H   UNL A   1      40.153  30.114  31.525  1.00  0.00     0.167 HD
ATOM     48  C   UNL A   1      42.144  27.404  28.769  1.00  0.00     0.037 A 
ATOM     49  C   UNL A   1      39.774  31.281  34.054  1.00  0.00     0.037 A 
ATOM     50  C   UNL A   1      42.938  27.341  29.969  1.00  0.00     0.049 A 
ATOM     51  C   UNL A   1      41.024  30.458  34.182  1.00  0.00     0.074 A 
ATOM     52  C   UNL A   1      44.122  26.656  30.186  1.00  0.00     0.029 A 
ATOM     53  N   UNL A   1      42.645  28.010  31.147  1.00  0.00    -0.354 N 
ATOM     54  N   UNL A   1      41.611  29.701  33.289  1.00  0.00    -0.248 NA
ATOM     55  C   UNL A   1      41.694  30.473  35.490  1.00  0.00     0.031 C 
ATOM     56  C   UNL A   1      44.528  26.883  31.505  1.00  0.00     0.029 A 
ATOM     57  C   UNL A   1      43.618  27.743  32.097  1.00  0.00     0.049 A 
ATOM     58  H   UNL A   1      41.861  28.590  31.288  1.00  0.00     0.167 HD
ATOM     59  C   UNL A   1      42.718  29.156  33.922  1.00  0.00     0.074 A 
ATOM     60  C   UNL A   1      42.738  29.687  35.267  1.00  0.00     0.031 C 
ATOM     61  C   UNL A   1      43.632  28.283  33.432  1.00  0.00     0.037 A 
BRANCH  48  62
ATOM     62  C   UNL A   1      42.583  26.568  27.601  1.00  0.00     0.064 A 
ATOM     63  C   UNL A   1      43.576  26.990  26.707  1.00  0.00     0.173 A 
ATOM     64  C   UNL A   1      42.037  25.286  27.418  1.00  0.00     0.173 A 
ATOM     65  F   UNL A   1      44.124  28.207  26.833  1.00  0.00    -0.203 F 
ATOM     66  C   UNL A   1      43.989  26.169  25.658  1.00  0.00     0.198 A 
ATOM     67  C   UNL A   1      42.473  24.459  26.387  1.00  0.00     0.198 A 
ATOM     68  F   UNL A   1      41.091  24.828  28.253  1.00  0.00    -0.203 F 
ATOM     69  F   UNL A   1      44.913  26.608  24.792  1.00  0.00    -0.200 F 
ATOM     70  C   UNL A   1      43.445  24.903  25.504  1.00  0.00     0.200 A 
ATOM     71  F   UNL A   1      41.956  23.230  26.251  1.00  0.00    -0.200 F 
ATOM     72  F   UNL A   1      43.855  24.112  24.504  1.00  0.00    -0.200 F 
ENDBRANCH  48  62
BRANCH  49  73
ATOM     73  C   UNL A   1      39.251  32.051  35.213  1.00  0.00     0.064 A 
ATOM     74  C   UNL A   1      38.467  31.435  36.198  1.00  0.00     0.173 A 
ATOM     75  C   UNL A   1      39.525  33.421  35.361  1.00  0.00     0.173 A 
ATOM     76  F   UNL A   1      38.151  30.136  36.088  1.00  0.00    -0.203 F 
ATOM     77  C   UNL A   1      37.971  32.161  37.281  1.00  0.00     0.198 A 
ATOM     78  C   UNL A   1      39.058  34.136  36.459  1.00  0.00     0.198 A 
ATOM     79  F   UNL A   1      40.268  34.059  34.444  1.00  0.00    -0.203 F 
ATOM     80  F   UNL A   1      37.188  31.558  38.186  1.00  0.00    -0.200 F 
ATOM     81  C   UNL A   1      38.276  33.507  37.415  1.00  0.00     0.200 A 
ATOM     82  F   UNL A   1      39.370  35.432  36.593  1.00  0.00    -0.200 F 
ATOM     83  F   UNL A   1      37.808  34.201  38.462  1.00  0.00    -0.200 F 
ENDBRANCH  49  73
BRANCH  61  84
ATOM     84  C   UNL A   1      44.747  27.873  34.346  1.00  0.00     0.064 A 
ATOM     85  C   UNL A   1      44.649  26.731  35.155  1.00  0.00     0.173 A 
ATOM     86  C   UNL A   1      45.935  28.616  34.395  1.00  0.00     0.173 A 
ATOM     87  F   UNL A   1      43.525  26.000  35.156  1.00  0.00    -0.203 F 
ATOM     88  C   UNL A   1      45.694  26.360  35.996  1.00  0.00     0.198 A 
ATOM     89  C   UNL A   1      46.988  28.226  35.219  1.00  0.00     0.198 A 
ATOM     90  F   UNL A   1      46.079  29.713  33.638  1.00  0.00    -0.203 F 
ATOM     91  F   UNL A   1      45.563  25.290  36.792  1.00  0.00    -0.200 F 
ATOM     92  C   UNL A   1      46.865  27.103  36.022  1.00  0.00     0.200 A 
ATOM     93  F   UNL A   1      48.122  28.940  35.237  1.00  0.00    -0.200 F 
ATOM     94  F   UNL A   1      47.870  26.742  36.831  1.00  0.00    -0.200 F 
ENDBRANCH  61  84
ENDBRANCH  35  36
ENDBRANCH  28  30
ENDBRANCH  27  28
ENDBRANCH  26  27
ENDBRANCH   1  26
TORSDOF 16
ENDMDL
