MODEL 1
REMARK VINA RESULT:     -13.5      0.000      0.000
REMARK SMILES Cc1ccc(C(=O)OCCOC(=O)c2ccc(-c3c4nc(c(-c5c(F)c(F)c(F)c(F)c5F)c5ccc([nH]5)c(-c5c(F)c(F)c(F)c(F)c5F)c5nc(c(-c6c(F)c(F)c(F)c(F)c6F)c6ccc3[nH]6)C=C5)C=C4)cc2)c(Oc2cccc(F)c2C(N)=O)c1
REMARK SMILES IDX 9 1 8 2 6 3 7 4 5 5 1 6 2 7 3 8 89 9 4 10 77 11 78 12 79 13
REMARK SMILES IDX 80 14 85 15 81 16 83 17 82 18 84 19 86 20 87 21 88 22 10 25
REMARK SMILES IDX 11 26 12 27 13 28 14 29 15 30 76 31 16 32 75 33 17 34 18 35
REMARK SMILES IDX 19 36 69 37 20 38 74 39 68 40 70 41 21 42 73 43 67 44 66 45
REMARK SMILES IDX 22 47 54 48 34 49 53 50 35 51 38 52 52 53 71 54 36 55 37 56
REMARK SMILES IDX 51 58 72 59 39 60 23 61 24 62 32 63 25 64 26 65 30 66 33 67
REMARK SMILES IDX 27 68 28 69 31 70 29 71 55 72 56 73 64 74 57 75 58 76 62 77
REMARK SMILES IDX 65 78 59 79 60 80 63 81 61 82 40 83 41 84 49 85 42 86 43 87
REMARK SMILES IDX 47 88 50 89 44 90 45 91 48 92 46 93
REMARK H PARENT 87 23 87 24 70 46 38 57
REMARK Flexibility Score: inf
ROOT
ATOM      1  C   UNL A   1      33.138  28.817  27.446  1.00  0.00     0.275 C 
ENDROOT
BRANCH   1   2
ATOM      2  O   UNL A   1      32.193  28.943  26.369  1.00  0.00    -0.458 OA
BRANCH   2   3
ATOM      3  C   UNL A   1      31.580  27.744  26.114  1.00  0.00     0.342 C 
ATOM      4  O   UNL A   1      31.016  27.089  26.961  1.00  0.00    -0.246 OA
BRANCH   3   5
ATOM      5  C   UNL A   1      31.770  27.244  24.722  1.00  0.00     0.102 A 
ATOM      6  C   UNL A   1      32.552  25.586  20.810  1.00  0.00     0.044 C 
ATOM      7  C   UNL A   1      32.275  26.167  22.167  1.00  0.00    -0.047 A 
ATOM      8  C   UNL A   1      31.211  27.060  22.374  1.00  0.00     0.004 A 
ATOM      9  C   UNL A   1      33.064  25.786  23.255  1.00  0.00     0.051 A 
ATOM     10  C   UNL A   1      30.970  27.615  23.642  1.00  0.00     0.020 A 
ATOM     11  C   UNL A   1      32.821  26.335  24.514  1.00  0.00     0.142 A 
BRANCH  11  12
ATOM     12  O   UNL A   1      33.551  25.927  25.599  1.00  0.00    -0.455 OA
BRANCH  12  13
ATOM     13  C   UNL A   1      33.885  24.609  25.769  1.00  0.00     0.143 A 
ATOM     14  C   UNL A   1      35.250  24.385  25.521  1.00  0.00     0.048 A 
ATOM     15  C   UNL A   1      33.057  23.528  26.096  1.00  0.00     0.117 A 
ATOM     16  C   UNL A   1      35.807  23.119  25.670  1.00  0.00     0.007 A 
ATOM     17  C   UNL A   1      33.633  22.268  26.270  1.00  0.00     0.139 A 
ATOM     18  C   UNL A   1      34.997  22.062  26.068  1.00  0.00     0.040 A 
ATOM     19  F   UNL A   1      32.881  21.206  26.594  1.00  0.00    -0.206 F 
BRANCH  15  20
ATOM     20  C   UNL A   1      31.591  23.601  26.234  1.00  0.00     0.255 C 
ATOM     21  N   UNL A   1      30.859  23.330  25.112  1.00  0.00    -0.365 N 
ATOM     22  O   UNL A   1      31.058  23.865  27.301  1.00  0.00    -0.269 OA
ATOM     23  H   UNL A   1      31.315  23.120  24.265  1.00  0.00     0.159 HD
ATOM     24  H   UNL A   1      29.875  23.344  25.151  1.00  0.00     0.159 HD
ENDBRANCH  15  20
ENDBRANCH  12  13
ENDBRANCH  11  12
ENDBRANCH   3   5
ENDBRANCH   2   3
ENDBRANCH   1   2
BRANCH   1  25
ATOM     25  C   UNL A   1      34.582  29.210  27.113  1.00  0.00     0.275 C 
BRANCH  25  26
ATOM     26  O   UNL A   1      35.085  30.555  27.326  1.00  0.00    -0.458 OA
BRANCH  26  27
ATOM     27  C   UNL A   1      35.938  30.959  28.290  1.00  0.00     0.338 C 
ATOM     28  O   UNL A   1      35.775  31.989  28.930  1.00  0.00    -0.246 OA
BRANCH  27  29
ATOM     29  C   UNL A   1      37.130  30.123  28.496  1.00  0.00     0.060 A 
ATOM     30  C   UNL A   1      37.159  29.250  29.599  1.00  0.00     0.016 A 
ATOM     31  C   UNL A   1      38.150  30.125  27.548  1.00  0.00     0.016 A 
ATOM     32  C   UNL A   1      38.166  28.301  29.708  1.00  0.00     0.010 A 
ATOM     33  C   UNL A   1      39.088  29.124  27.595  1.00  0.00     0.010 A 
ATOM     34  C   UNL A   1      39.118  28.247  28.694  1.00  0.00    -0.014 A 
BRANCH  34  35
ATOM     35  C   UNL A   1      40.404  27.595  28.861  1.00  0.00     0.031 A 
ATOM     36  C   UNL A   1      40.675  26.216  28.435  1.00  0.00     0.074 A 
ATOM     37  C   UNL A   1      41.329  28.496  29.254  1.00  0.00     0.049 A 
ATOM     38  N   UNL A   1      41.718  25.550  28.789  1.00  0.00    -0.248 NA
ATOM     39  C   UNL A   1      39.778  25.434  27.593  1.00  0.00     0.031 C 
ATOM     40  C   UNL A   1      42.775  28.472  29.208  1.00  0.00     0.029 A 
ATOM     41  N   UNL A   1      41.029  29.689  29.945  1.00  0.00    -0.354 N 
ATOM     42  C   UNL A   1      41.801  24.436  27.975  1.00  0.00     0.074 A 
ATOM     43  C   UNL A   1      40.508  24.340  27.348  1.00  0.00     0.031 C 
ATOM     44  C   UNL A   1      43.237  29.387  30.086  1.00  0.00     0.029 A 
ATOM     45  C   UNL A   1      42.085  29.888  30.832  1.00  0.00     0.049 A 
ATOM     46  H   UNL A   1      40.237  30.262  29.825  1.00  0.00     0.167 HD
ATOM     47  C   UNL A   1      43.028  23.861  27.795  1.00  0.00     0.037 A 
ATOM     48  C   UNL A   1      41.846  29.675  32.162  1.00  0.00     0.037 A 
ATOM     49  C   UNL A   1      44.001  24.521  28.666  1.00  0.00     0.049 A 
ATOM     50  C   UNL A   1      42.679  28.522  32.661  1.00  0.00     0.074 A 
ATOM     51  C   UNL A   1      44.874  25.571  28.427  1.00  0.00     0.029 A 
ATOM     52  N   UNL A   1      43.861  24.426  30.048  1.00  0.00    -0.354 N 
ATOM     53  N   UNL A   1      42.959  27.459  31.955  1.00  0.00    -0.248 NA
ATOM     54  C   UNL A   1      43.332  28.540  33.963  1.00  0.00     0.031 C 
ATOM     55  C   UNL A   1      45.175  26.175  29.673  1.00  0.00     0.029 A 
ATOM     56  C   UNL A   1      44.502  25.483  30.667  1.00  0.00     0.049 A 
ATOM     57  H   UNL A   1      43.375  23.709  30.517  1.00  0.00     0.167 HD
ATOM     58  C   UNL A   1      43.888  26.716  32.635  1.00  0.00     0.074 A 
ATOM     59  C   UNL A   1      44.060  27.413  33.899  1.00  0.00     0.031 C 
ATOM     60  C   UNL A   1      44.502  25.615  32.112  1.00  0.00     0.037 A 
BRANCH  47  61
ATOM     61  C   UNL A   1      43.428  22.998  26.609  1.00  0.00     0.064 A 
ATOM     62  C   UNL A   1      43.150  21.609  26.614  1.00  0.00     0.173 A 
ATOM     63  C   UNL A   1      44.139  23.441  25.478  1.00  0.00     0.173 A 
ATOM     64  F   UNL A   1      42.391  21.049  27.564  1.00  0.00    -0.203 F 
ATOM     65  C   UNL A   1      43.641  20.731  25.644  1.00  0.00     0.198 A 
ATOM     66  C   UNL A   1      44.655  22.557  24.518  1.00  0.00     0.198 A 
ATOM     67  F   UNL A   1      44.321  24.743  25.231  1.00  0.00    -0.203 F 
ATOM     68  F   UNL A   1      43.364  19.422  25.729  1.00  0.00    -0.200 F 
ATOM     69  C   UNL A   1      44.420  21.201  24.609  1.00  0.00     0.200 A 
ATOM     70  F   UNL A   1      45.387  23.036  23.500  1.00  0.00    -0.200 F 
ATOM     71  F   UNL A   1      44.918  20.357  23.695  1.00  0.00    -0.200 F 
ENDBRANCH  47  61
BRANCH  48  72
ATOM     72  C   UNL A   1      40.447  29.991  32.610  1.00  0.00     0.064 A 
ATOM     73  C   UNL A   1      40.001  31.334  32.568  1.00  0.00     0.173 A 
ATOM     74  C   UNL A   1      39.467  29.014  32.824  1.00  0.00     0.173 A 
ATOM     75  F   UNL A   1      40.883  32.328  32.371  1.00  0.00    -0.203 F 
ATOM     76  C   UNL A   1      38.648  31.669  32.638  1.00  0.00     0.198 A 
ATOM     77  C   UNL A   1      38.109  29.356  32.915  1.00  0.00     0.198 A 
ATOM     78  F   UNL A   1      39.798  27.717  32.880  1.00  0.00    -0.203 F 
ATOM     79  F   UNL A   1      38.266  32.946  32.493  1.00  0.00    -0.200 F 
ATOM     80  C   UNL A   1      37.700  30.676  32.799  1.00  0.00     0.200 A 
ATOM     81  F   UNL A   1      37.185  28.392  33.044  1.00  0.00    -0.200 F 
ATOM     82  F   UNL A   1      36.394  30.981  32.802  1.00  0.00    -0.200 F 
ENDBRANCH  48  72
BRANCH  60  83
ATOM     83  C   UNL A   1      45.277  24.607  32.914  1.00  0.00     0.064 A 
ATOM     84  C   UNL A   1      46.552  24.867  33.436  1.00  0.00     0.173 A 
ATOM     85  C   UNL A   1      44.668  23.402  33.338  1.00  0.00     0.173 A 
ATOM     86  F   UNL A   1      47.179  26.029  33.202  1.00  0.00    -0.203 F 
ATOM     87  C   UNL A   1      47.201  23.959  34.272  1.00  0.00     0.198 A 
ATOM     88  C   UNL A   1      45.290  22.533  34.228  1.00  0.00     0.198 A 
ATOM     89  F   UNL A   1      43.439  23.051  32.933  1.00  0.00    -0.203 F 
ATOM     90  F   UNL A   1      48.439  24.231  34.708  1.00  0.00    -0.200 F 
ATOM     91  C   UNL A   1      46.565  22.802  34.681  1.00  0.00     0.200 A 
ATOM     92  F   UNL A   1      44.635  21.448  34.664  1.00  0.00    -0.200 F 
ATOM     93  F   UNL A   1      47.169  21.961  35.527  1.00  0.00    -0.200 F 
ENDBRANCH  60  83
ENDBRANCH  34  35
ENDBRANCH  27  29
ENDBRANCH  26  27
ENDBRANCH  25  26
ENDBRANCH   1  25
TORSDOF 14
ENDMDL
MODEL 2
REMARK VINA RESULT:     -13.4      0.623      1.306
REMARK SMILES Cc1ccc(C(=O)OCCOC(=O)c2ccc(-c3c4nc(c(-c5c(F)c(F)c(F)c(F)c5F)c5ccc([nH]5)c(-c5c(F)c(F)c(F)c(F)c5F)c5nc(c(-c6c(F)c(F)c(F)c(F)c6F)c6ccc3[nH]6)C=C5)C=C4)cc2)c(Oc2cccc(F)c2C(N)=O)c1
REMARK SMILES IDX 9 1 8 2 6 3 7 4 5 5 1 6 2 7 3 8 89 9 4 10 77 11 78 12 79 13
REMARK SMILES IDX 80 14 85 15 81 16 83 17 82 18 84 19 86 20 87 21 88 22 10 25
REMARK SMILES IDX 11 26 12 27 13 28 14 29 15 30 76 31 16 32 75 33 17 34 18 35
REMARK SMILES IDX 19 36 69 37 20 38 74 39 68 40 70 41 21 42 73 43 67 44 66 45
REMARK SMILES IDX 22 47 54 48 34 49 53 50 35 51 38 52 52 53 71 54 36 55 37 56
REMARK SMILES IDX 51 58 72 59 39 60 23 61 24 62 32 63 25 64 26 65 30 66 33 67
REMARK SMILES IDX 27 68 28 69 31 70 29 71 55 72 56 73 64 74 57 75 58 76 62 77
REMARK SMILES IDX 65 78 59 79 60 80 63 81 61 82 40 83 41 84 49 85 42 86 43 87
REMARK SMILES IDX 47 88 50 89 44 90 45 91 48 92 46 93
REMARK H PARENT 87 23 87 24 70 46 38 57
REMARK Flexibility Score: inf
ROOT
ATOM      1  C   UNL A   1      33.248  28.635  27.458  1.00  0.00     0.275 C 
ENDROOT
BRANCH   1   2
ATOM      2  O   UNL A   1      32.309  28.840  26.388  1.00  0.00    -0.458 OA
BRANCH   2   3
ATOM      3  C   UNL A   1      31.622  27.686  26.113  1.00  0.00     0.342 C 
ATOM      4  O   UNL A   1      31.009  27.059  26.946  1.00  0.00    -0.246 OA
BRANCH   3   5
ATOM      5  C   UNL A   1      31.792  27.192  24.716  1.00  0.00     0.102 A 
ATOM      6  C   UNL A   1      32.519  25.551  20.786  1.00  0.00     0.044 C 
ATOM      7  C   UNL A   1      32.261  26.126  22.150  1.00  0.00    -0.047 A 
ATOM      8  C   UNL A   1      31.199  27.017  22.376  1.00  0.00     0.004 A 
ATOM      9  C   UNL A   1      33.067  25.743  23.224  1.00  0.00     0.051 A 
ATOM     10  C   UNL A   1      30.975  27.566  23.649  1.00  0.00     0.020 A 
ATOM     11  C   UNL A   1      32.841  26.286  24.489  1.00  0.00     0.142 A 
BRANCH  11  12
ATOM     12  O   UNL A   1      33.588  25.875  25.561  1.00  0.00    -0.455 OA
BRANCH  12  13
ATOM     13  C   UNL A   1      33.917  24.555  25.727  1.00  0.00     0.143 A 
ATOM     14  C   UNL A   1      35.278  24.323  25.463  1.00  0.00     0.048 A 
ATOM     15  C   UNL A   1      33.088  23.479  26.064  1.00  0.00     0.117 A 
ATOM     16  C   UNL A   1      35.830  23.055  25.605  1.00  0.00     0.007 A 
ATOM     17  C   UNL A   1      33.659  22.215  26.231  1.00  0.00     0.139 A 
ATOM     18  C   UNL A   1      35.019  22.002  26.012  1.00  0.00     0.040 A 
ATOM     19  F   UNL A   1      32.905  21.157  26.565  1.00  0.00    -0.206 F 
BRANCH  15  20
ATOM     20  C   UNL A   1      31.624  23.559  26.221  1.00  0.00     0.255 C 
ATOM     21  N   UNL A   1      30.878  23.367  25.090  1.00  0.00    -0.365 N 
ATOM     22  O   UNL A   1      31.103  23.763  27.307  1.00  0.00    -0.269 OA
ATOM     23  H   UNL A   1      31.324  23.206  24.228  1.00  0.00     0.159 HD
ATOM     24  H   UNL A   1      29.895  23.390  25.140  1.00  0.00     0.159 HD
ENDBRANCH  15  20
ENDBRANCH  12  13
ENDBRANCH  11  12
ENDBRANCH   3   5
ENDBRANCH   2   3
ENDBRANCH   1   2
BRANCH   1  25
ATOM     25  C   UNL A   1      34.691  29.067  27.167  1.00  0.00     0.275 C 
BRANCH  25  26
ATOM     26  O   UNL A   1      35.107  30.457  27.235  1.00  0.00    -0.458 OA
BRANCH  26  27
ATOM     27  C   UNL A   1      36.131  30.962  27.954  1.00  0.00     0.338 C 
ATOM     28  O   UNL A   1      36.159  32.122  28.340  1.00  0.00    -0.246 OA
BRANCH  27  29
ATOM     29  C   UNL A   1      37.263  30.056  28.199  1.00  0.00     0.060 A 
ATOM     30  C   UNL A   1      37.230  29.229  29.338  1.00  0.00     0.016 A 
ATOM     31  C   UNL A   1      38.283  29.950  27.258  1.00  0.00     0.016 A 
ATOM     32  C   UNL A   1      38.169  28.219  29.490  1.00  0.00     0.010 A 
ATOM     33  C   UNL A   1      39.151  28.891  27.351  1.00  0.00     0.010 A 
ATOM     34  C   UNL A   1      39.119  28.059  28.485  1.00  0.00    -0.014 A 
BRANCH  34  35
ATOM     35  C   UNL A   1      40.356  27.329  28.685  1.00  0.00     0.031 A 
ATOM     36  C   UNL A   1      40.496  25.887  28.439  1.00  0.00     0.074 A 
ATOM     37  C   UNL A   1      41.368  28.192  28.914  1.00  0.00     0.049 A 
ATOM     38  N   UNL A   1      41.501  25.188  28.837  1.00  0.00    -0.248 NA
ATOM     39  C   UNL A   1      39.498  25.081  27.749  1.00  0.00     0.031 C 
ATOM     40  C   UNL A   1      42.804  28.041  28.812  1.00  0.00     0.029 A 
ATOM     41  N   UNL A   1      41.198  29.486  29.448  1.00  0.00    -0.354 N 
ATOM     42  C   UNL A   1      41.454  23.973  28.178  1.00  0.00     0.074 A 
ATOM     43  C   UNL A   1      40.127  23.906  27.624  1.00  0.00     0.031 C 
ATOM     44  C   UNL A   1      43.381  29.021  29.538  1.00  0.00     0.029 A 
ATOM     45  C   UNL A   1      42.312  29.711  30.257  1.00  0.00     0.049 A 
ATOM     46  H   UNL A   1      40.448  30.104  29.285  1.00  0.00     0.167 HD
ATOM     47  C   UNL A   1      42.621  23.279  28.027  1.00  0.00     0.037 A 
ATOM     48  C   UNL A   1      42.127  29.695  31.611  1.00  0.00     0.037 A 
ATOM     49  C   UNL A   1      43.687  23.963  28.760  1.00  0.00     0.049 A 
ATOM     50  C   UNL A   1      42.892  28.553  32.227  1.00  0.00     0.074 A 
ATOM     51  C   UNL A   1      44.626  24.895  28.345  1.00  0.00     0.029 A 
ATOM     52  N   UNL A   1      43.613  24.063  30.146  1.00  0.00    -0.354 N 
ATOM     53  N   UNL A   1      43.051  27.385  31.661  1.00  0.00    -0.248 NA
ATOM     54  C   UNL A   1      43.611  28.686  33.487  1.00  0.00     0.031 C 
ATOM     55  C   UNL A   1      45.038  25.630  29.485  1.00  0.00     0.029 A 
ATOM     56  C   UNL A   1      44.366  25.134  30.590  1.00  0.00     0.049 A 
ATOM     57  H   UNL A   1      43.097  23.458  30.728  1.00  0.00     0.167 HD
ATOM     58  C   UNL A   1      43.953  26.663  32.396  1.00  0.00     0.074 A 
ATOM     59  C   UNL A   1      44.245  27.504  33.546  1.00  0.00     0.031 C 
ATOM     60  C   UNL A   1      44.452  25.455  32.002  1.00  0.00     0.037 A 
BRANCH  47  61
ATOM     61  C   UNL A   1      42.890  22.236  26.953  1.00  0.00     0.064 A 
ATOM     62  C   UNL A   1      42.291  20.956  27.040  1.00  0.00     0.173 A 
ATOM     63  C   UNL A   1      43.766  22.393  25.863  1.00  0.00     0.173 A 
ATOM     64  F   UNL A   1      41.355  20.679  27.956  1.00  0.00    -0.203 F 
ATOM     65  C   UNL A   1      42.629  19.898  26.190  1.00  0.00     0.198 A 
ATOM     66  C   UNL A   1      44.126  21.326  25.027  1.00  0.00     0.198 A 
ATOM     67  F   UNL A   1      44.268  23.588  25.535  1.00  0.00    -0.203 F 
ATOM     68  F   UNL A   1      42.045  18.702  26.350  1.00  0.00    -0.200 F 
ATOM     69  C   UNL A   1      43.570  20.074  25.199  1.00  0.00     0.200 A 
ATOM     70  F   UNL A   1      45.022  21.523  24.046  1.00  0.00    -0.200 F 
ATOM     71  F   UNL A   1      43.918  19.055  24.403  1.00  0.00    -0.200 F 
ENDBRANCH  47  61
BRANCH  48  72
ATOM     72  C   UNL A   1      40.782  30.185  32.070  1.00  0.00     0.064 A 
ATOM     73  C   UNL A   1      39.772  29.238  32.364  1.00  0.00     0.173 A 
ATOM     74  C   UNL A   1      40.538  31.503  32.473  1.00  0.00     0.173 A 
ATOM     75  F   UNL A   1      39.931  27.953  32.004  1.00  0.00    -0.203 F 
ATOM     76  C   UNL A   1      38.635  29.571  33.101  1.00  0.00     0.198 A 
ATOM     77  C   UNL A   1      39.384  31.840  33.197  1.00  0.00     0.198 A 
ATOM     78  F   UNL A   1      41.439  32.467  32.236  1.00  0.00    -0.203 F 
ATOM     79  F   UNL A   1      37.754  28.618  33.442  1.00  0.00    -0.200 F 
ATOM     80  C   UNL A   1      38.448  30.872  33.529  1.00  0.00     0.200 A 
ATOM     81  F   UNL A   1      39.213  33.096  33.637  1.00  0.00    -0.200 F 
ATOM     82  F   UNL A   1      37.392  31.188  34.293  1.00  0.00    -0.200 F 
ENDBRANCH  48  72
BRANCH  60  83
ATOM     83  C   UNL A   1      45.186  24.499  32.900  1.00  0.00     0.064 A 
ATOM     84  C   UNL A   1      46.469  24.761  33.404  1.00  0.00     0.173 A 
ATOM     85  C   UNL A   1      44.531  23.363  33.433  1.00  0.00     0.173 A 
ATOM     86  F   UNL A   1      47.138  25.872  33.066  1.00  0.00    -0.203 F 
ATOM     87  C   UNL A   1      47.081  23.913  34.326  1.00  0.00     0.198 A 
ATOM     88  C   UNL A   1      45.118  22.559  34.404  1.00  0.00     0.198 A 
ATOM     89  F   UNL A   1      43.292  23.020  33.054  1.00  0.00    -0.203 F 
ATOM     90  F   UNL A   1      48.326  24.179  34.742  1.00  0.00    -0.200 F 
ATOM     91  C   UNL A   1      46.401  22.824  34.838  1.00  0.00     0.200 A 
ATOM     92  F   UNL A   1      44.422  21.545  34.937  1.00  0.00    -0.200 F 
ATOM     93  F   UNL A   1      46.971  22.045  35.764  1.00  0.00    -0.200 F 
ENDBRANCH  60  83
ENDBRANCH  34  35
ENDBRANCH  27  29
ENDBRANCH  26  27
ENDBRANCH  25  26
ENDBRANCH   1  25
TORSDOF 14
ENDMDL
MODEL 3
REMARK VINA RESULT:     -13.4      3.928      9.986
REMARK SMILES Cc1ccc(C(=O)OCCOC(=O)c2ccc(-c3c4nc(c(-c5c(F)c(F)c(F)c(F)c5F)c5ccc([nH]5)c(-c5c(F)c(F)c(F)c(F)c5F)c5nc(c(-c6c(F)c(F)c(F)c(F)c6F)c6ccc3[nH]6)C=C5)C=C4)cc2)c(Oc2cccc(F)c2C(N)=O)c1
REMARK SMILES IDX 9 1 8 2 6 3 7 4 5 5 1 6 2 7 3 8 89 9 4 10 77 11 78 12 79 13
REMARK SMILES IDX 80 14 85 15 81 16 83 17 82 18 84 19 86 20 87 21 88 22 10 25
REMARK SMILES IDX 11 26 12 27 13 28 14 29 15 30 76 31 16 32 75 33 17 34 18 35
REMARK SMILES IDX 19 36 69 37 20 38 74 39 68 40 70 41 21 42 73 43 67 44 66 45
REMARK SMILES IDX 22 47 54 48 34 49 53 50 35 51 38 52 52 53 71 54 36 55 37 56
REMARK SMILES IDX 51 58 72 59 39 60 23 61 24 62 32 63 25 64 26 65 30 66 33 67
REMARK SMILES IDX 27 68 28 69 31 70 29 71 55 72 56 73 64 74 57 75 58 76 62 77
REMARK SMILES IDX 65 78 59 79 60 80 63 81 61 82 40 83 41 84 49 85 42 86 43 87
REMARK SMILES IDX 47 88 50 89 44 90 45 91 48 92 46 93
REMARK H PARENT 87 23 87 24 70 46 38 57
REMARK Flexibility Score: inf
ROOT
ATOM      1  C   UNL A   1      37.199  23.739  25.458  1.00  0.00     0.275 C 
ENDROOT
BRANCH   1   2
ATOM      2  O   UNL A   1      35.887  23.624  26.037  1.00  0.00    -0.458 OA
BRANCH   2   3
ATOM      3  C   UNL A   1      34.925  23.575  25.062  1.00  0.00     0.342 C 
ATOM      4  O   UNL A   1      35.146  23.797  23.893  1.00  0.00    -0.246 OA
BRANCH   3   5
ATOM      5  C   UNL A   1      33.544  23.346  25.576  1.00  0.00     0.102 A 
ATOM      6  C   UNL A   1      29.514  23.014  27.096  1.00  0.00     0.044 C 
ATOM      7  C   UNL A   1      30.915  23.122  26.567  1.00  0.00    -0.047 A 
ATOM      8  C   UNL A   1      31.598  21.996  26.077  1.00  0.00     0.004 A 
ATOM      9  C   UNL A   1      31.543  24.369  26.525  1.00  0.00     0.051 A 
ATOM     10  C   UNL A   1      32.916  22.101  25.603  1.00  0.00     0.020 A 
ATOM     11  C   UNL A   1      32.850  24.472  26.049  1.00  0.00     0.142 A 
BRANCH  11  12
ATOM     12  O   UNL A   1      33.455  25.697  25.951  1.00  0.00    -0.455 OA
BRANCH  12  13
ATOM     13  C   UNL A   1      32.852  26.730  25.281  1.00  0.00     0.143 A 
ATOM     14  C   UNL A   1      32.932  26.560  23.888  1.00  0.00     0.048 A 
ATOM     15  C   UNL A   1      32.248  27.880  25.802  1.00  0.00     0.117 A 
ATOM     16  C   UNL A   1      32.353  27.479  23.020  1.00  0.00     0.007 A 
ATOM     17  C   UNL A   1      31.645  28.781  24.921  1.00  0.00     0.139 A 
ATOM     18  C   UNL A   1      31.688  28.582  23.542  1.00  0.00     0.040 A 
ATOM     19  F   UNL A   1      31.044  29.891  25.376  1.00  0.00    -0.206 F 
BRANCH  15  20
ATOM     20  C   UNL A   1      32.228  28.250  27.229  1.00  0.00     0.255 C 
ATOM     21  N   UNL A   1      33.191  29.128  27.644  1.00  0.00    -0.365 N 
ATOM     22  O   UNL A   1      31.382  27.814  27.995  1.00  0.00    -0.269 OA
ATOM     23  H   UNL A   1      33.861  29.462  27.005  1.00  0.00     0.159 HD
ATOM     24  H   UNL A   1      33.214  29.426  28.582  1.00  0.00     0.159 HD
ENDBRANCH  15  20
ENDBRANCH  12  13
ENDBRANCH  11  12
ENDBRANCH   3   5
ENDBRANCH   2   3
ENDBRANCH   1   2
BRANCH   1  25
ATOM     25  C   UNL A   1      38.252  22.765  26.002  1.00  0.00     0.275 C 
BRANCH  25  26
ATOM     26  O   UNL A   1      39.168  23.136  27.066  1.00  0.00    -0.458 OA
BRANCH  26  27
ATOM     27  C   UNL A   1      40.298  23.864  26.945  1.00  0.00     0.338 C 
ATOM     28  O   UNL A   1      41.342  23.400  26.510  1.00  0.00    -0.246 OA
BRANCH  27  29
ATOM     29  C   UNL A   1      40.233  25.251  27.434  1.00  0.00     0.060 A 
ATOM     30  C   UNL A   1      40.422  26.298  26.514  1.00  0.00     0.016 A 
ATOM     31  C   UNL A   1      39.880  25.504  28.756  1.00  0.00     0.016 A 
ATOM     32  C   UNL A   1      40.162  27.608  26.891  1.00  0.00     0.010 A 
ATOM     33  C   UNL A   1      39.523  26.783  29.105  1.00  0.00     0.010 A 
ATOM     34  C   UNL A   1      39.706  27.833  28.187  1.00  0.00    -0.014 A 
BRANCH  34  35
ATOM     35  C   UNL A   1      39.765  29.135  28.823  1.00  0.00     0.031 A 
ATOM     36  C   UNL A   1      38.705  30.145  28.702  1.00  0.00     0.074 A 
ATOM     37  C   UNL A   1      40.803  29.180  29.684  1.00  0.00     0.049 A 
ATOM     38  N   UNL A   1      38.846  31.376  29.052  1.00  0.00    -0.248 NA
ATOM     39  C   UNL A   1      37.388  29.877  28.139  1.00  0.00     0.031 C 
ATOM     40  C   UNL A   1      41.090  30.055  30.801  1.00  0.00     0.029 A 
ATOM     41  N   UNL A   1      41.958  28.378  29.574  1.00  0.00    -0.354 N 
ATOM     42  C   UNL A   1      37.589  31.949  29.091  1.00  0.00     0.074 A 
ATOM     43  C   UNL A   1      36.740  31.021  28.388  1.00  0.00     0.031 C 
ATOM     44  C   UNL A   1      42.411  29.977  31.066  1.00  0.00     0.029 A 
ATOM     45  C   UNL A   1      43.016  29.176  30.004  1.00  0.00     0.049 A 
ATOM     46  H   UNL A   1      42.006  27.446  29.258  1.00  0.00     0.167 HD
ATOM     47  C   UNL A   1      37.404  33.041  29.891  1.00  0.00     0.037 A 
ATOM     48  C   UNL A   1      43.886  29.642  29.057  1.00  0.00     0.037 A 
ATOM     49  C   UNL A   1      38.693  33.453  30.448  1.00  0.00     0.049 A 
ATOM     50  C   UNL A   1      43.815  31.145  28.980  1.00  0.00     0.074 A 
ATOM     51  C   UNL A   1      39.307  33.142  31.652  1.00  0.00     0.029 A 
ATOM     52  N   UNL A   1      39.695  33.910  29.597  1.00  0.00    -0.354 N 
ATOM     53  N   UNL A   1      42.718  31.838  29.134  1.00  0.00    -0.248 NA
ATOM     54  C   UNL A   1      45.003  31.974  28.818  1.00  0.00     0.031 C 
ATOM     55  C   UNL A   1      40.703  33.317  31.483  1.00  0.00     0.029 A 
ATOM     56  C   UNL A   1      40.934  33.749  30.187  1.00  0.00     0.049 A 
ATOM     57  H   UNL A   1      39.542  34.293  28.703  1.00  0.00     0.167 HD
ATOM     58  C   UNL A   1      43.045  33.166  29.200  1.00  0.00     0.074 A 
ATOM     59  C   UNL A   1      44.479  33.202  28.960  1.00  0.00     0.031 C 
ATOM     60  C   UNL A   1      42.148  34.150  29.500  1.00  0.00     0.037 A 
BRANCH  47  61
ATOM     61  C   UNL A   1      36.070  33.496  30.461  1.00  0.00     0.064 A 
ATOM     62  C   UNL A   1      35.138  34.172  29.636  1.00  0.00     0.173 A 
ATOM     63  C   UNL A   1      35.669  33.371  31.804  1.00  0.00     0.173 A 
ATOM     64  F   UNL A   1      35.321  34.282  28.314  1.00  0.00    -0.203 F 
ATOM     65  C   UNL A   1      33.976  34.771  30.133  1.00  0.00     0.198 A 
ATOM     66  C   UNL A   1      34.518  33.993  32.308  1.00  0.00     0.198 A 
ATOM     67  F   UNL A   1      36.345  32.605  32.668  1.00  0.00    -0.203 F 
ATOM     68  F   UNL A   1      33.154  35.423  29.298  1.00  0.00    -0.200 F 
ATOM     69  C   UNL A   1      33.679  34.707  31.476  1.00  0.00     0.200 A 
ATOM     70  F   UNL A   1      34.227  33.895  33.615  1.00  0.00    -0.200 F 
ATOM     71  F   UNL A   1      32.582  35.304  31.960  1.00  0.00    -0.200 F 
ENDBRANCH  47  61
BRANCH  48  72
ATOM     72  C   UNL A   1      44.094  28.723  27.886  1.00  0.00     0.064 A 
ATOM     73  C   UNL A   1      44.831  27.529  28.075  1.00  0.00     0.173 A 
ATOM     74  C   UNL A   1      43.392  28.840  26.681  1.00  0.00     0.173 A 
ATOM     75  F   UNL A   1      45.535  27.347  29.204  1.00  0.00    -0.203 F 
ATOM     76  C   UNL A   1      44.788  26.478  27.158  1.00  0.00     0.198 A 
ATOM     77  C   UNL A   1      43.366  27.789  25.751  1.00  0.00     0.198 A 
ATOM     78  F   UNL A   1      42.668  29.936  26.416  1.00  0.00    -0.203 F 
ATOM     79  F   UNL A   1      45.422  25.328  27.427  1.00  0.00    -0.200 F 
ATOM     80  C   UNL A   1      44.043  26.605  26.000  1.00  0.00     0.200 A 
ATOM     81  F   UNL A   1      42.623  27.898  24.639  1.00  0.00    -0.200 F 
ATOM     82  F   UNL A   1      43.943  25.576  25.145  1.00  0.00    -0.200 F 
ENDBRANCH  48  72
BRANCH  60  83
ATOM     83  C   UNL A   1      42.384  35.618  29.281  1.00  0.00     0.064 A 
ATOM     84  C   UNL A   1      43.227  36.384  30.101  1.00  0.00     0.173 A 
ATOM     85  C   UNL A   1      41.906  36.259  28.113  1.00  0.00     0.173 A 
ATOM     86  F   UNL A   1      43.835  35.850  31.169  1.00  0.00    -0.203 F 
ATOM     87  C   UNL A   1      43.519  37.716  29.809  1.00  0.00     0.198 A 
ATOM     88  C   UNL A   1      42.258  37.565  27.790  1.00  0.00     0.198 A 
ATOM     89  F   UNL A   1      41.116  35.626  27.234  1.00  0.00    -0.203 F 
ATOM     90  F   UNL A   1      44.290  38.421  30.648  1.00  0.00    -0.200 F 
ATOM     91  C   UNL A   1      43.050  38.300  28.648  1.00  0.00     0.200 A 
ATOM     92  F   UNL A   1      41.847  38.096  26.630  1.00  0.00    -0.200 F 
ATOM     93  F   UNL A   1      43.379  39.561  28.344  1.00  0.00    -0.200 F 
ENDBRANCH  60  83
ENDBRANCH  34  35
ENDBRANCH  27  29
ENDBRANCH  26  27
ENDBRANCH  25  26
ENDBRANCH   1  25
TORSDOF 14
ENDMDL
