MODEL 1
REMARK VINA RESULT:     -12.6      0.000      0.000
REMARK SMILES Cc1cc(C)c2c(C(=O)OCCOC(=O)c3ccc(-c4c5nc(c(-c6c(F)c(F)c(F)c(F)c6F)c6ccc([nH]6)c(-c6c(F)c(F)c(F)c(F)c6F)c6nc(c(-c7c(F)c(F)c(F)c(F)c7F)c7ccc4[nH]7)C=C6)C=C5)cc3)cc(-c3ccco3)nc2c1
REMARK SMILES IDX 12 1 11 2 10 3 8 4 9 5 7 6 1 7 2 8 3 9 88 10 4 11 87 12 5 13
REMARK SMILES IDX 6 14 86 15 80 16 79 17 81 18 82 19 85 20 83 21 84 22 13 23
REMARK SMILES IDX 14 24 15 25 16 26 17 27 78 28 18 29 77 30 19 31 20 32 21 33
REMARK SMILES IDX 71 34 22 35 76 36 70 37 72 38 23 39 75 40 69 41 68 42 24 44
REMARK SMILES IDX 56 45 36 46 55 47 37 48 40 49 54 50 73 51 38 52 39 53 53 55
REMARK SMILES IDX 74 56 41 57 25 58 26 59 34 60 27 61 28 62 32 63 35 64 29 65
REMARK SMILES IDX 30 66 33 67 31 68 57 69 58 70 66 71 59 72 60 73 64 74 67 75
REMARK SMILES IDX 61 76 62 77 65 78 63 79 42 80 43 81 51 82 44 83 45 84 49 85
REMARK SMILES IDX 52 86 46 87 47 88 50 89 48 90
REMARK H PARENT 72 43 40 54
REMARK Flexibility Score: inf
ROOT
ATOM      1  C   UNL A   1      32.209  30.016  25.460  1.00  0.00     0.275 C 
ENDROOT
BRANCH   1   2
ATOM      2  C   UNL A   1      33.269  29.367  24.575  1.00  0.00     0.275 C 
BRANCH   2   3
ATOM      3  O   UNL A   1      33.580  28.056  25.093  1.00  0.00    -0.458 OA
BRANCH   3   4
ATOM      4  C   UNL A   1      33.425  27.020  24.236  1.00  0.00     0.339 C 
ATOM      5  O   UNL A   1      33.361  27.079  23.024  1.00  0.00    -0.246 OA
BRANCH   4   6
ATOM      6  C   UNL A   1      33.504  25.747  24.978  1.00  0.00     0.072 A 
ATOM      7  C   UNL A   1      29.328  22.507  27.252  1.00  0.00     0.044 C 
ATOM      8  C   UNL A   1      30.376  23.434  26.718  1.00  0.00    -0.049 A 
ATOM      9  C   UNL A   1      30.042  24.688  26.223  1.00  0.00     0.007 A 
ATOM     10  C   UNL A   1      31.716  23.045  26.697  1.00  0.00     0.032 A 
ATOM     11  C   UNL A   1      31.017  25.528  25.658  1.00  0.00    -0.041 A 
ATOM     12  C   UNL A   1      32.716  23.839  26.162  1.00  0.00     0.072 A 
ATOM     13  C   UNL A   1      30.525  26.875  25.198  1.00  0.00     0.045 C 
ATOM     14  C   UNL A   1      32.391  25.096  25.587  1.00  0.00     0.018 A 
ATOM     15  N   UNL A   1      33.956  23.324  26.221  1.00  0.00    -0.244 NA
ATOM     16  C   UNL A   1      34.966  23.989  25.641  1.00  0.00     0.107 A 
ATOM     17  C   UNL A   1      34.778  25.170  24.968  1.00  0.00     0.048 A 
BRANCH  16  18
ATOM     18  C   UNL A   1      36.298  23.444  25.825  1.00  0.00     0.152 A 
ATOM     19  C   UNL A   1      37.510  24.003  26.182  1.00  0.00     0.052 A 
ATOM     20  O   UNL A   1      36.463  22.118  25.548  1.00  0.00    -0.463 OA
ATOM     21  C   UNL A   1      38.466  22.961  26.126  1.00  0.00     0.043 A 
ATOM     22  C   UNL A   1      37.779  21.835  25.737  1.00  0.00     0.196 A 
ENDBRANCH  16  18
ENDBRANCH   4   6
ENDBRANCH   3   4
ENDBRANCH   2   3
ENDBRANCH   1   2
BRANCH   1  23
ATOM     23  O   UNL A   1      32.709  30.045  26.806  1.00  0.00    -0.458 OA
BRANCH  23  24
ATOM     24  C   UNL A   1      33.258  31.218  27.186  1.00  0.00     0.338 C 
ATOM     25  O   UNL A   1      32.742  32.322  27.231  1.00  0.00    -0.246 OA
BRANCH  24  26
ATOM     26  C   UNL A   1      34.598  30.940  27.705  1.00  0.00     0.060 A 
ATOM     27  C   UNL A   1      34.924  29.617  28.001  1.00  0.00     0.016 A 
ATOM     28  C   UNL A   1      35.476  31.976  28.001  1.00  0.00     0.016 A 
ATOM     29  C   UNL A   1      36.091  29.328  28.699  1.00  0.00     0.010 A 
ATOM     30  C   UNL A   1      36.692  31.674  28.616  1.00  0.00     0.010 A 
ATOM     31  C   UNL A   1      36.991  30.355  29.011  1.00  0.00    -0.014 A 
BRANCH  31  32
ATOM     32  C   UNL A   1      38.221  30.074  29.796  1.00  0.00     0.031 A 
ATOM     33  C   UNL A   1      39.276  29.168  29.223  1.00  0.00     0.074 A 
ATOM     34  C   UNL A   1      38.394  30.621  31.014  1.00  0.00     0.049 A 
ATOM     35  N   UNL A   1      40.328  28.649  29.801  1.00  0.00    -0.248 NA
ATOM     36  C   UNL A   1      39.121  28.789  27.809  1.00  0.00     0.031 C 
ATOM     37  C   UNL A   1      37.480  31.566  31.656  1.00  0.00     0.029 A 
ATOM     38  N   UNL A   1      39.403  30.460  31.932  1.00  0.00    -0.354 N 
ATOM     39  C   UNL A   1      40.935  27.852  28.839  1.00  0.00     0.074 A 
ATOM     40  C   UNL A   1      40.127  27.942  27.642  1.00  0.00     0.031 C 
ATOM     41  C   UNL A   1      37.979  31.919  32.850  1.00  0.00     0.029 A 
ATOM     42  C   UNL A   1      39.205  31.166  33.094  1.00  0.00     0.049 A 
ATOM     43  H   UNL A   1      40.192  29.894  31.772  1.00  0.00     0.167 HD
ATOM     44  C   UNL A   1      42.067  27.118  28.948  1.00  0.00     0.037 A 
ATOM     45  C   UNL A   1      39.909  31.175  34.242  1.00  0.00     0.037 A 
ATOM     46  C   UNL A   1      42.882  27.062  30.132  1.00  0.00     0.049 A 
ATOM     47  C   UNL A   1      41.123  30.294  34.363  1.00  0.00     0.074 A 
ATOM     48  C   UNL A   1      44.050  26.350  30.342  1.00  0.00     0.029 A 
ATOM     49  N   UNL A   1      42.621  27.756  31.305  1.00  0.00    -0.354 N 
ATOM     50  N   UNL A   1      41.663  29.506  33.465  1.00  0.00    -0.248 NA
ATOM     51  C   UNL A   1      41.813  30.290  35.660  1.00  0.00     0.031 C 
ATOM     52  C   UNL A   1      44.472  26.581  31.654  1.00  0.00     0.029 A 
ATOM     53  C   UNL A   1      43.597  27.475  32.247  1.00  0.00     0.049 A 
ATOM     54  H   UNL A   1      41.854  28.357  31.446  1.00  0.00     0.167 HD
ATOM     55  C   UNL A   1      42.765  28.927  34.079  1.00  0.00     0.074 A 
ATOM     56  C   UNL A   1      42.825  29.465  35.423  1.00  0.00     0.031 C 
ATOM     57  C   UNL A   1      43.644  28.028  33.576  1.00  0.00     0.037 A 
BRANCH  44  58
ATOM     58  C   UNL A   1      42.487  26.297  27.763  1.00  0.00     0.064 A 
ATOM     59  C   UNL A   1      43.475  26.740  26.872  1.00  0.00     0.173 A 
ATOM     60  C   UNL A   1      41.936  25.023  27.551  1.00  0.00     0.173 A 
ATOM     61  F   UNL A   1      44.022  27.956  27.023  1.00  0.00    -0.203 F 
ATOM     62  C   UNL A   1      43.887  25.945  25.805  1.00  0.00     0.198 A 
ATOM     63  C   UNL A   1      42.370  24.220  26.500  1.00  0.00     0.198 A 
ATOM     64  F   UNL A   1      40.990  24.550  28.376  1.00  0.00    -0.203 F 
ATOM     65  F   UNL A   1      44.807  26.404  24.947  1.00  0.00    -0.200 F 
ATOM     66  C   UNL A   1      43.341  24.683  25.626  1.00  0.00     0.200 A 
ATOM     67  F   UNL A   1      41.850  22.995  26.336  1.00  0.00    -0.200 F 
ATOM     68  F   UNL A   1      43.750  23.913  24.608  1.00  0.00    -0.200 F 
ENDBRANCH  44  58
BRANCH  45  69
ATOM     69  C   UNL A   1      39.468  32.035  35.370  1.00  0.00     0.064 A 
ATOM     70  C   UNL A   1      39.900  33.364  35.470  1.00  0.00     0.173 A 
ATOM     71  C   UNL A   1      38.588  31.560  36.354  1.00  0.00     0.173 A 
ATOM     72  F   UNL A   1      40.761  33.857  34.568  1.00  0.00    -0.203 F 
ATOM     73  C   UNL A   1      39.470  34.185  36.510  1.00  0.00     0.198 A 
ATOM     74  C   UNL A   1      38.135  32.390  37.377  1.00  0.00     0.198 A 
ATOM     75  F   UNL A   1      38.146  30.295  36.306  1.00  0.00    -0.203 F 
ATOM     76  F   UNL A   1      39.922  35.443  36.600  1.00  0.00    -0.200 F 
ATOM     77  C   UNL A   1      38.579  33.701  37.457  1.00  0.00     0.200 A 
ATOM     78  F   UNL A   1      37.263  31.922  38.281  1.00  0.00    -0.200 F 
ATOM     79  F   UNL A   1      38.153  34.495  38.448  1.00  0.00    -0.200 F 
ENDBRANCH  45  69
BRANCH  57  80
ATOM     80  C   UNL A   1      44.767  27.583  34.466  1.00  0.00     0.064 A 
ATOM     81  C   UNL A   1      44.659  26.435  35.263  1.00  0.00     0.173 A 
ATOM     82  C   UNL A   1      45.991  28.269  34.460  1.00  0.00     0.173 A 
ATOM     83  F   UNL A   1      43.503  25.754  35.313  1.00  0.00    -0.203 F 
ATOM     84  C   UNL A   1      45.733  25.994  36.031  1.00  0.00     0.198 A 
ATOM     85  C   UNL A   1      47.072  27.809  35.206  1.00  0.00     0.198 A 
ATOM     86  F   UNL A   1      46.147  29.368  33.707  1.00  0.00    -0.203 F 
ATOM     87  F   UNL A   1      45.599  24.912  36.810  1.00  0.00    -0.200 F 
ATOM     88  C   UNL A   1      46.941  26.675  35.993  1.00  0.00     0.200 A 
ATOM     89  F   UNL A   1      48.244  28.459  35.157  1.00  0.00    -0.200 F 
ATOM     90  F   UNL A   1      47.980  26.238  36.719  1.00  0.00    -0.200 F 
ENDBRANCH  57  80
ENDBRANCH  31  32
ENDBRANCH  24  26
ENDBRANCH  23  24
ENDBRANCH   1  23
TORSDOF 12
ENDMDL
MODEL 2
REMARK VINA RESULT:     -12.5      1.846      3.970
REMARK SMILES Cc1cc(C)c2c(C(=O)OCCOC(=O)c3ccc(-c4c5nc(c(-c6c(F)c(F)c(F)c(F)c6F)c6ccc([nH]6)c(-c6c(F)c(F)c(F)c(F)c6F)c6nc(c(-c7c(F)c(F)c(F)c(F)c7F)c7ccc4[nH]7)C=C6)C=C5)cc3)cc(-c3ccco3)nc2c1
REMARK SMILES IDX 12 1 11 2 10 3 8 4 9 5 7 6 1 7 2 8 3 9 88 10 4 11 87 12 5 13
REMARK SMILES IDX 6 14 86 15 80 16 79 17 81 18 82 19 85 20 83 21 84 22 13 23
REMARK SMILES IDX 14 24 15 25 16 26 17 27 78 28 18 29 77 30 19 31 20 32 21 33
REMARK SMILES IDX 71 34 22 35 76 36 70 37 72 38 23 39 75 40 69 41 68 42 24 44
REMARK SMILES IDX 56 45 36 46 55 47 37 48 40 49 54 50 73 51 38 52 39 53 53 55
REMARK SMILES IDX 74 56 41 57 25 58 26 59 34 60 27 61 28 62 32 63 35 64 29 65
REMARK SMILES IDX 30 66 33 67 31 68 57 69 58 70 66 71 59 72 60 73 64 74 67 75
REMARK SMILES IDX 61 76 62 77 65 78 63 79 42 80 43 81 51 82 44 83 45 84 49 85
REMARK SMILES IDX 52 86 46 87 47 88 50 89 48 90
REMARK H PARENT 72 43 40 54
REMARK Flexibility Score: inf
ROOT
ATOM      1  C   UNL A   1      31.827  30.348  26.868  1.00  0.00     0.275 C 
ENDROOT
BRANCH   1   2
ATOM      2  C   UNL A   1      31.782  28.973  27.531  1.00  0.00     0.275 C 
BRANCH   2   3
ATOM      3  O   UNL A   1      32.284  27.985  26.606  1.00  0.00    -0.458 OA
BRANCH   3   4
ATOM      4  C   UNL A   1      31.386  27.083  26.148  1.00  0.00     0.339 C 
ATOM      5  O   UNL A   1      30.710  26.323  26.813  1.00  0.00    -0.246 OA
BRANCH   4   6
ATOM      6  C   UNL A   1      31.209  27.255  24.693  1.00  0.00     0.072 A 
ATOM      7  C   UNL A   1      33.161  24.076  20.312  1.00  0.00     0.044 C 
ATOM      8  C   UNL A   1      32.756  24.912  21.487  1.00  0.00    -0.049 A 
ATOM      9  C   UNL A   1      33.220  24.629  22.765  1.00  0.00     0.007 A 
ATOM     10  C   UNL A   1      31.887  25.990  21.317  1.00  0.00     0.032 A 
ATOM     11  C   UNL A   1      32.784  25.372  23.876  1.00  0.00    -0.041 A 
ATOM     12  C   UNL A   1      31.436  26.760  22.377  1.00  0.00     0.072 A 
ATOM     13  C   UNL A   1      33.398  24.986  25.196  1.00  0.00     0.045 C 
ATOM     14  C   UNL A   1      31.841  26.450  23.701  1.00  0.00     0.018 A 
ATOM     15  N   UNL A   1      30.607  27.765  22.047  1.00  0.00    -0.244 NA
ATOM     16  C   UNL A   1      30.052  28.498  23.024  1.00  0.00     0.107 A 
ATOM     17  C   UNL A   1      30.282  28.246  24.354  1.00  0.00     0.048 A 
BRANCH  16  18
ATOM     18  C   UNL A   1      29.251  29.635  22.612  1.00  0.00     0.152 A 
ATOM     19  C   UNL A   1      28.671  30.685  23.299  1.00  0.00     0.052 A 
ATOM     20  O   UNL A   1      28.919  29.707  21.291  1.00  0.00    -0.463 OA
ATOM     21  C   UNL A   1      27.952  31.443  22.344  1.00  0.00     0.043 A 
ATOM     22  C   UNL A   1      28.136  30.808  21.138  1.00  0.00     0.196 A 
ENDBRANCH  16  18
ENDBRANCH   4   6
ENDBRANCH   3   4
ENDBRANCH   2   3
ENDBRANCH   1   2
BRANCH   1  23
ATOM     23  O   UNL A   1      33.203  30.679  26.622  1.00  0.00    -0.458 OA
BRANCH  23  24
ATOM     24  C   UNL A   1      33.674  31.723  27.336  1.00  0.00     0.338 C 
ATOM     25  O   UNL A   1      33.114  32.768  27.618  1.00  0.00    -0.246 OA
BRANCH  24  26
ATOM     26  C   UNL A   1      34.978  31.342  27.881  1.00  0.00     0.060 A 
ATOM     27  C   UNL A   1      35.155  30.023  28.296  1.00  0.00     0.016 A 
ATOM     28  C   UNL A   1      35.971  32.295  28.083  1.00  0.00     0.016 A 
ATOM     29  C   UNL A   1      36.288  29.668  29.020  1.00  0.00     0.010 A 
ATOM     30  C   UNL A   1      37.150  31.913  28.726  1.00  0.00     0.010 A 
ATOM     31  C   UNL A   1      37.301  30.610  29.239  1.00  0.00    -0.014 A 
BRANCH  31  32
ATOM     32  C   UNL A   1      38.497  30.262  30.049  1.00  0.00     0.031 A 
ATOM     33  C   UNL A   1      39.549  29.357  29.468  1.00  0.00     0.074 A 
ATOM     34  C   UNL A   1      38.643  30.750  31.295  1.00  0.00     0.049 A 
ATOM     35  N   UNL A   1      40.569  28.786  30.055  1.00  0.00    -0.248 NA
ATOM     36  C   UNL A   1      39.431  29.046  28.034  1.00  0.00     0.031 C 
ATOM     37  C   UNL A   1      37.732  31.688  31.950  1.00  0.00     0.029 A 
ATOM     38  N   UNL A   1      39.618  30.523  32.236  1.00  0.00    -0.354 N 
ATOM     39  C   UNL A   1      41.187  28.018  29.077  1.00  0.00     0.074 A 
ATOM     40  C   UNL A   1      40.421  28.182  27.861  1.00  0.00     0.031 C 
ATOM     41  C   UNL A   1      38.200  31.975  33.175  1.00  0.00     0.029 A 
ATOM     42  C   UNL A   1      39.399  31.181  33.422  1.00  0.00     0.049 A 
ATOM     43  H   UNL A   1      40.398  29.944  32.075  1.00  0.00     0.167 HD
ATOM     44  C   UNL A   1      42.297  27.251  29.187  1.00  0.00     0.037 A 
ATOM     45  C   UNL A   1      40.066  31.120  34.591  1.00  0.00     0.037 A 
ATOM     46  C   UNL A   1      43.072  27.122  30.393  1.00  0.00     0.049 A 
ATOM     47  C   UNL A   1      41.253  30.205  34.709  1.00  0.00     0.074 A 
ATOM     48  C   UNL A   1      44.215  26.372  30.607  1.00  0.00     0.029 A 
ATOM     49  N   UNL A   1      42.789  27.769  31.587  1.00  0.00    -0.354 N 
ATOM     50  N   UNL A   1      41.804  29.444  33.794  1.00  0.00    -0.248 NA
ATOM     51  C   UNL A   1      41.900  30.125  36.026  1.00  0.00     0.031 C 
ATOM     52  C   UNL A   1      44.600  26.533  31.941  1.00  0.00     0.029 A 
ATOM     53  C   UNL A   1      43.727  27.422  32.545  1.00  0.00     0.049 A 
ATOM     54  H   UNL A   1      42.033  28.382  31.732  1.00  0.00     0.167 HD
ATOM     55  C   UNL A   1      42.871  28.811  34.415  1.00  0.00     0.074 A 
ATOM     56  C   UNL A   1      42.900  29.287  35.784  1.00  0.00     0.031 C 
ATOM     57  C   UNL A   1      43.745  27.913  33.900  1.00  0.00     0.037 A 
BRANCH  44  58
ATOM     58  C   UNL A   1      42.736  26.475  27.980  1.00  0.00     0.064 A 
ATOM     59  C   UNL A   1      42.281  25.171  27.736  1.00  0.00     0.173 A 
ATOM     60  C   UNL A   1      43.575  27.067  27.023  1.00  0.00     0.173 A 
ATOM     61  F   UNL A   1      41.490  24.555  28.628  1.00  0.00    -0.203 F 
ATOM     62  C   UNL A   1      42.662  24.483  26.586  1.00  0.00     0.198 A 
ATOM     63  C   UNL A   1      43.931  26.386  25.861  1.00  0.00     0.198 A 
ATOM     64  F   UNL A   1      44.035  28.314  27.205  1.00  0.00    -0.203 F 
ATOM     65  F   UNL A   1      42.243  23.225  26.392  1.00  0.00    -0.200 F 
ATOM     66  C   UNL A   1      43.477  25.094  25.646  1.00  0.00     0.200 A 
ATOM     67  F   UNL A   1      44.709  26.984  24.948  1.00  0.00    -0.200 F 
ATOM     68  F   UNL A   1      43.829  24.436  24.533  1.00  0.00    -0.200 F 
ENDBRANCH  44  58
BRANCH  45  69
ATOM     69  C   UNL A   1      39.608  31.940  35.743  1.00  0.00     0.064 A 
ATOM     70  C   UNL A   1      40.180  33.192  36.003  1.00  0.00     0.173 A 
ATOM     71  C   UNL A   1      38.577  31.506  36.589  1.00  0.00     0.173 A 
ATOM     72  F   UNL A   1      41.187  33.641  35.238  1.00  0.00    -0.203 F 
ATOM     73  C   UNL A   1      39.739  33.979  37.066  1.00  0.00     0.198 A 
ATOM     74  C   UNL A   1      38.117  32.305  37.633  1.00  0.00     0.198 A 
ATOM     75  F   UNL A   1      37.998  30.314  36.384  1.00  0.00    -0.203 F 
ATOM     76  F   UNL A   1      40.324  35.159  37.312  1.00  0.00    -0.200 F 
ATOM     77  C   UNL A   1      38.700  33.539  37.873  1.00  0.00     0.200 A 
ATOM     78  F   UNL A   1      37.103  31.882  38.400  1.00  0.00    -0.200 F 
ATOM     79  F   UNL A   1      38.266  34.302  38.884  1.00  0.00    -0.200 F 
ENDBRANCH  45  69
BRANCH  57  80
ATOM     80  C   UNL A   1      44.827  27.400  34.803  1.00  0.00     0.064 A 
ATOM     81  C   UNL A   1      46.038  28.089  34.961  1.00  0.00     0.173 A 
ATOM     82  C   UNL A   1      44.616  26.250  35.580  1.00  0.00     0.173 A 
ATOM     83  F   UNL A   1      46.290  29.185  34.230  1.00  0.00    -0.203 F 
ATOM     84  C   UNL A   1      47.004  27.638  35.855  1.00  0.00     0.198 A 
ATOM     85  C   UNL A   1      45.572  25.819  36.494  1.00  0.00     0.198 A 
ATOM     86  F   UNL A   1      43.470  25.562  35.471  1.00  0.00    -0.203 F 
ATOM     87  F   UNL A   1      48.168  28.293  35.968  1.00  0.00    -0.200 F 
ATOM     88  C   UNL A   1      46.767  26.511  36.628  1.00  0.00     0.200 A 
ATOM     89  F   UNL A   1      45.335  24.738  37.251  1.00  0.00    -0.200 F 
ATOM     90  F   UNL A   1      47.691  26.090  37.503  1.00  0.00    -0.200 F 
ENDBRANCH  57  80
ENDBRANCH  31  32
ENDBRANCH  24  26
ENDBRANCH  23  24
ENDBRANCH   1  23
TORSDOF 12
ENDMDL
MODEL 3
REMARK VINA RESULT:     -12.5      4.378      9.542
REMARK SMILES Cc1cc(C)c2c(C(=O)OCCOC(=O)c3ccc(-c4c5nc(c(-c6c(F)c(F)c(F)c(F)c6F)c6ccc([nH]6)c(-c6c(F)c(F)c(F)c(F)c6F)c6nc(c(-c7c(F)c(F)c(F)c(F)c7F)c7ccc4[nH]7)C=C6)C=C5)cc3)cc(-c3ccco3)nc2c1
REMARK SMILES IDX 12 1 11 2 10 3 8 4 9 5 7 6 1 7 2 8 3 9 88 10 4 11 87 12 5 13
REMARK SMILES IDX 6 14 86 15 80 16 79 17 81 18 82 19 85 20 83 21 84 22 13 23
REMARK SMILES IDX 14 24 15 25 16 26 17 27 78 28 18 29 77 30 19 31 20 32 21 33
REMARK SMILES IDX 71 34 22 35 76 36 70 37 72 38 23 39 75 40 69 41 68 42 24 44
REMARK SMILES IDX 56 45 36 46 55 47 37 48 40 49 54 50 73 51 38 52 39 53 53 55
REMARK SMILES IDX 74 56 41 57 25 58 26 59 34 60 27 61 28 62 32 63 35 64 29 65
REMARK SMILES IDX 30 66 33 67 31 68 57 69 58 70 66 71 59 72 60 73 64 74 67 75
REMARK SMILES IDX 61 76 62 77 65 78 63 79 42 80 43 81 51 82 44 83 45 84 49 85
REMARK SMILES IDX 52 86 46 87 47 88 50 89 48 90
REMARK H PARENT 72 43 40 54
REMARK Flexibility Score: inf
ROOT
ATOM      1  C   UNL A   1      37.402  21.069  24.589  1.00  0.00     0.275 C 
ENDROOT
BRANCH   1   2
ATOM      2  C   UNL A   1      37.028  22.210  23.647  1.00  0.00     0.275 C 
BRANCH   2   3
ATOM      3  O   UNL A   1      35.945  22.968  24.226  1.00  0.00    -0.458 OA
BRANCH   3   4
ATOM      4  C   UNL A   1      34.805  23.033  23.501  1.00  0.00     0.339 C 
ATOM      5  O   UNL A   1      34.680  23.474  22.376  1.00  0.00    -0.246 OA
BRANCH   4   6
ATOM      6  C   UNL A   1      33.721  22.331  24.216  1.00  0.00     0.072 A 
ATOM      7  C   UNL A   1      29.126  24.422  26.977  1.00  0.00     0.044 C 
ATOM      8  C   UNL A   1      30.385  23.942  26.321  1.00  0.00    -0.049 A 
ATOM      9  C   UNL A   1      31.353  24.835  25.883  1.00  0.00     0.007 A 
ATOM     10  C   UNL A   1      30.599  22.577  26.126  1.00  0.00     0.032 A 
ATOM     11  C   UNL A   1      32.500  24.386  25.205  1.00  0.00    -0.041 A 
ATOM     12  C   UNL A   1      31.717  22.083  25.474  1.00  0.00     0.072 A 
ATOM     13  C   UNL A   1      33.489  25.457  24.823  1.00  0.00     0.045 C 
ATOM     14  C   UNL A   1      32.689  22.978  24.957  1.00  0.00     0.018 A 
ATOM     15  N   UNL A   1      31.780  20.744  25.371  1.00  0.00    -0.244 NA
ATOM     16  C   UNL A   1      32.783  20.191  24.672  1.00  0.00     0.107 A 
ATOM     17  C   UNL A   1      33.739  20.944  24.038  1.00  0.00     0.048 A 
BRANCH  16  18
ATOM     18  C   UNL A   1      32.863  18.743  24.681  1.00  0.00     0.152 A 
ATOM     19  C   UNL A   1      33.262  17.810  23.743  1.00  0.00     0.052 A 
ATOM     20  O   UNL A   1      32.410  18.109  25.800  1.00  0.00    -0.463 OA
ATOM     21  C   UNL A   1      33.047  16.537  24.324  1.00  0.00     0.043 A 
ATOM     22  C   UNL A   1      32.529  16.773  25.576  1.00  0.00     0.196 A 
ENDBRANCH  16  18
ENDBRANCH   4   6
ENDBRANCH   3   4
ENDBRANCH   2   3
ENDBRANCH   1   2
BRANCH   1  23
ATOM     23  O   UNL A   1      37.811  21.642  25.842  1.00  0.00    -0.458 OA
BRANCH  23  24
ATOM     24  C   UNL A   1      39.091  21.395  26.191  1.00  0.00     0.338 C 
ATOM     25  O   UNL A   1      39.753  20.389  25.998  1.00  0.00    -0.246 OA
BRANCH  24  26
ATOM     26  C   UNL A   1      39.654  22.631  26.736  1.00  0.00     0.060 A 
ATOM     27  C   UNL A   1      39.167  23.843  26.250  1.00  0.00     0.016 A 
ATOM     28  C   UNL A   1      40.721  22.594  27.628  1.00  0.00     0.016 A 
ATOM     29  C   UNL A   1      39.817  25.031  26.568  1.00  0.00     0.010 A 
ATOM     30  C   UNL A   1      41.312  23.796  28.021  1.00  0.00     0.010 A 
ATOM     31  C   UNL A   1      40.896  25.020  27.462  1.00  0.00    -0.014 A 
BRANCH  31  32
ATOM     32  C   UNL A   1      41.631  26.272  27.778  1.00  0.00     0.031 A 
ATOM     33  C   UNL A   1      40.957  27.344  28.588  1.00  0.00     0.074 A 
ATOM     34  C   UNL A   1      42.893  26.450  27.343  1.00  0.00     0.049 A 
ATOM     35  N   UNL A   1      41.341  28.572  28.823  1.00  0.00    -0.248 NA
ATOM     36  C   UNL A   1      39.671  26.988  29.211  1.00  0.00     0.031 C 
ATOM     37  C   UNL A   1      43.683  25.464  26.606  1.00  0.00     0.029 A 
ATOM     38  N   UNL A   1      43.735  27.530  27.458  1.00  0.00    -0.354 N 
ATOM     39  C   UNL A   1      40.330  29.146  29.582  1.00  0.00     0.074 A 
ATOM     40  C   UNL A   1      39.306  28.140  29.758  1.00  0.00     0.031 C 
ATOM     41  C   UNL A   1      44.899  25.972  26.356  1.00  0.00     0.029 A 
ATOM     42  C   UNL A   1      44.949  27.347  26.843  1.00  0.00     0.049 A 
ATOM     43  H   UNL A   1      43.491  28.355  27.938  1.00  0.00     0.167 HD
ATOM     44  C   UNL A   1      40.268  30.400  30.090  1.00  0.00     0.037 A 
ATOM     45  C   UNL A   1      45.971  28.204  26.655  1.00  0.00     0.037 A 
ATOM     46  C   UNL A   1      41.307  31.384  29.939  1.00  0.00     0.049 A 
ATOM     47  C   UNL A   1      45.848  29.613  27.166  1.00  0.00     0.074 A 
ATOM     48  C   UNL A   1      41.343  32.682  30.418  1.00  0.00     0.029 A 
ATOM     49  N   UNL A   1      42.503  31.174  29.266  1.00  0.00    -0.354 N 
ATOM     50  N   UNL A   1      44.868  30.164  27.841  1.00  0.00    -0.248 NA
ATOM     51  C   UNL A   1      46.963  30.524  26.873  1.00  0.00     0.031 C 
ATOM     52  C   UNL A   1      42.540  33.269  30.000  1.00  0.00     0.029 A 
ATOM     53  C   UNL A   1      43.274  32.323  29.305  1.00  0.00     0.049 A 
ATOM     54  H   UNL A   1      42.763  30.332  28.827  1.00  0.00     0.167 HD
ATOM     55  C   UNL A   1      45.254  31.477  28.070  1.00  0.00     0.074 A 
ATOM     56  C   UNL A   1      46.564  31.638  27.474  1.00  0.00     0.031 C 
ATOM     57  C   UNL A   1      44.581  32.461  28.713  1.00  0.00     0.037 A 
BRANCH  44  58
ATOM     58  C   UNL A   1      39.030  30.792  30.842  1.00  0.00     0.064 A 
ATOM     59  C   UNL A   1      38.938  30.653  32.234  1.00  0.00     0.173 A 
ATOM     60  C   UNL A   1      37.944  31.373  30.168  1.00  0.00     0.173 A 
ATOM     61  F   UNL A   1      39.942  30.090  32.923  1.00  0.00    -0.203 F 
ATOM     62  C   UNL A   1      37.799  31.065  32.922  1.00  0.00     0.198 A 
ATOM     63  C   UNL A   1      36.819  31.810  30.861  1.00  0.00     0.198 A 
ATOM     64  F   UNL A   1      37.983  31.533  28.836  1.00  0.00    -0.203 F 
ATOM     65  F   UNL A   1      37.719  30.890  34.248  1.00  0.00    -0.200 F 
ATOM     66  C   UNL A   1      36.746  31.653  32.237  1.00  0.00     0.200 A 
ATOM     67  F   UNL A   1      35.808  32.389  30.198  1.00  0.00    -0.200 F 
ATOM     68  F   UNL A   1      35.657  32.064  32.902  1.00  0.00    -0.200 F 
ENDBRANCH  44  58
BRANCH  45  69
ATOM     69  C   UNL A   1      47.189  27.750  25.935  1.00  0.00     0.064 A 
ATOM     70  C   UNL A   1      48.304  27.275  26.640  1.00  0.00     0.173 A 
ATOM     71  C   UNL A   1      47.258  27.754  24.534  1.00  0.00     0.173 A 
ATOM     72  F   UNL A   1      48.297  27.275  27.981  1.00  0.00    -0.203 F 
ATOM     73  C   UNL A   1      49.440  26.824  25.971  1.00  0.00     0.198 A 
ATOM     74  C   UNL A   1      48.382  27.275  23.866  1.00  0.00     0.198 A 
ATOM     75  F   UNL A   1      46.219  28.200  23.812  1.00  0.00    -0.203 F 
ATOM     76  F   UNL A   1      50.503  26.404  26.669  1.00  0.00    -0.200 F 
ATOM     77  C   UNL A   1      49.474  26.813  24.584  1.00  0.00     0.200 A 
ATOM     78  F   UNL A   1      48.404  27.253  22.526  1.00  0.00    -0.200 F 
ATOM     79  F   UNL A   1      50.560  26.364  23.942  1.00  0.00    -0.200 F 
ENDBRANCH  45  69
BRANCH  57  80
ATOM     80  C   UNL A   1      45.253  33.797  28.834  1.00  0.00     0.064 A 
ATOM     81  C   UNL A   1      45.044  34.811  27.888  1.00  0.00     0.173 A 
ATOM     82  C   UNL A   1      46.051  34.090  29.950  1.00  0.00     0.173 A 
ATOM     83  F   UNL A   1      44.300  34.572  26.797  1.00  0.00    -0.203 F 
ATOM     84  C   UNL A   1      45.618  36.068  28.050  1.00  0.00     0.198 A 
ATOM     85  C   UNL A   1      46.600  35.358  30.123  1.00  0.00     0.198 A 
ATOM     86  F   UNL A   1      46.274  33.156  30.887  1.00  0.00    -0.203 F 
ATOM     87  F   UNL A   1      45.431  37.013  27.119  1.00  0.00    -0.200 F 
ATOM     88  C   UNL A   1      46.386  36.344  29.172  1.00  0.00     0.200 A 
ATOM     89  F   UNL A   1      47.330  35.627  31.216  1.00  0.00    -0.200 F 
ATOM     90  F   UNL A   1      46.923  37.561  29.335  1.00  0.00    -0.200 F 
ENDBRANCH  57  80
ENDBRANCH  31  32
ENDBRANCH  24  26
ENDBRANCH  23  24
ENDBRANCH   1  23
TORSDOF 12
ENDMDL
