MODEL 1
REMARK VINA RESULT:     -12.8      0.000      0.000
REMARK SMILES COc1ccc2c(c1)c(Cc1nc(-c3ccc(C(=O)OCCOC(=O)c4ccc(-c5c6nc(c(-c7c(F)c(F)c(F)c(F)c7F)c7ccc([nH]7)c(-c7c(F)c(F)c(F)c(F)c7F)c7nc(c(-c8c(F)c(F)c(F)c(F)c8F)c8ccc5[nH]8)C=C7)C=C6)cc4)cc3)cs1)c(C)n2C(=O)c1ccc(Cl)cc1
REMARK SMILES IDX 20 1 18 2 19 3 17 4 14 5 15 6 90 7 16 8 89 9 13 10 11 11
REMARK SMILES IDX 12 12 92 13 91 14 10 15 9 16 3 17 4 18 8 19 5 20 7 21 6 22
REMARK SMILES IDX 95 23 93 24 94 25 2 26 1 27 96 28 97 29 98 30 99 31 104 32
REMARK SMILES IDX 100 33 103 34 101 35 102 36 21 37 22 38 23 39 24 40 25 41
REMARK SMILES IDX 26 42 27 43 88 44 28 45 87 46 29 47 30 48 31 49 81 50 32 51
REMARK SMILES IDX 86 52 80 53 82 54 33 55 85 56 79 57 78 58 34 60 66 61 46 62
REMARK SMILES IDX 65 63 47 64 50 65 64 66 83 67 48 68 49 69 63 71 84 72 51 73
REMARK SMILES IDX 35 74 36 75 44 76 37 77 38 78 42 79 45 80 39 81 40 82 43 83
REMARK SMILES IDX 41 84 67 85 68 86 76 87 69 88 70 89 74 90 77 91 71 92 72 93
REMARK SMILES IDX 75 94 73 95 52 96 53 97 61 98 54 99 55 100 59 101 62 102
REMARK SMILES IDX 56 103 57 104 60 105 58 106
REMARK H PARENT 82 59 50 70
REMARK Flexibility Score: inf
ROOT
ATOM      1  O   UNL A   1      39.129  21.333  25.659  1.00  0.00    -0.458 OA
ENDROOT
BRANCH   1   2
ATOM      2  C   UNL A   1      38.078  20.708  25.073  1.00  0.00     0.338 C 
ATOM      3  O   UNL A   1      38.077  19.568  24.633  1.00  0.00    -0.246 OA
BRANCH   2   4
ATOM      4  C   UNL A   1      36.842  21.541  25.177  1.00  0.00     0.060 A 
ATOM      5  C   UNL A   1      34.345  22.748  25.732  1.00  0.00     0.001 A 
ATOM      6  C   UNL A   1      34.400  21.479  25.174  1.00  0.00     0.011 A 
ATOM      7  C   UNL A   1      35.539  23.473  25.854  1.00  0.00     0.011 A 
ATOM      8  C   UNL A   1      35.638  20.916  24.883  1.00  0.00     0.016 A 
ATOM      9  C   UNL A   1      36.789  22.864  25.599  1.00  0.00     0.016 A 
BRANCH   5  10
ATOM     10  C   UNL A   1      33.052  23.248  26.165  1.00  0.00     0.081 A 
ATOM     11  C   UNL A   1      31.381  24.690  26.096  1.00  0.00     0.098 A 
ATOM     12  N   UNL A   1      32.694  24.567  26.021  1.00  0.00    -0.241 NA
ATOM     13  S   UNL A   1      30.561  23.296  26.683  1.00  0.00    -0.126 S 
ATOM     14  C   UNL A   1      32.036  22.419  26.606  1.00  0.00     0.095 A 
BRANCH  11  15
ATOM     15  C   UNL A   1      30.615  25.909  25.631  1.00  0.00     0.105 C 
BRANCH  15  16
ATOM     16  C   UNL A   1      31.499  27.140  25.558  1.00  0.00    -0.012 A 
ATOM     17  C   UNL A   1      33.405  27.247  22.282  1.00  0.00     0.119 A 
ATOM     18  C   UNL A   1      33.975  28.480  22.506  1.00  0.00     0.048 A 
ATOM     19  C   UNL A   1      32.601  26.731  23.271  1.00  0.00     0.057 A 
ATOM     20  C   UNL A   1      33.789  29.209  23.696  1.00  0.00     0.031 A 
ATOM     21  C   UNL A   1      32.337  27.443  24.459  1.00  0.00     0.008 A 
ATOM     22  C   UNL A   1      32.951  28.677  24.691  1.00  0.00     0.057 A 
ATOM     23  N   UNL A   1      32.597  29.103  25.986  1.00  0.00    -0.280 N 
ATOM     24  C   UNL A   1      31.699  28.139  26.505  1.00  0.00     0.028 A 
ATOM     25  C   UNL A   1      31.083  28.157  27.868  1.00  0.00     0.065 C 
BRANCH  17  26
ATOM     26  O   UNL A   1      33.531  26.454  21.181  1.00  0.00    -0.497 OA
ATOM     27  C   UNL A   1      32.491  25.530  20.912  1.00  0.00     0.278 C 
ENDBRANCH  17  26
BRANCH  23  28
ATOM     28  C   UNL A   1      33.101  30.250  26.679  1.00  0.00     0.262 C 
ATOM     29  O   UNL A   1      32.361  31.225  26.814  1.00  0.00    -0.268 OA
BRANCH  28  30
ATOM     30  C   UNL A   1      34.425  30.428  27.319  1.00  0.00     0.040 A 
ATOM     31  C   UNL A   1      35.367  29.392  27.371  1.00  0.00     0.015 A 
ATOM     32  C   UNL A   1      34.795  31.725  27.710  1.00  0.00     0.015 A 
ATOM     33  C   UNL A   1      36.653  29.649  27.868  1.00  0.00     0.021 A 
ATOM     34  C   UNL A   1      36.080  31.978  28.196  1.00  0.00     0.021 A 
ATOM     35  C   UNL A   1      37.003  30.938  28.276  1.00  0.00     0.041 A 
ATOM     36  Cl  UNL A   1      38.595  31.256  28.843  1.00  0.00    -0.084 Cl
ENDBRANCH  28  30
ENDBRANCH  23  28
ENDBRANCH  15  16
ENDBRANCH  11  15
ENDBRANCH   5  10
ENDBRANCH   2   4
ENDBRANCH   1   2
BRANCH   1  37
ATOM     37  C   UNL A   1      40.119  20.487  26.297  1.00  0.00     0.275 C 
BRANCH  37  38
ATOM     38  C   UNL A   1      41.243  21.333  26.912  1.00  0.00     0.275 C 
BRANCH  38  39
ATOM     39  O   UNL A   1      41.167  22.659  26.360  1.00  0.00    -0.458 OA
BRANCH  39  40
ATOM     40  C   UNL A   1      42.300  23.147  25.812  1.00  0.00     0.338 C 
ATOM     41  O   UNL A   1      42.933  22.666  24.877  1.00  0.00    -0.246 OA
BRANCH  40  42
ATOM     42  C   UNL A   1      42.426  24.546  26.276  1.00  0.00     0.060 A 
ATOM     43  C   UNL A   1      43.439  24.962  27.151  1.00  0.00     0.016 A 
ATOM     44  C   UNL A   1      41.343  25.379  26.035  1.00  0.00     0.016 A 
ATOM     45  C   UNL A   1      43.239  26.086  27.968  1.00  0.00     0.010 A 
ATOM     46  C   UNL A   1      41.184  26.513  26.822  1.00  0.00     0.010 A 
ATOM     47  C   UNL A   1      42.037  26.796  27.905  1.00  0.00    -0.014 A 
BRANCH  47  48
ATOM     48  C   UNL A   1      41.774  27.988  28.766  1.00  0.00     0.031 A 
ATOM     49  C   UNL A   1      42.642  29.098  28.293  1.00  0.00     0.074 A 
ATOM     50  C   UNL A   1      40.883  28.236  29.777  1.00  0.00     0.049 A 
ATOM     51  N   UNL A   1      43.791  29.421  28.789  1.00  0.00    -0.248 NA
ATOM     52  C   UNL A   1      42.338  29.740  27.004  1.00  0.00     0.031 C 
ATOM     53  C   UNL A   1      39.798  27.425  30.336  1.00  0.00     0.029 A 
ATOM     54  N   UNL A   1      40.764  29.381  30.552  1.00  0.00    -0.354 N 
ATOM     55  C   UNL A   1      44.266  30.436  27.974  1.00  0.00     0.074 A 
ATOM     56  C   UNL A   1      43.475  30.398  26.774  1.00  0.00     0.031 C 
ATOM     57  C   UNL A   1      39.027  28.152  31.191  1.00  0.00     0.029 A 
ATOM     58  C   UNL A   1      39.650  29.442  31.432  1.00  0.00     0.049 A 
ATOM     59  H   UNL A   1      41.420  30.114  30.496  1.00  0.00     0.167 HD
ATOM     60  C   UNL A   1      45.067  31.416  28.469  1.00  0.00     0.037 A 
ATOM     61  C   UNL A   1      39.325  30.452  32.314  1.00  0.00     0.037 A 
ATOM     62  C   UNL A   1      45.651  31.028  29.731  1.00  0.00     0.049 A 
ATOM     63  C   UNL A   1      40.584  31.199  32.489  1.00  0.00     0.074 A 
ATOM     64  C   UNL A   1      46.458  29.986  30.151  1.00  0.00     0.029 A 
ATOM     65  N   UNL A   1      45.094  31.534  30.878  1.00  0.00    -0.354 N 
ATOM     66  N   UNL A   1      41.550  30.771  33.242  1.00  0.00    -0.248 NA
ATOM     67  C   UNL A   1      40.913  32.244  31.536  1.00  0.00     0.031 C 
ATOM     68  C   UNL A   1      45.955  29.611  31.434  1.00  0.00     0.029 A 
ATOM     69  C   UNL A   1      44.920  30.485  31.748  1.00  0.00     0.049 A 
ATOM     70  H   UNL A   1      44.863  32.476  31.048  1.00  0.00     0.167 HD
ATOM     71  C   UNL A   1      42.687  31.151  32.562  1.00  0.00     0.074 A 
ATOM     72  C   UNL A   1      42.242  32.131  31.569  1.00  0.00     0.031 C 
ATOM     73  C   UNL A   1      43.823  30.409  32.672  1.00  0.00     0.037 A 
BRANCH  60  74
ATOM     74  C   UNL A   1      45.004  32.842  27.984  1.00  0.00     0.064 A 
ATOM     75  C   UNL A   1      46.154  33.431  27.430  1.00  0.00     0.173 A 
ATOM     76  C   UNL A   1      43.941  33.735  28.258  1.00  0.00     0.173 A 
ATOM     77  F   UNL A   1      47.245  32.692  27.182  1.00  0.00    -0.203 F 
ATOM     78  C   UNL A   1      46.240  34.806  27.199  1.00  0.00     0.198 A 
ATOM     79  C   UNL A   1      44.004  35.094  27.963  1.00  0.00     0.198 A 
ATOM     80  F   UNL A   1      42.846  33.365  28.932  1.00  0.00    -0.203 F 
ATOM     81  F   UNL A   1      47.395  35.338  26.780  1.00  0.00    -0.200 F 
ATOM     82  C   UNL A   1      45.162  35.635  27.456  1.00  0.00     0.200 A 
ATOM     83  F   UNL A   1      42.956  35.879  28.253  1.00  0.00    -0.200 F 
ATOM     84  F   UNL A   1      45.256  36.958  27.274  1.00  0.00    -0.200 F 
ENDBRANCH  60  74
BRANCH  61  85
ATOM     85  C   UNL A   1      38.144  30.964  33.103  1.00  0.00     0.064 A 
ATOM     86  C   UNL A   1      38.287  31.405  34.445  1.00  0.00     0.173 A 
ATOM     87  C   UNL A   1      36.932  31.315  32.523  1.00  0.00     0.173 A 
ATOM     88  F   UNL A   1      39.339  31.025  35.184  1.00  0.00    -0.203 F 
ATOM     89  C   UNL A   1      37.394  32.300  35.053  1.00  0.00     0.198 A 
ATOM     90  C   UNL A   1      36.056  32.253  33.105  1.00  0.00     0.198 A 
ATOM     91  F   UNL A   1      36.597  30.796  31.342  1.00  0.00    -0.203 F 
ATOM     92  F   UNL A   1      37.617  32.723  36.304  1.00  0.00    -0.200 F 
ATOM     93  C   UNL A   1      36.319  32.789  34.347  1.00  0.00     0.200 A 
ATOM     94  F   UNL A   1      34.998  32.698  32.410  1.00  0.00    -0.200 F 
ATOM     95  F   UNL A   1      35.553  33.769  34.849  1.00  0.00    -0.200 F 
ENDBRANCH  61  85
BRANCH  73  96
ATOM     96  C   UNL A   1      43.812  29.299  33.691  1.00  0.00     0.064 A 
ATOM     97  C   UNL A   1      43.237  28.031  33.475  1.00  0.00     0.173 A 
ATOM     98  C   UNL A   1      44.469  29.502  34.906  1.00  0.00     0.173 A 
ATOM     99  F   UNL A   1      42.652  27.729  32.310  1.00  0.00    -0.203 F 
ATOM    100  C   UNL A   1      43.285  27.032  34.448  1.00  0.00     0.198 A 
ATOM    101  C   UNL A   1      44.549  28.493  35.864  1.00  0.00     0.198 A 
ATOM    102  F   UNL A   1      45.063  30.678  35.157  1.00  0.00    -0.203 F 
ATOM    103  F   UNL A   1      42.711  25.840  34.224  1.00  0.00    -0.200 F 
ATOM    104  C   UNL A   1      43.949  27.263  35.640  1.00  0.00     0.200 A 
ATOM    105  F   UNL A   1      45.222  28.708  37.001  1.00  0.00    -0.200 F 
ATOM    106  F   UNL A   1      44.030  26.296  36.564  1.00  0.00    -0.200 F 
ENDBRANCH  73  96
ENDBRANCH  47  48
ENDBRANCH  40  42
ENDBRANCH  39  40
ENDBRANCH  38  39
ENDBRANCH  37  38
ENDBRANCH   1  37
TORSDOF 17
ENDMDL
MODEL 2
REMARK VINA RESULT:     -12.6      4.644     10.259
REMARK SMILES COc1ccc2c(c1)c(Cc1nc(-c3ccc(C(=O)OCCOC(=O)c4ccc(-c5c6nc(c(-c7c(F)c(F)c(F)c(F)c7F)c7ccc([nH]7)c(-c7c(F)c(F)c(F)c(F)c7F)c7nc(c(-c8c(F)c(F)c(F)c(F)c8F)c8ccc5[nH]8)C=C7)C=C6)cc4)cc3)cs1)c(C)n2C(=O)c1ccc(Cl)cc1
REMARK SMILES IDX 20 1 18 2 19 3 17 4 14 5 15 6 90 7 16 8 89 9 13 10 11 11
REMARK SMILES IDX 12 12 92 13 91 14 10 15 9 16 3 17 4 18 8 19 5 20 7 21 6 22
REMARK SMILES IDX 95 23 93 24 94 25 2 26 1 27 96 28 97 29 98 30 99 31 104 32
REMARK SMILES IDX 100 33 103 34 101 35 102 36 21 37 22 38 23 39 24 40 25 41
REMARK SMILES IDX 26 42 27 43 88 44 28 45 87 46 29 47 30 48 31 49 81 50 32 51
REMARK SMILES IDX 86 52 80 53 82 54 33 55 85 56 79 57 78 58 34 60 66 61 46 62
REMARK SMILES IDX 65 63 47 64 50 65 64 66 83 67 48 68 49 69 63 71 84 72 51 73
REMARK SMILES IDX 35 74 36 75 44 76 37 77 38 78 42 79 45 80 39 81 40 82 43 83
REMARK SMILES IDX 41 84 67 85 68 86 76 87 69 88 70 89 74 90 77 91 71 92 72 93
REMARK SMILES IDX 75 94 73 95 52 96 53 97 61 98 54 99 55 100 59 101 62 102
REMARK SMILES IDX 56 103 57 104 60 105 58 106
REMARK H PARENT 82 59 50 70
REMARK Flexibility Score: inf
ROOT
ATOM      1  O   UNL A   1      45.690  32.909  25.777  1.00  0.00    -0.458 OA
ENDROOT
BRANCH   1   2
ATOM      2  C   UNL A   1      44.541  33.136  26.462  1.00  0.00     0.338 C 
ATOM      3  O   UNL A   1      43.812  34.107  26.335  1.00  0.00    -0.246 OA
BRANCH   2   4
ATOM      4  C   UNL A   1      44.180  31.950  27.295  1.00  0.00     0.060 A 
ATOM      5  C   UNL A   1      43.959  29.500  28.691  1.00  0.00     0.001 A 
ATOM      6  C   UNL A   1      43.992  29.514  27.304  1.00  0.00     0.011 A 
ATOM      7  C   UNL A   1      43.869  30.726  29.367  1.00  0.00     0.011 A 
ATOM      8  C   UNL A   1      44.072  30.731  26.637  1.00  0.00     0.016 A 
ATOM      9  C   UNL A   1      44.002  31.950  28.673  1.00  0.00     0.016 A 
BRANCH   5  10
ATOM     10  C   UNL A   1      44.030  28.214  29.363  1.00  0.00     0.081 A 
ATOM     11  C   UNL A   1      44.736  26.129  29.541  1.00  0.00     0.098 A 
ATOM     12  N   UNL A   1      44.336  27.056  28.689  1.00  0.00    -0.241 NA
ATOM     13  S   UNL A   1      44.432  26.494  31.194  1.00  0.00    -0.126 S 
ATOM     14  C   UNL A   1      43.951  28.079  30.737  1.00  0.00     0.095 A 
BRANCH  11  15
ATOM     15  C   UNL A   1      45.482  24.875  29.143  1.00  0.00     0.105 C 
BRANCH  15  16
ATOM     16  C   UNL A   1      44.690  24.031  28.161  1.00  0.00    -0.012 A 
ATOM     17  C   UNL A   1      46.241  24.157  24.704  1.00  0.00     0.119 A 
ATOM     18  C   UNL A   1      45.379  23.243  24.143  1.00  0.00     0.048 A 
ATOM     19  C   UNL A   1      46.044  24.489  26.024  1.00  0.00     0.057 A 
ATOM     20  C   UNL A   1      44.309  22.661  24.849  1.00  0.00     0.031 A 
ATOM     21  C   UNL A   1      45.022  23.895  26.793  1.00  0.00     0.008 A 
ATOM     22  C   UNL A   1      44.130  22.995  26.202  1.00  0.00     0.057 A 
ATOM     23  N   UNL A   1      43.159  22.651  27.164  1.00  0.00    -0.280 N 
ATOM     24  C   UNL A   1      43.524  23.302  28.367  1.00  0.00     0.028 A 
ATOM     25  C   UNL A   1      42.765  23.252  29.655  1.00  0.00     0.065 C 
BRANCH  17  26
ATOM     26  O   UNL A   1      47.293  24.789  24.111  1.00  0.00    -0.497 OA
ATOM     27  C   UNL A   1      48.164  25.537  24.940  1.00  0.00     0.278 C 
ENDBRANCH  17  26
BRANCH  23  28
ATOM     28  C   UNL A   1      41.988  21.855  26.952  1.00  0.00     0.262 C 
ATOM     29  O   UNL A   1      42.101  20.628  26.974  1.00  0.00    -0.268 OA
BRANCH  28  30
ATOM     30  C   UNL A   1      40.595  22.310  26.742  1.00  0.00     0.040 A 
ATOM     31  C   UNL A   1      40.205  23.635  26.980  1.00  0.00     0.015 A 
ATOM     32  C   UNL A   1      39.704  21.425  26.113  1.00  0.00     0.015 A 
ATOM     33  C   UNL A   1      38.909  24.048  26.640  1.00  0.00     0.021 A 
ATOM     34  C   UNL A   1      38.416  21.844  25.768  1.00  0.00     0.021 A 
ATOM     35  C   UNL A   1      38.023  23.153  26.035  1.00  0.00     0.041 A 
ATOM     36  Cl  UNL A   1      36.450  23.678  25.581  1.00  0.00    -0.084 Cl
ENDBRANCH  28  30
ENDBRANCH  23  28
ENDBRANCH  15  16
ENDBRANCH  11  15
ENDBRANCH   5  10
ENDBRANCH   2   4
ENDBRANCH   1   2
BRANCH   1  37
ATOM     37  C   UNL A   1      46.930  33.072  26.511  1.00  0.00     0.275 C 
BRANCH  37  38
ATOM     38  C   UNL A   1      47.124  34.536  26.931  1.00  0.00     0.275 C 
BRANCH  38  39
ATOM     39  O   UNL A   1      47.036  34.613  28.365  1.00  0.00    -0.458 OA
BRANCH  39  40
ATOM     40  C   UNL A   1      46.765  35.829  28.885  1.00  0.00     0.338 C 
ATOM     41  O   UNL A   1      47.080  36.918  28.415  1.00  0.00    -0.246 OA
BRANCH  40  42
ATOM     42  C   UNL A   1      45.704  35.628  29.897  1.00  0.00     0.060 A 
ATOM     43  C   UNL A   1      45.625  34.473  30.686  1.00  0.00     0.016 A 
ATOM     44  C   UNL A   1      44.628  36.502  29.849  1.00  0.00     0.016 A 
ATOM     45  C   UNL A   1      44.388  34.070  31.213  1.00  0.00     0.010 A 
ATOM     46  C   UNL A   1      43.422  36.108  30.417  1.00  0.00     0.010 A 
ATOM     47  C   UNL A   1      43.238  34.824  30.962  1.00  0.00    -0.014 A 
BRANCH  47  48
ATOM     48  C   UNL A   1      41.898  34.426  31.490  1.00  0.00     0.031 A 
ATOM     49  C   UNL A   1      42.025  34.216  32.956  1.00  0.00     0.074 A 
ATOM     50  C   UNL A   1      40.660  34.315  30.916  1.00  0.00     0.049 A 
ATOM     51  N   UNL A   1      42.212  33.079  33.542  1.00  0.00    -0.248 NA
ATOM     52  C   UNL A   1      42.219  35.384  33.829  1.00  0.00     0.031 C 
ATOM     53  C   UNL A   1      40.185  34.624  29.564  1.00  0.00     0.029 A 
ATOM     54  N   UNL A   1      39.480  33.879  31.501  1.00  0.00    -0.354 N 
ATOM     55  C   UNL A   1      42.365  33.384  34.885  1.00  0.00     0.074 A 
ATOM     56  C   UNL A   1      42.623  34.796  34.955  1.00  0.00     0.031 C 
ATOM     57  C   UNL A   1      38.827  34.562  29.490  1.00  0.00     0.029 A 
ATOM     58  C   UNL A   1      38.296  34.009  30.725  1.00  0.00     0.049 A 
ATOM     59  H   UNL A   1      39.463  33.498  32.409  1.00  0.00     0.167 HD
ATOM     60  C   UNL A   1      41.971  32.512  35.850  1.00  0.00     0.037 A 
ATOM     61  C   UNL A   1      37.014  33.631  31.069  1.00  0.00     0.037 A 
ATOM     62  C   UNL A   1      41.805  31.180  35.318  1.00  0.00     0.049 A 
ATOM     63  C   UNL A   1      37.204  32.669  32.169  1.00  0.00     0.074 A 
ATOM     64  C   UNL A   1      42.633  30.280  34.671  1.00  0.00     0.029 A 
ATOM     65  N   UNL A   1      40.531  30.750  35.050  1.00  0.00    -0.354 N 
ATOM     66  N   UNL A   1      37.574  31.442  31.966  1.00  0.00    -0.248 NA
ATOM     67  C   UNL A   1      37.335  33.174  33.524  1.00  0.00     0.031 C 
ATOM     68  C   UNL A   1      41.823  29.681  33.660  1.00  0.00     0.029 A 
ATOM     69  C   UNL A   1      40.539  30.199  33.792  1.00  0.00     0.049 A 
ATOM     70  H   UNL A   1      39.753  30.822  35.649  1.00  0.00     0.167 HD
ATOM     71  C   UNL A   1      38.399  31.168  33.036  1.00  0.00     0.074 A 
ATOM     72  C   UNL A   1      38.146  32.232  34.009  1.00  0.00     0.031 C 
ATOM     73  C   UNL A   1      39.420  30.279  32.895  1.00  0.00     0.037 A 
BRANCH  60  74
ATOM     74  C   UNL A   1      41.386  32.962  37.165  1.00  0.00     0.064 A 
ATOM     75  C   UNL A   1      41.887  32.421  38.361  1.00  0.00     0.173 A 
ATOM     76  C   UNL A   1      40.195  33.716  37.295  1.00  0.00     0.173 A 
ATOM     77  F   UNL A   1      42.978  31.641  38.352  1.00  0.00    -0.203 F 
ATOM     78  C   UNL A   1      41.230  32.598  39.582  1.00  0.00     0.198 A 
ATOM     79  C   UNL A   1      39.581  33.947  38.522  1.00  0.00     0.198 A 
ATOM     80  F   UNL A   1      39.504  34.158  36.238  1.00  0.00    -0.203 F 
ATOM     81  F   UNL A   1      41.680  31.967  40.674  1.00  0.00    -0.200 F 
ATOM     82  C   UNL A   1      40.083  33.367  39.664  1.00  0.00     0.200 A 
ATOM     83  F   UNL A   1      38.452  34.670  38.566  1.00  0.00    -0.200 F 
ATOM     84  F   UNL A   1      39.431  33.504  40.824  1.00  0.00    -0.200 F 
ENDBRANCH  60  74
BRANCH  61  85
ATOM     85  C   UNL A   1      35.584  33.890  30.664  1.00  0.00     0.064 A 
ATOM     86  C   UNL A   1      34.754  34.771  31.405  1.00  0.00     0.173 A 
ATOM     87  C   UNL A   1      35.066  33.543  29.423  1.00  0.00     0.173 A 
ATOM     88  F   UNL A   1      35.048  35.085  32.675  1.00  0.00    -0.203 F 
ATOM     89  C   UNL A   1      33.633  35.409  30.853  1.00  0.00     0.198 A 
ATOM     90  C   UNL A   1      33.973  34.216  28.842  1.00  0.00     0.198 A 
ATOM     91  F   UNL A   1      35.651  32.575  28.717  1.00  0.00    -0.203 F 
ATOM     92  F   UNL A   1      32.924  36.276  31.590  1.00  0.00    -0.200 F 
ATOM     93  C   UNL A   1      33.293  35.192  29.538  1.00  0.00     0.200 A 
ATOM     94  F   UNL A   1      33.641  33.971  27.565  1.00  0.00    -0.200 F 
ATOM     95  F   UNL A   1      32.333  35.917  28.946  1.00  0.00    -0.200 F 
ENDBRANCH  61  85
BRANCH  73  96
ATOM     96  C   UNL A   1      39.471  29.505  31.604  1.00  0.00     0.064 A 
ATOM     97  C   UNL A   1      40.104  29.962  30.430  1.00  0.00     0.173 A 
ATOM     98  C   UNL A   1      38.922  28.221  31.572  1.00  0.00     0.173 A 
ATOM     99  F   UNL A   1      40.719  31.149  30.397  1.00  0.00    -0.203 F 
ATOM    100  C   UNL A   1      40.144  29.184  29.273  1.00  0.00     0.198 A 
ATOM    101  C   UNL A   1      38.993  27.430  30.428  1.00  0.00     0.198 A 
ATOM    102  F   UNL A   1      38.334  27.719  32.668  1.00  0.00    -0.203 F 
ATOM    103  F   UNL A   1      40.734  29.652  28.162  1.00  0.00    -0.200 F 
ATOM    104  C   UNL A   1      39.595  27.914  29.276  1.00  0.00     0.200 A 
ATOM    105  F   UNL A   1      38.491  26.189  30.446  1.00  0.00    -0.200 F 
ATOM    106  F   UNL A   1      39.662  27.148  28.178  1.00  0.00    -0.200 F 
ENDBRANCH  73  96
ENDBRANCH  47  48
ENDBRANCH  40  42
ENDBRANCH  39  40
ENDBRANCH  38  39
ENDBRANCH  37  38
ENDBRANCH   1  37
TORSDOF 17
ENDMDL
MODEL 3
REMARK VINA RESULT:     -12.1      4.309      9.928
REMARK SMILES COc1ccc2c(c1)c(Cc1nc(-c3ccc(C(=O)OCCOC(=O)c4ccc(-c5c6nc(c(-c7c(F)c(F)c(F)c(F)c7F)c7ccc([nH]7)c(-c7c(F)c(F)c(F)c(F)c7F)c7nc(c(-c8c(F)c(F)c(F)c(F)c8F)c8ccc5[nH]8)C=C7)C=C6)cc4)cc3)cs1)c(C)n2C(=O)c1ccc(Cl)cc1
REMARK SMILES IDX 20 1 18 2 19 3 17 4 14 5 15 6 90 7 16 8 89 9 13 10 11 11
REMARK SMILES IDX 12 12 92 13 91 14 10 15 9 16 3 17 4 18 8 19 5 20 7 21 6 22
REMARK SMILES IDX 95 23 93 24 94 25 2 26 1 27 96 28 97 29 98 30 99 31 104 32
REMARK SMILES IDX 100 33 103 34 101 35 102 36 21 37 22 38 23 39 24 40 25 41
REMARK SMILES IDX 26 42 27 43 88 44 28 45 87 46 29 47 30 48 31 49 81 50 32 51
REMARK SMILES IDX 86 52 80 53 82 54 33 55 85 56 79 57 78 58 34 60 66 61 46 62
REMARK SMILES IDX 65 63 47 64 50 65 64 66 83 67 48 68 49 69 63 71 84 72 51 73
REMARK SMILES IDX 35 74 36 75 44 76 37 77 38 78 42 79 45 80 39 81 40 82 43 83
REMARK SMILES IDX 41 84 67 85 68 86 76 87 69 88 70 89 74 90 77 91 71 92 72 93
REMARK SMILES IDX 75 94 73 95 52 96 53 97 61 98 54 99 55 100 59 101 62 102
REMARK SMILES IDX 56 103 57 104 60 105 58 106
REMARK H PARENT 82 59 50 70
REMARK Flexibility Score: inf
ROOT
ATOM      1  O   UNL A   1      38.938  32.821  37.514  1.00  0.00    -0.458 OA
ENDROOT
BRANCH   1   2
ATOM      2  C   UNL A   1      37.708  32.579  36.995  1.00  0.00     0.338 C 
ATOM      3  O   UNL A   1      36.643  32.905  37.495  1.00  0.00    -0.246 OA
BRANCH   2   4
ATOM      4  C   UNL A   1      37.820  31.995  35.624  1.00  0.00     0.060 A 
ATOM      5  C   UNL A   1      37.883  30.432  33.267  1.00  0.00     0.001 A 
ATOM      6  C   UNL A   1      38.732  30.138  34.325  1.00  0.00     0.011 A 
ATOM      7  C   UNL A   1      37.125  31.610  33.331  1.00  0.00     0.011 A 
ATOM      8  C   UNL A   1      38.704  30.936  35.463  1.00  0.00     0.016 A 
ATOM      9  C   UNL A   1      37.075  32.380  34.515  1.00  0.00     0.016 A 
BRANCH   5  10
ATOM     10  C   UNL A   1      37.824  29.495  32.159  1.00  0.00     0.081 A 
ATOM     11  C   UNL A   1      37.583  28.996  30.021  1.00  0.00     0.098 A 
ATOM     12  N   UNL A   1      37.163  29.789  30.991  1.00  0.00    -0.241 NA
ATOM     13  S   UNL A   1      38.524  27.656  30.546  1.00  0.00    -0.126 S 
ATOM     14  C   UNL A   1      38.550  28.318  32.132  1.00  0.00     0.095 A 
BRANCH  11  15
ATOM     15  C   UNL A   1      37.353  29.260  28.549  1.00  0.00     0.105 C 
BRANCH  15  16
ATOM     16  C   UNL A   1      36.300  30.329  28.323  1.00  0.00    -0.012 A 
ATOM     17  C   UNL A   1      33.182  28.851  26.752  1.00  0.00     0.119 A 
ATOM     18  C   UNL A   1      32.451  30.016  26.798  1.00  0.00     0.048 A 
ATOM     19  C   UNL A   1      34.478  28.897  27.209  1.00  0.00     0.057 A 
ATOM     20  C   UNL A   1      32.975  31.235  27.267  1.00  0.00     0.031 A 
ATOM     21  C   UNL A   1      35.036  30.078  27.740  1.00  0.00     0.008 A 
ATOM     22  C   UNL A   1      34.295  31.263  27.748  1.00  0.00     0.057 A 
ATOM     23  N   UNL A   1      35.129  32.294  28.226  1.00  0.00    -0.280 N 
ATOM     24  C   UNL A   1      36.364  31.695  28.575  1.00  0.00     0.028 A 
ATOM     25  C   UNL A   1      37.568  32.410  29.100  1.00  0.00     0.065 C 
BRANCH  17  26
ATOM     26  O   UNL A   1      32.780  27.628  26.305  1.00  0.00    -0.497 OA
ATOM     27  C   UNL A   1      31.442  27.241  26.563  1.00  0.00     0.278 C 
ENDBRANCH  17  26
BRANCH  23  28
ATOM     28  C   UNL A   1      34.819  33.690  28.282  1.00  0.00     0.262 C 
ATOM     29  O   UNL A   1      34.928  34.357  27.252  1.00  0.00    -0.268 OA
BRANCH  28  30
ATOM     30  C   UNL A   1      34.326  34.475  29.436  1.00  0.00     0.040 A 
ATOM     31  C   UNL A   1      33.438  35.548  29.277  1.00  0.00     0.015 A 
ATOM     32  C   UNL A   1      34.619  34.001  30.725  1.00  0.00     0.015 A 
ATOM     33  C   UNL A   1      32.897  36.174  30.409  1.00  0.00     0.021 A 
ATOM     34  C   UNL A   1      34.070  34.622  31.850  1.00  0.00     0.021 A 
ATOM     35  C   UNL A   1      33.214  35.708  31.688  1.00  0.00     0.041 A 
ATOM     36  Cl  UNL A   1      32.512  36.452  33.070  1.00  0.00    -0.084 Cl
ENDBRANCH  28  30
ENDBRANCH  23  28
ENDBRANCH  15  16
ENDBRANCH  11  15
ENDBRANCH   5  10
ENDBRANCH   2   4
ENDBRANCH   1   2
BRANCH   1  37
ATOM     37  C   UNL A   1      39.175  34.154  38.035  1.00  0.00     0.275 C 
BRANCH  37  38
ATOM     38  C   UNL A   1      39.656  35.094  36.920  1.00  0.00     0.275 C 
BRANCH  38  39
ATOM     39  O   UNL A   1      40.322  34.308  35.917  1.00  0.00    -0.458 OA
BRANCH  39  40
ATOM     40  C   UNL A   1      39.909  34.483  34.644  1.00  0.00     0.338 C 
ATOM     41  O   UNL A   1      39.232  35.409  34.211  1.00  0.00    -0.246 OA
BRANCH  40  42
ATOM     42  C   UNL A   1      40.729  33.580  33.806  1.00  0.00     0.060 A 
ATOM     43  C   UNL A   1      40.358  33.217  32.505  1.00  0.00     0.016 A 
ATOM     44  C   UNL A   1      41.742  32.885  34.450  1.00  0.00     0.016 A 
ATOM     45  C   UNL A   1      40.820  32.010  31.957  1.00  0.00     0.010 A 
ATOM     46  C   UNL A   1      42.222  31.716  33.873  1.00  0.00     0.010 A 
ATOM     47  C   UNL A   1      41.656  31.174  32.703  1.00  0.00    -0.014 A 
BRANCH  47  48
ATOM     48  C   UNL A   1      42.160  29.873  32.168  1.00  0.00     0.031 A 
ATOM     49  C   UNL A   1      42.717  29.094  33.304  1.00  0.00     0.074 A 
ATOM     50  C   UNL A   1      42.120  29.291  30.929  1.00  0.00     0.049 A 
ATOM     51  N   UNL A   1      43.963  29.043  33.645  1.00  0.00    -0.248 NA
ATOM     52  C   UNL A   1      41.795  28.530  34.302  1.00  0.00     0.031 C 
ATOM     53  C   UNL A   1      41.492  29.717  29.675  1.00  0.00     0.029 A 
ATOM     54  N   UNL A   1      42.676  28.084  30.532  1.00  0.00    -0.354 N 
ATOM     55  C   UNL A   1      43.992  28.284  34.804  1.00  0.00     0.074 A 
ATOM     56  C   UNL A   1      42.640  28.231  35.289  1.00  0.00     0.031 C 
ATOM     57  C   UNL A   1      41.524  28.725  28.744  1.00  0.00     0.029 A 
ATOM     58  C   UNL A   1      42.354  27.633  29.223  1.00  0.00     0.049 A 
ATOM     59  H   UNL A   1      43.264  27.565  31.127  1.00  0.00     0.167 HD
ATOM     60  C   UNL A   1      45.067  27.511  35.108  1.00  0.00     0.037 A 
ATOM     61  C   UNL A   1      42.795  26.488  28.592  1.00  0.00     0.037 A 
ATOM     62  C   UNL A   1      46.230  27.910  34.353  1.00  0.00     0.049 A 
ATOM     63  C   UNL A   1      43.995  26.095  29.351  1.00  0.00     0.074 A 
ATOM     64  C   UNL A   1      46.955  29.083  34.225  1.00  0.00     0.029 A 
ATOM     65  N   UNL A   1      46.574  27.158  33.258  1.00  0.00    -0.354 N 
ATOM     66  N   UNL A   1      45.139  26.687  29.202  1.00  0.00    -0.248 NA
ATOM     67  C   UNL A   1      43.831  25.282  30.543  1.00  0.00     0.031 C 
ATOM     68  C   UNL A   1      47.287  29.173  32.839  1.00  0.00     0.029 A 
ATOM     69  C   UNL A   1      46.807  28.025  32.219  1.00  0.00     0.049 A 
ATOM     70  H   UNL A   1      46.643  26.176  33.224  1.00  0.00     0.167 HD
ATOM     71  C   UNL A   1      45.668  26.701  30.475  1.00  0.00     0.074 A 
ATOM     72  C   UNL A   1      44.869  25.745  31.243  1.00  0.00     0.031 C 
ATOM     73  C   UNL A   1      46.505  27.706  30.852  1.00  0.00     0.037 A 
BRANCH  60  74
ATOM     74  C   UNL A   1      44.942  26.179  35.803  1.00  0.00     0.064 A 
ATOM     75  C   UNL A   1      45.730  25.920  36.938  1.00  0.00     0.173 A 
ATOM     76  C   UNL A   1      44.267  25.057  35.267  1.00  0.00     0.173 A 
ATOM     77  F   UNL A   1      46.461  26.895  37.498  1.00  0.00    -0.203 F 
ATOM     78  C   UNL A   1      45.852  24.634  37.472  1.00  0.00     0.198 A 
ATOM     79  C   UNL A   1      44.336  23.791  35.842  1.00  0.00     0.198 A 
ATOM     80  F   UNL A   1      43.612  25.100  34.101  1.00  0.00    -0.203 F 
ATOM     81  F   UNL A   1      46.704  24.413  38.481  1.00  0.00    -0.200 F 
ATOM     82  C   UNL A   1      45.149  23.573  36.930  1.00  0.00     0.200 A 
ATOM     83  F   UNL A   1      43.669  22.775  35.276  1.00  0.00    -0.200 F 
ATOM     84  F   UNL A   1      45.296  22.334  37.415  1.00  0.00    -0.200 F 
ENDBRANCH  60  74
BRANCH  61  85
ATOM     85  C   UNL A   1      42.435  25.597  27.427  1.00  0.00     0.064 A 
ATOM     86  C   UNL A   1      43.302  25.453  26.313  1.00  0.00     0.173 A 
ATOM     87  C   UNL A   1      41.416  24.655  27.471  1.00  0.00     0.173 A 
ATOM     88  F   UNL A   1      44.246  26.369  26.054  1.00  0.00    -0.203 F 
ATOM     89  C   UNL A   1      43.274  24.336  25.464  1.00  0.00     0.198 A 
ATOM     90  C   UNL A   1      41.411  23.504  26.658  1.00  0.00     0.198 A 
ATOM     91  F   UNL A   1      40.428  24.801  28.353  1.00  0.00    -0.203 F 
ATOM     92  F   UNL A   1      44.159  24.231  24.463  1.00  0.00    -0.200 F 
ATOM     93  C   UNL A   1      42.377  23.318  25.692  1.00  0.00     0.200 A 
ATOM     94  F   UNL A   1      40.511  22.535  26.879  1.00  0.00    -0.200 F 
ATOM     95  F   UNL A   1      42.445  22.171  25.001  1.00  0.00    -0.200 F 
ENDBRANCH  61  85
BRANCH  73  96
ATOM     96  C   UNL A   1      46.946  28.661  29.773  1.00  0.00     0.064 A 
ATOM     97  C   UNL A   1      46.247  29.831  29.415  1.00  0.00     0.173 A 
ATOM     98  C   UNL A   1      48.159  28.421  29.123  1.00  0.00     0.173 A 
ATOM     99  F   UNL A   1      45.114  30.175  30.039  1.00  0.00    -0.203 F 
ATOM    100  C   UNL A   1      46.723  30.693  28.427  1.00  0.00     0.198 A 
ATOM    101  C   UNL A   1      48.652  29.300  28.161  1.00  0.00     0.198 A 
ATOM    102  F   UNL A   1      48.885  27.339  29.443  1.00  0.00    -0.203 F 
ATOM    103  F   UNL A   1      46.026  31.790  28.091  1.00  0.00    -0.200 F 
ATOM    104  C   UNL A   1      47.931  30.429  27.806  1.00  0.00     0.200 A 
ATOM    105  F   UNL A   1      49.839  29.059  27.588  1.00  0.00    -0.200 F 
ATOM    106  F   UNL A   1      48.412  31.272  26.881  1.00  0.00    -0.200 F 
ENDBRANCH  73  96
ENDBRANCH  47  48
ENDBRANCH  40  42
ENDBRANCH  39  40
ENDBRANCH  38  39
ENDBRANCH  37  38
ENDBRANCH   1  37
TORSDOF 17
ENDMDL
