MODEL 1
REMARK VINA RESULT:     -11.5      0.000      0.000
REMARK SMILES C[C@H](NC(=O)N[C@](C)(C(=O)OCCOC(=O)c1ccc(-c2c3nc(c(-c4c(F)c(F)c(F)c(F)c4F)c4ccc([nH]4)c(-c4c(F)c(F)c(F)c(F)c4F)c4nc(c(-c5c(F)c(F)c(F)c(F)c5F)c5ccc2[nH]5)C=C4)C=C3)cc1)C(F)(F)F)C(N)=O
REMARK SMILES IDX 12 1 11 2 9 3 10 4 7 5 8 6 6 7 3 8 4 9 5 11 2 13 1 14 84 15
REMARK SMILES IDX 85 16 86 17 80 20 81 21 82 22 83 23 13 24 14 25 15 26 16 27
REMARK SMILES IDX 17 28 18 29 79 30 19 31 78 32 20 33 21 34 22 35 72 36 23 37
REMARK SMILES IDX 77 38 71 39 73 40 24 41 76 42 70 43 69 44 25 46 57 47 37 48
REMARK SMILES IDX 56 49 38 50 41 51 55 52 74 53 39 54 40 55 54 57 75 58 42 59
REMARK SMILES IDX 26 60 27 61 35 62 28 63 29 64 33 65 36 66 30 67 31 68 34 69
REMARK SMILES IDX 32 70 58 71 59 72 67 73 60 74 61 75 65 76 68 77 62 78 63 79
REMARK SMILES IDX 66 80 64 81 43 82 44 83 52 84 45 85 46 86 50 87 53 88 47 89
REMARK SMILES IDX 48 90 51 91 49 92
REMARK H PARENT 3 10 6 12 85 18 85 19 73 45 41 56
REMARK Flexibility Score: inf
ROOT
ATOM      1  C   UNL A   1      31.531  28.867  24.567  1.00  0.00     0.274 C 
ENDROOT
BRANCH   1   2
ATOM      2  O   UNL A   1      31.683  27.649  25.331  1.00  0.00    -0.460 OA
BRANCH   2   3
ATOM      3  C   UNL A   1      30.822  26.630  25.010  1.00  0.00     0.341 C 
ATOM      4  O   UNL A   1      29.716  26.839  24.536  1.00  0.00    -0.249 OA
BRANCH   3   5
ATOM      5  C   UNL A   1      31.464  25.249  25.309  1.00  0.00     0.232 C 
ATOM      6  C   UNL A   1      32.917  25.563  25.721  1.00  0.00     0.058 C 
BRANCH   5   7
ATOM      7  N   UNL A   1      30.753  24.583  26.437  1.00  0.00    -0.315 N 
ATOM      8  N   UNL A   1      31.699  22.406  26.705  1.00  0.00    -0.327 N 
ATOM      9  C   UNL A   1      30.739  23.318  26.877  1.00  0.00     0.316 C 
ATOM     10  H   UNL A   1      31.345  21.497  26.842  1.00  0.00     0.166 HD
ATOM     11  O   UNL A   1      29.728  22.968  27.491  1.00  0.00    -0.249 OA
ATOM     12  H   UNL A   1      30.183  25.191  26.960  1.00  0.00     0.166 HD
BRANCH   8  13
ATOM     13  C   UNL A   1      33.128  22.362  26.369  1.00  0.00     0.169 C 
ATOM     14  C   UNL A   1      33.974  22.570  27.626  1.00  0.00     0.041 C 
BRANCH  13  15
ATOM     15  C   UNL A   1      33.596  21.023  25.760  1.00  0.00     0.239 C 
ATOM     16  N   UNL A   1      33.279  19.893  26.465  1.00  0.00    -0.368 N 
ATOM     17  O   UNL A   1      34.153  20.922  24.672  1.00  0.00    -0.273 OA
ATOM     18  H   UNL A   1      32.832  19.968  27.339  1.00  0.00     0.159 HD
ATOM     19  H   UNL A   1      33.497  19.006  26.098  1.00  0.00     0.159 HD
ENDBRANCH  13  15
ENDBRANCH   8  13
ENDBRANCH   5   7
BRANCH   5  20
ATOM     20  C   UNL A   1      31.384  24.414  23.998  1.00  0.00     0.422 C 
ATOM     21  F   UNL A   1      31.456  25.221  22.912  1.00  0.00    -0.168 F 
ATOM     22  F   UNL A   1      32.413  23.547  23.884  1.00  0.00    -0.168 F 
ATOM     23  F   UNL A   1      30.279  23.657  23.855  1.00  0.00    -0.168 F 
ENDBRANCH   5  20
ENDBRANCH   3   5
ENDBRANCH   2   3
ENDBRANCH   1   2
BRANCH   1  24
ATOM     24  C   UNL A   1      31.658  30.065  25.517  1.00  0.00     0.275 C 
BRANCH  24  25
ATOM     25  O   UNL A   1      33.025  30.175  25.974  1.00  0.00    -0.458 OA
BRANCH  25  26
ATOM     26  C   UNL A   1      33.259  31.104  26.932  1.00  0.00     0.338 C 
ATOM     27  O   UNL A   1      32.519  32.031  27.239  1.00  0.00    -0.246 OA
BRANCH  26  28
ATOM     28  C   UNL A   1      34.545  30.839  27.620  1.00  0.00     0.060 A 
ATOM     29  C   UNL A   1      34.897  29.547  27.999  1.00  0.00     0.016 A 
ATOM     30  C   UNL A   1      35.376  31.901  27.979  1.00  0.00     0.016 A 
ATOM     31  C   UNL A   1      35.999  29.329  28.832  1.00  0.00     0.010 A 
ATOM     32  C   UNL A   1      36.565  31.658  28.688  1.00  0.00     0.010 A 
ATOM     33  C   UNL A   1      36.885  30.369  29.151  1.00  0.00    -0.014 A 
BRANCH  33  34
ATOM     34  C   UNL A   1      38.139  30.104  29.930  1.00  0.00     0.031 A 
ATOM     35  C   UNL A   1      39.242  29.238  29.366  1.00  0.00     0.074 A 
ATOM     36  C   UNL A   1      38.296  30.620  31.171  1.00  0.00     0.049 A 
ATOM     37  N   UNL A   1      40.287  28.723  29.970  1.00  0.00    -0.248 NA
ATOM     38  C   UNL A   1      39.152  28.890  27.941  1.00  0.00     0.031 C 
ATOM     39  C   UNL A   1      37.340  31.491  31.856  1.00  0.00     0.029 A 
ATOM     40  N   UNL A   1      39.321  30.485  32.080  1.00  0.00    -0.354 N 
ATOM     41  C   UNL A   1      40.935  27.941  29.022  1.00  0.00     0.074 A 
ATOM     42  C   UNL A   1      40.171  28.052  27.797  1.00  0.00     0.031 C 
ATOM     43  C   UNL A   1      37.839  31.851  33.046  1.00  0.00     0.029 A 
ATOM     44  C   UNL A   1      39.097  31.148  33.264  1.00  0.00     0.049 A 
ATOM     45  H   UNL A   1      40.136  29.963  31.901  1.00  0.00     0.167 HD
ATOM     46  C   UNL A   1      42.061  27.196  29.160  1.00  0.00     0.037 A 
ATOM     47  C   UNL A   1      39.784  31.156  34.423  1.00  0.00     0.037 A 
ATOM     48  C   UNL A   1      42.868  27.144  30.354  1.00  0.00     0.049 A 
ATOM     49  C   UNL A   1      41.024  30.318  34.551  1.00  0.00     0.074 A 
ATOM     50  C   UNL A   1      44.048  26.451  30.568  1.00  0.00     0.029 A 
ATOM     51  N   UNL A   1      42.591  27.826  31.528  1.00  0.00    -0.354 N 
ATOM     52  N   UNL A   1      41.594  29.545  33.661  1.00  0.00    -0.248 NA
ATOM     53  C   UNL A   1      41.703  30.337  35.855  1.00  0.00     0.031 C 
ATOM     54  C   UNL A   1      44.463  26.679  31.883  1.00  0.00     0.029 A 
ATOM     55  C   UNL A   1      43.568  27.554  32.475  1.00  0.00     0.049 A 
ATOM     56  H   UNL A   1      41.816  28.416  31.670  1.00  0.00     0.167 HD
ATOM     57  C   UNL A   1      42.700  28.992  34.292  1.00  0.00     0.074 A 
ATOM     58  C   UNL A   1      42.737  29.540  35.632  1.00  0.00     0.031 C 
ATOM     59  C   UNL A   1      43.597  28.102  33.806  1.00  0.00     0.037 A 
BRANCH  46  60
ATOM     60  C   UNL A   1      42.488  26.339  28.002  1.00  0.00     0.064 A 
ATOM     61  C   UNL A   1      41.966  25.056  27.790  1.00  0.00     0.173 A 
ATOM     62  C   UNL A   1      43.381  26.850  27.045  1.00  0.00     0.173 A 
ATOM     63  F   UNL A   1      41.118  24.516  28.678  1.00  0.00    -0.203 F 
ATOM     64  C   UNL A   1      42.333  24.309  26.671  1.00  0.00     0.198 A 
ATOM     65  C   UNL A   1      43.723  26.112  25.915  1.00  0.00     0.198 A 
ATOM     66  F   UNL A   1      43.902  28.077  27.194  1.00  0.00    -0.203 F 
ATOM     67  F   UNL A   1      41.848  23.071  26.505  1.00  0.00    -0.200 F 
ATOM     68  C   UNL A   1      43.203  24.841  25.730  1.00  0.00     0.200 A 
ATOM     69  F   UNL A   1      44.553  26.635  25.001  1.00  0.00    -0.200 F 
ATOM     70  F   UNL A   1      43.543  24.127  24.649  1.00  0.00    -0.200 F 
ENDBRANCH  46  60
BRANCH  47  71
ATOM     71  C   UNL A   1      39.272  31.938  35.581  1.00  0.00     0.064 A 
ATOM     72  C   UNL A   1      39.638  33.277  35.770  1.00  0.00     0.173 A 
ATOM     73  C   UNL A   1      38.410  31.358  36.524  1.00  0.00     0.173 A 
ATOM     74  F   UNL A   1      40.486  33.867  34.915  1.00  0.00    -0.203 F 
ATOM     75  C   UNL A   1      39.168  34.003  36.864  1.00  0.00     0.198 A 
ATOM     76  C   UNL A   1      37.912  32.095  37.595  1.00  0.00     0.198 A 
ATOM     77  F   UNL A   1      38.031  30.078  36.392  1.00  0.00    -0.203 F 
ATOM     78  F   UNL A   1      39.572  35.267  37.050  1.00  0.00    -0.200 F 
ATOM     79  C   UNL A   1      38.298  33.414  37.770  1.00  0.00     0.200 A 
ATOM     80  F   UNL A   1      37.059  31.525  38.458  1.00  0.00    -0.200 F 
ATOM     81  F   UNL A   1      37.841  34.115  38.816  1.00  0.00    -0.200 F 
ENDBRANCH  47  71
BRANCH  59  82
ATOM     82  C   UNL A   1      44.709  27.684  34.721  1.00  0.00     0.064 A 
ATOM     83  C   UNL A   1      44.588  26.565  35.559  1.00  0.00     0.173 A 
ATOM     84  C   UNL A   1      45.913  28.402  34.753  1.00  0.00     0.173 A 
ATOM     85  F   UNL A   1      43.449  25.856  35.578  1.00  0.00    -0.203 F 
ATOM     86  C   UNL A   1      45.624  26.196  36.414  1.00  0.00     0.198 A 
ATOM     87  C   UNL A   1      46.957  28.015  35.589  1.00  0.00     0.198 A 
ATOM     88  F   UNL A   1      46.080  29.478  33.969  1.00  0.00    -0.203 F 
ATOM     89  F   UNL A   1      45.468  25.154  37.241  1.00  0.00    -0.200 F 
ATOM     90  C   UNL A   1      46.808  26.918  36.423  1.00  0.00     0.200 A 
ATOM     91  F   UNL A   1      48.104  28.706  35.591  1.00  0.00    -0.200 F 
ATOM     92  F   UNL A   1      47.803  26.561  37.247  1.00  0.00    -0.200 F 
ENDBRANCH  59  82
ENDBRANCH  33  34
ENDBRANCH  26  28
ENDBRANCH  25  26
ENDBRANCH  24  25
ENDBRANCH   1  24
TORSDOF 15
ENDMDL
MODEL 2
REMARK VINA RESULT:     -11.4      1.449      2.875
REMARK SMILES C[C@H](NC(=O)N[C@](C)(C(=O)OCCOC(=O)c1ccc(-c2c3nc(c(-c4c(F)c(F)c(F)c(F)c4F)c4ccc([nH]4)c(-c4c(F)c(F)c(F)c(F)c4F)c4nc(c(-c5c(F)c(F)c(F)c(F)c5F)c5ccc2[nH]5)C=C4)C=C3)cc1)C(F)(F)F)C(N)=O
REMARK SMILES IDX 12 1 11 2 9 3 10 4 7 5 8 6 6 7 3 8 4 9 5 11 2 13 1 14 84 15
REMARK SMILES IDX 85 16 86 17 80 20 81 21 82 22 83 23 13 24 14 25 15 26 16 27
REMARK SMILES IDX 17 28 18 29 79 30 19 31 78 32 20 33 21 34 22 35 72 36 23 37
REMARK SMILES IDX 77 38 71 39 73 40 24 41 76 42 70 43 69 44 25 46 57 47 37 48
REMARK SMILES IDX 56 49 38 50 41 51 55 52 74 53 39 54 40 55 54 57 75 58 42 59
REMARK SMILES IDX 26 60 27 61 35 62 28 63 29 64 33 65 36 66 30 67 31 68 34 69
REMARK SMILES IDX 32 70 58 71 59 72 67 73 60 74 61 75 65 76 68 77 62 78 63 79
REMARK SMILES IDX 66 80 64 81 43 82 44 83 52 84 45 85 46 86 50 87 53 88 47 89
REMARK SMILES IDX 48 90 51 91 49 92
REMARK H PARENT 3 10 6 12 85 18 85 19 73 45 41 56
REMARK Flexibility Score: inf
ROOT
ATOM      1  C   UNL A   1      31.786  28.261  27.064  1.00  0.00     0.274 C 
ENDROOT
BRANCH   1   2
ATOM      2  O   UNL A   1      31.432  27.136  26.228  1.00  0.00    -0.460 OA
BRANCH   2   3
ATOM      3  C   UNL A   1      32.479  26.378  25.770  1.00  0.00     0.341 C 
ATOM      4  O   UNL A   1      33.642  26.666  26.005  1.00  0.00    -0.249 OA
BRANCH   3   5
ATOM      5  C   UNL A   1      31.964  25.150  24.971  1.00  0.00     0.232 C 
ATOM      6  C   UNL A   1      30.530  25.522  24.543  1.00  0.00     0.058 C 
BRANCH   5   7
ATOM      7  N   UNL A   1      32.810  24.928  23.764  1.00  0.00    -0.315 N 
ATOM      8  N   UNL A   1      32.358  26.700  22.228  1.00  0.00    -0.327 N 
ATOM      9  C   UNL A   1      32.814  25.487  22.546  1.00  0.00     0.316 C 
ATOM     10  H   UNL A   1      32.190  26.766  21.260  1.00  0.00     0.166 HD
ATOM     11  O   UNL A   1      33.276  24.796  21.634  1.00  0.00    -0.249 OA
ATOM     12  H   UNL A   1      33.500  24.237  23.886  1.00  0.00     0.166 HD
BRANCH   8  13
ATOM     13  C   UNL A   1      32.033  27.965  22.899  1.00  0.00     0.169 C 
ATOM     14  C   UNL A   1      33.192  28.953  22.757  1.00  0.00     0.041 C 
BRANCH  13  15
ATOM     15  C   UNL A   1      30.791  28.685  22.330  1.00  0.00     0.239 C 
ATOM     16  N   UNL A   1      31.026  29.841  21.636  1.00  0.00    -0.368 N 
ATOM     17  O   UNL A   1      29.649  28.243  22.403  1.00  0.00    -0.273 OA
ATOM     18  H   UNL A   1      31.941  30.200  21.575  1.00  0.00     0.159 HD
ATOM     19  H   UNL A   1      30.281  30.313  21.199  1.00  0.00     0.159 HD
ENDBRANCH  13  15
ENDBRANCH   8  13
ENDBRANCH   5   7
BRANCH   5  20
ATOM     20  C   UNL A   1      32.000  23.930  25.937  1.00  0.00     0.422 C 
ATOM     21  F   UNL A   1      31.088  23.000  25.567  1.00  0.00    -0.168 F 
ATOM     22  F   UNL A   1      33.196  23.304  25.921  1.00  0.00    -0.168 F 
ATOM     23  F   UNL A   1      31.774  24.207  27.236  1.00  0.00    -0.168 F 
ENDBRANCH   5  20
ENDBRANCH   3   5
ENDBRANCH   2   3
ENDBRANCH   1   2
BRANCH   1  24
ATOM     24  C   UNL A   1      31.691  29.545  26.230  1.00  0.00     0.275 C 
BRANCH  24  25
ATOM     25  O   UNL A   1      33.006  30.129  26.092  1.00  0.00    -0.458 OA
BRANCH  25  26
ATOM     26  C   UNL A   1      33.313  31.118  26.966  1.00  0.00     0.338 C 
ATOM     27  O   UNL A   1      32.625  32.101  27.219  1.00  0.00    -0.246 OA
BRANCH  26  28
ATOM     28  C   UNL A   1      34.607  30.848  27.635  1.00  0.00     0.060 A 
ATOM     29  C   UNL A   1      34.966  29.554  27.996  1.00  0.00     0.016 A 
ATOM     30  C   UNL A   1      35.441  31.909  27.994  1.00  0.00     0.016 A 
ATOM     31  C   UNL A   1      36.079  29.329  28.812  1.00  0.00     0.010 A 
ATOM     32  C   UNL A   1      36.640  31.660  28.685  1.00  0.00     0.010 A 
ATOM     33  C   UNL A   1      36.967  30.367  29.131  1.00  0.00    -0.014 A 
BRANCH  33  34
ATOM     34  C   UNL A   1      38.232  30.096  29.891  1.00  0.00     0.031 A 
ATOM     35  C   UNL A   1      39.316  29.212  29.318  1.00  0.00     0.074 A 
ATOM     36  C   UNL A   1      38.416  30.623  31.123  1.00  0.00     0.049 A 
ATOM     37  N   UNL A   1      40.365  28.692  29.909  1.00  0.00    -0.248 NA
ATOM     38  C   UNL A   1      39.197  28.850  27.898  1.00  0.00     0.031 C 
ATOM     39  C   UNL A   1      37.481  31.512  31.816  1.00  0.00     0.029 A 
ATOM     40  N   UNL A   1      39.454  30.486  32.017  1.00  0.00    -0.354 N 
ATOM     41  C   UNL A   1      40.988  27.892  28.958  1.00  0.00     0.074 A 
ATOM     42  C   UNL A   1      40.204  27.999  27.745  1.00  0.00     0.031 C 
ATOM     43  C   UNL A   1      38.005  31.879  32.993  1.00  0.00     0.029 A 
ATOM     44  C   UNL A   1      39.258  31.164  33.197  1.00  0.00     0.049 A 
ATOM     45  H   UNL A   1      40.261  29.954  31.829  1.00  0.00     0.167 HD
ATOM     46  C   UNL A   1      42.107  27.137  29.085  1.00  0.00     0.037 A 
ATOM     47  C   UNL A   1      39.966  31.176  34.343  1.00  0.00     0.037 A 
ATOM     48  C   UNL A   1      42.935  27.088  30.265  1.00  0.00     0.049 A 
ATOM     49  C   UNL A   1      41.198  30.325  34.460  1.00  0.00     0.074 A 
ATOM     50  C   UNL A   1      44.111  26.383  30.466  1.00  0.00     0.029 A 
ATOM     51  N   UNL A   1      42.685  27.785  31.437  1.00  0.00    -0.354 N 
ATOM     52  N   UNL A   1      41.744  29.537  33.568  1.00  0.00    -0.248 NA
ATOM     53  C   UNL A   1      41.900  30.351  35.751  1.00  0.00     0.031 C 
ATOM     54  C   UNL A   1      44.550  26.621  31.772  1.00  0.00     0.029 A 
ATOM     55  C   UNL A   1      43.675  27.512  32.369  1.00  0.00     0.049 A 
ATOM     56  H   UNL A   1      41.919  28.385  31.586  1.00  0.00     0.167 HD
ATOM     57  C   UNL A   1      42.855  28.979  34.186  1.00  0.00     0.074 A 
ATOM     58  C   UNL A   1      42.921  29.540  35.519  1.00  0.00     0.031 C 
ATOM     59  C   UNL A   1      43.733  28.073  33.694  1.00  0.00     0.037 A 
BRANCH  46  60
ATOM     60  C   UNL A   1      42.505  26.262  27.929  1.00  0.00     0.064 A 
ATOM     61  C   UNL A   1      43.428  26.679  26.960  1.00  0.00     0.173 A 
ATOM     62  C   UNL A   1      42.009  24.950  27.841  1.00  0.00     0.173 A 
ATOM     63  F   UNL A   1      43.925  27.925  26.992  1.00  0.00    -0.203 F 
ATOM     64  C   UNL A   1      43.827  25.822  25.935  1.00  0.00     0.198 A 
ATOM     65  C   UNL A   1      42.431  24.089  26.832  1.00  0.00     0.198 A 
ATOM     66  F   UNL A   1      41.132  24.497  28.748  1.00  0.00    -0.203 F 
ATOM     67  F   UNL A   1      44.683  26.252  24.999  1.00  0.00    -0.200 F 
ATOM     68  C   UNL A   1      43.336  24.525  25.878  1.00  0.00     0.200 A 
ATOM     69  F   UNL A   1      41.965  22.832  26.788  1.00  0.00    -0.200 F 
ATOM     70  F   UNL A   1      43.731  23.699  24.899  1.00  0.00    -0.200 F 
ENDBRANCH  46  60
BRANCH  47  71
ATOM     71  C   UNL A   1      39.482  31.976  35.502  1.00  0.00     0.064 A 
ATOM     72  C   UNL A   1      39.911  33.294  35.703  1.00  0.00     0.173 A 
ATOM     73  C   UNL A   1      38.584  31.433  36.434  1.00  0.00     0.173 A 
ATOM     74  F   UNL A   1      40.795  33.847  34.858  1.00  0.00    -0.203 F 
ATOM     75  C   UNL A   1      39.468  34.036  36.796  1.00  0.00     0.198 A 
ATOM     76  C   UNL A   1      38.113  32.188  37.505  1.00  0.00     0.198 A 
ATOM     77  F   UNL A   1      38.144  30.174  36.291  1.00  0.00    -0.203 F 
ATOM     78  F   UNL A   1      39.931  35.278  36.993  1.00  0.00    -0.200 F 
ATOM     79  C   UNL A   1      38.562  33.485  37.691  1.00  0.00     0.200 A 
ATOM     80  F   UNL A   1      37.226  31.656  38.357  1.00  0.00    -0.200 F 
ATOM     81  F   UNL A   1      38.130  34.202  38.737  1.00  0.00    -0.200 F 
ENDBRANCH  47  71
BRANCH  59  82
ATOM     82  C   UNL A   1      44.856  27.652  34.594  1.00  0.00     0.064 A 
ATOM     83  C   UNL A   1      44.753  26.520  35.416  1.00  0.00     0.173 A 
ATOM     84  C   UNL A   1      46.054  28.382  34.628  1.00  0.00     0.173 A 
ATOM     85  F   UNL A   1      43.620  25.800  35.433  1.00  0.00    -0.203 F 
ATOM     86  C   UNL A   1      45.798  26.148  36.257  1.00  0.00     0.198 A 
ATOM     87  C   UNL A   1      47.107  27.992  35.450  1.00  0.00     0.198 A 
ATOM     88  F   UNL A   1      46.204  29.471  33.859  1.00  0.00    -0.203 F 
ATOM     89  F   UNL A   1      45.658  25.092  37.070  1.00  0.00    -0.200 F 
ATOM     90  C   UNL A   1      46.975  26.881  36.269  1.00  0.00     0.200 A 
ATOM     91  F   UNL A   1      48.248  28.694  35.454  1.00  0.00    -0.200 F 
ATOM     92  F   UNL A   1      47.980  26.522  37.080  1.00  0.00    -0.200 F 
ENDBRANCH  59  82
ENDBRANCH  33  34
ENDBRANCH  26  28
ENDBRANCH  25  26
ENDBRANCH  24  25
ENDBRANCH   1  24
TORSDOF 15
ENDMDL
MODEL 3
REMARK VINA RESULT:     -11.4      0.623      2.144
REMARK SMILES C[C@H](NC(=O)N[C@](C)(C(=O)OCCOC(=O)c1ccc(-c2c3nc(c(-c4c(F)c(F)c(F)c(F)c4F)c4ccc([nH]4)c(-c4c(F)c(F)c(F)c(F)c4F)c4nc(c(-c5c(F)c(F)c(F)c(F)c5F)c5ccc2[nH]5)C=C4)C=C3)cc1)C(F)(F)F)C(N)=O
REMARK SMILES IDX 12 1 11 2 9 3 10 4 7 5 8 6 6 7 3 8 4 9 5 11 2 13 1 14 84 15
REMARK SMILES IDX 85 16 86 17 80 20 81 21 82 22 83 23 13 24 14 25 15 26 16 27
REMARK SMILES IDX 17 28 18 29 79 30 19 31 78 32 20 33 21 34 22 35 72 36 23 37
REMARK SMILES IDX 77 38 71 39 73 40 24 41 76 42 70 43 69 44 25 46 57 47 37 48
REMARK SMILES IDX 56 49 38 50 41 51 55 52 74 53 39 54 40 55 54 57 75 58 42 59
REMARK SMILES IDX 26 60 27 61 35 62 28 63 29 64 33 65 36 66 30 67 31 68 34 69
REMARK SMILES IDX 32 70 58 71 59 72 67 73 60 74 61 75 65 76 68 77 62 78 63 79
REMARK SMILES IDX 66 80 64 81 43 82 44 83 52 84 45 85 46 86 50 87 53 88 47 89
REMARK SMILES IDX 48 90 51 91 49 92
REMARK H PARENT 3 10 6 12 85 18 85 19 73 45 41 56
REMARK Flexibility Score: inf
ROOT
ATOM      1  C   UNL A   1      31.423  28.614  24.698  1.00  0.00     0.274 C 
ENDROOT
BRANCH   1   2
ATOM      2  O   UNL A   1      31.512  27.196  24.968  1.00  0.00    -0.460 OA
BRANCH   2   3
ATOM      3  C   UNL A   1      32.678  26.586  24.580  1.00  0.00     0.341 C 
ATOM      4  O   UNL A   1      33.606  27.210  24.089  1.00  0.00    -0.249 OA
BRANCH   3   5
ATOM      5  C   UNL A   1      32.629  25.063  24.877  1.00  0.00     0.232 C 
ATOM      6  C   UNL A   1      34.085  24.672  25.204  1.00  0.00     0.058 C 
BRANCH   5   7
ATOM      7  N   UNL A   1      31.757  24.794  26.054  1.00  0.00    -0.315 N 
ATOM      8  N   UNL A   1      31.911  22.463  26.553  1.00  0.00    -0.327 N 
ATOM      9  C   UNL A   1      31.323  23.660  26.620  1.00  0.00     0.316 C 
ATOM     10  H   UNL A   1      31.273  21.748  26.775  1.00  0.00     0.166 HD
ATOM     11  O   UNL A   1      30.266  23.738  27.250  1.00  0.00    -0.249 OA
ATOM     12  H   UNL A   1      31.439  25.609  26.506  1.00  0.00     0.166 HD
BRANCH   8  13
ATOM     13  C   UNL A   1      33.233  21.902  26.244  1.00  0.00     0.169 C 
ATOM     14  C   UNL A   1      34.036  21.699  27.530  1.00  0.00     0.041 C 
BRANCH  13  15
ATOM     15  C   UNL A   1      33.191  20.524  25.548  1.00  0.00     0.239 C 
ATOM     16  N   UNL A   1      34.402  19.940  25.289  1.00  0.00    -0.368 N 
ATOM     17  O   UNL A   1      32.157  19.915  25.295  1.00  0.00    -0.273 OA
ATOM     18  H   UNL A   1      35.234  20.425  25.490  1.00  0.00     0.159 HD
ATOM     19  H   UNL A   1      34.439  19.036  24.901  1.00  0.00     0.159 HD
ENDBRANCH  13  15
ENDBRANCH   8  13
ENDBRANCH   5   7
BRANCH   5  20
ATOM     20  C   UNL A   1      32.100  24.364  23.590  1.00  0.00     0.422 C 
ATOM     21  F   UNL A   1      30.790  24.049  23.722  1.00  0.00    -0.168 F 
ATOM     22  F   UNL A   1      32.183  25.165  22.506  1.00  0.00    -0.168 F 
ATOM     23  F   UNL A   1      32.743  23.235  23.233  1.00  0.00    -0.168 F 
ENDBRANCH   5  20
ENDBRANCH   3   5
ENDBRANCH   2   3
ENDBRANCH   1   2
BRANCH   1  24
ATOM     24  C   UNL A   1      31.710  29.383  25.993  1.00  0.00     0.275 C 
BRANCH  24  25
ATOM     25  O   UNL A   1      32.903  30.183  25.825  1.00  0.00    -0.458 OA
BRANCH  25  26
ATOM     26  C   UNL A   1      33.146  31.100  26.792  1.00  0.00     0.338 C 
ATOM     27  O   UNL A   1      32.404  32.017  27.125  1.00  0.00    -0.246 OA
BRANCH  26  28
ATOM     28  C   UNL A   1      34.446  30.837  27.454  1.00  0.00     0.060 A 
ATOM     29  C   UNL A   1      34.811  29.545  27.817  1.00  0.00     0.016 A 
ATOM     30  C   UNL A   1      35.278  31.901  27.804  1.00  0.00     0.016 A 
ATOM     31  C   UNL A   1      35.930  29.327  28.627  1.00  0.00     0.010 A 
ATOM     32  C   UNL A   1      36.482  31.659  28.489  1.00  0.00     0.010 A 
ATOM     33  C   UNL A   1      36.816  30.368  28.937  1.00  0.00    -0.014 A 
BRANCH  33  34
ATOM     34  C   UNL A   1      38.086  30.105  29.690  1.00  0.00     0.031 A 
ATOM     35  C   UNL A   1      39.177  29.237  29.105  1.00  0.00     0.074 A 
ATOM     36  C   UNL A   1      38.270  30.623  30.926  1.00  0.00     0.049 A 
ATOM     37  N   UNL A   1      40.235  28.722  29.688  1.00  0.00    -0.248 NA
ATOM     38  C   UNL A   1      39.057  28.885  27.682  1.00  0.00     0.031 C 
ATOM     39  C   UNL A   1      37.329  31.496  31.629  1.00  0.00     0.029 A 
ATOM     40  N   UNL A   1      39.313  30.489  31.814  1.00  0.00    -0.354 N 
ATOM     41  C   UNL A   1      40.862  27.937  28.728  1.00  0.00     0.074 A 
ATOM     42  C   UNL A   1      40.072  28.047  27.519  1.00  0.00     0.031 C 
ATOM     43  C   UNL A   1      37.853  31.859  32.808  1.00  0.00     0.029 A 
ATOM     44  C   UNL A   1      39.115  31.156  33.001  1.00  0.00     0.049 A 
ATOM     45  H   UNL A   1      40.125  29.967  31.619  1.00  0.00     0.167 HD
ATOM     46  C   UNL A   1      41.990  27.193  28.845  1.00  0.00     0.037 A 
ATOM     47  C   UNL A   1      39.826  31.165  34.145  1.00  0.00     0.037 A 
ATOM     48  C   UNL A   1      42.822  27.143  30.021  1.00  0.00     0.049 A 
ATOM     49  C   UNL A   1      41.067  30.327  34.249  1.00  0.00     0.074 A 
ATOM     50  C   UNL A   1      44.006  26.449  30.212  1.00  0.00     0.029 A 
ATOM     51  N   UNL A   1      42.570  27.827  31.200  1.00  0.00    -0.354 N 
ATOM     52  N   UNL A   1      41.619  29.552  33.349  1.00  0.00    -0.248 NA
ATOM     53  C   UNL A   1      41.774  30.349  35.538  1.00  0.00     0.031 C 
ATOM     54  C   UNL A   1      44.448  26.680  31.518  1.00  0.00     0.029 A 
ATOM     55  C   UNL A   1      43.566  27.557  32.126  1.00  0.00     0.049 A 
ATOM     56  H   UNL A   1      41.798  28.418  31.357  1.00  0.00     0.167 HD
ATOM     57  C   UNL A   1      42.737  29.000  33.958  1.00  0.00     0.074 A 
ATOM     58  C   UNL A   1      42.803  29.550  35.295  1.00  0.00     0.031 C 
ATOM     59  C   UNL A   1      43.623  28.108  33.455  1.00  0.00     0.037 A 
BRANCH  46  60
ATOM     60  C   UNL A   1      42.392  26.332  27.680  1.00  0.00     0.064 A 
ATOM     61  C   UNL A   1      43.371  26.730  26.760  1.00  0.00     0.173 A 
ATOM     62  C   UNL A   1      41.840  25.048  27.534  1.00  0.00     0.173 A 
ATOM     63  F   UNL A   1      43.924  27.950  26.847  1.00  0.00    -0.203 F 
ATOM     64  C   UNL A   1      43.770  25.883  25.726  1.00  0.00     0.198 A 
ATOM     65  C   UNL A   1      42.261  24.195  26.518  1.00  0.00     0.198 A 
ATOM     66  F   UNL A   1      40.907  24.612  28.394  1.00  0.00    -0.203 F 
ATOM     67  F   UNL A   1      44.683  26.298  24.837  1.00  0.00    -0.200 F 
ATOM     68  C   UNL A   1      43.222  24.614  25.612  1.00  0.00     0.200 A 
ATOM     69  F   UNL A   1      41.739  22.964  26.419  1.00  0.00    -0.200 F 
ATOM     70  F   UNL A   1      43.617  23.797  24.626  1.00  0.00    -0.200 F 
ENDBRANCH  46  60
BRANCH  47  71
ATOM     71  C   UNL A   1      39.339  31.950  35.312  1.00  0.00     0.064 A 
ATOM     72  C   UNL A   1      38.522  31.365  36.289  1.00  0.00     0.173 A 
ATOM     73  C   UNL A   1      39.678  33.302  35.470  1.00  0.00     0.173 A 
ATOM     74  F   UNL A   1      38.143  30.084  36.166  1.00  0.00    -0.203 F 
ATOM     75  C   UNL A   1      38.056  32.106  37.373  1.00  0.00     0.198 A 
ATOM     76  C   UNL A   1      39.242  34.031  36.573  1.00  0.00     0.198 A 
ATOM     77  F   UNL A   1      40.454  33.912  34.562  1.00  0.00    -0.203 F 
ATOM     78  F   UNL A   1      37.236  31.537  38.267  1.00  0.00    -0.200 F 
ATOM     79  C   UNL A   1      38.423  33.435  37.520  1.00  0.00     0.200 A 
ATOM     80  F   UNL A   1      39.614  35.310  36.718  1.00  0.00    -0.200 F 
ATOM     81  F   UNL A   1      37.981  34.144  38.567  1.00  0.00    -0.200 F 
ENDBRANCH  47  71
BRANCH  59  82
ATOM     82  C   UNL A   1      44.753  27.691  34.348  1.00  0.00     0.064 A 
ATOM     83  C   UNL A   1      45.955  28.412  34.396  1.00  0.00     0.173 A 
ATOM     84  C   UNL A   1      44.629  26.564  35.175  1.00  0.00     0.173 A 
ATOM     85  F   UNL A   1      46.129  29.487  33.611  1.00  0.00    -0.203 F 
ATOM     86  C   UNL A   1      47.002  28.006  35.220  1.00  0.00     0.198 A 
ATOM     87  C   UNL A   1      45.667  26.176  36.018  1.00  0.00     0.198 A 
ATOM     88  F   UNL A   1      43.499  25.842  35.169  1.00  0.00    -0.203 F 
ATOM     89  F   UNL A   1      48.159  28.682  35.212  1.00  0.00    -0.200 F 
ATOM     90  C   UNL A   1      46.854  26.893  36.033  1.00  0.00     0.200 A 
ATOM     91  F   UNL A   1      45.521  25.107  36.811  1.00  0.00    -0.200 F 
ATOM     92  F   UNL A   1      47.863  26.503  36.826  1.00  0.00    -0.200 F 
ENDBRANCH  59  82
ENDBRANCH  33  34
ENDBRANCH  26  28
ENDBRANCH  25  26
ENDBRANCH  24  25
ENDBRANCH   1  24
TORSDOF 15
ENDMDL
