MODEL 1
REMARK VINA RESULT:     -12.4      0.000      0.000
REMARK SMILES CCc1nn(C)c(C[C@@H](C(=O)OCCOC(=O)c2ccc(-c3c4nc(c(-c5c(F)c(F)c(F)c(F)c5F)c5ccc([nH]5)c(-c5c(F)c(F)c(F)c(F)c5F)c5nc(c(-c6c(F)c(F)c(F)c(F)c6F)c6ccc3[nH]6)C=C5)C=C4)cc2)c2cccc(C)c2)c1Br
REMARK SMILES IDX 13 1 12 2 10 3 11 4 9 5 8 6 7 7 3 8 4 9 88 10 5 11 89 12
REMARK SMILES IDX 6 13 2 14 1 15 81 16 82 17 87 18 83 19 85 20 84 21 86 22
REMARK SMILES IDX 14 23 15 24 16 25 17 26 18 27 19 28 80 29 20 30 79 31 21 32
REMARK SMILES IDX 22 33 23 34 73 35 24 36 78 37 72 38 74 39 25 40 77 41 71 42
REMARK SMILES IDX 70 43 26 45 58 46 38 47 57 48 39 49 42 50 56 51 75 52 40 53
REMARK SMILES IDX 41 54 55 56 76 57 43 58 27 59 28 60 36 61 29 62 30 63 34 64
REMARK SMILES IDX 37 65 31 66 32 67 35 68 33 69 59 70 60 71 68 72 61 73 62 74
REMARK SMILES IDX 66 75 69 76 63 77 64 78 67 79 65 80 44 81 45 82 53 83 46 84
REMARK SMILES IDX 47 85 51 86 54 87 48 88 49 89 52 90 50 91
REMARK H PARENT 74 44 42 55
REMARK Flexibility Score: inf
ROOT
ATOM      1  C   UNL A   1      32.129  29.386  27.261  1.00  0.00     0.274 C 
ENDROOT
BRANCH   1   2
ATOM      2  O   UNL A   1      32.862  28.204  26.861  1.00  0.00    -0.462 OA
BRANCH   2   3
ATOM      3  C   UNL A   1      32.124  27.172  26.352  1.00  0.00     0.313 C 
ATOM      4  O   UNL A   1      31.055  26.815  26.839  1.00  0.00    -0.252 OA
BRANCH   3   5
ATOM      5  C   UNL A   1      32.829  26.465  25.176  1.00  0.00     0.135 C 
BRANCH   5   6
ATOM      6  C   UNL A   1      31.915  26.105  23.982  1.00  0.00     0.077 C 
BRANCH   6   7
ATOM      7  C   UNL A   1      31.234  27.269  23.319  1.00  0.00     0.054 A 
ATOM      8  C   UNL A   1      29.810  28.838  22.589  1.00  0.00     0.077 A 
ATOM      9  N   UNL A   1      31.032  29.256  22.234  1.00  0.00    -0.177 NA
ATOM     10  C   UNL A   1      29.894  27.592  23.248  1.00  0.00     0.062 A 
ATOM     11  N   UNL A   1      31.873  28.323  22.717  1.00  0.00    -0.271 N 
ATOM     12  Br  UNL A   1      28.472  26.580  23.934  1.00  0.00    -0.047 Br
ATOM     13  C   UNL A   1      33.282  28.581  22.549  1.00  0.00     0.174 C 
BRANCH   8  14
ATOM     14  C   UNL A   1      28.651  29.704  22.216  1.00  0.00     0.056 C 
ATOM     15  C   UNL A   1      28.034  30.505  23.348  1.00  0.00     0.011 C 
ENDBRANCH   8  14
ENDBRANCH   6   7
ENDBRANCH   5   6
BRANCH   5  16
ATOM     16  C   UNL A   1      33.527  25.183  25.661  1.00  0.00    -0.033 A 
ATOM     17  C   UNL A   1      32.824  24.203  26.371  1.00  0.00     0.004 A 
ATOM     18  C   UNL A   1      34.890  24.964  25.394  1.00  0.00     0.008 A 
ATOM     19  C   UNL A   1      33.467  23.032  26.781  1.00  0.00     0.001 A 
ATOM     20  C   UNL A   1      35.540  23.785  25.784  1.00  0.00    -0.051 A 
ATOM     21  C   UNL A   1      34.812  22.817  26.476  1.00  0.00     0.003 A 
ATOM     22  C   UNL A   1      36.968  23.534  25.397  1.00  0.00     0.044 C 
ENDBRANCH   5  16
ENDBRANCH   3   5
ENDBRANCH   2   3
ENDBRANCH   1   2
BRANCH   1  23
ATOM     23  C   UNL A   1      32.890  30.691  26.994  1.00  0.00     0.275 C 
BRANCH  23  24
ATOM     24  O   UNL A   1      34.311  30.534  26.844  1.00  0.00    -0.458 OA
BRANCH  24  25
ATOM     25  C   UNL A   1      35.027  31.367  27.622  1.00  0.00     0.338 C 
ATOM     26  O   UNL A   1      34.913  32.574  27.713  1.00  0.00    -0.246 OA
BRANCH  25  27
ATOM     27  C   UNL A   1      36.143  30.708  28.292  1.00  0.00     0.060 A 
ATOM     28  C   UNL A   1      37.152  31.539  28.772  1.00  0.00     0.016 A 
ATOM     29  C   UNL A   1      36.345  29.340  28.127  1.00  0.00     0.016 A 
ATOM     30  C   UNL A   1      38.420  31.030  28.951  1.00  0.00     0.010 A 
ATOM     31  C   UNL A   1      37.607  28.816  28.379  1.00  0.00     0.010 A 
ATOM     32  C   UNL A   1      38.666  29.670  28.720  1.00  0.00    -0.014 A 
BRANCH  32  33
ATOM     33  C   UNL A   1      40.038  29.198  28.954  1.00  0.00     0.031 A 
ATOM     34  C   UNL A   1      40.425  29.051  30.390  1.00  0.00     0.074 A 
ATOM     35  C   UNL A   1      40.883  28.793  27.985  1.00  0.00     0.049 A 
ATOM     36  N   UNL A   1      41.496  29.477  30.984  1.00  0.00    -0.248 NA
ATOM     37  C   UNL A   1      39.449  28.410  31.290  1.00  0.00     0.031 C 
ATOM     38  C   UNL A   1      40.590  28.660  26.557  1.00  0.00     0.029 A 
ATOM     39  N   UNL A   1      42.150  28.276  28.095  1.00  0.00    -0.354 N 
ATOM     40  C   UNL A   1      41.395  29.032  32.298  1.00  0.00     0.074 A 
ATOM     41  C   UNL A   1      40.076  28.481  32.463  1.00  0.00     0.031 C 
ATOM     42  C   UNL A   1      41.520  27.865  25.990  1.00  0.00     0.029 A 
ATOM     43  C   UNL A   1      42.537  27.550  26.981  1.00  0.00     0.049 A 
ATOM     44  H   UNL A   1      42.723  28.409  28.885  1.00  0.00     0.167 HD
ATOM     45  C   UNL A   1      42.474  28.931  33.118  1.00  0.00     0.037 A 
ATOM     46  C   UNL A   1      43.569  26.684  26.877  1.00  0.00     0.037 A 
ATOM     47  C   UNL A   1      43.606  29.684  32.666  1.00  0.00     0.049 A 
ATOM     48  C   UNL A   1      44.580  26.994  27.912  1.00  0.00     0.074 A 
ATOM     49  C   UNL A   1      44.029  30.991  32.722  1.00  0.00     0.029 A 
ATOM     50  N   UNL A   1      44.414  29.032  31.780  1.00  0.00    -0.354 N 
ATOM     51  N   UNL A   1      45.320  28.066  27.910  1.00  0.00    -0.248 NA
ATOM     52  C   UNL A   1      44.645  26.195  29.131  1.00  0.00     0.031 C 
ATOM     53  C   UNL A   1      45.016  31.141  31.702  1.00  0.00     0.029 A 
ATOM     54  C   UNL A   1      45.148  29.922  31.042  1.00  0.00     0.049 A 
ATOM     55  H   UNL A   1      44.464  28.053  31.685  1.00  0.00     0.167 HD
ATOM     56  C   UNL A   1      45.592  28.291  29.244  1.00  0.00     0.074 A 
ATOM     57  C   UNL A   1      45.343  27.025  29.910  1.00  0.00     0.031 C 
ATOM     58  C   UNL A   1      45.644  29.561  29.735  1.00  0.00     0.037 A 
BRANCH  45  59
ATOM     59  C   UNL A   1      42.632  27.806  34.104  1.00  0.00     0.064 A 
ATOM     60  C   UNL A   1      43.115  26.555  33.686  1.00  0.00     0.173 A 
ATOM     61  C   UNL A   1      42.036  27.842  35.385  1.00  0.00     0.173 A 
ATOM     62  F   UNL A   1      43.643  26.405  32.462  1.00  0.00    -0.203 F 
ATOM     63  C   UNL A   1      42.998  25.418  34.492  1.00  0.00     0.198 A 
ATOM     64  C   UNL A   1      41.969  26.721  36.206  1.00  0.00     0.198 A 
ATOM     65  F   UNL A   1      41.403  28.937  35.832  1.00  0.00    -0.203 F 
ATOM     66  F   UNL A   1      43.387  24.225  34.022  1.00  0.00    -0.200 F 
ATOM     67  C   UNL A   1      42.432  25.504  35.753  1.00  0.00     0.200 A 
ATOM     68  F   UNL A   1      41.387  26.818  37.411  1.00  0.00    -0.200 F 
ATOM     69  F   UNL A   1      42.286  24.408  36.511  1.00  0.00    -0.200 F 
ENDBRANCH  45  59
BRANCH  46  70
ATOM     70  C   UNL A   1      43.662  25.488  26.011  1.00  0.00     0.064 A 
ATOM     71  C   UNL A   1      44.828  25.206  25.282  1.00  0.00     0.173 A 
ATOM     72  C   UNL A   1      42.690  24.469  26.058  1.00  0.00     0.173 A 
ATOM     73  F   UNL A   1      45.826  26.101  25.231  1.00  0.00    -0.203 F 
ATOM     74  C   UNL A   1      45.014  23.975  24.649  1.00  0.00     0.198 A 
ATOM     75  C   UNL A   1      42.869  23.249  25.409  1.00  0.00     0.198 A 
ATOM     76  F   UNL A   1      41.586  24.602  26.808  1.00  0.00    -0.203 F 
ATOM     77  F   UNL A   1      46.168  23.719  24.015  1.00  0.00    -0.200 F 
ATOM     78  C   UNL A   1      44.036  22.997  24.714  1.00  0.00     0.200 A 
ATOM     79  F   UNL A   1      41.926  22.300  25.507  1.00  0.00    -0.200 F 
ATOM     80  F   UNL A   1      44.234  21.800  24.145  1.00  0.00    -0.200 F 
ENDBRANCH  46  70
BRANCH  58  81
ATOM     81  C   UNL A   1      46.016  30.641  28.771  1.00  0.00     0.064 A 
ATOM     82  C   UNL A   1      47.337  31.007  28.474  1.00  0.00     0.173 A 
ATOM     83  C   UNL A   1      44.986  31.322  28.107  1.00  0.00     0.173 A 
ATOM     84  F   UNL A   1      48.372  30.338  29.002  1.00  0.00    -0.203 F 
ATOM     85  C   UNL A   1      47.611  32.061  27.606  1.00  0.00     0.198 A 
ATOM     86  C   UNL A   1      45.263  32.348  27.209  1.00  0.00     0.198 A 
ATOM     87  F   UNL A   1      43.705  30.977  28.317  1.00  0.00    -0.203 F 
ATOM     88  F   UNL A   1      48.880  32.426  27.370  1.00  0.00    -0.200 F 
ATOM     89  C   UNL A   1      46.574  32.731  26.974  1.00  0.00     0.200 A 
ATOM     90  F   UNL A   1      44.259  32.964  26.569  1.00  0.00    -0.200 F 
ATOM     91  F   UNL A   1      46.838  33.736  26.127  1.00  0.00    -0.200 F 
ENDBRANCH  58  81
ENDBRANCH  32  33
ENDBRANCH  25  27
ENDBRANCH  24  25
ENDBRANCH  23  24
ENDBRANCH   1  23
TORSDOF 15
ENDMDL
MODEL 2
REMARK VINA RESULT:     -12.3      1.413      3.571
REMARK SMILES CCc1nn(C)c(C[C@@H](C(=O)OCCOC(=O)c2ccc(-c3c4nc(c(-c5c(F)c(F)c(F)c(F)c5F)c5ccc([nH]5)c(-c5c(F)c(F)c(F)c(F)c5F)c5nc(c(-c6c(F)c(F)c(F)c(F)c6F)c6ccc3[nH]6)C=C5)C=C4)cc2)c2cccc(C)c2)c1Br
REMARK SMILES IDX 13 1 12 2 10 3 11 4 9 5 8 6 7 7 3 8 4 9 88 10 5 11 89 12
REMARK SMILES IDX 6 13 2 14 1 15 81 16 82 17 87 18 83 19 85 20 84 21 86 22
REMARK SMILES IDX 14 23 15 24 16 25 17 26 18 27 19 28 80 29 20 30 79 31 21 32
REMARK SMILES IDX 22 33 23 34 73 35 24 36 78 37 72 38 74 39 25 40 77 41 71 42
REMARK SMILES IDX 70 43 26 45 58 46 38 47 57 48 39 49 42 50 56 51 75 52 40 53
REMARK SMILES IDX 41 54 55 56 76 57 43 58 27 59 28 60 36 61 29 62 30 63 34 64
REMARK SMILES IDX 37 65 31 66 32 67 35 68 33 69 59 70 60 71 68 72 61 73 62 74
REMARK SMILES IDX 66 75 69 76 63 77 64 78 67 79 65 80 44 81 45 82 53 83 46 84
REMARK SMILES IDX 47 85 51 86 54 87 48 88 49 89 52 90 50 91
REMARK H PARENT 74 44 42 55
REMARK Flexibility Score: inf
ROOT
ATOM      1  C   UNL A   1      32.727  28.976  25.962  1.00  0.00     0.274 C 
ENDROOT
BRANCH   1   2
ATOM      2  O   UNL A   1      33.152  29.313  24.620  1.00  0.00    -0.462 OA
BRANCH   2   3
ATOM      3  C   UNL A   1      32.440  28.754  23.596  1.00  0.00     0.313 C 
ATOM      4  O   UNL A   1      32.738  28.907  22.416  1.00  0.00    -0.252 OA
BRANCH   3   5
ATOM      5  C   UNL A   1      31.186  28.001  24.091  1.00  0.00     0.135 C 
BRANCH   5   6
ATOM      6  C   UNL A   1      31.081  26.528  23.633  1.00  0.00     0.077 C 
BRANCH   6   7
ATOM      7  C   UNL A   1      32.388  25.795  23.519  1.00  0.00     0.054 A 
ATOM      8  C   UNL A   1      34.245  24.582  23.839  1.00  0.00     0.077 A 
ATOM      9  N   UNL A   1      34.154  24.774  22.516  1.00  0.00    -0.177 NA
ATOM     10  C   UNL A   1      33.173  25.222  24.499  1.00  0.00     0.062 A 
ATOM     11  N   UNL A   1      33.013  25.467  22.343  1.00  0.00    -0.271 N 
ATOM     12  Br  UNL A   1      32.847  25.261  26.345  1.00  0.00    -0.047 Br
ATOM     13  C   UNL A   1      32.625  25.732  20.980  1.00  0.00     0.174 C 
BRANCH   8  14
ATOM     14  C   UNL A   1      35.412  23.796  24.341  1.00  0.00     0.056 C 
ATOM     15  C   UNL A   1      36.138  22.956  23.305  1.00  0.00     0.011 C 
ENDBRANCH   8  14
ENDBRANCH   6   7
ENDBRANCH   5   6
BRANCH   5  16
ATOM     16  C   UNL A   1      29.910  28.741  23.655  1.00  0.00    -0.033 A 
ATOM     17  C   UNL A   1      28.771  28.036  23.249  1.00  0.00     0.004 A 
ATOM     18  C   UNL A   1      29.857  30.146  23.664  1.00  0.00     0.008 A 
ATOM     19  C   UNL A   1      27.611  28.723  22.881  1.00  0.00     0.001 A 
ATOM     20  C   UNL A   1      28.693  30.844  23.316  1.00  0.00    -0.051 A 
ATOM     21  C   UNL A   1      27.567  30.118  22.929  1.00  0.00     0.003 A 
ATOM     22  C   UNL A   1      28.634  32.339  23.432  1.00  0.00     0.044 C 
ENDBRANCH   5  16
ENDBRANCH   3   5
ENDBRANCH   2   3
ENDBRANCH   1   2
BRANCH   1  23
ATOM     23  C   UNL A   1      33.004  30.086  26.983  1.00  0.00     0.275 C 
BRANCH  23  24
ATOM     24  O   UNL A   1      34.286  30.721  26.843  1.00  0.00    -0.458 OA
BRANCH  24  25
ATOM     25  C   UNL A   1      34.678  31.388  27.945  1.00  0.00     0.338 C 
ATOM     26  O   UNL A   1      34.236  32.440  28.367  1.00  0.00    -0.246 OA
BRANCH  25  27
ATOM     27  C   UNL A   1      35.860  30.812  28.573  1.00  0.00     0.060 A 
ATOM     28  C   UNL A   1      36.858  31.709  28.948  1.00  0.00     0.016 A 
ATOM     29  C   UNL A   1      36.114  29.447  28.462  1.00  0.00     0.016 A 
ATOM     30  C   UNL A   1      38.157  31.264  29.070  1.00  0.00     0.010 A 
ATOM     31  C   UNL A   1      37.412  28.991  28.658  1.00  0.00     0.010 A 
ATOM     32  C   UNL A   1      38.450  29.906  28.889  1.00  0.00    -0.014 A 
BRANCH  32  33
ATOM     33  C   UNL A   1      39.854  29.505  29.059  1.00  0.00     0.031 A 
ATOM     34  C   UNL A   1      40.346  29.488  30.469  1.00  0.00     0.074 A 
ATOM     35  C   UNL A   1      40.646  29.054  28.065  1.00  0.00     0.049 A 
ATOM     36  N   UNL A   1      41.437  29.999  30.949  1.00  0.00    -0.248 NA
ATOM     37  C   UNL A   1      39.464  28.886  31.486  1.00  0.00     0.031 C 
ATOM     38  C   UNL A   1      40.259  28.796  26.676  1.00  0.00     0.029 A 
ATOM     39  N   UNL A   1      41.938  28.595  28.122  1.00  0.00    -0.354 N 
ATOM     40  C   UNL A   1      41.448  29.658  32.298  1.00  0.00     0.074 A 
ATOM     41  C   UNL A   1      40.168  29.074  32.601  1.00  0.00     0.031 C 
ATOM     42  C   UNL A   1      41.180  27.993  26.107  1.00  0.00     0.029 A 
ATOM     43  C   UNL A   1      42.276  27.796  27.042  1.00  0.00     0.049 A 
ATOM     44  H   UNL A   1      42.559  28.812  28.855  1.00  0.00     0.167 HD
ATOM     45  C   UNL A   1      42.585  29.664  33.041  1.00  0.00     0.037 A 
ATOM     46  C   UNL A   1      43.335  26.963  26.930  1.00  0.00     0.037 A 
ATOM     47  C   UNL A   1      43.649  30.419  32.451  1.00  0.00     0.049 A 
ATOM     48  C   UNL A   1      44.401  27.393  27.861  1.00  0.00     0.074 A 
ATOM     49  C   UNL A   1      44.019  31.741  32.374  1.00  0.00     0.029 A 
ATOM     50  N   UNL A   1      44.420  29.728  31.561  1.00  0.00    -0.354 N 
ATOM     51  N   UNL A   1      45.093  28.488  27.723  1.00  0.00    -0.248 NA
ATOM     52  C   UNL A   1      44.586  26.697  29.131  1.00  0.00     0.031 C 
ATOM     53  C   UNL A   1      44.925  31.844  31.276  1.00  0.00     0.029 A 
ATOM     54  C   UNL A   1      45.062  30.582  30.704  1.00  0.00     0.049 A 
ATOM     55  H   UNL A   1      44.505  28.747  31.540  1.00  0.00     0.167 HD
ATOM     56  C   UNL A   1      45.448  28.829  29.011  1.00  0.00     0.074 A 
ATOM     57  C   UNL A   1      45.300  27.612  29.790  1.00  0.00     0.031 C 
ATOM     58  C   UNL A   1      45.480  30.135  29.397  1.00  0.00     0.037 A 
BRANCH  45  59
ATOM     59  C   UNL A   1      42.858  28.628  34.098  1.00  0.00     0.064 A 
ATOM     60  C   UNL A   1      43.155  29.018  35.416  1.00  0.00     0.173 A 
ATOM     61  C   UNL A   1      43.131  27.280  33.776  1.00  0.00     0.173 A 
ATOM     62  F   UNL A   1      42.988  30.292  35.802  1.00  0.00    -0.203 F 
ATOM     63  C   UNL A   1      43.697  28.119  36.340  1.00  0.00     0.198 A 
ATOM     64  C   UNL A   1      43.620  26.375  34.712  1.00  0.00     0.198 A 
ATOM     65  F   UNL A   1      43.035  26.829  32.516  1.00  0.00    -0.203 F 
ATOM     66  F   UNL A   1      44.052  28.549  37.559  1.00  0.00    -0.200 F 
ATOM     67  C   UNL A   1      43.922  26.798  35.990  1.00  0.00     0.200 A 
ATOM     68  F   UNL A   1      43.862  25.109  34.344  1.00  0.00    -0.200 F 
ATOM     69  F   UNL A   1      44.476  25.946  36.863  1.00  0.00    -0.200 F 
ENDBRANCH  45  59
BRANCH  46  70
ATOM     70  C   UNL A   1      43.417  25.706  26.155  1.00  0.00     0.064 A 
ATOM     71  C   UNL A   1      44.521  25.429  25.333  1.00  0.00     0.173 A 
ATOM     72  C   UNL A   1      42.523  24.641  26.384  1.00  0.00     0.173 A 
ATOM     73  F   UNL A   1      45.449  26.371  25.107  1.00  0.00    -0.203 F 
ATOM     74  C   UNL A   1      44.722  24.161  24.781  1.00  0.00     0.198 A 
ATOM     75  C   UNL A   1      42.714  23.383  25.817  1.00  0.00     0.198 A 
ATOM     76  F   UNL A   1      41.493  24.775  27.232  1.00  0.00    -0.203 F 
ATOM     77  F   UNL A   1      45.820  23.918  24.052  1.00  0.00    -0.200 F 
ATOM     78  C   UNL A   1      43.820  23.139  25.025  1.00  0.00     0.200 A 
ATOM     79  F   UNL A   1      41.849  22.395  26.087  1.00  0.00    -0.200 F 
ATOM     80  F   UNL A   1      44.037  21.911  24.533  1.00  0.00    -0.200 F 
ENDBRANCH  46  70
BRANCH  58  81
ATOM     81  C   UNL A   1      45.737  31.147  28.327  1.00  0.00     0.064 A 
ATOM     82  C   UNL A   1      47.018  31.523  27.894  1.00  0.00     0.173 A 
ATOM     83  C   UNL A   1      44.636  31.749  27.704  1.00  0.00     0.173 A 
ATOM     84  F   UNL A   1      48.113  30.922  28.381  1.00  0.00    -0.203 F 
ATOM     85  C   UNL A   1      47.186  32.514  26.930  1.00  0.00     0.198 A 
ATOM     86  C   UNL A   1      44.806  32.710  26.712  1.00  0.00     0.198 A 
ATOM     87  F   UNL A   1      43.388  31.390  28.046  1.00  0.00    -0.203 F 
ATOM     88  F   UNL A   1      48.419  32.891  26.561  1.00  0.00    -0.200 F 
ATOM     89  C   UNL A   1      46.080  33.106  26.339  1.00  0.00     0.200 A 
ATOM     90  F   UNL A   1      43.734  33.250  26.115  1.00  0.00    -0.200 F 
ATOM     91  F   UNL A   1      46.242  34.050  25.401  1.00  0.00    -0.200 F 
ENDBRANCH  58  81
ENDBRANCH  32  33
ENDBRANCH  25  27
ENDBRANCH  24  25
ENDBRANCH  23  24
ENDBRANCH   1  23
TORSDOF 15
ENDMDL
MODEL 3
REMARK VINA RESULT:     -12.3      1.336      2.904
REMARK SMILES CCc1nn(C)c(C[C@@H](C(=O)OCCOC(=O)c2ccc(-c3c4nc(c(-c5c(F)c(F)c(F)c(F)c5F)c5ccc([nH]5)c(-c5c(F)c(F)c(F)c(F)c5F)c5nc(c(-c6c(F)c(F)c(F)c(F)c6F)c6ccc3[nH]6)C=C5)C=C4)cc2)c2cccc(C)c2)c1Br
REMARK SMILES IDX 13 1 12 2 10 3 11 4 9 5 8 6 7 7 3 8 4 9 88 10 5 11 89 12
REMARK SMILES IDX 6 13 2 14 1 15 81 16 82 17 87 18 83 19 85 20 84 21 86 22
REMARK SMILES IDX 14 23 15 24 16 25 17 26 18 27 19 28 80 29 20 30 79 31 21 32
REMARK SMILES IDX 22 33 23 34 73 35 24 36 78 37 72 38 74 39 25 40 77 41 71 42
REMARK SMILES IDX 70 43 26 45 58 46 38 47 57 48 39 49 42 50 56 51 75 52 40 53
REMARK SMILES IDX 41 54 55 56 76 57 43 58 27 59 28 60 36 61 29 62 30 63 34 64
REMARK SMILES IDX 37 65 31 66 32 67 35 68 33 69 59 70 60 71 68 72 61 73 62 74
REMARK SMILES IDX 66 75 69 76 63 77 64 78 67 79 65 80 44 81 45 82 53 83 46 84
REMARK SMILES IDX 47 85 51 86 54 87 48 88 49 89 52 90 50 91
REMARK H PARENT 74 44 42 55
REMARK Flexibility Score: inf
ROOT
ATOM      1  C   UNL A   1      32.135  30.181  26.857  1.00  0.00     0.274 C 
ENDROOT
BRANCH   1   2
ATOM      2  O   UNL A   1      32.670  28.837  26.788  1.00  0.00    -0.462 OA
BRANCH   2   3
ATOM      3  C   UNL A   1      31.834  27.828  27.175  1.00  0.00     0.313 C 
ATOM      4  O   UNL A   1      31.256  27.821  28.258  1.00  0.00    -0.252 OA
BRANCH   3   5
ATOM      5  C   UNL A   1      31.782  26.677  26.148  1.00  0.00     0.135 C 
BRANCH   5   6
ATOM      6  C   UNL A   1      33.121  26.371  25.436  1.00  0.00     0.077 C 
BRANCH   6   7
ATOM      7  C   UNL A   1      33.160  25.082  24.667  1.00  0.00     0.054 A 
ATOM      8  C   UNL A   1      33.016  22.964  23.948  1.00  0.00     0.077 A 
ATOM      9  N   UNL A   1      33.277  23.704  22.862  1.00  0.00    -0.177 NA
ATOM     10  C   UNL A   1      32.957  23.785  25.095  1.00  0.00     0.062 A 
ATOM     11  N   UNL A   1      33.318  24.973  23.308  1.00  0.00    -0.271 N 
ATOM     12  Br  UNL A   1      32.630  23.239  26.859  1.00  0.00    -0.047 Br
ATOM     13  C   UNL A   1      33.496  25.998  22.310  1.00  0.00     0.174 C 
BRANCH   8  14
ATOM     14  C   UNL A   1      32.874  21.489  23.756  1.00  0.00     0.056 C 
ATOM     15  C   UNL A   1      33.881  20.627  24.496  1.00  0.00     0.011 C 
ENDBRANCH   8  14
ENDBRANCH   6   7
ENDBRANCH   5   6
BRANCH   5  16
ATOM     16  C   UNL A   1      30.714  26.960  25.079  1.00  0.00    -0.033 A 
ATOM     17  C   UNL A   1      29.580  26.148  24.958  1.00  0.00     0.004 A 
ATOM     18  C   UNL A   1      30.850  28.050  24.201  1.00  0.00     0.008 A 
ATOM     19  C   UNL A   1      28.606  26.435  23.999  1.00  0.00     0.001 A 
ATOM     20  C   UNL A   1      29.870  28.358  23.247  1.00  0.00    -0.051 A 
ATOM     21  C   UNL A   1      28.742  27.542  23.159  1.00  0.00     0.003 A 
ATOM     22  C   UNL A   1      29.992  29.585  22.393  1.00  0.00     0.044 C 
ENDBRANCH   5  16
ENDBRANCH   3   5
ENDBRANCH   2   3
ENDBRANCH   1   2
BRANCH   1  23
ATOM     23  C   UNL A   1      33.178  31.229  27.264  1.00  0.00     0.275 C 
BRANCH  23  24
ATOM     24  O   UNL A   1      34.543  30.820  27.071  1.00  0.00    -0.458 OA
BRANCH  24  25
ATOM     25  C   UNL A   1      35.432  31.595  27.721  1.00  0.00     0.338 C 
ATOM     26  O   UNL A   1      35.506  32.809  27.702  1.00  0.00    -0.246 OA
BRANCH  25  27
ATOM     27  C   UNL A   1      36.483  30.831  28.382  1.00  0.00     0.060 A 
ATOM     28  C   UNL A   1      37.526  31.568  28.938  1.00  0.00     0.016 A 
ATOM     29  C   UNL A   1      36.605  29.464  28.145  1.00  0.00     0.016 A 
ATOM     30  C   UNL A   1      38.754  30.971  29.122  1.00  0.00     0.010 A 
ATOM     31  C   UNL A   1      37.824  28.848  28.401  1.00  0.00     0.010 A 
ATOM     32  C   UNL A   1      38.923  29.613  28.820  1.00  0.00    -0.014 A 
BRANCH  32  33
ATOM     33  C   UNL A   1      40.255  29.043  29.065  1.00  0.00     0.031 A 
ATOM     34  C   UNL A   1      40.626  28.885  30.503  1.00  0.00     0.074 A 
ATOM     35  C   UNL A   1      41.070  28.563  28.104  1.00  0.00     0.049 A 
ATOM     36  N   UNL A   1      41.724  29.237  31.097  1.00  0.00    -0.248 NA
ATOM     37  C   UNL A   1      39.603  28.330  31.408  1.00  0.00     0.031 C 
ATOM     38  C   UNL A   1      40.771  28.435  26.676  1.00  0.00     0.029 A 
ATOM     39  N   UNL A   1      42.294  27.955  28.225  1.00  0.00    -0.354 N 
ATOM     40  C   UNL A   1      41.588  28.817  32.416  1.00  0.00     0.074 A 
ATOM     41  C   UNL A   1      40.230  28.368  32.583  1.00  0.00     0.031 C 
ATOM     42  C   UNL A   1      41.641  27.566  26.122  1.00  0.00     0.029 A 
ATOM     43  C   UNL A   1      42.629  27.188  27.121  1.00  0.00     0.049 A 
ATOM     44  H   UNL A   1      42.874  28.055  29.014  1.00  0.00     0.167 HD
ATOM     45  C   UNL A   1      42.654  28.646  33.240  1.00  0.00     0.037 A 
ATOM     46  C   UNL A   1      43.594  26.246  27.030  1.00  0.00     0.037 A 
ATOM     47  C   UNL A   1      43.839  29.307  32.783  1.00  0.00     0.049 A 
ATOM     48  C   UNL A   1      44.622  26.493  28.065  1.00  0.00     0.074 A 
ATOM     49  C   UNL A   1      44.359  30.580  32.825  1.00  0.00     0.029 A 
ATOM     50  N   UNL A   1      44.599  28.586  31.908  1.00  0.00    -0.354 N 
ATOM     51  N   UNL A   1      45.440  27.507  28.053  1.00  0.00    -0.248 NA
ATOM     52  C   UNL A   1      44.624  25.706  29.295  1.00  0.00     0.031 C 
ATOM     53  C   UNL A   1      45.357  30.642  31.806  1.00  0.00     0.029 A 
ATOM     54  C   UNL A   1      45.400  29.409  31.161  1.00  0.00     0.049 A 
ATOM     55  H   UNL A   1      44.576  27.605  31.825  1.00  0.00     0.167 HD
ATOM     56  C   UNL A   1      45.725  27.727  29.385  1.00  0.00     0.074 A 
ATOM     57  C   UNL A   1      45.380  26.492  30.066  1.00  0.00     0.031 C 
ATOM     58  C   UNL A   1      45.871  28.996  29.861  1.00  0.00     0.037 A 
BRANCH  45  59
ATOM     59  C   UNL A   1      42.724  27.525  34.241  1.00  0.00     0.064 A 
ATOM     60  C   UNL A   1      43.157  26.247  33.848  1.00  0.00     0.173 A 
ATOM     61  C   UNL A   1      42.092  27.604  35.502  1.00  0.00     0.173 A 
ATOM     62  F   UNL A   1      43.714  26.058  32.643  1.00  0.00    -0.203 F 
ATOM     63  C   UNL A   1      42.959  25.126  34.660  1.00  0.00     0.198 A 
ATOM     64  C   UNL A   1      41.944  26.496  36.330  1.00  0.00     0.198 A 
ATOM     65  F   UNL A   1      41.501  28.733  35.919  1.00  0.00    -0.203 F 
ATOM     66  F   UNL A   1      43.302  23.910  34.213  1.00  0.00    -0.200 F 
ATOM     67  C   UNL A   1      42.359  25.252  35.902  1.00  0.00     0.200 A 
ATOM     68  F   UNL A   1      41.331  26.634  37.515  1.00  0.00    -0.200 F 
ATOM     69  F   UNL A   1      42.135  24.174  36.664  1.00  0.00    -0.200 F 
ENDBRANCH  45  59
BRANCH  46  70
ATOM     70  C   UNL A   1      43.599  25.036  26.179  1.00  0.00     0.064 A 
ATOM     71  C   UNL A   1      44.592  24.835  25.208  1.00  0.00     0.173 A 
ATOM     72  C   UNL A   1      42.762  23.938  26.459  1.00  0.00     0.173 A 
ATOM     73  F   UNL A   1      45.465  25.812  24.921  1.00  0.00    -0.203 F 
ATOM     74  C   UNL A   1      44.744  23.605  24.562  1.00  0.00     0.198 A 
ATOM     75  C   UNL A   1      42.902  22.718  25.799  1.00  0.00     0.198 A 
ATOM     76  F   UNL A   1      41.848  23.997  27.438  1.00  0.00    -0.203 F 
ATOM     77  F   UNL A   1      45.743  23.432  23.686  1.00  0.00    -0.200 F 
ATOM     78  C   UNL A   1      43.901  22.548  24.859  1.00  0.00     0.200 A 
ATOM     79  F   UNL A   1      42.098  21.694  26.120  1.00  0.00    -0.200 F 
ATOM     80  F   UNL A   1      44.075  21.355  24.273  1.00  0.00    -0.200 F 
ENDBRANCH  46  70
BRANCH  58  81
ATOM     81  C   UNL A   1      46.324  30.033  28.885  1.00  0.00     0.064 A 
ATOM     82  C   UNL A   1      47.671  30.305  28.598  1.00  0.00     0.173 A 
ATOM     83  C   UNL A   1      45.350  30.771  28.199  1.00  0.00     0.173 A 
ATOM     84  F   UNL A   1      48.652  29.576  29.148  1.00  0.00    -0.203 F 
ATOM     85  C   UNL A   1      48.024  31.324  27.717  1.00  0.00     0.198 A 
ATOM     86  C   UNL A   1      45.705  31.763  27.289  1.00  0.00     0.198 A 
ATOM     87  F   UNL A   1      44.047  30.517  28.399  1.00  0.00    -0.203 F 
ATOM     88  F   UNL A   1      49.317  31.599  27.490  1.00  0.00    -0.200 F 
ATOM     89  C   UNL A   1      47.041  32.052  27.063  1.00  0.00     0.200 A 
ATOM     90  F   UNL A   1      44.752  32.434  26.629  1.00  0.00    -0.200 F 
ATOM     91  F   UNL A   1      47.381  33.023  26.204  1.00  0.00    -0.200 F 
ENDBRANCH  58  81
ENDBRANCH  32  33
ENDBRANCH  25  27
ENDBRANCH  24  25
ENDBRANCH  23  24
ENDBRANCH   1  23
TORSDOF 15
ENDMDL
