MODEL 1
REMARK VINA RESULT:     -15.0      0.000      0.000
REMARK SMILES O=C(OCCOC(=O)c1ccc(-c2c3nc(c(-c4c(F)c(F)c(F)c(F)c4F)c4ccc([nH]4)c(-c4c(F)c(F)c(F)c(F)c4F)c4nc(c(-c5c(F)c(F)c(F)c(F)c5F)c5ccc2[nH]5)C=C4)C=C3)cc1)C1=Cc2cc(C(F)(F)F)ccc2O[C@@H]1C(F)(F)F
REMARK SMILES IDX 5 1 4 2 3 3 2 4 1 5 72 6 73 7 85 8 74 9 84 10 75 11 83 12
REMARK SMILES IDX 76 13 82 14 81 15 86 16 87 17 88 18 89 19 77 20 78 21 79 22
REMARK SMILES IDX 80 23 6 24 7 25 8 26 9 27 10 28 71 29 11 30 70 31 12 32
REMARK SMILES IDX 13 33 14 34 64 35 15 36 69 37 63 38 65 39 16 40 68 41 62 42
REMARK SMILES IDX 61 43 17 45 49 46 29 47 48 48 30 49 33 50 47 51 66 52 31 53
REMARK SMILES IDX 32 54 46 56 67 57 34 58 18 59 19 60 27 61 20 62 21 63 25 64
REMARK SMILES IDX 28 65 22 66 23 67 26 68 24 69 50 70 51 71 59 72 52 73 53 74
REMARK SMILES IDX 57 75 60 76 54 77 55 78 58 79 56 80 35 81 36 82 44 83 37 84
REMARK SMILES IDX 38 85 42 86 45 87 39 88 40 89 43 90 41 91
REMARK H PARENT 65 44 33 55
REMARK Flexibility Score: inf
ROOT
ATOM      1  C   UNL A   1      31.692  32.297  26.635  1.00  0.00     0.275 C 
ENDROOT
BRANCH   1   2
ATOM      2  C   UNL A   1      31.938  30.129  26.739  1.00  0.00     0.275 C 
BRANCH   2   3
ATOM      3  O   UNL A   1      32.267  29.191  25.562  1.00  0.00    -0.459 OA
BRANCH   3   4
ATOM      4  C   UNL A   1      31.846  27.936  25.761  1.00  0.00     0.338 C 
ATOM      5  O   UNL A   1      31.757  27.314  26.789  1.00  0.00    -0.246 OA
BRANCH   4   6
ATOM      6  C   UNL A   1      32.027  27.509  24.391  1.00  0.00     0.087 C 
ATOM      7  C   UNL A   1      33.296  26.866  24.131  1.00  0.00     0.027 C 
ATOM      8  C   UNL A   1      30.294  26.687  24.246  1.00  0.00     0.316 C 
ATOM      9  C   UNL A   1      33.465  25.113  23.882  1.00  0.00     0.018 A 
ATOM     10  O   UNL A   1      30.455  24.759  24.058  1.00  0.00    -0.475 OA
ATOM     11  C   UNL A   1      34.732  24.627  23.817  1.00  0.00     0.025 A 
ATOM     12  C   UNL A   1      32.126  24.014  23.941  1.00  0.00     0.128 A 
ATOM     13  C   UNL A   1      34.846  23.226  23.845  1.00  0.00     0.056 A 
ATOM     14  C   UNL A   1      32.298  22.660  23.957  1.00  0.00     0.048 A 
ATOM     15  C   UNL A   1      33.688  22.304  23.918  1.00  0.00     0.017 A 
BRANCH   8  16
ATOM     16  C   UNL A   1      29.765  27.902  23.318  1.00  0.00     0.430 C 
ATOM     17  F   UNL A   1      30.294  27.849  22.089  1.00  0.00    -0.167 F 
ATOM     18  F   UNL A   1      28.422  27.751  23.069  1.00  0.00    -0.167 F 
ATOM     19  F   UNL A   1      29.799  29.149  23.814  1.00  0.00    -0.167 F 
ENDBRANCH   8  16
BRANCH  13  20
ATOM     20  C   UNL A   1      36.287  22.730  23.793  1.00  0.00     0.416 C 
ATOM     21  F   UNL A   1      36.407  21.478  24.317  1.00  0.00    -0.166 F 
ATOM     22  F   UNL A   1      36.742  22.627  22.510  1.00  0.00    -0.166 F 
ATOM     23  F   UNL A   1      37.177  23.513  24.448  1.00  0.00    -0.166 F 
ENDBRANCH  13  20
ENDBRANCH   4   6
ENDBRANCH   3   4
ENDBRANCH   2   3
ENDBRANCH   1   2
BRANCH   1  24
ATOM     24  O   UNL A   1      32.376  33.417  27.779  1.00  0.00    -0.458 OA
BRANCH  24  25
ATOM     25  C   UNL A   1      33.481  34.202  28.033  1.00  0.00     0.338 C 
ATOM     26  O   UNL A   1      33.556  35.352  28.427  1.00  0.00    -0.246 OA
BRANCH  25  27
ATOM     27  C   UNL A   1      34.617  33.243  28.199  1.00  0.00     0.060 A 
ATOM     28  C   UNL A   1      35.929  33.734  28.038  1.00  0.00     0.016 A 
ATOM     29  C   UNL A   1      34.398  32.052  28.890  1.00  0.00     0.016 A 
ATOM     30  C   UNL A   1      36.987  33.138  28.747  1.00  0.00     0.010 A 
ATOM     31  C   UNL A   1      35.449  31.474  29.608  1.00  0.00     0.010 A 
ATOM     32  C   UNL A   1      36.740  32.040  29.585  1.00  0.00    -0.014 A 
BRANCH  32  33
ATOM     33  C   UNL A   1      37.871  31.249  30.130  1.00  0.00     0.031 A 
ATOM     34  C   UNL A   1      38.184  31.551  31.566  1.00  0.00     0.074 A 
ATOM     35  C   UNL A   1      38.617  30.373  29.426  1.00  0.00     0.049 A 
ATOM     36  N   UNL A   1      39.122  31.086  32.342  1.00  0.00    -0.248 NA
ATOM     37  C   UNL A   1      37.323  32.569  32.198  1.00  0.00     0.031 C 
ATOM     38  C   UNL A   1      38.435  30.007  28.023  1.00  0.00     0.029 A 
ATOM     39  N   UNL A   1      39.709  29.628  29.818  1.00  0.00    -0.354 N 
ATOM     40  C   UNL A   1      38.954  31.757  33.544  1.00  0.00     0.074 A 
ATOM     41  C   UNL A   1      37.907  32.729  33.366  1.00  0.00     0.031 C 
ATOM     42  C   UNL A   1      39.373  29.100  27.675  1.00  0.00     0.029 A 
ATOM     43  C   UNL A   1      40.232  28.826  28.827  1.00  0.00     0.049 A 
ATOM     44  H   UNL A   1      40.084  29.666  30.727  1.00  0.00     0.167 HD
ATOM     45  C   UNL A   1      39.585  31.554  34.719  1.00  0.00     0.037 A 
ATOM     46  C   UNL A   1      41.275  27.966  28.872  1.00  0.00     0.037 A 
ATOM     47  C   UNL A   1      40.643  30.606  34.884  1.00  0.00     0.049 A 
ATOM     48  C   UNL A   1      42.021  27.800  30.183  1.00  0.00     0.074 A 
ATOM     49  C   UNL A   1      41.368  30.309  36.019  1.00  0.00     0.029 A 
ATOM     50  N   UNL A   1      41.137  29.810  33.860  1.00  0.00    -0.354 N 
ATOM     51  N   UNL A   1      41.807  28.375  31.343  1.00  0.00    -0.248 NA
ATOM     52  C   UNL A   1      43.145  26.851  30.193  1.00  0.00     0.031 C 
ATOM     53  C   UNL A   1      42.346  29.375  35.667  1.00  0.00     0.029 A 
ATOM     54  C   UNL A   1      42.176  29.033  34.332  1.00  0.00     0.049 A 
ATOM     55  H   UNL A   1      40.798  29.802  32.936  1.00  0.00     0.167 HD
ATOM     56  C   UNL A   1      42.722  27.816  32.229  1.00  0.00     0.074 A 
ATOM     57  C   UNL A   1      43.497  26.858  31.471  1.00  0.00     0.031 C 
ATOM     58  C   UNL A   1      42.903  28.062  33.553  1.00  0.00     0.037 A 
BRANCH  45  59
ATOM     59  C   UNL A   1      39.140  32.413  35.864  1.00  0.00     0.064 A 
ATOM     60  C   UNL A   1      39.651  33.710  36.051  1.00  0.00     0.173 A 
ATOM     61  C   UNL A   1      38.292  31.891  36.848  1.00  0.00     0.173 A 
ATOM     62  F   UNL A   1      40.503  34.237  35.158  1.00  0.00    -0.203 F 
ATOM     63  C   UNL A   1      39.379  34.424  37.214  1.00  0.00     0.198 A 
ATOM     64  C   UNL A   1      37.987  32.627  37.989  1.00  0.00     0.198 A 
ATOM     65  F   UNL A   1      37.792  30.653  36.725  1.00  0.00    -0.203 F 
ATOM     66  F   UNL A   1      39.968  35.610  37.423  1.00  0.00    -0.200 F 
ATOM     67  C   UNL A   1      38.546  33.883  38.180  1.00  0.00     0.200 A 
ATOM     68  F   UNL A   1      37.181  32.106  38.923  1.00  0.00    -0.200 F 
ATOM     69  F   UNL A   1      38.301  34.561  39.309  1.00  0.00    -0.200 F 
ENDBRANCH  45  59
BRANCH  46  70
ATOM     70  C   UNL A   1      41.668  27.148  27.684  1.00  0.00     0.064 A 
ATOM     71  C   UNL A   1      41.140  25.860  27.488  1.00  0.00     0.173 A 
ATOM     72  C   UNL A   1      42.629  27.590  26.763  1.00  0.00     0.173 A 
ATOM     73  F   UNL A   1      40.245  25.366  28.356  1.00  0.00    -0.203 F 
ATOM     74  C   UNL A   1      41.574  25.043  26.443  1.00  0.00     0.198 A 
ATOM     75  C   UNL A   1      43.044  26.782  25.701  1.00  0.00     0.198 A 
ATOM     76  F   UNL A   1      43.184  28.803  26.903  1.00  0.00    -0.203 F 
ATOM     77  F   UNL A   1      41.098  23.795  26.326  1.00  0.00    -0.200 F 
ATOM     78  C   UNL A   1      42.525  25.506  25.548  1.00  0.00     0.200 A 
ATOM     79  F   UNL A   1      43.965  27.233  24.836  1.00  0.00    -0.200 F 
ATOM     80  F   UNL A   1      42.952  24.718  24.551  1.00  0.00    -0.200 F 
ENDBRANCH  46  70
BRANCH  58  81
ATOM     81  C   UNL A   1      43.912  27.229  34.289  1.00  0.00     0.064 A 
ATOM     82  C   UNL A   1      43.588  25.991  34.860  1.00  0.00     0.173 A 
ATOM     83  C   UNL A   1      45.251  27.650  34.348  1.00  0.00     0.173 A 
ATOM     84  F   UNL A   1      42.323  25.544  34.834  1.00  0.00    -0.203 F 
ATOM     85  C   UNL A   1      44.561  25.219  35.490  1.00  0.00     0.198 A 
ATOM     86  C   UNL A   1      46.228  26.857  34.942  1.00  0.00     0.198 A 
ATOM     87  F   UNL A   1      45.619  28.819  33.800  1.00  0.00    -0.203 F 
ATOM     88  F   UNL A   1      44.220  24.062  36.075  1.00  0.00    -0.200 F 
ATOM     89  C   UNL A   1      45.880  25.648  35.521  1.00  0.00     0.200 A 
ATOM     90  F   UNL A   1      47.505  27.261  34.944  1.00  0.00    -0.200 F 
ATOM     91  F   UNL A   1      46.818  24.895  36.112  1.00  0.00    -0.200 F 
ENDBRANCH  58  81
ENDBRANCH  32  33
ENDBRANCH  25  27
ENDBRANCH  24  25
ENDBRANCH   1  24
TORSDOF 13
ENDMDL
MODEL 2
REMARK VINA RESULT:     -14.9      4.733     10.307
REMARK SMILES O=C(OCCOC(=O)c1ccc(-c2c3nc(c(-c4c(F)c(F)c(F)c(F)c4F)c4ccc([nH]4)c(-c4c(F)c(F)c(F)c(F)c4F)c4nc(c(-c5c(F)c(F)c(F)c(F)c5F)c5ccc2[nH]5)C=C4)C=C3)cc1)C1=Cc2cc(C(F)(F)F)ccc2O[C@@H]1C(F)(F)F
REMARK SMILES IDX 5 1 4 2 3 3 2 4 1 5 72 6 73 7 85 8 74 9 84 10 75 11 83 12
REMARK SMILES IDX 76 13 82 14 81 15 86 16 87 17 88 18 89 19 77 20 78 21 79 22
REMARK SMILES IDX 80 23 6 24 7 25 8 26 9 27 10 28 71 29 11 30 70 31 12 32
REMARK SMILES IDX 13 33 14 34 64 35 15 36 69 37 63 38 65 39 16 40 68 41 62 42
REMARK SMILES IDX 61 43 17 45 49 46 29 47 48 48 30 49 33 50 47 51 66 52 31 53
REMARK SMILES IDX 32 54 46 56 67 57 34 58 18 59 19 60 27 61 20 62 21 63 25 64
REMARK SMILES IDX 28 65 22 66 23 67 26 68 24 69 50 70 51 71 59 72 52 73 53 74
REMARK SMILES IDX 57 75 60 76 54 77 55 78 58 79 56 80 35 81 36 82 44 83 37 84
REMARK SMILES IDX 38 85 42 86 45 87 39 88 40 89 43 90 41 91
REMARK H PARENT 65 44 33 55
REMARK Flexibility Score: inf
ROOT
ATOM      1  C   UNL A   1      37.808  20.037  24.882  1.00  0.00     0.275 C 
ENDROOT
BRANCH   1   2
ATOM      2  C   UNL A   1      35.705  20.581  25.105  1.00  0.00     0.275 C 
BRANCH   2   3
ATOM      3  O   UNL A   1      35.158  21.965  25.508  1.00  0.00    -0.459 OA
BRANCH   3   4
ATOM      4  C   UNL A   1      35.301  22.883  24.545  1.00  0.00     0.338 C 
ATOM      5  O   UNL A   1      36.308  23.355  24.083  1.00  0.00    -0.246 OA
BRANCH   4   6
ATOM      6  C   UNL A   1      33.954  23.402  24.646  1.00  0.00     0.087 C 
ATOM      7  C   UNL A   1      33.793  24.453  25.626  1.00  0.00     0.027 C 
ATOM      8  C   UNL A   1      33.705  23.579  22.747  1.00  0.00     0.316 C 
ATOM      9  C   UNL A   1      33.587  26.165  25.189  1.00  0.00     0.018 A 
ATOM     10  O   UNL A   1      33.562  25.450  22.238  1.00  0.00    -0.475 OA
ATOM     11  C   UNL A   1      33.617  27.060  26.210  1.00  0.00     0.025 A 
ATOM     12  C   UNL A   1      33.574  26.731  23.551  1.00  0.00     0.128 A 
ATOM     13  C   UNL A   1      33.677  28.413  25.828  1.00  0.00     0.056 A 
ATOM     14  C   UNL A   1      33.625  28.059  23.241  1.00  0.00     0.048 A 
ATOM     15  C   UNL A   1      33.687  28.874  24.420  1.00  0.00     0.017 A 
BRANCH   8  16
ATOM     16  C   UNL A   1      32.722  22.295  22.727  1.00  0.00     0.430 C 
ATOM     17  F   UNL A   1      31.506  22.598  23.201  1.00  0.00    -0.167 F 
ATOM     18  F   UNL A   1      32.452  21.930  21.430  1.00  0.00    -0.167 F 
ATOM     19  F   UNL A   1      33.172  21.136  23.234  1.00  0.00    -0.167 F 
ENDBRANCH   8  16
BRANCH  13  20
ATOM     20  C   UNL A   1      33.733  29.378  27.007  1.00  0.00     0.416 C 
ATOM     21  F   UNL A   1      34.146  30.618  26.624  1.00  0.00    -0.166 F 
ATOM     22  F   UNL A   1      32.501  29.566  27.566  1.00  0.00    -0.166 F 
ATOM     23  F   UNL A   1      34.550  28.990  28.016  1.00  0.00    -0.166 F 
ENDBRANCH  13  20
ENDBRANCH   4   6
ENDBRANCH   3   4
ENDBRANCH   2   3
ENDBRANCH   1   2
BRANCH   1  24
ATOM     24  O   UNL A   1      39.123  20.869  25.662  1.00  0.00    -0.458 OA
BRANCH  24  25
ATOM     25  C   UNL A   1      40.090  20.741  26.637  1.00  0.00     0.338 C 
ATOM     26  O   UNL A   1      40.954  19.895  26.783  1.00  0.00    -0.246 OA
BRANCH  25  27
ATOM     27  C   UNL A   1      40.215  22.100  27.250  1.00  0.00     0.060 A 
ATOM     28  C   UNL A   1      41.274  22.326  28.154  1.00  0.00     0.016 A 
ATOM     29  C   UNL A   1      39.583  23.179  26.633  1.00  0.00     0.016 A 
ATOM     30  C   UNL A   1      41.826  23.614  28.271  1.00  0.00     0.010 A 
ATOM     31  C   UNL A   1      40.147  24.453  26.737  1.00  0.00     0.010 A 
ATOM     32  C   UNL A   1      41.302  24.673  27.515  1.00  0.00    -0.014 A 
BRANCH  32  33
ATOM     33  C   UNL A   1      41.697  26.071  27.817  1.00  0.00     0.031 A 
ATOM     34  C   UNL A   1      43.064  26.435  27.315  1.00  0.00     0.074 A 
ATOM     35  C   UNL A   1      40.962  26.952  28.525  1.00  0.00     0.049 A 
ATOM     36  N   UNL A   1      43.741  27.542  27.435  1.00  0.00    -0.248 NA
ATOM     37  C   UNL A   1      43.781  25.358  26.604  1.00  0.00     0.031 C 
ATOM     38  C   UNL A   1      39.632  26.720  29.088  1.00  0.00     0.029 A 
ATOM     39  N   UNL A   1      41.252  28.247  28.900  1.00  0.00    -0.354 N 
ATOM     40  C   UNL A   1      44.955  27.284  26.814  1.00  0.00     0.074 A 
ATOM     41  C   UNL A   1      44.966  25.900  26.419  1.00  0.00     0.031 C 
ATOM     42  C   UNL A   1      39.219  27.836  29.725  1.00  0.00     0.029 A 
ATOM     43  C   UNL A   1      40.256  28.863  29.626  1.00  0.00     0.049 A 
ATOM     44  H   UNL A   1      42.098  28.693  28.668  1.00  0.00     0.167 HD
ATOM     45  C   UNL A   1      45.966  28.139  26.551  1.00  0.00     0.037 A 
ATOM     46  C   UNL A   1      40.204  30.116  30.130  1.00  0.00     0.037 A 
ATOM     47  C   UNL A   1      45.962  29.505  26.970  1.00  0.00     0.049 A 
ATOM     48  C   UNL A   1      41.380  31.045  29.886  1.00  0.00     0.074 A 
ATOM     49  C   UNL A   1      46.926  30.472  26.773  1.00  0.00     0.029 A 
ATOM     50  N   UNL A   1      44.935  30.091  27.697  1.00  0.00    -0.354 N 
ATOM     51  N   UNL A   1      42.493  30.826  29.226  1.00  0.00    -0.248 NA
ATOM     52  C   UNL A   1      41.282  32.403  30.445  1.00  0.00     0.031 C 
ATOM     53  C   UNL A   1      46.509  31.630  27.435  1.00  0.00     0.029 A 
ATOM     54  C   UNL A   1      45.250  31.406  27.975  1.00  0.00     0.049 A 
ATOM     55  H   UNL A   1      44.106  29.637  27.972  1.00  0.00     0.167 HD
ATOM     56  C   UNL A   1      43.195  32.026  29.238  1.00  0.00     0.074 A 
ATOM     57  C   UNL A   1      42.383  32.972  29.974  1.00  0.00     0.031 C 
ATOM     58  C   UNL A   1      44.397  32.328  28.683  1.00  0.00     0.037 A 
BRANCH  45  59
ATOM     59  C   UNL A   1      47.137  27.565  25.811  1.00  0.00     0.064 A 
ATOM     60  C   UNL A   1      48.257  27.054  26.492  1.00  0.00     0.173 A 
ATOM     61  C   UNL A   1      47.193  27.643  24.415  1.00  0.00     0.173 A 
ATOM     62  F   UNL A   1      48.269  27.002  27.833  1.00  0.00    -0.203 F 
ATOM     63  C   UNL A   1      49.413  26.702  25.801  1.00  0.00     0.198 A 
ATOM     64  C   UNL A   1      48.336  27.248  23.725  1.00  0.00     0.198 A 
ATOM     65  F   UNL A   1      46.159  28.139  23.721  1.00  0.00    -0.203 F 
ATOM     66  F   UNL A   1      50.507  26.326  26.478  1.00  0.00    -0.200 F 
ATOM     67  C   UNL A   1      49.450  26.797  24.419  1.00  0.00     0.200 A 
ATOM     68  F   UNL A   1      48.373  27.338  22.389  1.00  0.00    -0.200 F 
ATOM     69  F   UNL A   1      50.570  26.479  23.757  1.00  0.00    -0.200 F 
ENDBRANCH  45  59
BRANCH  46  70
ATOM     70  C   UNL A   1      39.003  30.616  30.868  1.00  0.00     0.064 A 
ATOM     71  C   UNL A   1      38.932  30.536  32.269  1.00  0.00     0.173 A 
ATOM     72  C   UNL A   1      37.872  31.108  30.198  1.00  0.00     0.173 A 
ATOM     73  F   UNL A   1      39.967  30.039  32.963  1.00  0.00    -0.203 F 
ATOM     74  C   UNL A   1      37.778  30.900  32.964  1.00  0.00     0.198 A 
ATOM     75  C   UNL A   1      36.727  31.498  30.897  1.00  0.00     0.198 A 
ATOM     76  F   UNL A   1      37.869  31.193  28.860  1.00  0.00    -0.203 F 
ATOM     77  F   UNL A   1      37.722  30.748  34.295  1.00  0.00    -0.200 F 
ATOM     78  C   UNL A   1      36.676  31.384  32.277  1.00  0.00     0.200 A 
ATOM     79  F   UNL A   1      35.661  31.964  30.229  1.00  0.00    -0.200 F 
ATOM     80  F   UNL A   1      35.562  31.722  32.943  1.00  0.00    -0.200 F 
ENDBRANCH  46  70
BRANCH  58  81
ATOM     81  C   UNL A   1      44.871  33.751  28.769  1.00  0.00     0.064 A 
ATOM     82  C   UNL A   1      45.717  34.198  29.794  1.00  0.00     0.173 A 
ATOM     83  C   UNL A   1      44.532  34.660  27.754  1.00  0.00     0.173 A 
ATOM     84  F   UNL A   1      46.069  33.370  30.790  1.00  0.00    -0.203 F 
ATOM     85  C   UNL A   1      46.180  35.511  29.815  1.00  0.00     0.198 A 
ATOM     86  C   UNL A   1      45.029  35.959  27.757  1.00  0.00     0.198 A 
ATOM     87  F   UNL A   1      43.739  34.278  26.740  1.00  0.00    -0.203 F 
ATOM     88  F   UNL A   1      46.946  35.932  30.832  1.00  0.00    -0.200 F 
ATOM     89  C   UNL A   1      45.845  36.385  28.792  1.00  0.00     0.200 A 
ATOM     90  F   UNL A   1      44.726  36.792  26.753  1.00  0.00    -0.200 F 
ATOM     91  F   UNL A   1      46.306  37.644  28.806  1.00  0.00    -0.200 F 
ENDBRANCH  58  81
ENDBRANCH  32  33
ENDBRANCH  25  27
ENDBRANCH  24  25
ENDBRANCH   1  24
TORSDOF 13
ENDMDL
MODEL 3
REMARK VINA RESULT:     -14.9      4.673     10.315
REMARK SMILES O=C(OCCOC(=O)c1ccc(-c2c3nc(c(-c4c(F)c(F)c(F)c(F)c4F)c4ccc([nH]4)c(-c4c(F)c(F)c(F)c(F)c4F)c4nc(c(-c5c(F)c(F)c(F)c(F)c5F)c5ccc2[nH]5)C=C4)C=C3)cc1)C1=Cc2cc(C(F)(F)F)ccc2O[C@@H]1C(F)(F)F
REMARK SMILES IDX 5 1 4 2 3 3 2 4 1 5 72 6 73 7 85 8 74 9 84 10 75 11 83 12
REMARK SMILES IDX 76 13 82 14 81 15 86 16 87 17 88 18 89 19 77 20 78 21 79 22
REMARK SMILES IDX 80 23 6 24 7 25 8 26 9 27 10 28 71 29 11 30 70 31 12 32
REMARK SMILES IDX 13 33 14 34 64 35 15 36 69 37 63 38 65 39 16 40 68 41 62 42
REMARK SMILES IDX 61 43 17 45 49 46 29 47 48 48 30 49 33 50 47 51 66 52 31 53
REMARK SMILES IDX 32 54 46 56 67 57 34 58 18 59 19 60 27 61 20 62 21 63 25 64
REMARK SMILES IDX 28 65 22 66 23 67 26 68 24 69 50 70 51 71 59 72 52 73 53 74
REMARK SMILES IDX 57 75 60 76 54 77 55 78 58 79 56 80 35 81 36 82 44 83 37 84
REMARK SMILES IDX 38 85 42 86 45 87 39 88 40 89 43 90 41 91
REMARK H PARENT 65 44 33 55
REMARK Flexibility Score: inf
ROOT
ATOM      1  C   UNL A   1      37.718  19.954  24.970  1.00  0.00     0.275 C 
ENDROOT
BRANCH   1   2
ATOM      2  C   UNL A   1      35.709  20.709  25.376  1.00  0.00     0.275 C 
BRANCH   2   3
ATOM      3  O   UNL A   1      35.332  22.166  25.709  1.00  0.00    -0.459 OA
BRANCH   3   4
ATOM      4  C   UNL A   1      35.402  22.979  24.649  1.00  0.00     0.338 C 
ATOM      5  O   UNL A   1      36.372  23.424  24.090  1.00  0.00    -0.246 OA
BRANCH   4   6
ATOM      6  C   UNL A   1      34.046  23.471  24.760  1.00  0.00     0.087 C 
ATOM      7  C   UNL A   1      33.882  24.554  25.704  1.00  0.00     0.027 C 
ATOM      8  C   UNL A   1      33.753  23.572  22.861  1.00  0.00     0.316 C 
ATOM      9  C   UNL A   1      33.627  26.244  25.210  1.00  0.00     0.018 A 
ATOM     10  O   UNL A   1      33.557  25.419  22.288  1.00  0.00    -0.475 OA
ATOM     11  C   UNL A   1      33.658  27.177  26.196  1.00  0.00     0.025 A 
ATOM     12  C   UNL A   1      33.566  26.748  23.552  1.00  0.00     0.128 A 
ATOM     13  C   UNL A   1      33.679  28.515  25.764  1.00  0.00     0.056 A 
ATOM     14  C   UNL A   1      33.581  28.064  23.193  1.00  0.00     0.048 A 
ATOM     15  C   UNL A   1      33.649  28.924  24.340  1.00  0.00     0.017 A 
BRANCH   8  16
ATOM     16  C   UNL A   1      32.800  22.267  22.910  1.00  0.00     0.430 C 
ATOM     17  F   UNL A   1      31.581  22.564  23.380  1.00  0.00    -0.167 F 
ATOM     18  F   UNL A   1      32.528  21.836  21.634  1.00  0.00    -0.167 F 
ATOM     19  F   UNL A   1      33.280  21.143  23.466  1.00  0.00    -0.167 F 
ENDBRANCH   8  16
BRANCH  13  20
ATOM     20  C   UNL A   1      33.738  29.524  26.906  1.00  0.00     0.416 C 
ATOM     21  F   UNL A   1      32.492  29.864  27.341  1.00  0.00    -0.166 F 
ATOM     22  F   UNL A   1      34.374  29.013  28.001  1.00  0.00    -0.166 F 
ATOM     23  F   UNL A   1      34.374  30.681  26.604  1.00  0.00    -0.166 F 
ENDBRANCH  13  20
ENDBRANCH   4   6
ENDBRANCH   3   4
ENDBRANCH   2   3
ENDBRANCH   1   2
BRANCH   1  24
ATOM     24  O   UNL A   1      39.181  20.703  25.547  1.00  0.00    -0.458 OA
BRANCH  24  25
ATOM     25  C   UNL A   1      40.170  20.605  26.503  1.00  0.00     0.338 C 
ATOM     26  O   UNL A   1      41.070  19.795  26.625  1.00  0.00    -0.246 OA
BRANCH  25  27
ATOM     27  C   UNL A   1      40.250  21.963  27.126  1.00  0.00     0.060 A 
ATOM     28  C   UNL A   1      41.283  22.206  28.055  1.00  0.00     0.016 A 
ATOM     29  C   UNL A   1      39.609  23.032  26.501  1.00  0.00     0.016 A 
ATOM     30  C   UNL A   1      41.804  23.505  28.193  1.00  0.00     0.010 A 
ATOM     31  C   UNL A   1      40.142  24.318  26.626  1.00  0.00     0.010 A 
ATOM     32  C   UNL A   1      41.274  24.558  27.430  1.00  0.00    -0.014 A 
BRANCH  32  33
ATOM     33  C   UNL A   1      41.631  25.962  27.750  1.00  0.00     0.031 A 
ATOM     34  C   UNL A   1      42.988  26.369  27.254  1.00  0.00     0.074 A 
ATOM     35  C   UNL A   1      40.871  26.815  28.467  1.00  0.00     0.049 A 
ATOM     36  N   UNL A   1      43.635  27.492  27.388  1.00  0.00    -0.248 NA
ATOM     37  C   UNL A   1      43.735  25.320  26.532  1.00  0.00     0.031 C 
ATOM     38  C   UNL A   1      39.548  26.540  29.026  1.00  0.00     0.029 A 
ATOM     39  N   UNL A   1      41.126  28.112  28.858  1.00  0.00    -0.354 N 
ATOM     40  C   UNL A   1      44.857  27.274  26.766  1.00  0.00     0.074 A 
ATOM     41  C   UNL A   1      44.905  25.896  26.354  1.00  0.00     0.031 C 
ATOM     42  C   UNL A   1      39.105  27.637  29.676  1.00  0.00     0.029 A 
ATOM     43  C   UNL A   1      40.114  28.693  29.590  1.00  0.00     0.049 A 
ATOM     44  H   UNL A   1      41.961  28.584  28.633  1.00  0.00     0.167 HD
ATOM     45  C   UNL A   1      45.844  28.159  26.514  1.00  0.00     0.037 A 
ATOM     46  C   UNL A   1      40.028  29.938  30.109  1.00  0.00     0.037 A 
ATOM     47  C   UNL A   1      45.803  29.520  26.950  1.00  0.00     0.049 A 
ATOM     48  C   UNL A   1      41.178  30.901  29.878  1.00  0.00     0.074 A 
ATOM     49  C   UNL A   1      46.741  30.514  26.765  1.00  0.00     0.029 A 
ATOM     50  N   UNL A   1      44.759  30.069  27.682  1.00  0.00    -0.354 N 
ATOM     51  N   UNL A   1      42.297  30.720  29.216  1.00  0.00    -0.248 NA
ATOM     52  C   UNL A   1      41.043  32.249  30.452  1.00  0.00     0.031 C 
ATOM     53  C   UNL A   1      46.292  31.653  27.440  1.00  0.00     0.029 A 
ATOM     54  C   UNL A   1      45.039  31.389  27.976  1.00  0.00     0.049 A 
ATOM     55  H   UNL A   1      43.943  29.589  27.951  1.00  0.00     0.167 HD
ATOM     56  C   UNL A   1      42.967  31.938  29.243  1.00  0.00     0.074 A 
ATOM     57  C   UNL A   1      42.129  32.853  29.989  1.00  0.00     0.031 C 
ATOM     58  C   UNL A   1      44.161  32.279  28.694  1.00  0.00     0.037 A 
BRANCH  45  59
ATOM     59  C   UNL A   1      47.031  27.626  25.770  1.00  0.00     0.064 A 
ATOM     60  C   UNL A   1      48.162  27.134  26.445  1.00  0.00     0.173 A 
ATOM     61  C   UNL A   1      47.088  27.723  24.374  1.00  0.00     0.173 A 
ATOM     62  F   UNL A   1      48.173  27.065  27.785  1.00  0.00    -0.203 F 
ATOM     63  C   UNL A   1      49.328  26.822  25.752  1.00  0.00     0.198 A 
ATOM     64  C   UNL A   1      48.242  27.368  23.681  1.00  0.00     0.198 A 
ATOM     65  F   UNL A   1      46.042  28.202  23.685  1.00  0.00    -0.203 F 
ATOM     66  F   UNL A   1      50.430  26.465  26.427  1.00  0.00    -0.200 F 
ATOM     67  C   UNL A   1      49.365  26.937  24.372  1.00  0.00     0.200 A 
ATOM     68  F   UNL A   1      48.278  27.477  22.347  1.00  0.00    -0.200 F 
ATOM     69  F   UNL A   1      50.494  26.657  23.707  1.00  0.00    -0.200 F 
ENDBRANCH  45  59
BRANCH  46  70
ATOM     70  C   UNL A   1      38.813  30.396  30.851  1.00  0.00     0.064 A 
ATOM     71  C   UNL A   1      37.710  30.935  30.166  1.00  0.00     0.173 A 
ATOM     72  C   UNL A   1      38.749  30.382  32.252  1.00  0.00     0.173 A 
ATOM     73  F   UNL A   1      37.726  31.011  28.828  1.00  0.00    -0.203 F 
ATOM     74  C   UNL A   1      36.613  31.463  30.849  1.00  0.00     0.198 A 
ATOM     75  C   UNL A   1      37.639  30.885  32.935  1.00  0.00     0.198 A 
ATOM     76  F   UNL A   1      39.776  29.896  32.966  1.00  0.00    -0.203 F 
ATOM     77  F   UNL A   1      35.608  32.029  30.167  1.00  0.00    -0.200 F 
ATOM     78  C   UNL A   1      36.577  31.435  32.235  1.00  0.00     0.200 A 
ATOM     79  F   UNL A   1      37.608  30.858  34.275  1.00  0.00    -0.200 F 
ATOM     80  F   UNL A   1      35.529  31.952  32.892  1.00  0.00    -0.200 F 
ENDBRANCH  46  70
BRANCH  58  81
ATOM     81  C   UNL A   1      44.597  33.713  28.798  1.00  0.00     0.064 A 
ATOM     82  C   UNL A   1      45.435  34.169  29.824  1.00  0.00     0.173 A 
ATOM     83  C   UNL A   1      44.227  34.627  27.797  1.00  0.00     0.173 A 
ATOM     84  F   UNL A   1      45.815  33.337  30.807  1.00  0.00    -0.203 F 
ATOM     85  C   UNL A   1      45.862  35.493  29.862  1.00  0.00     0.198 A 
ATOM     86  C   UNL A   1      44.689  35.938  27.815  1.00  0.00     0.198 A 
ATOM     87  F   UNL A   1      43.440  34.237  26.781  1.00  0.00    -0.203 F 
ATOM     88  F   UNL A   1      46.621  35.921  30.880  1.00  0.00    -0.200 F 
ATOM     89  C   UNL A   1      45.498  36.372  28.853  1.00  0.00     0.200 A 
ATOM     90  F   UNL A   1      44.359  36.776  26.824  1.00  0.00    -0.200 F 
ATOM     91  F   UNL A   1      45.925  37.642  28.882  1.00  0.00    -0.200 F 
ENDBRANCH  58  81
ENDBRANCH  32  33
ENDBRANCH  25  27
ENDBRANCH  24  25
ENDBRANCH   1  24
TORSDOF 13
ENDMDL
