MODEL 1
REMARK VINA RESULT:     -12.2      0.000      0.000
REMARK SMILES O=C(OCCOC(=O)[C@@H]1C[N@H+](Cc2ccco2)CC12CCOCC2)c1ccc(-c2c3nc(c(-c4c(F)c(F)c(F)c(F)c4F)c4ccc([nH]4)c(-c4c(F)c(F)c(F)c(F)c4F)c4nc(c(-c5c(F)c(F)c(F)c(F)c5F)c5ccc2[nH]5)C=C4)C=C3)cc1
REMARK SMILES IDX 4 1 3 2 2 3 1 4 25 5 26 6 87 7 27 8 86 9 28 10 29 11 30 12
REMARK SMILES IDX 80 13 31 14 85 15 79 16 81 17 32 18 84 19 78 20 77 21 33 23
REMARK SMILES IDX 65 24 45 25 64 26 46 27 49 28 63 29 82 30 47 31 48 32 62 34
REMARK SMILES IDX 83 35 50 36 34 37 35 38 43 39 36 40 37 41 41 42 44 43 38 44
REMARK SMILES IDX 39 45 42 46 40 47 66 48 67 49 75 50 68 51 69 52 73 53 76 54
REMARK SMILES IDX 70 55 71 56 74 57 72 58 51 59 52 60 60 61 53 62 54 63 58 64
REMARK SMILES IDX 61 65 55 66 56 67 59 68 57 69 5 70 6 71 7 72 8 73 9 74 10 75
REMARK SMILES IDX 19 76 11 77 18 78 20 79 24 80 21 82 23 83 22 84 12 85 13 86
REMARK SMILES IDX 14 87 17 88 15 89 16 90
REMARK H PARENT 81 22 49 33 11 81
REMARK Flexibility Score: inf
ROOT
ATOM      1  C   UNL A   1      31.824  31.824  26.646  1.00  0.00     0.275 C 
ENDROOT
BRANCH   1   2
ATOM      2  O   UNL A   1      32.433  32.338  27.847  1.00  0.00    -0.458 OA
BRANCH   2   3
ATOM      3  C   UNL A   1      33.530  33.121  27.802  1.00  0.00     0.338 C 
ATOM      4  O   UNL A   1      33.441  34.350  27.727  1.00  0.00    -0.246 OA
BRANCH   3   5
ATOM      5  C   UNL A   1      34.860  32.450  28.034  1.00  0.00     0.060 A 
ATOM      6  C   UNL A   1      36.088  33.119  28.116  1.00  0.00     0.016 A 
ATOM      7  C   UNL A   1      34.851  31.080  28.336  1.00  0.00     0.016 A 
ATOM      8  C   UNL A   1      37.227  32.484  28.678  1.00  0.00     0.010 A 
ATOM      9  C   UNL A   1      35.991  30.442  28.877  1.00  0.00     0.010 A 
ATOM     10  C   UNL A   1      37.170  31.163  29.169  1.00  0.00    -0.014 A 
BRANCH  10  11
ATOM     11  C   UNL A   1      38.366  30.501  29.839  1.00  0.00     0.031 A 
ATOM     12  C   UNL A   1      38.625  30.986  31.221  1.00  0.00     0.074 A 
ATOM     13  C   UNL A   1      39.241  29.578  29.337  1.00  0.00     0.049 A 
ATOM     14  N   UNL A   1      39.574  30.639  32.042  1.00  0.00    -0.248 NA
ATOM     15  C   UNL A   1      37.753  32.072  31.707  1.00  0.00     0.031 C 
ATOM     16  C   UNL A   1      39.391  29.237  27.948  1.00  0.00     0.029 A 
ATOM     17  N   UNL A   1      40.232  28.770  29.875  1.00  0.00    -0.354 N 
ATOM     18  C   UNL A   1      39.377  31.425  33.155  1.00  0.00     0.074 A 
ATOM     19  C   UNL A   1      38.335  32.376  32.849  1.00  0.00     0.031 C 
ATOM     20  C   UNL A   1      40.165  28.181  27.712  1.00  0.00     0.029 A 
ATOM     21  C   UNL A   1      40.854  27.931  28.947  1.00  0.00     0.049 A 
ATOM     22  H   UNL A   1      40.477  28.787  30.828  1.00  0.00     0.167 HD
ATOM     23  C   UNL A   1      39.964  31.304  34.361  1.00  0.00     0.037 A 
ATOM     24  C   UNL A   1      41.955  27.155  28.982  1.00  0.00     0.037 A 
ATOM     25  C   UNL A   1      41.057  30.418  34.620  1.00  0.00     0.049 A 
ATOM     26  C   UNL A   1      42.681  27.139  30.277  1.00  0.00     0.074 A 
ATOM     27  C   UNL A   1      41.755  30.229  35.795  1.00  0.00     0.029 A 
ATOM     28  N   UNL A   1      41.640  29.591  33.662  1.00  0.00    -0.354 N 
ATOM     29  N   UNL A   1      42.418  27.842  31.349  1.00  0.00    -0.248 NA
ATOM     30  C   UNL A   1      43.840  26.251  30.383  1.00  0.00     0.031 C 
ATOM     31  C   UNL A   1      42.779  29.311  35.542  1.00  0.00     0.029 A 
ATOM     32  C   UNL A   1      42.691  28.886  34.224  1.00  0.00     0.049 A 
ATOM     33  H   UNL A   1      41.347  29.518  32.725  1.00  0.00     0.167 HD
ATOM     34  C   UNL A   1      43.362  27.469  32.278  1.00  0.00     0.074 A 
ATOM     35  C   UNL A   1      44.198  26.465  31.641  1.00  0.00     0.031 C 
ATOM     36  C   UNL A   1      43.510  27.911  33.548  1.00  0.00     0.037 A 
BRANCH  23  37
ATOM     37  C   UNL A   1      39.354  32.155  35.428  1.00  0.00     0.064 A 
ATOM     38  C   UNL A   1      39.831  33.462  35.649  1.00  0.00     0.173 A 
ATOM     39  C   UNL A   1      38.450  31.615  36.348  1.00  0.00     0.173 A 
ATOM     40  F   UNL A   1      40.750  33.994  34.827  1.00  0.00    -0.203 F 
ATOM     41  C   UNL A   1      39.463  34.174  36.785  1.00  0.00     0.198 A 
ATOM     42  C   UNL A   1      38.060  32.345  37.467  1.00  0.00     0.198 A 
ATOM     43  F   UNL A   1      38.003  30.359  36.199  1.00  0.00    -0.203 F 
ATOM     44  F   UNL A   1      40.015  35.370  37.032  1.00  0.00    -0.200 F 
ATOM     45  C   UNL A   1      38.579  33.613  37.693  1.00  0.00     0.200 A 
ATOM     46  F   UNL A   1      37.220  31.801  38.357  1.00  0.00    -0.200 F 
ATOM     47  F   UNL A   1      38.252  34.283  38.807  1.00  0.00    -0.200 F 
ENDBRANCH  23  37
BRANCH  24  48
ATOM     48  C   UNL A   1      42.479  26.428  27.775  1.00  0.00     0.064 A 
ATOM     49  C   UNL A   1      43.414  27.022  26.912  1.00  0.00     0.173 A 
ATOM     50  C   UNL A   1      42.055  25.127  27.444  1.00  0.00     0.173 A 
ATOM     51  F   UNL A   1      43.838  28.272  27.150  1.00  0.00    -0.203 F 
ATOM     52  C   UNL A   1      43.887  26.360  25.774  1.00  0.00     0.198 A 
ATOM     53  C   UNL A   1      42.556  24.450  26.327  1.00  0.00     0.198 A 
ATOM     54  F   UNL A   1      41.167  24.492  28.223  1.00  0.00    -0.203 F 
ATOM     55  F   UNL A   1      44.741  26.979  24.947  1.00  0.00    -0.200 F 
ATOM     56  C   UNL A   1      43.465  25.072  25.487  1.00  0.00     0.200 A 
ATOM     57  F   UNL A   1      42.157  23.197  26.066  1.00  0.00    -0.200 F 
ATOM     58  F   UNL A   1      43.926  24.435  24.401  1.00  0.00    -0.200 F 
ENDBRANCH  24  48
BRANCH  36  59
ATOM     59  C   UNL A   1      44.585  27.235  34.325  1.00  0.00     0.064 A 
ATOM     60  C   UNL A   1      45.894  27.733  34.359  1.00  0.00     0.173 A 
ATOM     61  C   UNL A   1      44.300  26.039  34.995  1.00  0.00     0.173 A 
ATOM     62  F   UNL A   1      46.212  28.850  33.688  1.00  0.00    -0.203 F 
ATOM     63  C   UNL A   1      46.895  27.032  35.019  1.00  0.00     0.198 A 
ATOM     64  C   UNL A   1      45.296  25.361  35.683  1.00  0.00     0.198 A 
ATOM     65  F   UNL A   1      43.061  25.526  34.966  1.00  0.00    -0.203 F 
ATOM     66  F   UNL A   1      48.158  27.476  34.979  1.00  0.00    -0.200 F 
ATOM     67  C   UNL A   1      46.593  25.852  35.685  1.00  0.00     0.200 A 
ATOM     68  F   UNL A   1      45.003  24.224  36.327  1.00  0.00    -0.200 F 
ATOM     69  F   UNL A   1      47.562  25.173  36.315  1.00  0.00    -0.200 F 
ENDBRANCH  36  59
ENDBRANCH  10  11
ENDBRANCH   3   5
ENDBRANCH   2   3
ENDBRANCH   1   2
BRANCH   1  70
ATOM     70  C   UNL A   1      31.793  30.313  26.336  1.00  0.00     0.274 C 
BRANCH  70  71
ATOM     71  O   UNL A   1      32.122  29.948  24.992  1.00  0.00    -0.462 OA
BRANCH  71  72
ATOM     72  C   UNL A   1      33.160  29.068  24.879  1.00  0.00     0.315 C 
ATOM     73  O   UNL A   1      34.019  28.938  25.750  1.00  0.00    -0.252 OA
BRANCH  72  74
ATOM     74  C   UNL A   1      33.144  28.264  23.572  1.00  0.00     0.166 C 
ATOM     75  C   UNL A   1      32.217  28.949  22.548  1.00  0.00     0.278 C 
ATOM     76  C   UNL A   1      32.619  26.818  23.607  1.00  0.00     0.043 C 
ATOM     77  N   UNL A   1      31.110  28.056  22.232  1.00  0.00    -0.327 N 
ATOM     78  C   UNL A   1      31.588  26.717  22.447  1.00  0.00     0.270 C 
ATOM     79  C   UNL A   1      33.726  25.772  23.342  1.00  0.00     0.042 C 
ATOM     80  C   UNL A   1      32.008  26.495  24.968  1.00  0.00     0.042 C 
ATOM     81  H   UNL A   1      30.869  28.200  21.251  1.00  0.00     0.348 HD
ATOM     82  C   UNL A   1      33.112  24.393  23.391  1.00  0.00     0.161 C 
ATOM     83  C   UNL A   1      31.364  25.176  24.923  1.00  0.00     0.161 C 
ATOM     84  O   UNL A   1      32.407  24.261  24.609  1.00  0.00    -0.381 OA
BRANCH  77  85
ATOM     85  C   UNL A   1      29.753  28.378  22.681  1.00  0.00     0.338 C 
BRANCH  85  86
ATOM     86  C   UNL A   1      29.218  29.761  22.484  1.00  0.00     0.157 A 
ATOM     87  C   UNL A   1      29.005  30.839  23.323  1.00  0.00     0.052 A 
ATOM     88  O   UNL A   1      28.902  30.122  21.199  1.00  0.00    -0.463 OA
ATOM     89  C   UNL A   1      28.493  31.890  22.518  1.00  0.00     0.042 A 
ATOM     90  C   UNL A   1      28.472  31.411  21.230  1.00  0.00     0.195 A 
ENDBRANCH  85  86
ENDBRANCH  77  85
ENDBRANCH  72  74
ENDBRANCH  71  72
ENDBRANCH  70  71
ENDBRANCH   1  70
TORSDOF 13
ENDMDL
MODEL 2
REMARK VINA RESULT:     -12.2      1.452      3.277
REMARK SMILES O=C(OCCOC(=O)[C@@H]1C[N@H+](Cc2ccco2)CC12CCOCC2)c1ccc(-c2c3nc(c(-c4c(F)c(F)c(F)c(F)c4F)c4ccc([nH]4)c(-c4c(F)c(F)c(F)c(F)c4F)c4nc(c(-c5c(F)c(F)c(F)c(F)c5F)c5ccc2[nH]5)C=C4)C=C3)cc1
REMARK SMILES IDX 4 1 3 2 2 3 1 4 25 5 26 6 87 7 27 8 86 9 28 10 29 11 30 12
REMARK SMILES IDX 80 13 31 14 85 15 79 16 81 17 32 18 84 19 78 20 77 21 33 23
REMARK SMILES IDX 65 24 45 25 64 26 46 27 49 28 63 29 82 30 47 31 48 32 62 34
REMARK SMILES IDX 83 35 50 36 34 37 35 38 43 39 36 40 37 41 41 42 44 43 38 44
REMARK SMILES IDX 39 45 42 46 40 47 66 48 67 49 75 50 68 51 69 52 73 53 76 54
REMARK SMILES IDX 70 55 71 56 74 57 72 58 51 59 52 60 60 61 53 62 54 63 58 64
REMARK SMILES IDX 61 65 55 66 56 67 59 68 57 69 5 70 6 71 7 72 8 73 9 74 10 75
REMARK SMILES IDX 19 76 11 77 18 78 20 79 24 80 21 82 23 83 22 84 12 85 13 86
REMARK SMILES IDX 14 87 17 88 15 89 16 90
REMARK H PARENT 81 22 49 33 11 81
REMARK Flexibility Score: inf
ROOT
ATOM      1  C   UNL A   1      31.501  30.993  26.037  1.00  0.00     0.275 C 
ENDROOT
BRANCH   1   2
ATOM      2  O   UNL A   1      32.304  30.990  27.235  1.00  0.00    -0.458 OA
BRANCH   2   3
ATOM      3  C   UNL A   1      33.224  31.948  27.469  1.00  0.00     0.338 C 
ATOM      4  O   UNL A   1      32.898  33.128  27.625  1.00  0.00    -0.246 OA
BRANCH   3   5
ATOM      5  C   UNL A   1      34.639  31.491  27.719  1.00  0.00     0.060 A 
ATOM      6  C   UNL A   1      35.714  32.344  28.001  1.00  0.00     0.016 A 
ATOM      7  C   UNL A   1      34.867  30.111  27.821  1.00  0.00     0.016 A 
ATOM      8  C   UNL A   1      36.916  31.837  28.563  1.00  0.00     0.010 A 
ATOM      9  C   UNL A   1      36.070  29.606  28.362  1.00  0.00     0.010 A 
ATOM     10  C   UNL A   1      37.076  30.467  28.855  1.00  0.00    -0.014 A 
BRANCH  10  11
ATOM     11  C   UNL A   1      38.332  29.928  29.526  1.00  0.00     0.031 A 
ATOM     12  C   UNL A   1      38.586  30.500  30.875  1.00  0.00     0.074 A 
ATOM     13  C   UNL A   1      39.260  29.046  29.048  1.00  0.00     0.049 A 
ATOM     14  N   UNL A   1      39.576  30.265  31.687  1.00  0.00    -0.248 NA
ATOM     15  C   UNL A   1      37.648  31.545  31.329  1.00  0.00     0.031 C 
ATOM     16  C   UNL A   1      39.403  28.645  27.673  1.00  0.00     0.029 A 
ATOM     17  N   UNL A   1      40.320  28.340  29.598  1.00  0.00    -0.354 N 
ATOM     18  C   UNL A   1      39.347  31.091  32.764  1.00  0.00     0.074 A 
ATOM     19  C   UNL A   1      38.231  31.948  32.439  1.00  0.00     0.031 C 
ATOM     20  C   UNL A   1      40.247  27.637  27.470  1.00  0.00     0.029 A 
ATOM     21  C   UNL A   1      40.980  27.501  28.697  1.00  0.00     0.049 A 
ATOM     22  H   UNL A   1      40.584  28.423  30.543  1.00  0.00     0.167 HD
ATOM     23  C   UNL A   1      39.968  31.075  33.959  1.00  0.00     0.037 A 
ATOM     24  C   UNL A   1      42.136  26.808  28.742  1.00  0.00     0.037 A 
ATOM     25  C   UNL A   1      41.129  30.284  34.233  1.00  0.00     0.049 A 
ATOM     26  C   UNL A   1      42.890  26.911  30.017  1.00  0.00     0.074 A 
ATOM     27  C   UNL A   1      41.865  30.207  35.396  1.00  0.00     0.029 A 
ATOM     28  N   UNL A   1      41.749  29.453  33.302  1.00  0.00    -0.354 N 
ATOM     29  N   UNL A   1      42.601  27.648  31.059  1.00  0.00    -0.248 NA
ATOM     30  C   UNL A   1      44.112  26.116  30.136  1.00  0.00     0.031 C 
ATOM     31  C   UNL A   1      42.948  29.352  35.162  1.00  0.00     0.029 A 
ATOM     32  C   UNL A   1      42.861  28.855  33.870  1.00  0.00     0.049 A 
ATOM     33  H   UNL A   1      41.441  29.311  32.378  1.00  0.00     0.167 HD
ATOM     34  C   UNL A   1      43.590  27.392  31.980  1.00  0.00     0.074 A 
ATOM     35  C   UNL A   1      44.483  26.419  31.372  1.00  0.00     0.031 C 
ATOM     36  C   UNL A   1      43.733  27.908  33.222  1.00  0.00     0.037 A 
BRANCH  23  37
ATOM     37  C   UNL A   1      39.323  31.933  34.998  1.00  0.00     0.064 A 
ATOM     38  C   UNL A   1      39.688  33.288  35.123  1.00  0.00     0.173 A 
ATOM     39  C   UNL A   1      38.501  31.374  35.982  1.00  0.00     0.173 A 
ATOM     40  F   UNL A   1      40.528  33.847  34.237  1.00  0.00    -0.203 F 
ATOM     41  C   UNL A   1      39.298  34.033  36.230  1.00  0.00     0.198 A 
ATOM     42  C   UNL A   1      38.086  32.135  37.072  1.00  0.00     0.198 A 
ATOM     43  F   UNL A   1      38.162  30.078  35.924  1.00  0.00    -0.203 F 
ATOM     44  F   UNL A   1      39.750  35.286  36.386  1.00  0.00    -0.200 F 
ATOM     45  C   UNL A   1      38.498  33.455  37.203  1.00  0.00     0.200 A 
ATOM     46  F   UNL A   1      37.329  31.575  38.024  1.00  0.00    -0.200 F 
ATOM     47  F   UNL A   1      38.152  34.161  38.289  1.00  0.00    -0.200 F 
ENDBRANCH  23  37
BRANCH  24  48
ATOM     48  C   UNL A   1      42.683  26.060  27.559  1.00  0.00     0.064 A 
ATOM     49  C   UNL A   1      42.263  24.754  27.260  1.00  0.00     0.173 A 
ATOM     50  C   UNL A   1      43.646  26.623  26.699  1.00  0.00     0.173 A 
ATOM     51  F   UNL A   1      41.370  24.145  28.054  1.00  0.00    -0.203 F 
ATOM     52  C   UNL A   1      42.785  24.045  26.174  1.00  0.00     0.198 A 
ATOM     53  C   UNL A   1      44.142  25.927  25.591  1.00  0.00     0.198 A 
ATOM     54  F   UNL A   1      44.094  27.868  26.916  1.00  0.00    -0.203 F 
ATOM     55  F   UNL A   1      42.396  22.781  25.951  1.00  0.00    -0.200 F 
ATOM     56  C   UNL A   1      43.717  24.634  25.335  1.00  0.00     0.200 A 
ATOM     57  F   UNL A   1      45.029  26.511  24.774  1.00  0.00    -0.200 F 
ATOM     58  F   UNL A   1      44.211  23.956  24.290  1.00  0.00    -0.200 F 
ENDBRANCH  24  48
BRANCH  36  59
ATOM     59  C   UNL A   1      44.873  27.352  34.003  1.00  0.00     0.064 A 
ATOM     60  C   UNL A   1      44.734  26.204  34.794  1.00  0.00     0.173 A 
ATOM     61  C   UNL A   1      46.102  28.022  33.994  1.00  0.00     0.173 A 
ATOM     62  F   UNL A   1      43.556  25.567  34.863  1.00  0.00    -0.203 F 
ATOM     63  C   UNL A   1      45.790  25.763  35.582  1.00  0.00     0.198 A 
ATOM     64  C   UNL A   1      47.165  27.556  34.755  1.00  0.00     0.198 A 
ATOM     65  F   UNL A   1      46.262  29.134  33.262  1.00  0.00    -0.203 F 
ATOM     66  F   UNL A   1      45.622  24.711  36.394  1.00  0.00    -0.200 F 
ATOM     67  C   UNL A   1      47.005  26.435  35.555  1.00  0.00     0.200 A 
ATOM     68  F   UNL A   1      48.337  28.204  34.727  1.00  0.00    -0.200 F 
ATOM     69  F   UNL A   1      48.020  26.012  36.321  1.00  0.00    -0.200 F 
ENDBRANCH  36  59
ENDBRANCH  10  11
ENDBRANCH   3   5
ENDBRANCH   2   3
ENDBRANCH   1   2
BRANCH   1  70
ATOM     70  C   UNL A   1      31.402  29.753  25.125  1.00  0.00     0.274 C 
BRANCH  70  71
ATOM     71  O   UNL A   1      32.260  28.661  25.469  1.00  0.00    -0.462 OA
BRANCH  71  72
ATOM     72  C   UNL A   1      31.607  27.523  25.849  1.00  0.00     0.315 C 
ATOM     73  O   UNL A   1      31.640  27.090  27.000  1.00  0.00    -0.252 OA
BRANCH  72  74
ATOM     74  C   UNL A   1      30.832  26.849  24.709  1.00  0.00     0.166 C 
ATOM     75  C   UNL A   1      29.886  25.776  25.283  1.00  0.00     0.278 C 
ATOM     76  C   UNL A   1      31.623  26.082  23.636  1.00  0.00     0.043 C 
ATOM     77  N   UNL A   1      30.282  24.468  24.777  1.00  0.00    -0.327 N 
ATOM     78  C   UNL A   1      30.927  24.696  23.512  1.00  0.00     0.270 C 
ATOM     79  C   UNL A   1      31.566  26.760  22.249  1.00  0.00     0.042 C 
ATOM     80  C   UNL A   1      33.095  25.969  24.024  1.00  0.00     0.042 C 
ATOM     81  H   UNL A   1      29.434  23.915  24.654  1.00  0.00     0.348 HD
ATOM     82  C   UNL A   1      32.363  25.931  21.270  1.00  0.00     0.161 C 
ATOM     83  C   UNL A   1      33.793  25.090  23.077  1.00  0.00     0.161 C 
ATOM     84  O   UNL A   1      33.652  25.721  21.810  1.00  0.00    -0.381 OA
BRANCH  77  85
ATOM     85  C   UNL A   1      30.876  23.479  25.679  1.00  0.00     0.338 C 
BRANCH  85  86
ATOM     86  C   UNL A   1      32.016  22.636  25.204  1.00  0.00     0.157 A 
ATOM     87  C   UNL A   1      32.153  21.659  24.235  1.00  0.00     0.052 A 
ATOM     88  O   UNL A   1      33.240  22.875  25.777  1.00  0.00    -0.463 OA
ATOM     89  C   UNL A   1      33.513  21.253  24.251  1.00  0.00     0.042 A 
ATOM     90  C   UNL A   1      34.138  22.040  25.190  1.00  0.00     0.195 A 
ENDBRANCH  85  86
ENDBRANCH  77  85
ENDBRANCH  72  74
ENDBRANCH  71  72
ENDBRANCH  70  71
ENDBRANCH   1  70
TORSDOF 13
ENDMDL
MODEL 3
REMARK VINA RESULT:     -12.2      4.241      9.651
REMARK SMILES O=C(OCCOC(=O)[C@@H]1C[N@H+](Cc2ccco2)CC12CCOCC2)c1ccc(-c2c3nc(c(-c4c(F)c(F)c(F)c(F)c4F)c4ccc([nH]4)c(-c4c(F)c(F)c(F)c(F)c4F)c4nc(c(-c5c(F)c(F)c(F)c(F)c5F)c5ccc2[nH]5)C=C4)C=C3)cc1
REMARK SMILES IDX 4 1 3 2 2 3 1 4 25 5 26 6 87 7 27 8 86 9 28 10 29 11 30 12
REMARK SMILES IDX 80 13 31 14 85 15 79 16 81 17 32 18 84 19 78 20 77 21 33 23
REMARK SMILES IDX 65 24 45 25 64 26 46 27 49 28 63 29 82 30 47 31 48 32 62 34
REMARK SMILES IDX 83 35 50 36 34 37 35 38 43 39 36 40 37 41 41 42 44 43 38 44
REMARK SMILES IDX 39 45 42 46 40 47 66 48 67 49 75 50 68 51 69 52 73 53 76 54
REMARK SMILES IDX 70 55 71 56 74 57 72 58 51 59 52 60 60 61 53 62 54 63 58 64
REMARK SMILES IDX 61 65 55 66 56 67 59 68 57 69 5 70 6 71 7 72 8 73 9 74 10 75
REMARK SMILES IDX 19 76 11 77 18 78 20 79 24 80 21 82 23 83 22 84 12 85 13 86
REMARK SMILES IDX 14 87 17 88 15 89 16 90
REMARK H PARENT 81 22 49 33 11 81
REMARK Flexibility Score: inf
ROOT
ATOM      1  C   UNL A   1      36.883  20.277  25.018  1.00  0.00     0.275 C 
ENDROOT
BRANCH   1   2
ATOM      2  O   UNL A   1      37.986  21.205  24.968  1.00  0.00    -0.458 OA
BRANCH   2   3
ATOM      3  C   UNL A   1      39.023  21.115  25.826  1.00  0.00     0.338 C 
ATOM      4  O   UNL A   1      39.749  20.118  25.855  1.00  0.00    -0.246 OA
BRANCH   3   5
ATOM      5  C   UNL A   1      39.369  22.354  26.614  1.00  0.00     0.060 A 
ATOM      6  C   UNL A   1      40.372  22.425  27.588  1.00  0.00     0.016 A 
ATOM      7  C   UNL A   1      38.745  23.554  26.241  1.00  0.00     0.016 A 
ATOM      8  C   UNL A   1      40.873  23.679  28.027  1.00  0.00     0.010 A 
ATOM      9  C   UNL A   1      39.231  24.801  26.693  1.00  0.00     0.010 A 
ATOM     10  C   UNL A   1      40.383  24.894  27.505  1.00  0.00    -0.014 A 
BRANCH  10  11
ATOM     11  C   UNL A   1      40.966  26.240  27.916  1.00  0.00     0.031 A 
ATOM     12  C   UNL A   1      42.399  26.408  27.558  1.00  0.00     0.074 A 
ATOM     13  C   UNL A   1      40.377  27.270  28.594  1.00  0.00     0.049 A 
ATOM     14  N   UNL A   1      43.184  27.421  27.788  1.00  0.00    -0.248 NA
ATOM     15  C   UNL A   1      43.060  25.242  26.939  1.00  0.00     0.031 C 
ATOM     16  C   UNL A   1      39.141  27.190  29.327  1.00  0.00     0.029 A 
ATOM     17  N   UNL A   1      40.713  28.588  28.865  1.00  0.00    -0.354 N 
ATOM     18  C   UNL A   1      44.409  27.033  27.296  1.00  0.00     0.074 A 
ATOM     19  C   UNL A   1      44.314  25.646  26.908  1.00  0.00     0.031 C 
ATOM     20  C   UNL A   1      38.665  28.360  29.747  1.00  0.00     0.029 A 
ATOM     21  C   UNL A   1      39.745  29.291  29.586  1.00  0.00     0.049 A 
ATOM     22  H   UNL A   1      41.562  28.993  28.574  1.00  0.00     0.167 HD
ATOM     23  C   UNL A   1      45.500  27.801  27.106  1.00  0.00     0.037 A 
ATOM     24  C   UNL A   1      39.732  30.484  30.213  1.00  0.00     0.037 A 
ATOM     25  C   UNL A   1      45.607  29.147  27.578  1.00  0.00     0.049 A 
ATOM     26  C   UNL A   1      40.991  31.264  30.121  1.00  0.00     0.074 A 
ATOM     27  C   UNL A   1      46.673  30.015  27.474  1.00  0.00     0.029 A 
ATOM     28  N   UNL A   1      44.608  29.811  28.288  1.00  0.00    -0.354 N 
ATOM     29  N   UNL A   1      42.121  30.897  29.572  1.00  0.00    -0.248 NA
ATOM     30  C   UNL A   1      40.997  32.598  30.724  1.00  0.00     0.031 C 
ATOM     31  C   UNL A   1      46.333  31.195  28.145  1.00  0.00     0.029 A 
ATOM     32  C   UNL A   1      45.036  31.084  28.625  1.00  0.00     0.049 A 
ATOM     33  H   UNL A   1      43.729  29.432  28.514  1.00  0.00     0.167 HD
ATOM     34  C   UNL A   1      42.976  31.962  29.735  1.00  0.00     0.074 A 
ATOM     35  C   UNL A   1      42.225  32.997  30.427  1.00  0.00     0.031 C 
ATOM     36  C   UNL A   1      44.262  32.074  29.332  1.00  0.00     0.037 A 
BRANCH  23  37
ATOM     37  C   UNL A   1      46.589  27.138  26.327  1.00  0.00     0.064 A 
ATOM     38  C   UNL A   1      47.608  26.432  26.996  1.00  0.00     0.173 A 
ATOM     39  C   UNL A   1      46.731  27.366  24.955  1.00  0.00     0.173 A 
ATOM     40  F   UNL A   1      47.544  26.248  28.324  1.00  0.00    -0.203 F 
ATOM     41  C   UNL A   1      48.757  26.028  26.324  1.00  0.00     0.198 A 
ATOM     42  C   UNL A   1      47.868  26.931  24.280  1.00  0.00     0.198 A 
ATOM     43  F   UNL A   1      45.805  28.069  24.286  1.00  0.00    -0.203 F 
ATOM     44  F   UNL A   1      49.762  25.459  27.002  1.00  0.00    -0.200 F 
ATOM     45  C   UNL A   1      48.885  26.280  24.967  1.00  0.00     0.200 A 
ATOM     46  F   UNL A   1      48.006  27.188  22.973  1.00  0.00    -0.200 F 
ATOM     47  F   UNL A   1      50.007  25.925  24.326  1.00  0.00    -0.200 F 
ENDBRANCH  23  37
BRANCH  24  48
ATOM     48  C   UNL A   1      38.566  30.960  31.034  1.00  0.00     0.064 A 
ATOM     49  C   UNL A   1      37.440  31.546  30.434  1.00  0.00     0.173 A 
ATOM     50  C   UNL A   1      38.546  30.851  32.437  1.00  0.00     0.173 A 
ATOM     51  F   UNL A   1      37.404  31.708  29.103  1.00  0.00    -0.203 F 
ATOM     52  C   UNL A   1      36.362  32.011  31.194  1.00  0.00     0.198 A 
ATOM     53  C   UNL A   1      37.452  31.283  33.195  1.00  0.00     0.198 A 
ATOM     54  F   UNL A   1      39.583  30.298  33.083  1.00  0.00    -0.203 F 
ATOM     55  F   UNL A   1      35.327  32.611  30.589  1.00  0.00    -0.200 F 
ATOM     56  C   UNL A   1      36.364  31.872  32.573  1.00  0.00     0.200 A 
ATOM     57  F   UNL A   1      37.454  31.128  34.526  1.00  0.00    -0.200 F 
ATOM     58  F   UNL A   1      35.327  32.311  33.299  1.00  0.00    -0.200 F 
ENDBRANCH  24  48
BRANCH  36  59
ATOM     59  C   UNL A   1      44.885  33.403  29.587  1.00  0.00     0.064 A 
ATOM     60  C   UNL A   1      44.788  34.452  28.664  1.00  0.00     0.173 A 
ATOM     61  C   UNL A   1      45.636  33.596  30.753  1.00  0.00     0.173 A 
ATOM     62  F   UNL A   1      44.117  34.284  27.515  1.00  0.00    -0.203 F 
ATOM     63  C   UNL A   1      45.455  35.649  28.889  1.00  0.00     0.198 A 
ATOM     64  C   UNL A   1      46.271  34.807  30.991  1.00  0.00     0.198 A 
ATOM     65  F   UNL A   1      45.765  32.606  31.648  1.00  0.00    -0.203 F 
ATOM     66  F   UNL A   1      45.420  36.617  27.964  1.00  0.00    -0.200 F 
ATOM     67  C   UNL A   1      46.189  35.827  30.054  1.00  0.00     0.200 A 
ATOM     68  F   UNL A   1      46.978  34.979  32.115  1.00  0.00    -0.200 F 
ATOM     69  F   UNL A   1      46.838  36.980  30.266  1.00  0.00    -0.200 F 
ENDBRANCH  36  59
ENDBRANCH  10  11
ENDBRANCH   3   5
ENDBRANCH   2   3
ENDBRANCH   1   2
BRANCH   1  70
ATOM     70  C   UNL A   1      35.418  20.760  24.997  1.00  0.00     0.274 C 
BRANCH  70  71
ATOM     71  O   UNL A   1      35.230  22.174  25.102  1.00  0.00    -0.462 OA
BRANCH  71  72
ATOM     72  C   UNL A   1      34.795  22.776  23.955  1.00  0.00     0.315 C 
ATOM     73  O   UNL A   1      35.546  23.391  23.201  1.00  0.00    -0.252 OA
BRANCH  72  74
ATOM     74  C   UNL A   1      33.291  22.604  23.704  1.00  0.00     0.166 C 
ATOM     75  C   UNL A   1      32.921  23.187  22.325  1.00  0.00     0.278 C 
ATOM     76  C   UNL A   1      32.303  23.301  24.655  1.00  0.00     0.043 C 
ATOM     77  N   UNL A   1      31.999  24.300  22.507  1.00  0.00    -0.327 N 
ATOM     78  C   UNL A   1      31.297  24.054  23.737  1.00  0.00     0.270 C 
ATOM     79  C   UNL A   1      31.495  22.304  25.516  1.00  0.00     0.042 C 
ATOM     80  C   UNL A   1      33.038  24.234  25.613  1.00  0.00     0.042 C 
ATOM     81  H   UNL A   1      31.353  24.298  21.717  1.00  0.00     0.348 HD
ATOM     82  C   UNL A   1      30.555  23.082  26.405  1.00  0.00     0.161 C 
ATOM     83  C   UNL A   1      32.067  25.013  26.391  1.00  0.00     0.161 C 
ATOM     84  O   UNL A   1      31.306  24.050  27.110  1.00  0.00    -0.381 OA
BRANCH  77  85
ATOM     85  C   UNL A   1      32.436  25.671  22.231  1.00  0.00     0.338 C 
BRANCH  85  86
ATOM     86  C   UNL A   1      31.639  26.821  22.759  1.00  0.00     0.157 A 
ATOM     87  C   UNL A   1      31.729  27.617  23.886  1.00  0.00     0.052 A 
ATOM     88  O   UNL A   1      30.611  27.272  21.971  1.00  0.00    -0.463 OA
ATOM     89  C   UNL A   1      30.678  28.568  23.802  1.00  0.00     0.042 A 
ATOM     90  C   UNL A   1      30.042  28.331  22.606  1.00  0.00     0.195 A 
ENDBRANCH  85  86
ENDBRANCH  77  85
ENDBRANCH  72  74
ENDBRANCH  71  72
ENDBRANCH  70  71
ENDBRANCH   1  70
TORSDOF 13
ENDMDL
