MODEL 1
REMARK VINA RESULT:     -11.8      0.000      0.000
REMARK SMILES COc1ccccc1-c1ccc(O)c(C(=O)OCCOC(=O)c2ccc(-c3c4nc(c(-c5c(F)c(F)c(F)c(F)c5F)c5ccc([nH]5)c(-c5c(F)c(F)c(F)c(F)c5F)c5nc(c(-c6c(F)c(F)c(F)c(F)c6F)c6ccc3[nH]6)C=C5)C=C4)cc2)c1
REMARK SMILES IDX 18 1 17 2 15 3 16 4 14 5 9 6 10 7 86 8 11 9 12 10 8 11 3 12
REMARK SMILES IDX 4 13 5 14 7 15 6 16 2 17 1 18 13 19 19 21 20 22 21 23 22 24
REMARK SMILES IDX 23 25 24 26 85 27 25 28 84 29 26 30 27 31 28 32 78 33 29 34
REMARK SMILES IDX 83 35 77 36 79 37 30 38 82 39 76 40 75 41 31 43 63 44 43 45
REMARK SMILES IDX 62 46 44 47 47 48 61 49 80 50 45 51 46 52 60 54 81 55 48 56
REMARK SMILES IDX 32 57 33 58 41 59 34 60 35 61 39 62 42 63 36 64 37 65 40 66
REMARK SMILES IDX 38 67 64 68 65 69 73 70 66 71 67 72 71 73 74 74 68 75 69 76
REMARK SMILES IDX 72 77 70 78 49 79 50 80 58 81 51 82 52 83 56 84 59 85 53 86
REMARK SMILES IDX 54 87 57 88 55 89
REMARK H PARENT 13 20 79 42 47 53
REMARK Flexibility Score: inf
ROOT
ATOM      1  C   UNL A   1      42.633  21.111  26.094  1.00  0.00     0.275 C 
ENDROOT
BRANCH   1   2
ATOM      2  O   UNL A   1      41.314  21.448  25.622  1.00  0.00    -0.458 OA
BRANCH   2   3
ATOM      3  C   UNL A   1      40.333  21.472  26.555  1.00  0.00     0.342 C 
ATOM      4  O   UNL A   1      40.447  21.813  27.725  1.00  0.00    -0.246 OA
BRANCH   3   5
ATOM      5  C   UNL A   1      39.013  21.121  25.978  1.00  0.00     0.102 A 
ATOM      6  C   UNL A   1      36.735  21.702  25.322  1.00  0.00    -0.014 A 
ATOM      7  C   UNL A   1      36.524  20.366  24.941  1.00  0.00     0.013 A 
ATOM      8  C   UNL A   1      37.970  22.053  25.899  1.00  0.00     0.028 A 
ATOM      9  C   UNL A   1      37.555  19.432  25.017  1.00  0.00     0.048 A 
ATOM     10  C   UNL A   1      38.804  19.822  25.488  1.00  0.00     0.130 A 
BRANCH   6  11
ATOM     11  C   UNL A   1      35.745  22.730  24.964  1.00  0.00     0.024 A 
ATOM     12  C   UNL A   1      34.918  23.327  25.940  1.00  0.00     0.126 A 
ATOM     13  C   UNL A   1      34.014  24.337  25.604  1.00  0.00     0.047 A 
ATOM     14  C   UNL A   1      33.939  24.796  24.291  1.00  0.00     0.004 A 
ATOM     15  C   UNL A   1      35.641  23.201  23.643  1.00  0.00     0.012 A 
ATOM     16  C   UNL A   1      34.749  24.226  23.311  1.00  0.00     0.001 A 
BRANCH  12  17
ATOM     17  O   UNL A   1      34.896  22.911  27.251  1.00  0.00    -0.496 OA
ATOM     18  C   UNL A   1      33.818  22.009  27.509  1.00  0.00     0.278 C 
ENDBRANCH  12  17
ENDBRANCH   6  11
BRANCH  10  19
ATOM     19  O   UNL A   1      39.780  18.861  25.455  1.00  0.00    -0.507 OA
ATOM     20  H   UNL A   1      40.670  19.090  25.636  1.00  0.00     0.293 HD
ENDBRANCH  10  19
ENDBRANCH   3   5
ENDBRANCH   2   3
ENDBRANCH   1   2
BRANCH   1  21
ATOM     21  C   UNL A   1      43.703  21.933  25.371  1.00  0.00     0.275 C 
BRANCH  21  22
ATOM     22  O   UNL A   1      43.161  23.175  24.879  1.00  0.00    -0.458 OA
BRANCH  22  23
ATOM     23  C   UNL A   1      43.929  24.267  25.094  1.00  0.00     0.338 C 
ATOM     24  O   UNL A   1      44.886  24.642  24.430  1.00  0.00    -0.246 OA
BRANCH  23  25
ATOM     25  C   UNL A   1      43.328  25.087  26.159  1.00  0.00     0.060 A 
ATOM     26  C   UNL A   1      43.935  26.313  26.436  1.00  0.00     0.016 A 
ATOM     27  C   UNL A   1      42.215  24.673  26.894  1.00  0.00     0.016 A 
ATOM     28  C   UNL A   1      43.405  27.163  27.402  1.00  0.00     0.010 A 
ATOM     29  C   UNL A   1      41.709  25.506  27.902  1.00  0.00     0.010 A 
ATOM     30  C   UNL A   1      42.299  26.757  28.156  1.00  0.00    -0.014 A 
BRANCH  30  31
ATOM     31  C   UNL A   1      41.838  27.613  29.274  1.00  0.00     0.031 A 
ATOM     32  C   UNL A   1      42.569  27.562  30.584  1.00  0.00     0.074 A 
ATOM     33  C   UNL A   1      40.810  28.463  29.107  1.00  0.00     0.049 A 
ATOM     34  N   UNL A   1      42.312  28.189  31.704  1.00  0.00    -0.248 NA
ATOM     35  C   UNL A   1      43.756  26.694  30.637  1.00  0.00     0.031 C 
ATOM     36  C   UNL A   1      40.067  28.655  27.864  1.00  0.00     0.029 A 
ATOM     37  N   UNL A   1      40.210  29.323  29.995  1.00  0.00    -0.354 N 
ATOM     38  C   UNL A   1      43.293  27.783  32.596  1.00  0.00     0.074 A 
ATOM     39  C   UNL A   1      44.149  26.851  31.893  1.00  0.00     0.031 C 
ATOM     40  C   UNL A   1      39.093  29.558  28.073  1.00  0.00     0.029 A 
ATOM     41  C   UNL A   1      39.125  29.982  29.472  1.00  0.00     0.049 A 
ATOM     42  H   UNL A   1      40.528  29.453  30.918  1.00  0.00     0.167 HD
ATOM     43  C   UNL A   1      43.461  28.155  33.887  1.00  0.00     0.037 A 
ATOM     44  C   UNL A   1      38.242  30.809  30.066  1.00  0.00     0.037 A 
ATOM     45  C   UNL A   1      42.617  29.089  34.582  1.00  0.00     0.049 A 
ATOM     46  C   UNL A   1      38.414  31.150  31.524  1.00  0.00     0.074 A 
ATOM     47  C   UNL A   1      42.721  29.540  35.887  1.00  0.00     0.029 A 
ATOM     48  N   UNL A   1      41.507  29.711  34.031  1.00  0.00    -0.354 N 
ATOM     49  N   UNL A   1      39.352  30.773  32.360  1.00  0.00    -0.248 NA
ATOM     50  C   UNL A   1      37.402  32.034  32.124  1.00  0.00     0.031 C 
ATOM     51  C   UNL A   1      41.645  30.396  36.141  1.00  0.00     0.029 A 
ATOM     52  C   UNL A   1      40.900  30.519  34.980  1.00  0.00     0.049 A 
ATOM     53  H   UNL A   1      41.196  29.595  33.104  1.00  0.00     0.167 HD
ATOM     54  C   UNL A   1      39.059  31.390  33.570  1.00  0.00     0.074 A 
ATOM     55  C   UNL A   1      37.864  32.179  33.357  1.00  0.00     0.031 C 
ATOM     56  C   UNL A   1      39.718  31.309  34.751  1.00  0.00     0.037 A 
BRANCH  43  57
ATOM     57  C   UNL A   1      44.581  27.517  34.652  1.00  0.00     0.064 A 
ATOM     58  C   UNL A   1      45.845  28.115  34.749  1.00  0.00     0.173 A 
ATOM     59  C   UNL A   1      44.364  26.315  35.342  1.00  0.00     0.173 A 
ATOM     60  F   UNL A   1      46.105  29.257  34.095  1.00  0.00    -0.203 F 
ATOM     61  C   UNL A   1      46.858  27.524  35.501  1.00  0.00     0.198 A 
ATOM     62  C   UNL A   1      45.371  25.740  36.111  1.00  0.00     0.198 A 
ATOM     63  F   UNL A   1      43.171  25.706  35.282  1.00  0.00    -0.203 F 
ATOM     64  F   UNL A   1      48.069  28.095  35.556  1.00  0.00    -0.200 F 
ATOM     65  C   UNL A   1      46.617  26.343  36.188  1.00  0.00     0.200 A 
ATOM     66  F   UNL A   1      45.134  24.605  36.782  1.00  0.00    -0.200 F 
ATOM     67  F   UNL A   1      47.589  25.783  36.920  1.00  0.00    -0.200 F 
ENDBRANCH  43  57
BRANCH  44  68
ATOM     68  C   UNL A   1      37.082  31.338  29.300  1.00  0.00     0.064 A 
ATOM     69  C   UNL A   1      37.013  32.686  28.921  1.00  0.00     0.173 A 
ATOM     70  C   UNL A   1      35.994  30.514  28.979  1.00  0.00     0.173 A 
ATOM     71  F   UNL A   1      38.014  33.523  29.233  1.00  0.00    -0.203 F 
ATOM     72  C   UNL A   1      35.888  33.194  28.273  1.00  0.00     0.198 A 
ATOM     73  C   UNL A   1      34.884  31.015  28.304  1.00  0.00     0.198 A 
ATOM     74  F   UNL A   1      36.007  29.218  29.328  1.00  0.00    -0.203 F 
ATOM     75  F   UNL A   1      35.820  34.499  27.976  1.00  0.00    -0.200 F 
ATOM     76  C   UNL A   1      34.826  32.356  27.961  1.00  0.00     0.200 A 
ATOM     77  F   UNL A   1      33.864  30.202  28.000  1.00  0.00    -0.200 F 
ATOM     78  F   UNL A   1      33.742  32.847  27.346  1.00  0.00    -0.200 F 
ENDBRANCH  44  68
BRANCH  56  79
ATOM     79  C   UNL A   1      39.188  32.120  35.898  1.00  0.00     0.064 A 
ATOM     80  C   UNL A   1      38.295  31.577  36.832  1.00  0.00     0.173 A 
ATOM     81  C   UNL A   1      39.616  33.442  36.089  1.00  0.00     0.173 A 
ATOM     82  F   UNL A   1      37.844  30.323  36.686  1.00  0.00    -0.203 F 
ATOM     83  C   UNL A   1      37.832  32.337  37.904  1.00  0.00     0.198 A 
ATOM     84  C   UNL A   1      39.174  34.189  37.178  1.00  0.00     0.198 A 
ATOM     85  F   UNL A   1      40.476  34.007  35.228  1.00  0.00    -0.203 F 
ATOM     86  F   UNL A   1      36.944  31.812  38.761  1.00  0.00    -0.200 F 
ATOM     87  C   UNL A   1      38.277  33.639  38.080  1.00  0.00     0.200 A 
ATOM     88  F   UNL A   1      39.618  35.442  37.354  1.00  0.00    -0.200 F 
ATOM     89  F   UNL A   1      37.838  34.364  39.118  1.00  0.00    -0.200 F 
ENDBRANCH  56  79
ENDBRANCH  30  31
ENDBRANCH  23  25
ENDBRANCH  22  23
ENDBRANCH  21  22
ENDBRANCH   1  21
TORSDOF 14
ENDMDL
MODEL 2
REMARK VINA RESULT:     -11.8      3.447      5.803
REMARK SMILES COc1ccccc1-c1ccc(O)c(C(=O)OCCOC(=O)c2ccc(-c3c4nc(c(-c5c(F)c(F)c(F)c(F)c5F)c5ccc([nH]5)c(-c5c(F)c(F)c(F)c(F)c5F)c5nc(c(-c6c(F)c(F)c(F)c(F)c6F)c6ccc3[nH]6)C=C5)C=C4)cc2)c1
REMARK SMILES IDX 18 1 17 2 15 3 16 4 14 5 9 6 10 7 86 8 11 9 12 10 8 11 3 12
REMARK SMILES IDX 4 13 5 14 7 15 6 16 2 17 1 18 13 19 19 21 20 22 21 23 22 24
REMARK SMILES IDX 23 25 24 26 85 27 25 28 84 29 26 30 27 31 28 32 78 33 29 34
REMARK SMILES IDX 83 35 77 36 79 37 30 38 82 39 76 40 75 41 31 43 63 44 43 45
REMARK SMILES IDX 62 46 44 47 47 48 61 49 80 50 45 51 46 52 60 54 81 55 48 56
REMARK SMILES IDX 32 57 33 58 41 59 34 60 35 61 39 62 42 63 36 64 37 65 40 66
REMARK SMILES IDX 38 67 64 68 65 69 73 70 66 71 67 72 71 73 74 74 68 75 69 76
REMARK SMILES IDX 72 77 70 78 49 79 50 80 58 81 51 82 52 83 56 84 59 85 53 86
REMARK SMILES IDX 54 87 57 88 55 89
REMARK H PARENT 13 20 79 42 47 53
REMARK Flexibility Score: inf
ROOT
ATOM      1  C   UNL A   1      40.928  19.765  26.432  1.00  0.00     0.275 C 
ENDROOT
BRANCH   1   2
ATOM      2  O   UNL A   1      41.796  19.281  25.389  1.00  0.00    -0.458 OA
BRANCH   2   3
ATOM      3  C   UNL A   1      43.028  18.875  25.775  1.00  0.00     0.342 C 
ATOM      4  O   UNL A   1      43.314  17.804  26.293  1.00  0.00    -0.246 OA
BRANCH   3   5
ATOM      5  C   UNL A   1      44.075  19.860  25.409  1.00  0.00     0.102 A 
ATOM      6  C   UNL A   1      44.845  22.154  25.092  1.00  0.00    -0.014 A 
ATOM      7  C   UNL A   1      46.078  21.657  24.638  1.00  0.00     0.013 A 
ATOM      8  C   UNL A   1      43.826  21.238  25.417  1.00  0.00     0.028 A 
ATOM      9  C   UNL A   1      46.335  20.287  24.626  1.00  0.00     0.048 A 
ATOM     10  C   UNL A   1      45.353  19.400  25.055  1.00  0.00     0.130 A 
BRANCH   6  11
ATOM     11  C   UNL A   1      44.695  23.589  25.377  1.00  0.00     0.024 A 
ATOM     12  C   UNL A   1      45.629  24.282  26.177  1.00  0.00     0.126 A 
ATOM     13  C   UNL A   1      45.510  25.655  26.405  1.00  0.00     0.047 A 
ATOM     14  C   UNL A   1      44.474  26.372  25.812  1.00  0.00     0.004 A 
ATOM     15  C   UNL A   1      43.650  24.333  24.801  1.00  0.00     0.012 A 
ATOM     16  C   UNL A   1      43.543  25.711  25.014  1.00  0.00     0.001 A 
BRANCH  12  17
ATOM     17  O   UNL A   1      46.660  23.650  26.834  1.00  0.00    -0.496 OA
ATOM     18  C   UNL A   1      47.676  24.565  27.244  1.00  0.00     0.278 C 
ENDBRANCH  12  17
ENDBRANCH   6  11
BRANCH  10  19
ATOM     19  O   UNL A   1      45.716  18.079  25.085  1.00  0.00    -0.507 OA
ATOM     20  H   UNL A   1      45.754  17.585  24.290  1.00  0.00     0.293 HD
ENDBRANCH  10  19
ENDBRANCH   3   5
ENDBRANCH   2   3
ENDBRANCH   1   2
BRANCH   1  21
ATOM     21  C   UNL A   1      39.922  20.781  25.883  1.00  0.00     0.275 C 
BRANCH  21  22
ATOM     22  O   UNL A   1      40.021  22.039  26.579  1.00  0.00    -0.458 OA
BRANCH  22  23
ATOM     23  C   UNL A   1      39.071  22.950  26.266  1.00  0.00     0.338 C 
ATOM     24  O   UNL A   1      38.036  22.756  25.644  1.00  0.00    -0.246 OA
BRANCH  23  25
ATOM     25  C   UNL A   1      39.357  24.216  26.962  1.00  0.00     0.060 A 
ATOM     26  C   UNL A   1      40.066  25.185  26.251  1.00  0.00     0.016 A 
ATOM     27  C   UNL A   1      38.971  24.456  28.282  1.00  0.00     0.016 A 
ATOM     28  C   UNL A   1      40.344  26.422  26.825  1.00  0.00     0.010 A 
ATOM     29  C   UNL A   1      39.293  25.684  28.879  1.00  0.00     0.010 A 
ATOM     30  C   UNL A   1      39.975  26.674  28.149  1.00  0.00    -0.014 A 
BRANCH  30  31
ATOM     31  C   UNL A   1      40.404  27.941  28.787  1.00  0.00     0.031 A 
ATOM     32  C   UNL A   1      41.834  28.097  29.215  1.00  0.00     0.074 A 
ATOM     33  C   UNL A   1      39.540  28.960  28.936  1.00  0.00     0.049 A 
ATOM     34  N   UNL A   1      42.413  29.098  29.828  1.00  0.00    -0.248 NA
ATOM     35  C   UNL A   1      42.737  26.979  28.902  1.00  0.00     0.031 C 
ATOM     36  C   UNL A   1      38.146  28.955  28.496  1.00  0.00     0.029 A 
ATOM     37  N   UNL A   1      39.709  30.198  29.506  1.00  0.00    -0.354 N 
ATOM     38  C   UNL A   1      43.740  28.726  29.987  1.00  0.00     0.074 A 
ATOM     39  C   UNL A   1      43.883  27.406  29.412  1.00  0.00     0.031 C 
ATOM     40  C   UNL A   1      37.579  30.126  28.834  1.00  0.00     0.029 A 
ATOM     41  C   UNL A   1      38.560  30.948  29.541  1.00  0.00     0.049 A 
ATOM     42  H   UNL A   1      40.573  30.517  29.856  1.00  0.00     0.167 HD
ATOM     43  C   UNL A   1      44.746  29.425  30.563  1.00  0.00     0.037 A 
ATOM     44  C   UNL A   1      38.322  32.147  30.108  1.00  0.00     0.037 A 
ATOM     45  C   UNL A   1      44.605  30.742  31.125  1.00  0.00     0.049 A 
ATOM     46  C   UNL A   1      39.446  32.871  30.806  1.00  0.00     0.074 A 
ATOM     47  C   UNL A   1      45.574  31.535  31.715  1.00  0.00     0.029 A 
ATOM     48  N   UNL A   1      43.418  31.456  31.175  1.00  0.00    -0.354 N 
ATOM     49  N   UNL A   1      40.702  32.520  30.941  1.00  0.00    -0.248 NA
ATOM     50  C   UNL A   1      39.117  34.162  31.431  1.00  0.00     0.031 C 
ATOM     51  C   UNL A   1      44.963  32.709  32.166  1.00  0.00     0.029 A 
ATOM     52  C   UNL A   1      43.625  32.670  31.811  1.00  0.00     0.049 A 
ATOM     53  H   UNL A   1      42.557  31.147  30.811  1.00  0.00     0.167 HD
ATOM     54  C   UNL A   1      41.316  33.552  31.639  1.00  0.00     0.074 A 
ATOM     55  C   UNL A   1      40.299  34.551  31.888  1.00  0.00     0.031 C 
ATOM     56  C   UNL A   1      42.606  33.661  32.041  1.00  0.00     0.037 A 
BRANCH  43  57
ATOM     57  C   UNL A   1      46.086  28.762  30.655  1.00  0.00     0.064 A 
ATOM     58  C   UNL A   1      46.456  27.991  31.766  1.00  0.00     0.173 A 
ATOM     59  C   UNL A   1      46.992  28.859  29.588  1.00  0.00     0.173 A 
ATOM     60  F   UNL A   1      45.630  27.881  32.817  1.00  0.00    -0.203 F 
ATOM     61  C   UNL A   1      47.691  27.349  31.810  1.00  0.00     0.198 A 
ATOM     62  C   UNL A   1      48.216  28.198  29.625  1.00  0.00     0.198 A 
ATOM     63  F   UNL A   1      46.683  29.583  28.502  1.00  0.00    -0.203 F 
ATOM     64  F   UNL A   1      48.039  26.642  32.894  1.00  0.00    -0.200 F 
ATOM     65  C   UNL A   1      48.565  27.446  30.737  1.00  0.00     0.200 A 
ATOM     66  F   UNL A   1      49.054  28.283  28.584  1.00  0.00    -0.200 F 
ATOM     67  F   UNL A   1      49.748  26.818  30.776  1.00  0.00    -0.200 F 
ENDBRANCH  43  57
BRANCH  44  68
ATOM     68  C   UNL A   1      36.952  32.725  30.089  1.00  0.00     0.064 A 
ATOM     69  C   UNL A   1      36.517  33.535  29.030  1.00  0.00     0.173 A 
ATOM     70  C   UNL A   1      36.067  32.518  31.158  1.00  0.00     0.173 A 
ATOM     71  F   UNL A   1      37.337  33.789  28.000  1.00  0.00    -0.203 F 
ATOM     72  C   UNL A   1      35.260  34.138  29.056  1.00  0.00     0.198 A 
ATOM     73  C   UNL A   1      34.800  33.095  31.167  1.00  0.00     0.198 A 
ATOM     74  F   UNL A   1      36.437  31.758  32.199  1.00  0.00    -0.203 F 
ATOM     75  F   UNL A   1      34.892  34.957  28.061  1.00  0.00    -0.200 F 
ATOM     76  C   UNL A   1      34.401  33.913  30.122  1.00  0.00     0.200 A 
ATOM     77  F   UNL A   1      33.972  32.872  32.196  1.00  0.00    -0.200 F 
ATOM     78  F   UNL A   1      33.197  34.500  30.149  1.00  0.00    -0.200 F 
ENDBRANCH  44  68
BRANCH  56  79
ATOM     79  C   UNL A   1      43.004  34.918  32.759  1.00  0.00     0.064 A 
ATOM     80  C   UNL A   1      43.437  36.056  32.065  1.00  0.00     0.173 A 
ATOM     81  C   UNL A   1      42.904  34.998  34.156  1.00  0.00     0.173 A 
ATOM     82  F   UNL A   1      43.563  36.027  30.731  1.00  0.00    -0.203 F 
ATOM     83  C   UNL A   1      43.779  37.222  32.747  1.00  0.00     0.198 A 
ATOM     84  C   UNL A   1      43.219  36.174  34.832  1.00  0.00     0.198 A 
ATOM     85  F   UNL A   1      42.487  33.939  34.868  1.00  0.00    -0.203 F 
ATOM     86  F   UNL A   1      44.233  38.285  32.066  1.00  0.00    -0.200 F 
ATOM     87  C   UNL A   1      43.662  37.282  34.128  1.00  0.00     0.200 A 
ATOM     88  F   UNL A   1      43.091  36.234  36.165  1.00  0.00    -0.200 F 
ATOM     89  F   UNL A   1      43.982  38.408  34.780  1.00  0.00    -0.200 F 
ENDBRANCH  56  79
ENDBRANCH  30  31
ENDBRANCH  23  25
ENDBRANCH  22  23
ENDBRANCH  21  22
ENDBRANCH   1  21
TORSDOF 14
ENDMDL
MODEL 3
REMARK VINA RESULT:     -11.7      5.034     11.325
REMARK SMILES COc1ccccc1-c1ccc(O)c(C(=O)OCCOC(=O)c2ccc(-c3c4nc(c(-c5c(F)c(F)c(F)c(F)c5F)c5ccc([nH]5)c(-c5c(F)c(F)c(F)c(F)c5F)c5nc(c(-c6c(F)c(F)c(F)c(F)c6F)c6ccc3[nH]6)C=C5)C=C4)cc2)c1
REMARK SMILES IDX 18 1 17 2 15 3 16 4 14 5 9 6 10 7 86 8 11 9 12 10 8 11 3 12
REMARK SMILES IDX 4 13 5 14 7 15 6 16 2 17 1 18 13 19 19 21 20 22 21 23 22 24
REMARK SMILES IDX 23 25 24 26 85 27 25 28 84 29 26 30 27 31 28 32 78 33 29 34
REMARK SMILES IDX 83 35 77 36 79 37 30 38 82 39 76 40 75 41 31 43 63 44 43 45
REMARK SMILES IDX 62 46 44 47 47 48 61 49 80 50 45 51 46 52 60 54 81 55 48 56
REMARK SMILES IDX 32 57 33 58 41 59 34 60 35 61 39 62 42 63 36 64 37 65 40 66
REMARK SMILES IDX 38 67 64 68 65 69 73 70 66 71 67 72 71 73 74 74 68 75 69 76
REMARK SMILES IDX 72 77 70 78 49 79 50 80 58 81 51 82 52 83 56 84 59 85 53 86
REMARK SMILES IDX 54 87 57 88 55 89
REMARK H PARENT 13 20 79 42 47 53
REMARK Flexibility Score: inf
ROOT
ATOM      1  C   UNL A   1      33.253  34.238  28.124  1.00  0.00     0.275 C 
ENDROOT
BRANCH   1   2
ATOM      2  O   UNL A   1      32.715  34.635  29.400  1.00  0.00    -0.458 OA
BRANCH   2   3
ATOM      3  C   UNL A   1      33.201  35.784  29.925  1.00  0.00     0.342 C 
ATOM      4  O   UNL A   1      33.128  36.901  29.428  1.00  0.00    -0.246 OA
BRANCH   3   5
ATOM      5  C   UNL A   1      33.781  35.576  31.274  1.00  0.00     0.102 A 
ATOM      6  C   UNL A   1      35.102  34.279  32.863  1.00  0.00    -0.014 A 
ATOM      7  C   UNL A   1      34.783  35.214  33.862  1.00  0.00     0.013 A 
ATOM      8  C   UNL A   1      34.540  34.440  31.583  1.00  0.00     0.028 A 
ATOM      9  C   UNL A   1      34.027  36.346  33.565  1.00  0.00     0.048 A 
ATOM     10  C   UNL A   1      33.571  36.546  32.266  1.00  0.00     0.130 A 
BRANCH   6  11
ATOM     11  C   UNL A   1      36.133  33.260  33.117  1.00  0.00     0.024 A 
ATOM     12  C   UNL A   1      37.314  33.569  33.826  1.00  0.00     0.126 A 
ATOM     13  C   UNL A   1      38.267  32.588  34.107  1.00  0.00     0.047 A 
ATOM     14  C   UNL A   1      38.046  31.270  33.716  1.00  0.00     0.004 A 
ATOM     15  C   UNL A   1      35.940  31.925  32.720  1.00  0.00     0.012 A 
ATOM     16  C   UNL A   1      36.886  30.939  33.019  1.00  0.00     0.001 A 
BRANCH  12  17
ATOM     17  O   UNL A   1      37.634  34.849  34.217  1.00  0.00    -0.496 OA
ATOM     18  C   UNL A   1      38.997  34.959  34.630  1.00  0.00     0.278 C 
ENDBRANCH  12  17
ENDBRANCH   6  11
BRANCH  10  19
ATOM     19  O   UNL A   1      32.904  37.723  32.044  1.00  0.00    -0.507 OA
ATOM     20  H   UNL A   1      32.046  37.711  31.666  1.00  0.00     0.293 HD
ENDBRANCH  10  19
ENDBRANCH   3   5
ENDBRANCH   2   3
ENDBRANCH   1   2
BRANCH   1  21
ATOM     21  C   UNL A   1      33.049  32.740  27.883  1.00  0.00     0.275 C 
BRANCH  21  22
ATOM     22  O   UNL A   1      34.104  31.968  28.489  1.00  0.00    -0.458 OA
BRANCH  22  23
ATOM     23  C   UNL A   1      34.258  30.715  28.000  1.00  0.00     0.338 C 
ATOM     24  O   UNL A   1      33.464  30.085  27.315  1.00  0.00    -0.246 OA
BRANCH  23  25
ATOM     25  C   UNL A   1      35.637  30.260  28.245  1.00  0.00     0.060 A 
ATOM     26  C   UNL A   1      35.912  29.713  29.499  1.00  0.00     0.016 A 
ATOM     27  C   UNL A   1      36.652  30.377  27.293  1.00  0.00     0.016 A 
ATOM     28  C   UNL A   1      37.180  29.225  29.796  1.00  0.00     0.010 A 
ATOM     29  C   UNL A   1      37.943  29.931  27.607  1.00  0.00     0.010 A 
ATOM     30  C   UNL A   1      38.210  29.347  28.859  1.00  0.00    -0.014 A 
BRANCH  30  31
ATOM     31  C   UNL A   1      39.585  28.952  29.245  1.00  0.00     0.031 A 
ATOM     32  C   UNL A   1      40.394  29.871  30.114  1.00  0.00     0.074 A 
ATOM     33  C   UNL A   1      40.088  27.763  28.868  1.00  0.00     0.049 A 
ATOM     34  N   UNL A   1      41.628  29.745  30.533  1.00  0.00    -0.248 NA
ATOM     35  C   UNL A   1      39.720  31.093  30.578  1.00  0.00     0.031 C 
ATOM     36  C   UNL A   1      39.375  26.755  28.086  1.00  0.00     0.029 A 
ATOM     37  N   UNL A   1      41.323  27.205  29.092  1.00  0.00    -0.354 N 
ATOM     38  C   UNL A   1      41.882  30.874  31.298  1.00  0.00     0.074 A 
ATOM     39  C   UNL A   1      40.679  31.678  31.283  1.00  0.00     0.031 C 
ATOM     40  C   UNL A   1      40.193  25.710  27.873  1.00  0.00     0.029 A 
ATOM     41  C   UNL A   1      41.495  25.990  28.476  1.00  0.00     0.049 A 
ATOM     42  H   UNL A   1      42.018  27.636  29.640  1.00  0.00     0.167 HD
ATOM     43  C   UNL A   1      43.019  31.207  31.953  1.00  0.00     0.037 A 
ATOM     44  C   UNL A   1      42.590  25.209  28.385  1.00  0.00     0.037 A 
ATOM     45  C   UNL A   1      44.210  30.402  31.978  1.00  0.00     0.049 A 
ATOM     46  C   UNL A   1      43.864  25.641  29.066  1.00  0.00     0.074 A 
ATOM     47  C   UNL A   1      45.405  30.651  32.630  1.00  0.00     0.029 A 
ATOM     48  N   UNL A   1      44.361  29.194  31.315  1.00  0.00    -0.354 N 
ATOM     49  N   UNL A   1      44.095  26.704  29.800  1.00  0.00    -0.248 NA
ATOM     50  C   UNL A   1      45.034  24.763  28.907  1.00  0.00     0.031 C 
ATOM     51  C   UNL A   1      46.296  29.618  32.320  1.00  0.00     0.029 A 
ATOM     52  C   UNL A   1      45.639  28.700  31.518  1.00  0.00     0.049 A 
ATOM     53  H   UNL A   1      43.662  28.752  30.778  1.00  0.00     0.167 HD
ATOM     54  C   UNL A   1      45.419  26.609  30.208  1.00  0.00     0.074 A 
ATOM     55  C   UNL A   1      45.940  25.377  29.653  1.00  0.00     0.031 C 
ATOM     56  C   UNL A   1      46.140  27.466  30.971  1.00  0.00     0.037 A 
BRANCH  43  57
ATOM     57  C   UNL A   1      43.047  32.524  32.667  1.00  0.00     0.064 A 
ATOM     58  C   UNL A   1      43.437  33.706  32.023  1.00  0.00     0.173 A 
ATOM     59  C   UNL A   1      42.624  32.608  34.002  1.00  0.00     0.173 A 
ATOM     60  F   UNL A   1      43.863  33.674  30.751  1.00  0.00    -0.203 F 
ATOM     61  C   UNL A   1      43.414  34.926  32.695  1.00  0.00     0.198 A 
ATOM     62  C   UNL A   1      42.580  33.832  34.663  1.00  0.00     0.198 A 
ATOM     63  F   UNL A   1      42.239  31.505  34.660  1.00  0.00    -0.203 F 
ATOM     64  F   UNL A   1      43.820  36.041  32.071  1.00  0.00    -0.200 F 
ATOM     65  C   UNL A   1      42.978  34.989  34.010  1.00  0.00     0.200 A 
ATOM     66  F   UNL A   1      42.149  33.892  35.930  1.00  0.00    -0.200 F 
ATOM     67  F   UNL A   1      42.945  36.164  34.652  1.00  0.00    -0.200 F 
ENDBRANCH  43  57
BRANCH  44  68
ATOM     68  C   UNL A   1      42.553  23.961  27.579  1.00  0.00     0.064 A 
ATOM     69  C   UNL A   1      42.220  22.728  28.158  1.00  0.00     0.173 A 
ATOM     70  C   UNL A   1      42.904  23.969  26.220  1.00  0.00     0.173 A 
ATOM     71  F   UNL A   1      41.908  22.662  29.461  1.00  0.00    -0.203 F 
ATOM     72  C   UNL A   1      42.264  21.549  27.415  1.00  0.00     0.198 A 
ATOM     73  C   UNL A   1      42.917  22.795  25.472  1.00  0.00     0.198 A 
ATOM     74  F   UNL A   1      43.240  25.121  25.621  1.00  0.00    -0.203 F 
ATOM     75  F   UNL A   1      42.000  20.377  28.007  1.00  0.00    -0.200 F 
ATOM     76  C   UNL A   1      42.608  21.585  26.071  1.00  0.00     0.200 A 
ATOM     77  F   UNL A   1      43.245  22.836  24.173  1.00  0.00    -0.200 F 
ATOM     78  F   UNL A   1      42.658  20.450  25.360  1.00  0.00    -0.200 F 
ENDBRANCH  44  68
BRANCH  56  79
ATOM     79  C   UNL A   1      47.559  27.088  31.284  1.00  0.00     0.064 A 
ATOM     80  C   UNL A   1      47.877  26.251  32.363  1.00  0.00     0.173 A 
ATOM     81  C   UNL A   1      48.609  27.533  30.466  1.00  0.00     0.173 A 
ATOM     82  F   UNL A   1      46.912  25.811  33.183  1.00  0.00    -0.203 F 
ATOM     83  C   UNL A   1      49.197  25.891  32.624  1.00  0.00     0.198 A 
ATOM     84  C   UNL A   1      49.924  27.147  30.713  1.00  0.00     0.198 A 
ATOM     85  F   UNL A   1      48.358  28.330  29.416  1.00  0.00    -0.203 F 
ATOM     86  F   UNL A   1      49.482  25.124  33.687  1.00  0.00    -0.200 F 
ATOM     87  C   UNL A   1      50.217  26.333  31.795  1.00  0.00     0.200 A 
ATOM     88  F   UNL A   1      50.906  27.564  29.901  1.00  0.00    -0.200 F 
ATOM     89  F   UNL A   1      51.485  25.977  32.043  1.00  0.00    -0.200 F 
ENDBRANCH  56  79
ENDBRANCH  30  31
ENDBRANCH  23  25
ENDBRANCH  22  23
ENDBRANCH  21  22
ENDBRANCH   1  21
TORSDOF 14
ENDMDL
