MODEL 1
REMARK VINA RESULT:     -15.1      0.000      0.000
REMARK SMILES Cc1ccc(C)c(-c2cc(C(=O)OCCOC(=O)c3ccc(-c4c5nc(c(-c6c(F)c(F)c(F)c(F)c6F)c6ccc([nH]6)c(-c6c(F)c(F)c(F)c(F)c6F)c6nc(c(-c7c(F)c(F)c(F)c(F)c7F)c7ccc4[nH]7)C=C6)C=C5)cc3)c3cc(C)ccc3n2)c1
REMARK SMILES IDX 15 1 14 2 13 3 11 4 12 5 10 6 8 7 9 8 89 9 88 10 82 11 87 12
REMARK SMILES IDX 83 13 86 14 84 15 85 16 7 17 1 18 2 19 3 20 90 21 4 22 5 23
REMARK SMILES IDX 6 24 16 25 17 26 18 27 19 28 20 29 81 30 21 31 80 32 22 33
REMARK SMILES IDX 23 34 24 35 74 36 25 37 79 38 73 39 75 40 26 41 78 42 72 43
REMARK SMILES IDX 71 44 27 46 59 47 39 48 58 49 40 50 43 51 57 52 76 53 41 54
REMARK SMILES IDX 42 55 56 57 77 58 44 59 28 60 29 61 37 62 30 63 31 64 35 65
REMARK SMILES IDX 38 66 32 67 33 68 36 69 34 70 60 71 61 72 69 73 62 74 63 75
REMARK SMILES IDX 67 76 70 77 64 78 65 79 68 80 66 81 45 82 46 83 54 84 47 85
REMARK SMILES IDX 48 86 52 87 55 88 49 89 50 90 53 91 51 92
REMARK H PARENT 75 45 43 56
REMARK Flexibility Score: inf
ROOT
ATOM      1  C   UNL A   1      36.103  30.096  30.342  1.00  0.00     0.275 C 
ENDROOT
BRANCH   1   2
ATOM      2  C   UNL A   1      35.804  30.902  29.080  1.00  0.00     0.275 C 
BRANCH   2   3
ATOM      3  O   UNL A   1      35.537  29.961  28.037  1.00  0.00    -0.458 OA
BRANCH   3   4
ATOM      4  C   UNL A   1      34.225  30.073  27.310  1.00  0.00     0.339 C 
ATOM      5  O   UNL A   1      33.788  31.118  27.866  1.00  0.00    -0.246 OA
BRANCH   4   6
ATOM      6  C   UNL A   1      33.474  28.734  25.777  1.00  0.00     0.071 A 
ATOM      7  C   UNL A   1      33.332  26.184  24.863  1.00  0.00     0.072 A 
ATOM      8  C   UNL A   1      34.013  27.300  25.417  1.00  0.00     0.045 A 
ATOM      9  N   UNL A   1      32.139  26.328  24.313  1.00  0.00    -0.248 NA
ATOM     10  C   UNL A   1      31.591  27.522  24.232  1.00  0.00     0.072 A 
ATOM     11  C   UNL A   1      32.065  28.749  24.858  1.00  0.00     0.015 A 
ATOM     12  C   UNL A   1      30.432  27.391  23.458  1.00  0.00     0.029 A 
ATOM     13  C   UNL A   1      31.033  29.766  24.498  1.00  0.00     0.014 A 
ATOM     14  C   UNL A   1      29.568  28.430  23.169  1.00  0.00     0.005 A 
ATOM     15  C   UNL A   1      29.867  29.652  23.700  1.00  0.00    -0.050 A 
ATOM     16  C   UNL A   1      28.985  30.849  23.500  1.00  0.00     0.044 C 
BRANCH   7  17
ATOM     17  C   UNL A   1      33.796  24.752  24.908  1.00  0.00     0.003 A 
ATOM     18  C   UNL A   1      36.653  22.578  23.424  1.00  0.00     0.044 C 
ATOM     19  C   UNL A   1      35.444  23.018  24.204  1.00  0.00    -0.050 A 
ATOM     20  C   UNL A   1      34.794  22.068  24.988  1.00  0.00     0.004 A 
ATOM     21  C   UNL A   1      34.941  24.343  24.167  1.00  0.00     0.014 A 
ATOM     22  C   UNL A   1      33.710  22.447  25.769  1.00  0.00     0.004 A 
ATOM     23  C   UNL A   1      33.227  23.778  25.767  1.00  0.00    -0.042 A 
ATOM     24  C   UNL A   1      32.116  24.067  26.738  1.00  0.00     0.045 C 
ENDBRANCH   7  17
ENDBRANCH   4   6
ENDBRANCH   3   4
ENDBRANCH   2   3
ENDBRANCH   1   2
BRANCH   1  25
ATOM     25  O   UNL A   1      37.515  30.039  30.704  1.00  0.00    -0.458 OA
BRANCH  25  26
ATOM     26  C   UNL A   1      38.368  29.134  30.137  1.00  0.00     0.338 C 
ATOM     27  O   UNL A   1      38.526  27.989  30.522  1.00  0.00    -0.246 OA
BRANCH  26  28
ATOM     28  C   UNL A   1      39.312  29.767  29.191  1.00  0.00     0.060 A 
ATOM     29  C   UNL A   1      39.209  29.193  27.468  1.00  0.00     0.016 A 
ATOM     30  C   UNL A   1      40.917  30.152  29.911  1.00  0.00     0.016 A 
ATOM     31  C   UNL A   1      40.758  28.953  26.477  1.00  0.00     0.010 A 
ATOM     32  C   UNL A   1      42.448  29.824  28.929  1.00  0.00     0.010 A 
ATOM     33  C   UNL A   1      42.374  29.159  27.255  1.00  0.00    -0.014 A 
BRANCH  33  34
ATOM     34  C   UNL A   1      43.619  28.286  27.002  1.00  0.00     0.031 A 
ATOM     35  C   UNL A   1      43.144  26.881  26.944  1.00  0.00     0.074 A 
ATOM     36  C   UNL A   1      44.907  28.516  26.553  1.00  0.00     0.049 A 
ATOM     37  N   UNL A   1      43.060  26.091  27.963  1.00  0.00    -0.248 NA
ATOM     38  C   UNL A   1      42.420  26.392  25.756  1.00  0.00     0.031 C 
ATOM     39  C   UNL A   1      45.626  29.758  26.222  1.00  0.00     0.029 A 
ATOM     40  N   UNL A   1      45.907  27.578  26.248  1.00  0.00    -0.354 N 
ATOM     41  C   UNL A   1      42.467  24.943  27.467  1.00  0.00     0.074 A 
ATOM     42  C   UNL A   1      41.781  25.340  26.272  1.00  0.00     0.031 C 
ATOM     43  C   UNL A   1      46.810  29.503  25.592  1.00  0.00     0.029 A 
ATOM     44  C   UNL A   1      47.060  28.072  25.575  1.00  0.00     0.049 A 
ATOM     45  H   UNL A   1      45.817  26.628  26.489  1.00  0.00     0.167 HD
ATOM     46  C   UNL A   1      42.894  23.709  27.845  1.00  0.00     0.037 A 
ATOM     47  C   UNL A   1      48.174  27.385  25.130  1.00  0.00     0.037 A 
ATOM     48  C   UNL A   1      43.799  23.809  28.967  1.00  0.00     0.049 A 
ATOM     49  C   UNL A   1      48.234  26.122  25.902  1.00  0.00     0.074 A 
ATOM     50  C   UNL A   1      43.709  24.347  30.237  1.00  0.00     0.029 A 
ATOM     51  N   UNL A   1      45.143  23.716  28.698  1.00  0.00    -0.354 N 
ATOM     52  N   UNL A   1      48.467  26.081  27.182  1.00  0.00    -0.248 NA
ATOM     53  C   UNL A   1      47.522  24.992  25.334  1.00  0.00     0.031 C 
ATOM     54  C   UNL A   1      44.959  24.997  30.456  1.00  0.00     0.029 A 
ATOM     55  C   UNL A   1      45.789  24.723  29.371  1.00  0.00     0.049 A 
ATOM     56  H   UNL A   1      45.571  23.043  28.120  1.00  0.00     0.167 HD
ATOM     57  C   UNL A   1      47.513  25.200  27.655  1.00  0.00     0.074 A 
ATOM     58  C   UNL A   1      46.967  24.546  26.463  1.00  0.00     0.031 C 
ATOM     59  C   UNL A   1      47.026  25.314  28.922  1.00  0.00     0.037 A 
BRANCH  46  60
ATOM     60  C   UNL A   1      42.829  22.482  26.970  1.00  0.00     0.064 A 
ATOM     61  C   UNL A   1      41.985  21.427  27.361  1.00  0.00     0.173 A 
ATOM     62  C   UNL A   1      43.723  22.183  25.915  1.00  0.00     0.173 A 
ATOM     63  F   UNL A   1      41.113  21.592  28.366  1.00  0.00    -0.203 F 
ATOM     64  C   UNL A   1      42.074  20.158  26.784  1.00  0.00     0.198 A 
ATOM     65  C   UNL A   1      43.767  20.934  25.302  1.00  0.00     0.198 A 
ATOM     66  F   UNL A   1      44.670  23.033  25.503  1.00  0.00    -0.203 F 
ATOM     67  F   UNL A   1      41.333  19.155  27.272  1.00  0.00    -0.200 F 
ATOM     68  C   UNL A   1      42.966  19.913  25.756  1.00  0.00     0.200 A 
ATOM     69  F   UNL A   1      44.655  20.716  24.320  1.00  0.00    -0.200 F 
ATOM     70  F   UNL A   1      43.092  18.685  25.239  1.00  0.00    -0.200 F 
ENDBRANCH  46  60
BRANCH  47  71
ATOM     71  C   UNL A   1      49.072  27.519  23.918  1.00  0.00     0.064 A 
ATOM     72  C   UNL A   1      50.460  27.206  23.933  1.00  0.00     0.173 A 
ATOM     73  C   UNL A   1      48.505  27.613  22.637  1.00  0.00     0.173 A 
ATOM     74  F   UNL A   1      51.101  27.017  25.097  1.00  0.00    -0.203 F 
ATOM     75  C   UNL A   1      51.206  26.999  22.752  1.00  0.00     0.198 A 
ATOM     76  C   UNL A   1      49.246  27.396  21.462  1.00  0.00     0.198 A 
ATOM     77  F   UNL A   1      47.187  27.812  22.504  1.00  0.00    -0.203 F 
ATOM     78  F   UNL A   1      52.502  26.653  22.817  1.00  0.00    -0.200 F 
ATOM     79  C   UNL A   1      50.591  27.082  21.518  1.00  0.00     0.200 A 
ATOM     80  F   UNL A   1      48.625  27.425  20.273  1.00  0.00    -0.200 F 
ATOM     81  F   UNL A   1      51.276  26.820  20.393  1.00  0.00    -0.200 F 
ENDBRANCH  47  71
BRANCH  59  82
ATOM     82  C   UNL A   1      47.715  26.266  29.865  1.00  0.00     0.064 A 
ATOM     83  C   UNL A   1      48.941  26.009  30.507  1.00  0.00     0.173 A 
ATOM     84  C   UNL A   1      47.188  27.557  29.990  1.00  0.00     0.173 A 
ATOM     85  F   UNL A   1      49.552  24.827  30.376  1.00  0.00    -0.203 F 
ATOM     86  C   UNL A   1      49.594  26.994  31.250  1.00  0.00     0.198 A 
ATOM     87  C   UNL A   1      47.856  28.548  30.703  1.00  0.00     0.198 A 
ATOM     88  F   UNL A   1      46.043  27.874  29.366  1.00  0.00    -0.203 F 
ATOM     89  F   UNL A   1      50.765  26.724  31.846  1.00  0.00    -0.200 F 
ATOM     90  C   UNL A   1      49.055  28.266  31.338  1.00  0.00     0.200 A 
ATOM     91  F   UNL A   1      47.353  29.789  30.744  1.00  0.00    -0.200 F 
ATOM     92  F   UNL A   1      49.703  29.229  32.008  1.00  0.00    -0.200 F 
ENDBRANCH  59  82
ENDBRANCH  33  34
ENDBRANCH  26  28
ENDBRANCH  25  26
ENDBRANCH   1  25
TORSDOF 12
ENDMDL
MODEL 2
REMARK VINA RESULT:     -14.8      4.087      9.389
REMARK SMILES Cc1ccc(C)c(-c2cc(C(=O)OCCOC(=O)c3ccc(-c4c5nc(c(-c6c(F)c(F)c(F)c(F)c6F)c6ccc([nH]6)c(-c6c(F)c(F)c(F)c(F)c6F)c6nc(c(-c7c(F)c(F)c(F)c(F)c7F)c7ccc4[nH]7)C=C6)C=C5)cc3)c3cc(C)ccc3n2)c1
REMARK SMILES IDX 15 1 14 2 13 3 11 4 12 5 10 6 8 7 9 8 89 9 88 10 82 11 87 12
REMARK SMILES IDX 83 13 86 14 84 15 85 16 7 17 1 18 2 19 3 20 90 21 4 22 5 23
REMARK SMILES IDX 6 24 16 25 17 26 18 27 19 28 20 29 81 30 21 31 80 32 22 33
REMARK SMILES IDX 23 34 24 35 74 36 25 37 79 38 73 39 75 40 26 41 78 42 72 43
REMARK SMILES IDX 71 44 27 46 59 47 39 48 58 49 40 50 43 51 57 52 76 53 41 54
REMARK SMILES IDX 42 55 56 57 77 58 44 59 28 60 29 61 37 62 30 63 31 64 35 65
REMARK SMILES IDX 38 66 32 67 33 68 36 69 34 70 60 71 61 72 69 73 62 74 63 75
REMARK SMILES IDX 67 76 70 77 64 78 65 79 68 80 66 81 45 82 46 83 54 84 47 85
REMARK SMILES IDX 48 86 52 87 55 88 49 89 50 90 53 91 51 92
REMARK H PARENT 75 45 43 56
REMARK Flexibility Score: inf
ROOT
ATOM      1  C   UNL A   1      41.185  20.099  26.137  1.00  0.00     0.275 C 
ENDROOT
BRANCH   1   2
ATOM      2  C   UNL A   1      40.476  21.403  26.496  1.00  0.00     0.275 C 
BRANCH   2   3
ATOM      3  O   UNL A   1      39.214  21.391  25.826  1.00  0.00    -0.458 OA
BRANCH   3   4
ATOM      4  C   UNL A   1      38.296  22.564  26.037  1.00  0.00     0.339 C 
ATOM      5  O   UNL A   1      39.161  23.429  26.347  1.00  0.00    -0.246 OA
BRANCH   4   6
ATOM      6  C   UNL A   1      36.136  22.577  25.821  1.00  0.00     0.071 A 
ATOM      7  C   UNL A   1      33.914  24.055  25.340  1.00  0.00     0.072 A 
ATOM      8  C   UNL A   1      35.175  23.816  25.948  1.00  0.00     0.045 A 
ATOM      9  N   UNL A   1      33.250  23.072  24.757  1.00  0.00    -0.248 NA
ATOM     10  C   UNL A   1      33.732  21.848  24.778  1.00  0.00     0.072 A 
ATOM     11  C   UNL A   1      35.056  21.434  25.225  1.00  0.00     0.015 A 
ATOM     12  C   UNL A   1      32.746  21.008  24.248  1.00  0.00     0.029 A 
ATOM     13  C   UNL A   1      35.089  19.966  24.960  1.00  0.00     0.014 A 
ATOM     14  C   UNL A   1      32.893  19.644  24.083  1.00  0.00     0.005 A 
ATOM     15  C   UNL A   1      34.092  19.100  24.443  1.00  0.00    -0.050 A 
ATOM     16  C   UNL A   1      34.394  17.641  24.269  1.00  0.00     0.044 C 
BRANCH   7  17
ATOM     17  C   UNL A   1      33.242  25.395  25.193  1.00  0.00     0.003 A 
ATOM     18  C   UNL A   1      31.641  28.105  27.470  1.00  0.00     0.044 C 
ATOM     19  C   UNL A   1      32.154  27.367  26.264  1.00  0.00    -0.050 A 
ATOM     20  C   UNL A   1      32.016  27.978  25.019  1.00  0.00     0.004 A 
ATOM     21  C   UNL A   1      32.758  26.087  26.340  1.00  0.00     0.014 A 
ATOM     22  C   UNL A   1      32.529  27.356  23.888  1.00  0.00     0.004 A 
ATOM     23  C   UNL A   1      33.169  26.096  23.963  1.00  0.00    -0.042 A 
ATOM     24  C   UNL A   1      33.768  25.595  22.678  1.00  0.00     0.045 C 
ENDBRANCH   7  17
ENDBRANCH   4   6
ENDBRANCH   3   4
ENDBRANCH   2   3
ENDBRANCH   1   2
BRANCH   1  25
ATOM     25  O   UNL A   1      42.631  20.124  26.325  1.00  0.00    -0.458 OA
BRANCH  25  26
ATOM     26  C   UNL A   1      43.497  20.093  25.269  1.00  0.00     0.338 C 
ATOM     27  O   UNL A   1      43.811  19.090  24.654  1.00  0.00    -0.246 OA
BRANCH  26  28
ATOM     28  C   UNL A   1      44.256  21.355  25.126  1.00  0.00     0.060 A 
ATOM     29  C   UNL A   1      45.442  21.718  26.457  1.00  0.00     0.016 A 
ATOM     30  C   UNL A   1      43.312  22.693  24.380  1.00  0.00     0.016 A 
ATOM     31  C   UNL A   1      45.634  23.455  27.078  1.00  0.00     0.010 A 
ATOM     32  C   UNL A   1      43.461  24.399  25.075  1.00  0.00     0.010 A 
ATOM     33  C   UNL A   1      44.555  24.763  26.460  1.00  0.00    -0.014 A 
BRANCH  33  34
ATOM     34  C   UNL A   1      43.948  25.907  27.297  1.00  0.00     0.031 A 
ATOM     35  C   UNL A   1      44.725  27.129  26.968  1.00  0.00     0.074 A 
ATOM     36  C   UNL A   1      42.764  26.102  27.985  1.00  0.00     0.049 A 
ATOM     37  N   UNL A   1      45.785  27.517  27.596  1.00  0.00    -0.248 NA
ATOM     38  C   UNL A   1      44.519  27.812  25.678  1.00  0.00     0.031 C 
ATOM     39  C   UNL A   1      41.629  25.206  28.261  1.00  0.00     0.029 A 
ATOM     40  N   UNL A   1      42.295  27.272  28.605  1.00  0.00    -0.354 N 
ATOM     41  C   UNL A   1      46.230  28.616  26.882  1.00  0.00     0.074 A 
ATOM     42  C   UNL A   1      45.664  28.490  25.572  1.00  0.00     0.031 C 
ATOM     43  C   UNL A   1      40.563  25.885  28.778  1.00  0.00     0.029 A 
ATOM     44  C   UNL A   1      40.936  27.265  29.032  1.00  0.00     0.049 A 
ATOM     45  H   UNL A   1      42.875  28.056  28.739  1.00  0.00     0.167 HD
ATOM     46  C   UNL A   1      46.698  29.725  27.516  1.00  0.00     0.037 A 
ATOM     47  C   UNL A   1      40.206  28.271  29.637  1.00  0.00     0.037 A 
ATOM     48  C   UNL A   1      46.894  29.459  28.922  1.00  0.00     0.049 A 
ATOM     49  C   UNL A   1      41.184  29.206  30.241  1.00  0.00     0.074 A 
ATOM     50  C   UNL A   1      47.634  28.538  29.639  1.00  0.00     0.029 A 
ATOM     51  N   UNL A   1      45.922  29.907  29.785  1.00  0.00    -0.354 N 
ATOM     52  N   UNL A   1      41.952  28.884  31.241  1.00  0.00    -0.248 NA
ATOM     53  C   UNL A   1      41.645  30.287  29.390  1.00  0.00     0.031 C 
ATOM     54  C   UNL A   1      46.782  28.123  30.704  1.00  0.00     0.029 A 
ATOM     55  C   UNL A   1      45.622  28.893  30.659  1.00  0.00     0.049 A 
ATOM     56  H   UNL A   1      45.511  30.802  29.777  1.00  0.00     0.167 HD
ATOM     57  C   UNL A   1      43.194  29.352  30.858  1.00  0.00     0.074 A 
ATOM     58  C   UNL A   1      42.939  30.226  29.709  1.00  0.00     0.031 C 
ATOM     59  C   UNL A   1      44.333  28.743  31.290  1.00  0.00     0.037 A 
BRANCH  46  60
ATOM     60  C   UNL A   1      46.587  31.126  26.968  1.00  0.00     0.064 A 
ATOM     61  C   UNL A   1      47.749  31.918  26.921  1.00  0.00     0.173 A 
ATOM     62  C   UNL A   1      45.376  31.813  26.722  1.00  0.00     0.173 A 
ATOM     63  F   UNL A   1      48.952  31.376  27.161  1.00  0.00    -0.203 F 
ATOM     64  C   UNL A   1      47.693  33.297  26.707  1.00  0.00     0.198 A 
ATOM     65  C   UNL A   1      45.330  33.177  26.448  1.00  0.00     0.198 A 
ATOM     66  F   UNL A   1      44.176  31.235  26.844  1.00  0.00    -0.203 F 
ATOM     67  F   UNL A   1      48.813  34.027  26.790  1.00  0.00    -0.200 F 
ATOM     68  C   UNL A   1      46.483  33.926  26.472  1.00  0.00     0.200 A 
ATOM     69  F   UNL A   1      44.142  33.766  26.244  1.00  0.00    -0.200 F 
ATOM     70  F   UNL A   1      46.421  35.254  26.321  1.00  0.00    -0.200 F 
ENDBRANCH  46  60
BRANCH  47  71
ATOM     71  C   UNL A   1      38.763  28.719  29.542  1.00  0.00     0.064 A 
ATOM     72  C   UNL A   1      37.949  28.984  30.678  1.00  0.00     0.173 A 
ATOM     73  C   UNL A   1      38.271  29.237  28.333  1.00  0.00     0.173 A 
ATOM     74  F   UNL A   1      38.346  28.604  31.903  1.00  0.00    -0.203 F 
ATOM     75  C   UNL A   1      36.745  29.718  30.598  1.00  0.00     0.198 A 
ATOM     76  C   UNL A   1      37.078  29.977  28.255  1.00  0.00     0.198 A 
ATOM     77  F   UNL A   1      38.999  29.127  27.215  1.00  0.00    -0.203 F 
ATOM     78  F   UNL A   1      36.037  29.990  31.706  1.00  0.00    -0.200 F 
ATOM     79  C   UNL A   1      36.319  30.225  29.385  1.00  0.00     0.200 A 
ATOM     80  F   UNL A   1      36.705  30.509  27.082  1.00  0.00    -0.200 F 
ATOM     81  F   UNL A   1      35.213  30.981  29.309  1.00  0.00    -0.200 F 
ENDBRANCH  47  71
BRANCH  59  82
ATOM     82  C   UNL A   1      44.215  27.701  32.373  1.00  0.00     0.064 A 
ATOM     83  C   UNL A   1      44.140  26.314  32.142  1.00  0.00     0.173 A 
ATOM     84  C   UNL A   1      44.350  28.121  33.701  1.00  0.00     0.173 A 
ATOM     85  F   UNL A   1      44.088  25.824  30.900  1.00  0.00    -0.203 F 
ATOM     86  C   UNL A   1      44.182  25.399  33.195  1.00  0.00     0.198 A 
ATOM     87  C   UNL A   1      44.425  27.206  34.748  1.00  0.00     0.198 A 
ATOM     88  F   UNL A   1      44.468  29.428  33.980  1.00  0.00    -0.203 F 
ATOM     89  F   UNL A   1      44.115  24.082  32.948  1.00  0.00    -0.200 F 
ATOM     90  C   UNL A   1      44.335  25.846  34.497  1.00  0.00     0.200 A 
ATOM     91  F   UNL A   1      44.620  27.644  35.999  1.00  0.00    -0.200 F 
ATOM     92  F   UNL A   1      44.425  24.969  35.506  1.00  0.00    -0.200 F 
ENDBRANCH  59  82
ENDBRANCH  33  34
ENDBRANCH  26  28
ENDBRANCH  25  26
ENDBRANCH   1  25
TORSDOF 12
ENDMDL
MODEL 3
REMARK VINA RESULT:     -14.7      6.972     12.689
REMARK SMILES Cc1ccc(C)c(-c2cc(C(=O)OCCOC(=O)c3ccc(-c4c5nc(c(-c6c(F)c(F)c(F)c(F)c6F)c6ccc([nH]6)c(-c6c(F)c(F)c(F)c(F)c6F)c6nc(c(-c7c(F)c(F)c(F)c(F)c7F)c7ccc4[nH]7)C=C6)C=C5)cc3)c3cc(C)ccc3n2)c1
REMARK SMILES IDX 15 1 14 2 13 3 11 4 12 5 10 6 8 7 9 8 89 9 88 10 82 11 87 12
REMARK SMILES IDX 83 13 86 14 84 15 85 16 7 17 1 18 2 19 3 20 90 21 4 22 5 23
REMARK SMILES IDX 6 24 16 25 17 26 18 27 19 28 20 29 81 30 21 31 80 32 22 33
REMARK SMILES IDX 23 34 24 35 74 36 25 37 79 38 73 39 75 40 26 41 78 42 72 43
REMARK SMILES IDX 71 44 27 46 59 47 39 48 58 49 40 50 43 51 57 52 76 53 41 54
REMARK SMILES IDX 42 55 56 57 77 58 44 59 28 60 29 61 37 62 30 63 31 64 35 65
REMARK SMILES IDX 38 66 32 67 33 68 36 69 34 70 60 71 61 72 69 73 62 74 63 75
REMARK SMILES IDX 67 76 70 77 64 78 65 79 68 80 66 81 45 82 46 83 54 84 47 85
REMARK SMILES IDX 48 86 52 87 55 88 49 89 50 90 53 91 51 92
REMARK H PARENT 75 45 43 56
REMARK Flexibility Score: inf
ROOT
ATOM      1  C   UNL A   1      41.091  24.830  26.991  1.00  0.00     0.275 C 
ENDROOT
BRANCH   1   2
ATOM      2  C   UNL A   1      40.052  23.785  27.394  1.00  0.00     0.275 C 
BRANCH   2   3
ATOM      3  O   UNL A   1      38.829  24.140  26.745  1.00  0.00    -0.458 OA
BRANCH   3   4
ATOM      4  C   UNL A   1      38.038  23.041  26.089  1.00  0.00     0.339 C 
ATOM      5  O   UNL A   1      38.988  22.250  25.835  1.00  0.00    -0.246 OA
BRANCH   4   6
ATOM      6  C   UNL A   1      35.893  23.002  25.766  1.00  0.00     0.071 A 
ATOM      7  C   UNL A   1      33.675  24.409  25.091  1.00  0.00     0.072 A 
ATOM      8  C   UNL A   1      34.907  24.228  25.774  1.00  0.00     0.045 A 
ATOM      9  N   UNL A   1      33.057  23.384  24.532  1.00  0.00    -0.248 NA
ATOM     10  C   UNL A   1      33.557  22.171  24.646  1.00  0.00     0.072 A 
ATOM     11  C   UNL A   1      34.863  21.808  25.182  1.00  0.00     0.015 A 
ATOM     12  C   UNL A   1      32.612  21.285  24.116  1.00  0.00     0.029 A 
ATOM     13  C   UNL A   1      34.932  20.328  25.002  1.00  0.00     0.014 A 
ATOM     14  C   UNL A   1      32.789  19.917  24.036  1.00  0.00     0.005 A 
ATOM     15  C   UNL A   1      33.977  19.416  24.486  1.00  0.00    -0.050 A 
ATOM     16  C   UNL A   1      34.310  17.955  24.410  1.00  0.00     0.044 C 
BRANCH   7  17
ATOM     17  C   UNL A   1      32.990  25.726  24.835  1.00  0.00     0.003 A 
ATOM     18  C   UNL A   1      33.583  28.951  22.751  1.00  0.00     0.044 C 
ATOM     19  C   UNL A   1      32.964  27.928  23.665  1.00  0.00    -0.050 A 
ATOM     20  C   UNL A   1      31.729  28.227  24.235  1.00  0.00     0.004 A 
ATOM     21  C   UNL A   1      33.583  26.690  23.970  1.00  0.00     0.014 A 
ATOM     22  C   UNL A   1      31.096  27.286  25.037  1.00  0.00     0.004 A 
ATOM     23  C   UNL A   1      31.691  26.031  25.314  1.00  0.00    -0.042 A 
ATOM     24  C   UNL A   1      30.846  25.074  26.108  1.00  0.00     0.045 C 
ENDBRANCH   7  17
ENDBRANCH   4   6
ENDBRANCH   3   4
ENDBRANCH   2   3
ENDBRANCH   1   2
BRANCH   1  25
ATOM     25  O   UNL A   1      40.533  26.047  26.412  1.00  0.00    -0.458 OA
BRANCH  25  26
ATOM     26  C   UNL A   1      40.425  27.204  27.131  1.00  0.00     0.338 C 
ATOM     27  O   UNL A   1      40.519  28.325  26.665  1.00  0.00    -0.246 OA
BRANCH  26  28
ATOM     28  C   UNL A   1      40.480  26.967  28.590  1.00  0.00     0.060 A 
ATOM     29  C   UNL A   1      38.878  26.699  29.408  1.00  0.00     0.016 A 
ATOM     30  C   UNL A   1      41.769  27.901  29.431  1.00  0.00     0.016 A 
ATOM     31  C   UNL A   1      38.558  27.434  31.081  1.00  0.00     0.010 A 
ATOM     32  C   UNL A   1      41.394  28.692  31.059  1.00  0.00     0.010 A 
ATOM     33  C   UNL A   1      39.779  28.524  31.842  1.00  0.00    -0.014 A 
BRANCH  33  34
ATOM     34  C   UNL A   1      39.474  29.800  32.652  1.00  0.00     0.031 A 
ATOM     35  C   UNL A   1      38.444  30.548  31.888  1.00  0.00     0.074 A 
ATOM     36  C   UNL A   1      39.693  30.216  33.952  1.00  0.00     0.049 A 
ATOM     37  N   UNL A   1      38.699  31.437  30.986  1.00  0.00    -0.248 NA
ATOM     38  C   UNL A   1      37.044  30.083  31.879  1.00  0.00     0.031 C 
ATOM     39  C   UNL A   1      40.418  29.595  35.073  1.00  0.00     0.029 A 
ATOM     40  N   UNL A   1      39.233  31.381  34.587  1.00  0.00    -0.354 N 
ATOM     41  C   UNL A   1      37.460  31.774  30.468  1.00  0.00     0.074 A 
ATOM     42  C   UNL A   1      36.594  30.672  30.770  1.00  0.00     0.031 C 
ATOM     43  C   UNL A   1      40.182  30.246  36.250  1.00  0.00     0.029 A 
ATOM     44  C   UNL A   1      39.400  31.445  36.000  1.00  0.00     0.049 A 
ATOM     45  H   UNL A   1      38.817  32.116  34.082  1.00  0.00     0.167 HD
ATOM     46  C   UNL A   1      37.144  33.066  30.184  1.00  0.00     0.037 A 
ATOM     47  C   UNL A   1      39.022  32.442  36.880  1.00  0.00     0.037 A 
ATOM     48  C   UNL A   1      38.321  33.901  30.244  1.00  0.00     0.049 A 
ATOM     49  C   UNL A   1      38.861  33.679  36.082  1.00  0.00     0.074 A 
ATOM     50  C   UNL A   1      39.548  33.890  29.608  1.00  0.00     0.029 A 
ATOM     51  N   UNL A   1      38.500  34.650  31.382  1.00  0.00    -0.354 N 
ATOM     52  N   UNL A   1      39.854  34.287  35.501  1.00  0.00    -0.248 NA
ATOM     53  C   UNL A   1      37.542  33.910  35.521  1.00  0.00     0.031 C 
ATOM     54  C   UNL A   1      40.498  34.203  30.625  1.00  0.00     0.029 A 
ATOM     55  C   UNL A   1      39.801  34.509  31.793  1.00  0.00     0.049 A 
ATOM     56  H   UNL A   1      37.811  35.195  31.828  1.00  0.00     0.167 HD
ATOM     57  C   UNL A   1      39.374  34.554  34.234  1.00  0.00     0.074 A 
ATOM     58  C   UNL A   1      37.930  34.312  34.310  1.00  0.00     0.031 C 
ATOM     59  C   UNL A   1      40.219  34.628  33.168  1.00  0.00     0.037 A 
BRANCH  46  60
ATOM     60  C   UNL A   1      35.749  33.635  30.258  1.00  0.00     0.064 A 
ATOM     61  C   UNL A   1      35.177  34.157  29.084  1.00  0.00     0.173 A 
ATOM     62  C   UNL A   1      35.045  33.919  31.452  1.00  0.00     0.173 A 
ATOM     63  F   UNL A   1      35.772  33.968  27.896  1.00  0.00    -0.203 F 
ATOM     64  C   UNL A   1      34.029  34.953  29.113  1.00  0.00     0.198 A 
ATOM     65  C   UNL A   1      33.868  34.661  31.469  1.00  0.00     0.198 A 
ATOM     66  F   UNL A   1      35.512  33.598  32.663  1.00  0.00    -0.203 F 
ATOM     67  F   UNL A   1      33.592  35.527  27.984  1.00  0.00    -0.200 F 
ATOM     68  C   UNL A   1      33.377  35.205  30.306  1.00  0.00     0.200 A 
ATOM     69  F   UNL A   1      33.265  34.908  32.642  1.00  0.00    -0.200 F 
ATOM     70  F   UNL A   1      32.308  36.011  30.343  1.00  0.00    -0.200 F 
ENDBRANCH  46  60
BRANCH  47  71
ATOM     71  C   UNL A   1      38.497  32.440  38.300  1.00  0.00     0.064 A 
ATOM     72  C   UNL A   1      38.765  33.477  39.236  1.00  0.00     0.173 A 
ATOM     73  C   UNL A   1      37.428  31.598  38.647  1.00  0.00     0.173 A 
ATOM     74  F   UNL A   1      39.715  34.391  38.983  1.00  0.00    -0.203 F 
ATOM     75  C   UNL A   1      38.010  33.651  40.417  1.00  0.00     0.198 A 
ATOM     76  C   UNL A   1      36.670  31.778  39.818  1.00  0.00     0.198 A 
ATOM     77  F   UNL A   1      37.027  30.644  37.797  1.00  0.00    -0.203 F 
ATOM     78  F   UNL A   1      38.266  34.677  41.244  1.00  0.00    -0.200 F 
ATOM     79  C   UNL A   1      36.954  32.806  40.698  1.00  0.00     0.200 A 
ATOM     80  F   UNL A   1      35.614  30.985  40.051  1.00  0.00    -0.200 F 
ATOM     81  F   UNL A   1      36.188  33.004  41.782  1.00  0.00    -0.200 F 
ENDBRANCH  47  71
BRANCH  59  82
ATOM     82  C   UNL A   1      41.702  34.644  33.437  1.00  0.00     0.064 A 
ATOM     83  C   UNL A   1      42.411  35.754  33.935  1.00  0.00     0.173 A 
ATOM     84  C   UNL A   1      42.397  33.433  33.341  1.00  0.00     0.173 A 
ATOM     85  F   UNL A   1      41.804  36.929  34.132  1.00  0.00    -0.203 F 
ATOM     86  C   UNL A   1      43.755  35.653  34.302  1.00  0.00     0.198 A 
ATOM     87  C   UNL A   1      43.727  33.326  33.738  1.00  0.00     0.198 A 
ATOM     88  F   UNL A   1      41.763  32.331  32.913  1.00  0.00    -0.203 F 
ATOM     89  F   UNL A   1      44.406  36.724  34.779  1.00  0.00    -0.200 F 
ATOM     90  C   UNL A   1      44.408  34.436  34.212  1.00  0.00     0.200 A 
ATOM     91  F   UNL A   1      44.338  32.134  33.693  1.00  0.00    -0.200 F 
ATOM     92  F   UNL A   1      45.683  34.323  34.608  1.00  0.00    -0.200 F 
ENDBRANCH  59  82
ENDBRANCH  33  34
ENDBRANCH  26  28
ENDBRANCH  25  26
ENDBRANCH   1  25
TORSDOF 12
ENDMDL
