MODEL 1
REMARK VINA RESULT:     -10.0      0.000      0.000
REMARK SMILES CC[NH+](CC)CC[N@H+]1CC[C@@H](C(=O)OCCOC(=O)c2ccc(-c3c4nc(c(-c5c(F)c(F)c(F)c(F)c5F)c5ccc([nH]5)c(-c5c(F)c(F)c(F)c(F)c5F)c5nc(c(-c6c(F)c(F)c(F)c(F)c6F)c6ccc3[nH]6)C=C5)C=C4)cc2)[C@@H]1C
REMARK SMILES IDX 15 1 14 2 12 3 13 4 11 5 8 6 9 7 83 8 10 10 84 11 7 12 6 13
REMARK SMILES IDX 3 14 2 16 1 17 4 18 5 19 16 20 17 21 18 22 19 23 20 24 21 25
REMARK SMILES IDX 82 26 22 27 81 28 23 29 24 30 25 31 75 32 26 33 80 34 74 35
REMARK SMILES IDX 76 36 27 37 79 38 73 39 72 40 28 42 60 43 40 44 59 45 41 46
REMARK SMILES IDX 44 47 58 48 77 49 42 50 43 51 57 53 78 54 45 55 29 56 30 57
REMARK SMILES IDX 38 58 31 59 32 60 36 61 39 62 33 63 34 64 37 65 35 66 61 67
REMARK SMILES IDX 62 68 70 69 63 70 64 71 68 72 71 73 65 74 66 75 69 76 67 77
REMARK SMILES IDX 46 78 47 79 55 80 48 81 49 82 53 83 56 84 50 85 51 86 54 87
REMARK SMILES IDX 52 88
REMARK H PARENT 8 9 3 15 76 41 44 52
REMARK Flexibility Score: inf
ROOT
ATOM      1  C   UNL A   1      34.411  33.886  29.021  1.00  0.00     0.274 C 
ENDROOT
BRANCH   1   2
ATOM      2  O   UNL A   1      33.536  34.378  30.062  1.00  0.00    -0.462 OA
BRANCH   2   3
ATOM      3  C   UNL A   1      32.877  35.538  29.828  1.00  0.00     0.315 C 
ATOM      4  O   UNL A   1      32.514  35.913  28.717  1.00  0.00    -0.252 OA
BRANCH   3   5
ATOM      5  C   UNL A   1      32.638  36.388  31.066  1.00  0.00     0.162 C 
ATOM      6  N   UNL A   1      33.365  36.295  33.395  1.00  0.00    -0.327 N 
ATOM      7  C   UNL A   1      33.781  37.573  32.791  1.00  0.00     0.263 C 
ATOM      8  C   UNL A   1      32.440  35.682  32.417  1.00  0.00     0.195 C 
ATOM      9  H   UNL A   1      32.867  36.387  34.280  1.00  0.00     0.348 HD
ATOM     10  C   UNL A   1      33.822  37.313  31.297  1.00  0.00     0.083 C 
ATOM     11  C   UNL A   1      31.026  35.908  32.973  1.00  0.00     0.076 C 
BRANCH   6  12
ATOM     12  C   UNL A   1      34.555  35.496  33.774  1.00  0.00     0.324 C 
BRANCH  12  13
ATOM     13  C   UNL A   1      34.598  33.960  33.497  1.00  0.00     0.324 C 
BRANCH  13  14
ATOM     14  N   UNL A   1      35.653  33.560  32.569  1.00  0.00    -0.331 N 
ATOM     15  H   UNL A   1      35.232  34.044  31.775  1.00  0.00     0.348 HD
BRANCH  14  16
ATOM     16  C   UNL A   1      35.722  32.179  32.084  1.00  0.00     0.258 C 
ATOM     17  C   UNL A   1      36.626  31.169  32.784  1.00  0.00     0.071 C 
ENDBRANCH  14  16
BRANCH  14  18
ATOM     18  C   UNL A   1      36.976  34.158  32.752  1.00  0.00     0.258 C 
ATOM     19  C   UNL A   1      37.790  34.290  31.471  1.00  0.00     0.071 C 
ENDBRANCH  14  18
ENDBRANCH  13  14
ENDBRANCH  12  13
ENDBRANCH   6  12
ENDBRANCH   3   5
ENDBRANCH   2   3
ENDBRANCH   1   2
BRANCH   1  20
ATOM     20  C   UNL A   1      33.817  32.635  28.383  1.00  0.00     0.275 C 
BRANCH  20  21
ATOM     21  O   UNL A   1      34.881  31.933  27.725  1.00  0.00    -0.458 OA
BRANCH  21  22
ATOM     22  C   UNL A   1      34.798  30.587  27.735  1.00  0.00     0.338 C 
ATOM     23  O   UNL A   1      33.872  29.873  27.406  1.00  0.00    -0.246 OA
BRANCH  22  24
ATOM     24  C   UNL A   1      36.103  30.085  28.165  1.00  0.00     0.060 A 
ATOM     25  C   UNL A   1      36.232  29.567  29.456  1.00  0.00     0.016 A 
ATOM     26  C   UNL A   1      37.192  30.160  27.304  1.00  0.00     0.016 A 
ATOM     27  C   UNL A   1      37.474  29.145  29.912  1.00  0.00     0.010 A 
ATOM     28  C   UNL A   1      38.429  29.694  27.744  1.00  0.00     0.010 A 
ATOM     29  C   UNL A   1      38.577  29.198  29.052  1.00  0.00    -0.014 A 
BRANCH  29  30
ATOM     30  C   UNL A   1      39.908  28.752  29.512  1.00  0.00     0.031 A 
ATOM     31  C   UNL A   1      40.707  29.637  30.418  1.00  0.00     0.074 A 
ATOM     32  C   UNL A   1      40.400  27.580  29.073  1.00  0.00     0.049 A 
ATOM     33  N   UNL A   1      41.960  29.542  30.775  1.00  0.00    -0.248 NA
ATOM     34  C   UNL A   1      39.999  30.793  30.991  1.00  0.00     0.031 C 
ATOM     35  C   UNL A   1      39.680  26.627  28.228  1.00  0.00     0.029 A 
ATOM     36  N   UNL A   1      41.629  27.004  29.259  1.00  0.00    -0.354 N 
ATOM     37  C   UNL A   1      42.201  30.641  31.588  1.00  0.00     0.074 A 
ATOM     38  C   UNL A   1      40.968  31.394  31.667  1.00  0.00     0.031 C 
ATOM     39  C   UNL A   1      40.485  25.587  27.959  1.00  0.00     0.029 A 
ATOM     40  C   UNL A   1      41.791  25.833  28.560  1.00  0.00     0.049 A 
ATOM     41  H   UNL A   1      42.326  27.390  29.837  1.00  0.00     0.167 HD
ATOM     42  C   UNL A   1      43.357  30.984  32.206  1.00  0.00     0.037 A 
ATOM     43  C   UNL A   1      42.888  25.072  28.391  1.00  0.00     0.037 A 
ATOM     44  C   UNL A   1      44.569  30.213  32.119  1.00  0.00     0.049 A 
ATOM     45  C   UNL A   1      44.172  25.505  29.040  1.00  0.00     0.074 A 
ATOM     46  C   UNL A   1      45.798  30.460  32.702  1.00  0.00     0.029 A 
ATOM     47  N   UNL A   1      44.699  29.034  31.396  1.00  0.00    -0.354 N 
ATOM     48  N   UNL A   1      44.407  26.556  29.789  1.00  0.00    -0.248 NA
ATOM     49  C   UNL A   1      45.347  24.654  28.814  1.00  0.00     0.031 C 
ATOM     50  C   UNL A   1      46.682  29.452  32.303  1.00  0.00     0.029 A 
ATOM     51  C   UNL A   1      45.993  28.550  31.506  1.00  0.00     0.049 A 
ATOM     52  H   UNL A   1      43.978  28.605  30.880  1.00  0.00     0.167 HD
ATOM     53  C   UNL A   1      45.747  26.486  30.138  1.00  0.00     0.074 A 
ATOM     54  C   UNL A   1      46.271  25.279  29.530  1.00  0.00     0.031 C 
ATOM     55  C   UNL A   1      46.481  27.343  30.891  1.00  0.00     0.037 A 
BRANCH  42  56
ATOM     56  C   UNL A   1      43.369  32.259  32.995  1.00  0.00     0.064 A 
ATOM     57  C   UNL A   1      43.680  33.493  32.405  1.00  0.00     0.173 A 
ATOM     58  C   UNL A   1      43.044  32.249  34.360  1.00  0.00     0.173 A 
ATOM     59  F   UNL A   1      44.014  33.554  31.107  1.00  0.00    -0.203 F 
ATOM     60  C   UNL A   1      43.688  34.665  33.156  1.00  0.00     0.198 A 
ATOM     61  C   UNL A   1      43.027  33.427  35.103  1.00  0.00     0.198 A 
ATOM     62  F   UNL A   1      42.738  31.097  34.975  1.00  0.00    -0.203 F 
ATOM     63  F   UNL A   1      44.031  35.826  32.580  1.00  0.00    -0.200 F 
ATOM     64  C   UNL A   1      43.356  34.633  34.502  1.00  0.00     0.200 A 
ATOM     65  F   UNL A   1      42.698  33.395  36.402  1.00  0.00    -0.200 F 
ATOM     66  F   UNL A   1      43.361  35.763  35.223  1.00  0.00    -0.200 F 
ENDBRANCH  42  56
BRANCH  43  67
ATOM     67  C   UNL A   1      42.816  23.848  27.553  1.00  0.00     0.064 A 
ATOM     68  C   UNL A   1      43.175  23.882  26.200  1.00  0.00     0.173 A 
ATOM     69  C   UNL A   1      42.407  22.618  28.090  1.00  0.00     0.173 A 
ATOM     70  F   UNL A   1      43.551  25.039  25.637  1.00  0.00    -0.203 F 
ATOM     71  C   UNL A   1      43.124  22.733  25.413  1.00  0.00     0.198 A 
ATOM     72  C   UNL A   1      42.382  21.464  27.310  1.00  0.00     0.198 A 
ATOM     73  F   UNL A   1      42.053  22.532  29.381  1.00  0.00    -0.203 F 
ATOM     74  F   UNL A   1      43.441  22.800  24.113  1.00  0.00    -0.200 F 
ATOM     75  C   UNL A   1      42.734  21.524  25.970  1.00  0.00     0.200 A 
ATOM     76  F   UNL A   1      42.018  20.295  27.856  1.00  0.00    -0.200 F 
ATOM     77  F   UNL A   1      42.695  20.418  25.215  1.00  0.00    -0.200 F 
ENDBRANCH  43  67
BRANCH  55  78
ATOM     78  C   UNL A   1      47.917  26.982  31.120  1.00  0.00     0.064 A 
ATOM     79  C   UNL A   1      48.296  26.098  32.139  1.00  0.00     0.173 A 
ATOM     80  C   UNL A   1      48.919  27.498  30.284  1.00  0.00     0.173 A 
ATOM     81  F   UNL A   1      47.374  25.594  32.974  1.00  0.00    -0.203 F 
ATOM     82  C   UNL A   1      49.632  25.759  32.328  1.00  0.00     0.198 A 
ATOM     83  C   UNL A   1      50.251  27.136  30.460  1.00  0.00     0.198 A 
ATOM     84  F   UNL A   1      48.603  28.343  29.293  1.00  0.00    -0.203 F 
ATOM     85  F   UNL A   1      49.980  24.945  33.335  1.00  0.00    -0.200 F 
ATOM     86  C   UNL A   1      50.607  26.272  31.484  1.00  0.00     0.200 A 
ATOM     87  F   UNL A   1      51.190  27.624  29.638  1.00  0.00    -0.200 F 
ATOM     88  F   UNL A   1      51.893  25.939  31.664  1.00  0.00    -0.200 F 
ENDBRANCH  55  78
ENDBRANCH  29  30
ENDBRANCH  22  24
ENDBRANCH  21  22
ENDBRANCH  20  21
ENDBRANCH   1  20
TORSDOF 16
ENDMDL
MODEL 2
REMARK VINA RESULT:      -9.9      5.818     10.013
REMARK SMILES CC[NH+](CC)CC[N@H+]1CC[C@@H](C(=O)OCCOC(=O)c2ccc(-c3c4nc(c(-c5c(F)c(F)c(F)c(F)c5F)c5ccc([nH]5)c(-c5c(F)c(F)c(F)c(F)c5F)c5nc(c(-c6c(F)c(F)c(F)c(F)c6F)c6ccc3[nH]6)C=C5)C=C4)cc2)[C@@H]1C
REMARK SMILES IDX 15 1 14 2 12 3 13 4 11 5 8 6 9 7 83 8 10 10 84 11 7 12 6 13
REMARK SMILES IDX 3 14 2 16 1 17 4 18 5 19 16 20 17 21 18 22 19 23 20 24 21 25
REMARK SMILES IDX 82 26 22 27 81 28 23 29 24 30 25 31 75 32 26 33 80 34 74 35
REMARK SMILES IDX 76 36 27 37 79 38 73 39 72 40 28 42 60 43 40 44 59 45 41 46
REMARK SMILES IDX 44 47 58 48 77 49 42 50 43 51 57 53 78 54 45 55 29 56 30 57
REMARK SMILES IDX 38 58 31 59 32 60 36 61 39 62 33 63 34 64 37 65 35 66 61 67
REMARK SMILES IDX 62 68 70 69 63 70 64 71 68 72 71 73 65 74 66 75 69 76 67 77
REMARK SMILES IDX 46 78 47 79 55 80 48 81 49 82 53 83 56 84 50 85 51 86 54 87
REMARK SMILES IDX 52 88
REMARK H PARENT 8 9 3 15 76 41 44 52
REMARK Flexibility Score: inf
ROOT
ATOM      1  C   UNL A   1      36.522  22.756  23.856  1.00  0.00     0.274 C 
ENDROOT
BRANCH   1   2
ATOM      2  O   UNL A   1      35.254  23.223  24.371  1.00  0.00    -0.462 OA
BRANCH   2   3
ATOM      3  C   UNL A   1      34.306  23.577  23.471  1.00  0.00     0.315 C 
ATOM      4  O   UNL A   1      34.490  24.368  22.551  1.00  0.00    -0.252 OA
BRANCH   3   5
ATOM      5  C   UNL A   1      32.947  22.937  23.702  1.00  0.00     0.162 C 
ATOM      6  N   UNL A   1      32.171  20.787  24.562  1.00  0.00    -0.327 N 
ATOM      7  C   UNL A   1      31.617  21.882  25.379  1.00  0.00     0.263 C 
ATOM      8  C   UNL A   1      32.771  21.444  23.381  1.00  0.00     0.195 C 
ATOM      9  H   UNL A   1      31.479  20.117  24.228  1.00  0.00     0.348 HD
ATOM     10  C   UNL A   1      32.562  23.052  25.169  1.00  0.00     0.083 C 
ATOM     11  C   UNL A   1      31.782  21.225  22.226  1.00  0.00     0.076 C 
BRANCH   6  12
ATOM     12  C   UNL A   1      33.072  19.942  25.382  1.00  0.00     0.324 C 
BRANCH  12  13
ATOM     13  C   UNL A   1      32.610  18.532  25.865  1.00  0.00     0.324 C 
BRANCH  13  14
ATOM     14  N   UNL A   1      33.022  17.444  24.982  1.00  0.00    -0.331 N 
ATOM     15  H   UNL A   1      32.073  17.260  24.655  1.00  0.00     0.348 HD
BRANCH  14  16
ATOM     16  C   UNL A   1      33.409  16.147  25.543  1.00  0.00     0.258 C 
ATOM     17  C   UNL A   1      32.356  15.062  25.751  1.00  0.00     0.071 C 
ENDBRANCH  14  16
BRANCH  14  18
ATOM     18  C   UNL A   1      33.800  17.796  23.793  1.00  0.00     0.258 C 
ATOM     19  C   UNL A   1      34.371  16.602  23.039  1.00  0.00     0.071 C 
ENDBRANCH  14  18
ENDBRANCH  13  14
ENDBRANCH  12  13
ENDBRANCH   6  12
ENDBRANCH   3   5
ENDBRANCH   2   3
ENDBRANCH   1   2
BRANCH   1  20
ATOM     20  C   UNL A   1      36.939  21.474  24.569  1.00  0.00     0.275 C 
BRANCH  20  21
ATOM     21  O   UNL A   1      37.464  21.840  25.853  1.00  0.00    -0.458 OA
BRANCH  21  22
ATOM     22  C   UNL A   1      38.744  21.487  26.091  1.00  0.00     0.338 C 
ATOM     23  O   UNL A   1      39.288  20.413  25.924  1.00  0.00    -0.246 OA
BRANCH  22  24
ATOM     24  C   UNL A   1      39.439  22.691  26.545  1.00  0.00     0.060 A 
ATOM     25  C   UNL A   1      38.963  23.938  26.133  1.00  0.00     0.016 A 
ATOM     26  C   UNL A   1      40.572  22.578  27.344  1.00  0.00     0.016 A 
ATOM     27  C   UNL A   1      39.642  25.093  26.495  1.00  0.00     0.010 A 
ATOM     28  C   UNL A   1      41.227  23.739  27.747  1.00  0.00     0.010 A 
ATOM     29  C   UNL A   1      40.774  24.998  27.314  1.00  0.00    -0.014 A 
BRANCH  29  30
ATOM     30  C   UNL A   1      41.513  26.212  27.716  1.00  0.00     0.031 A 
ATOM     31  C   UNL A   1      40.804  27.278  28.494  1.00  0.00     0.074 A 
ATOM     32  C   UNL A   1      42.795  26.362  27.339  1.00  0.00     0.049 A 
ATOM     33  N   UNL A   1      41.190  28.495  28.772  1.00  0.00    -0.248 NA
ATOM     34  C   UNL A   1      39.476  26.928  29.021  1.00  0.00     0.031 C 
ATOM     35  C   UNL A   1      43.584  25.360  26.622  1.00  0.00     0.029 A 
ATOM     36  N   UNL A   1      43.649  27.423  27.487  1.00  0.00    -0.354 N 
ATOM     37  C   UNL A   1      40.141  29.068  29.478  1.00  0.00     0.074 A 
ATOM     38  C   UNL A   1      39.099  28.069  29.581  1.00  0.00     0.031 C 
ATOM     39  C   UNL A   1      44.807  25.859  26.382  1.00  0.00     0.029 A 
ATOM     40  C   UNL A   1      44.862  27.232  26.873  1.00  0.00     0.049 A 
ATOM     41  H   UNL A   1      43.417  28.240  27.983  1.00  0.00     0.167 HD
ATOM     42  C   UNL A   1      40.064  30.321  29.987  1.00  0.00     0.037 A 
ATOM     43  C   UNL A   1      45.883  28.089  26.690  1.00  0.00     0.037 A 
ATOM     44  C   UNL A   1      41.118  31.294  29.879  1.00  0.00     0.049 A 
ATOM     45  C   UNL A   1      45.750  29.491  27.215  1.00  0.00     0.074 A 
ATOM     46  C   UNL A   1      41.153  32.591  30.357  1.00  0.00     0.029 A 
ATOM     47  N   UNL A   1      42.332  31.068  29.244  1.00  0.00    -0.354 N 
ATOM     48  N   UNL A   1      44.748  30.040  27.861  1.00  0.00    -0.248 NA
ATOM     49  C   UNL A   1      46.880  30.397  26.978  1.00  0.00     0.031 C 
ATOM     50  C   UNL A   1      42.373  33.162  29.980  1.00  0.00     0.029 A 
ATOM     51  C   UNL A   1      43.118  32.207  29.305  1.00  0.00     0.049 A 
ATOM     52  H   UNL A   1      42.596  30.222  28.814  1.00  0.00     0.167 HD
ATOM     53  C   UNL A   1      45.132  31.347  28.123  1.00  0.00     0.074 A 
ATOM     54  C   UNL A   1      46.466  31.504  27.577  1.00  0.00     0.031 C 
ATOM     55  C   UNL A   1      44.444  32.330  28.754  1.00  0.00     0.037 A 
BRANCH  42  56
ATOM     56  C   UNL A   1      38.788  30.713  30.671  1.00  0.00     0.064 A 
ATOM     57  C   UNL A   1      37.665  31.147  29.952  1.00  0.00     0.173 A 
ATOM     58  C   UNL A   1      38.680  30.632  32.068  1.00  0.00     0.173 A 
ATOM     59  F   UNL A   1      37.721  31.259  28.616  1.00  0.00    -0.203 F 
ATOM     60  C   UNL A   1      36.490  31.510  30.606  1.00  0.00     0.198 A 
ATOM     61  C   UNL A   1      37.495  30.970  32.717  1.00  0.00     0.198 A 
ATOM     62  F   UNL A   1      39.723  30.222  32.805  1.00  0.00    -0.203 F 
ATOM     63  F   UNL A   1      35.445  31.965  29.901  1.00  0.00    -0.200 F 
ATOM     64  C   UNL A   1      36.404  31.416  31.987  1.00  0.00     0.200 A 
ATOM     65  F   UNL A   1      37.411  30.870  34.051  1.00  0.00    -0.200 F 
ATOM     66  F   UNL A   1      35.272  31.761  32.615  1.00  0.00    -0.200 F 
ENDBRANCH  42  56
BRANCH  43  67
ATOM     67  C   UNL A   1      47.097  27.647  25.957  1.00  0.00     0.064 A 
ATOM     68  C   UNL A   1      48.202  27.131  26.645  1.00  0.00     0.173 A 
ATOM     69  C   UNL A   1      47.170  27.713  24.558  1.00  0.00     0.173 A 
ATOM     70  F   UNL A   1      48.188  27.069  27.984  1.00  0.00    -0.203 F 
ATOM     71  C   UNL A   1      49.338  26.701  25.961  1.00  0.00     0.198 A 
ATOM     72  C   UNL A   1      48.295  27.258  23.873  1.00  0.00     0.198 A 
ATOM     73  F   UNL A   1      46.138  28.199  23.853  1.00  0.00    -0.203 F 
ATOM     74  F   UNL A   1      50.395  26.242  26.645  1.00  0.00    -0.200 F 
ATOM     75  C   UNL A   1      49.381  26.758  24.576  1.00  0.00     0.200 A 
ATOM     76  F   UNL A   1      48.326  27.302  22.534  1.00  0.00    -0.200 F 
ATOM     77  F   UNL A   1      50.469  26.335  23.919  1.00  0.00    -0.200 F 
ENDBRANCH  43  67
BRANCH  55  78
ATOM     78  C   UNL A   1      45.139  33.647  28.914  1.00  0.00     0.064 A 
ATOM     79  C   UNL A   1      44.993  34.671  27.968  1.00  0.00     0.173 A 
ATOM     80  C   UNL A   1      45.929  33.898  30.046  1.00  0.00     0.173 A 
ATOM     81  F   UNL A   1      44.263  34.470  26.861  1.00  0.00    -0.203 F 
ATOM     82  C   UNL A   1      45.632  35.896  28.140  1.00  0.00     0.198 A 
ATOM     83  C   UNL A   1      46.544  35.133  30.227  1.00  0.00     0.198 A 
ATOM     84  F   UNL A   1      46.093  32.950  30.980  1.00  0.00    -0.203 F 
ATOM     85  F   UNL A   1      45.515  36.848  27.204  1.00  0.00    -0.200 F 
ATOM     86  C   UNL A   1      46.401  36.128  29.272  1.00  0.00     0.200 A 
ATOM     87  F   UNL A   1      47.278  35.359  31.326  1.00  0.00    -0.200 F 
ATOM     88  F   UNL A   1      47.010  37.310  29.439  1.00  0.00    -0.200 F 
ENDBRANCH  55  78
ENDBRANCH  29  30
ENDBRANCH  22  24
ENDBRANCH  21  22
ENDBRANCH  20  21
ENDBRANCH   1  20
TORSDOF 16
ENDMDL
MODEL 3
REMARK VINA RESULT:      -9.7      4.376      9.884
REMARK SMILES CC[NH+](CC)CC[N@H+]1CC[C@@H](C(=O)OCCOC(=O)c2ccc(-c3c4nc(c(-c5c(F)c(F)c(F)c(F)c5F)c5ccc([nH]5)c(-c5c(F)c(F)c(F)c(F)c5F)c5nc(c(-c6c(F)c(F)c(F)c(F)c6F)c6ccc3[nH]6)C=C5)C=C4)cc2)[C@@H]1C
REMARK SMILES IDX 15 1 14 2 12 3 13 4 11 5 8 6 9 7 83 8 10 10 84 11 7 12 6 13
REMARK SMILES IDX 3 14 2 16 1 17 4 18 5 19 16 20 17 21 18 22 19 23 20 24 21 25
REMARK SMILES IDX 82 26 22 27 81 28 23 29 24 30 25 31 75 32 26 33 80 34 74 35
REMARK SMILES IDX 76 36 27 37 79 38 73 39 72 40 28 42 60 43 40 44 59 45 41 46
REMARK SMILES IDX 44 47 58 48 77 49 42 50 43 51 57 53 78 54 45 55 29 56 30 57
REMARK SMILES IDX 38 58 31 59 32 60 36 61 39 62 33 63 34 64 37 65 35 66 61 67
REMARK SMILES IDX 62 68 70 69 63 70 64 71 68 72 71 73 65 74 66 75 69 76 67 77
REMARK SMILES IDX 46 78 47 79 55 80 48 81 49 82 53 83 56 84 50 85 51 86 54 87
REMARK SMILES IDX 52 88
REMARK H PARENT 8 9 3 15 76 41 44 52
REMARK Flexibility Score: inf
ROOT
ATOM      1  C   UNL A   1      31.405  29.508  24.588  1.00  0.00     0.274 C 
ENDROOT
BRANCH   1   2
ATOM      2  O   UNL A   1      31.267  28.163  24.074  1.00  0.00    -0.462 OA
BRANCH   2   3
ATOM      3  C   UNL A   1      31.958  27.849  22.952  1.00  0.00     0.315 C 
ATOM      4  O   UNL A   1      32.829  28.559  22.457  1.00  0.00    -0.252 OA
BRANCH   3   5
ATOM      5  C   UNL A   1      31.550  26.535  22.307  1.00  0.00     0.162 C 
ATOM      6  N   UNL A   1      32.505  24.291  22.198  1.00  0.00    -0.327 N 
ATOM      7  C   UNL A   1      31.159  24.233  22.795  1.00  0.00     0.263 C 
ATOM      8  C   UNL A   1      32.638  25.662  21.660  1.00  0.00     0.195 C 
ATOM      9  H   UNL A   1      32.655  23.638  21.428  1.00  0.00     0.348 HD
ATOM     10  C   UNL A   1      30.906  25.626  23.342  1.00  0.00     0.083 C 
ATOM     11  C   UNL A   1      32.441  25.543  20.141  1.00  0.00     0.076 C 
BRANCH   6  12
ATOM     12  C   UNL A   1      33.523  23.864  23.187  1.00  0.00     0.324 C 
BRANCH  12  13
ATOM     13  C   UNL A   1      33.106  23.042  24.447  1.00  0.00     0.324 C 
BRANCH  13  14
ATOM     14  N   UNL A   1      33.276  23.768  25.704  1.00  0.00    -0.331 N 
ATOM     15  H   UNL A   1      33.719  22.980  26.177  1.00  0.00     0.348 HD
BRANCH  14  16
ATOM     16  C   UNL A   1      32.119  24.028  26.565  1.00  0.00     0.258 C 
ATOM     17  C   UNL A   1      30.857  23.183  26.423  1.00  0.00     0.071 C 
ENDBRANCH  14  16
BRANCH  14  18
ATOM     18  C   UNL A   1      34.251  24.858  25.729  1.00  0.00     0.258 C 
ATOM     19  C   UNL A   1      33.639  26.247  25.853  1.00  0.00     0.071 C 
ENDBRANCH  14  18
ENDBRANCH  13  14
ENDBRANCH  12  13
ENDBRANCH   6  12
ENDBRANCH   3   5
ENDBRANCH   2   3
ENDBRANCH   1   2
BRANCH   1  20
ATOM     20  C   UNL A   1      31.910  29.470  26.027  1.00  0.00     0.275 C 
BRANCH  20  21
ATOM     21  O   UNL A   1      33.202  30.095  26.052  1.00  0.00    -0.458 OA
BRANCH  21  22
ATOM     22  C   UNL A   1      33.332  31.151  26.882  1.00  0.00     0.338 C 
ATOM     23  O   UNL A   1      32.594  32.104  27.032  1.00  0.00    -0.246 OA
BRANCH  22  24
ATOM     24  C   UNL A   1      34.540  30.921  27.674  1.00  0.00     0.060 A 
ATOM     25  C   UNL A   1      35.416  31.988  27.890  1.00  0.00     0.016 A 
ATOM     26  C   UNL A   1      34.815  29.650  28.166  1.00  0.00     0.016 A 
ATOM     27  C   UNL A   1      36.601  31.782  28.581  1.00  0.00     0.010 A 
ATOM     28  C   UNL A   1      35.982  29.452  28.900  1.00  0.00     0.010 A 
ATOM     29  C   UNL A   1      36.885  30.512  29.098  1.00  0.00    -0.014 A 
BRANCH  29  30
ATOM     30  C   UNL A   1      38.138  30.268  29.841  1.00  0.00     0.031 A 
ATOM     31  C   UNL A   1      39.173  29.358  29.255  1.00  0.00     0.074 A 
ATOM     32  C   UNL A   1      38.310  30.829  31.051  1.00  0.00     0.049 A 
ATOM     33  N   UNL A   1      40.239  28.848  29.813  1.00  0.00    -0.248 NA
ATOM     34  C   UNL A   1      38.975  28.961  27.852  1.00  0.00     0.031 C 
ATOM     35  C   UNL A   1      37.382  31.766  31.684  1.00  0.00     0.029 A 
ATOM     36  N   UNL A   1      39.313  30.674  31.971  1.00  0.00    -0.354 N 
ATOM     37  C   UNL A   1      40.821  28.045  28.842  1.00  0.00     0.074 A 
ATOM     38  C   UNL A   1      39.988  28.128  27.661  1.00  0.00     0.031 C 
ATOM     39  C   UNL A   1      37.854  32.095  32.897  1.00  0.00     0.029 A 
ATOM     40  C   UNL A   1      39.081  31.346  33.145  1.00  0.00     0.049 A 
ATOM     41  H   UNL A   1      40.120  30.135  31.807  1.00  0.00     0.167 HD
ATOM     42  C   UNL A   1      41.950  27.303  28.940  1.00  0.00     0.037 A 
ATOM     43  C   UNL A   1      39.762  31.319  34.306  1.00  0.00     0.037 A 
ATOM     44  C   UNL A   1      42.767  27.243  30.123  1.00  0.00     0.049 A 
ATOM     45  C   UNL A   1      40.979  30.444  34.407  1.00  0.00     0.074 A 
ATOM     46  C   UNL A   1      43.932  26.530  30.337  1.00  0.00     0.029 A 
ATOM     47  N   UNL A   1      42.498  27.933  31.298  1.00  0.00    -0.354 N 
ATOM     48  N   UNL A   1      41.515  29.666  33.497  1.00  0.00    -0.248 NA
ATOM     49  C   UNL A   1      41.681  30.433  35.697  1.00  0.00     0.031 C 
ATOM     50  C   UNL A   1      44.348  26.758  31.653  1.00  0.00     0.029 A 
ATOM     51  C   UNL A   1      43.467  27.649  32.247  1.00  0.00     0.049 A 
ATOM     52  H   UNL A   1      41.731  28.535  31.437  1.00  0.00     0.167 HD
ATOM     53  C   UNL A   1      42.625  29.086  34.095  1.00  0.00     0.074 A 
ATOM     54  C   UNL A   1      42.692  29.615  35.443  1.00  0.00     0.031 C 
ATOM     55  C   UNL A   1      43.507  28.195  33.579  1.00  0.00     0.037 A 
BRANCH  42  56
ATOM     56  C   UNL A   1      42.341  26.476  27.751  1.00  0.00     0.064 A 
ATOM     57  C   UNL A   1      43.283  26.925  26.814  1.00  0.00     0.173 A 
ATOM     58  C   UNL A   1      41.779  25.205  27.558  1.00  0.00     0.173 A 
ATOM     59  F   UNL A   1      43.838  28.140  26.943  1.00  0.00    -0.203 F 
ATOM     60  C   UNL A   1      43.630  26.144  25.715  1.00  0.00     0.198 A 
ATOM     61  C   UNL A   1      42.148  24.414  26.472  1.00  0.00     0.198 A 
ATOM     62  F   UNL A   1      40.874  24.726  28.424  1.00  0.00    -0.203 F 
ATOM     63  F   UNL A   1      44.500  26.612  24.809  1.00  0.00    -0.200 F 
ATOM     64  C   UNL A   1      43.068  24.887  25.548  1.00  0.00     0.200 A 
ATOM     65  F   UNL A   1      41.610  23.197  26.317  1.00  0.00    -0.200 F 
ATOM     66  F   UNL A   1      43.406  24.134  24.492  1.00  0.00    -0.200 F 
ENDBRANCH  42  56
BRANCH  43  67
ATOM     67  C   UNL A   1      39.287  32.125  35.460  1.00  0.00     0.064 A 
ATOM     68  C   UNL A   1      38.458  31.560  36.437  1.00  0.00     0.173 A 
ATOM     69  C   UNL A   1      39.668  33.466  35.620  1.00  0.00     0.173 A 
ATOM     70  F   UNL A   1      38.050  30.289  36.315  1.00  0.00    -0.203 F 
ATOM     71  C   UNL A   1      38.022  32.308  37.530  1.00  0.00     0.198 A 
ATOM     72  C   UNL A   1      39.253  34.205  36.726  1.00  0.00     0.198 A 
ATOM     73  F   UNL A   1      40.460  34.053  34.712  1.00  0.00    -0.203 F 
ATOM     74  F   UNL A   1      37.203  31.754  38.433  1.00  0.00    -0.200 F 
ATOM     75  C   UNL A   1      38.426  33.627  37.678  1.00  0.00     0.200 A 
ATOM     76  F   UNL A   1      39.657  35.474  36.872  1.00  0.00    -0.200 F 
ATOM     77  F   UNL A   1      38.014  34.342  38.733  1.00  0.00    -0.200 F 
ENDBRANCH  43  67
BRANCH  55  78
ATOM     78  C   UNL A   1      44.634  27.767  34.468  1.00  0.00     0.064 A 
ATOM     79  C   UNL A   1      44.535  26.626  35.277  1.00  0.00     0.173 A 
ATOM     80  C   UNL A   1      45.839  28.484  34.479  1.00  0.00     0.173 A 
ATOM     81  F   UNL A   1      43.395  25.919  35.313  1.00  0.00    -0.203 F 
ATOM     82  C   UNL A   1      45.597  26.231  36.085  1.00  0.00     0.198 A 
ATOM     83  C   UNL A   1      46.908  28.071  35.268  1.00  0.00     0.198 A 
ATOM     84  F   UNL A   1      45.982  29.578  33.718  1.00  0.00    -0.203 F 
ATOM     85  F   UNL A   1      45.469  25.162  36.883  1.00  0.00    -0.200 F 
ATOM     86  C   UNL A   1      46.785  26.949  36.074  1.00  0.00     0.200 A 
ATOM     87  F   UNL A   1      48.058  28.759  35.249  1.00  0.00    -0.200 F 
ATOM     88  F   UNL A   1      47.810  26.563  36.847  1.00  0.00    -0.200 F 
ENDBRANCH  55  78
ENDBRANCH  29  30
ENDBRANCH  22  24
ENDBRANCH  21  22
ENDBRANCH  20  21
ENDBRANCH   1  20
TORSDOF 16
ENDMDL
