MODEL 1
REMARK VINA RESULT:     -12.6      0.000      0.000
REMARK SMILES C[C@H](NC(=O)c1c(C(=O)OCCOC(=O)c2ccc(-c3c4nc(c(-c5c(F)c(F)c(F)c(F)c5F)c5ccc([nH]5)c(-c5c(F)c(F)c(F)c(F)c5F)c5nc(c(-c6c(F)c(F)c(F)c(F)c6F)c6ccc3[nH]6)C=C5)C=C4)cc2)cnn1C)[C@]12C[C@H]3C[C@H](C[C@H](C3)C1)C2
REMARK SMILES IDX 11 1 10 2 8 3 9 4 7 5 6 6 81 7 79 8 80 9 82 10 4 11 3 12
REMARK SMILES IDX 5 14 2 15 1 16 83 17 84 18 91 19 92 20 85 21 89 22 87 23
REMARK SMILES IDX 86 24 90 25 88 26 12 27 13 28 14 29 15 30 16 31 17 32 78 33
REMARK SMILES IDX 18 34 77 35 19 36 20 37 21 38 71 39 22 40 76 41 70 42 72 43
REMARK SMILES IDX 23 44 75 45 69 46 68 47 24 49 56 50 36 51 55 52 37 53 40 54
REMARK SMILES IDX 54 55 73 56 38 57 39 58 53 60 74 61 41 62 25 63 26 64 34 65
REMARK SMILES IDX 27 66 28 67 32 68 35 69 29 70 30 71 33 72 31 73 57 74 58 75
REMARK SMILES IDX 66 76 59 77 60 78 64 79 67 80 61 81 62 82 65 83 63 84 42 85
REMARK SMILES IDX 43 86 51 87 44 88 45 89 49 90 52 91 46 92 47 93 50 94 48 95
REMARK H PARENT 3 13 72 48 40 59
REMARK Flexibility Score: inf
ROOT
ATOM      1  C   UNL A   1      35.753  20.690  25.340  1.00  0.00     0.275 C 
ENDROOT
BRANCH   1   2
ATOM      2  O   UNL A   1      35.005  21.552  24.456  1.00  0.00    -0.458 OA
BRANCH   2   3
ATOM      3  C   UNL A   1      34.860  22.838  24.878  1.00  0.00     0.342 C 
ATOM      4  O   UNL A   1      35.595  23.760  24.527  1.00  0.00    -0.246 OA
BRANCH   3   5
ATOM      5  C   UNL A   1      33.710  23.085  25.731  1.00  0.00     0.111 A 
ATOM      6  C   UNL A   1      32.420  23.493  25.397  1.00  0.00     0.140 A 
ATOM      7  N   UNL A   1      31.688  23.235  26.534  1.00  0.00    -0.262 N 
ATOM      8  C   UNL A   1      33.654  22.851  27.125  1.00  0.00     0.151 A 
ATOM      9  N   UNL A   1      32.443  23.050  27.632  1.00  0.00    -0.180 NA
ATOM     10  C   UNL A   1      30.286  22.905  26.653  1.00  0.00     0.174 C 
BRANCH   6  11
ATOM     11  C   UNL A   1      31.894  23.745  24.090  1.00  0.00     0.270 C 
ATOM     12  N   UNL A   1      32.217  24.863  23.377  1.00  0.00    -0.348 N 
ATOM     13  H   UNL A   1      31.656  24.941  22.570  1.00  0.00     0.164 HD
ATOM     14  O   UNL A   1      31.105  22.964  23.557  1.00  0.00    -0.267 OA
BRANCH  12  15
ATOM     15  C   UNL A   1      33.163  25.986  23.468  1.00  0.00     0.085 C 
ATOM     16  C   UNL A   1      33.601  26.585  22.135  1.00  0.00     0.031 C 
BRANCH  15  17
ATOM     17  C   UNL A   1      32.871  27.050  24.581  1.00  0.00    -0.009 C 
ATOM     18  C   UNL A   1      33.259  28.452  24.004  1.00  0.00     0.012 C 
ATOM     19  C   UNL A   1      33.725  26.826  25.861  1.00  0.00     0.012 C 
ATOM     20  C   UNL A   1      31.383  27.105  25.019  1.00  0.00     0.012 C 
ATOM     21  C   UNL A   1      33.026  29.572  25.021  1.00  0.00    -0.010 C 
ATOM     22  C   UNL A   1      33.502  27.958  26.884  1.00  0.00    -0.010 C 
ATOM     23  C   UNL A   1      31.149  28.239  26.037  1.00  0.00    -0.010 C 
ATOM     24  C   UNL A   1      31.539  29.586  25.404  1.00  0.00     0.007 C 
ATOM     25  C   UNL A   1      33.891  29.305  26.259  1.00  0.00     0.007 C 
ATOM     26  C   UNL A   1      32.020  28.007  27.281  1.00  0.00     0.007 C 
ENDBRANCH  15  17
ENDBRANCH  12  15
ENDBRANCH   6  11
ENDBRANCH   3   5
ENDBRANCH   2   3
ENDBRANCH   1   2
BRANCH   1  27
ATOM     27  C   UNL A   1      37.215  20.538  24.905  1.00  0.00     0.275 C 
BRANCH  27  28
ATOM     28  O   UNL A   1      38.018  21.663  25.318  1.00  0.00    -0.458 OA
BRANCH  28  29
ATOM     29  C   UNL A   1      39.109  21.338  26.045  1.00  0.00     0.338 C 
ATOM     30  O   UNL A   1      39.669  20.258  26.099  1.00  0.00    -0.246 OA
BRANCH  29  31
ATOM     31  C   UNL A   1      39.683  22.524  26.691  1.00  0.00     0.060 A 
ATOM     32  C   UNL A   1      39.261  23.758  26.211  1.00  0.00     0.016 A 
ATOM     33  C   UNL A   1      40.754  22.448  27.574  1.00  0.00     0.016 A 
ATOM     34  C   UNL A   1      39.941  24.920  26.536  1.00  0.00     0.010 A 
ATOM     35  C   UNL A   1      41.390  23.633  27.975  1.00  0.00     0.010 A 
ATOM     36  C   UNL A   1      41.008  24.878  27.438  1.00  0.00    -0.014 A 
BRANCH  36  37
ATOM     37  C   UNL A   1      41.730  26.137  27.770  1.00  0.00     0.031 A 
ATOM     38  C   UNL A   1      41.058  27.197  28.598  1.00  0.00     0.074 A 
ATOM     39  C   UNL A   1      43.006  26.310  27.366  1.00  0.00     0.049 A 
ATOM     40  N   UNL A   1      41.450  28.420  28.858  1.00  0.00    -0.248 NA
ATOM     41  C   UNL A   1      39.767  26.841  29.208  1.00  0.00     0.031 C 
ATOM     42  C   UNL A   1      43.798  25.333  26.617  1.00  0.00     0.029 A 
ATOM     43  N   UNL A   1      43.864  27.370  27.532  1.00  0.00    -0.354 N 
ATOM     44  C   UNL A   1      40.443  28.987  29.629  1.00  0.00     0.074 A 
ATOM     45  C   UNL A   1      39.409  27.984  29.776  1.00  0.00     0.031 C 
ATOM     46  C   UNL A   1      45.025  25.828  26.403  1.00  0.00     0.029 A 
ATOM     47  C   UNL A   1      45.079  27.192  26.914  1.00  0.00     0.049 A 
ATOM     48  H   UNL A   1      43.631  28.178  28.043  1.00  0.00     0.167 HD
ATOM     49  C   UNL A   1      40.393  30.228  30.169  1.00  0.00     0.037 A 
ATOM     50  C   UNL A   1      46.101  28.049  26.726  1.00  0.00     0.037 A 
ATOM     51  C   UNL A   1      41.443  31.207  30.043  1.00  0.00     0.049 A 
ATOM     52  C   UNL A   1      45.984  29.447  27.269  1.00  0.00     0.074 A 
ATOM     53  C   UNL A   1      41.483  32.498  30.539  1.00  0.00     0.029 A 
ATOM     54  N   UNL A   1      42.645  30.997  29.382  1.00  0.00    -0.354 N 
ATOM     55  N   UNL A   1      45.007  29.992  27.953  1.00  0.00    -0.248 NA
ATOM     56  C   UNL A   1      47.108  30.354  27.003  1.00  0.00     0.031 C 
ATOM     57  C   UNL A   1      42.688  33.085  30.140  1.00  0.00     0.029 A 
ATOM     58  C   UNL A   1      43.426  32.139  29.446  1.00  0.00     0.049 A 
ATOM     59  H   UNL A   1      42.904  30.159  28.934  1.00  0.00     0.167 HD
ATOM     60  C   UNL A   1      45.410  31.292  28.224  1.00  0.00     0.074 A 
ATOM     61  C   UNL A   1      46.729  31.448  27.649  1.00  0.00     0.031 C 
ATOM     62  C   UNL A   1      44.746  32.271  28.884  1.00  0.00     0.037 A 
BRANCH  49  63
ATOM     63  C   UNL A   1      39.155  30.614  30.927  1.00  0.00     0.064 A 
ATOM     64  C   UNL A   1      39.033  30.397  32.307  1.00  0.00     0.173 A 
ATOM     65  C   UNL A   1      38.098  31.267  30.272  1.00  0.00     0.173 A 
ATOM     66  F   UNL A   1      40.009  29.767  32.980  1.00  0.00    -0.203 F 
ATOM     67  C   UNL A   1      37.892  30.798  33.000  1.00  0.00     0.198 A 
ATOM     68  C   UNL A   1      36.973  31.695  30.973  1.00  0.00     0.198 A 
ATOM     69  F   UNL A   1      38.164  31.507  28.954  1.00  0.00    -0.203 F 
ATOM     70  F   UNL A   1      37.781  30.542  34.310  1.00  0.00    -0.200 F 
ATOM     71  C   UNL A   1      36.869  31.455  32.334  1.00  0.00     0.200 A 
ATOM     72  F   UNL A   1      35.992  32.345  30.330  1.00  0.00    -0.200 F 
ATOM     73  F   UNL A   1      35.779  31.855  33.004  1.00  0.00    -0.200 F 
ENDBRANCH  49  63
BRANCH  50  74
ATOM     74  C   UNL A   1      47.291  27.633  25.935  1.00  0.00     0.064 A 
ATOM     75  C   UNL A   1      48.462  27.187  26.561  1.00  0.00     0.173 A 
ATOM     76  C   UNL A   1      47.293  27.712  24.533  1.00  0.00     0.173 A 
ATOM     77  F   UNL A   1      48.521  27.116  27.899  1.00  0.00    -0.203 F 
ATOM     78  C   UNL A   1      49.599  26.866  25.820  1.00  0.00     0.198 A 
ATOM     79  C   UNL A   1      48.417  27.352  23.790  1.00  0.00     0.198 A 
ATOM     80  F   UNL A   1      46.201  28.134  23.880  1.00  0.00    -0.203 F 
ATOM     81  F   UNL A   1      50.727  26.508  26.449  1.00  0.00    -0.200 F 
ATOM     82  C   UNL A   1      49.573  26.943  24.436  1.00  0.00     0.200 A 
ATOM     83  F   UNL A   1      48.379  27.412  22.452  1.00  0.00    -0.200 F 
ATOM     84  F   UNL A   1      50.666  26.638  23.724  1.00  0.00    -0.200 F 
ENDBRANCH  50  74
BRANCH  62  85
ATOM     85  C   UNL A   1      45.458  33.580  29.066  1.00  0.00     0.064 A 
ATOM     86  C   UNL A   1      46.299  33.820  30.163  1.00  0.00     0.173 A 
ATOM     87  C   UNL A   1      45.315  34.601  28.112  1.00  0.00     0.173 A 
ATOM     88  F   UNL A   1      46.455  32.883  31.110  1.00  0.00    -0.203 F 
ATOM     89  C   UNL A   1      46.946  35.042  30.313  1.00  0.00     0.198 A 
ATOM     90  C   UNL A   1      45.992  35.808  28.247  1.00  0.00     0.198 A 
ATOM     91  F   UNL A   1      44.528  34.420  27.041  1.00  0.00    -0.203 F 
ATOM     92  F   UNL A   1      47.699  35.270  31.399  1.00  0.00    -0.200 F 
ATOM     93  C   UNL A   1      46.799  36.033  29.353  1.00  0.00     0.200 A 
ATOM     94  F   UNL A   1      45.862  36.757  27.311  1.00  0.00    -0.200 F 
ATOM     95  F   UNL A   1      47.429  37.207  29.497  1.00  0.00    -0.200 F 
ENDBRANCH  62  85
ENDBRANCH  36  37
ENDBRANCH  29  31
ENDBRANCH  28  29
ENDBRANCH  27  28
ENDBRANCH   1  27
TORSDOF 14
ENDMDL
MODEL 2
REMARK VINA RESULT:     -12.5      4.402      9.592
REMARK SMILES C[C@H](NC(=O)c1c(C(=O)OCCOC(=O)c2ccc(-c3c4nc(c(-c5c(F)c(F)c(F)c(F)c5F)c5ccc([nH]5)c(-c5c(F)c(F)c(F)c(F)c5F)c5nc(c(-c6c(F)c(F)c(F)c(F)c6F)c6ccc3[nH]6)C=C5)C=C4)cc2)cnn1C)[C@]12C[C@H]3C[C@H](C[C@H](C3)C1)C2
REMARK SMILES IDX 11 1 10 2 8 3 9 4 7 5 6 6 81 7 79 8 80 9 82 10 4 11 3 12
REMARK SMILES IDX 5 14 2 15 1 16 83 17 84 18 91 19 92 20 85 21 89 22 87 23
REMARK SMILES IDX 86 24 90 25 88 26 12 27 13 28 14 29 15 30 16 31 17 32 78 33
REMARK SMILES IDX 18 34 77 35 19 36 20 37 21 38 71 39 22 40 76 41 70 42 72 43
REMARK SMILES IDX 23 44 75 45 69 46 68 47 24 49 56 50 36 51 55 52 37 53 40 54
REMARK SMILES IDX 54 55 73 56 38 57 39 58 53 60 74 61 41 62 25 63 26 64 34 65
REMARK SMILES IDX 27 66 28 67 32 68 35 69 29 70 30 71 33 72 31 73 57 74 58 75
REMARK SMILES IDX 66 76 59 77 60 78 64 79 67 80 61 81 62 82 65 83 63 84 42 85
REMARK SMILES IDX 43 86 51 87 44 88 45 89 49 90 52 91 46 92 47 93 50 94 48 95
REMARK H PARENT 3 13 72 48 40 59
REMARK Flexibility Score: inf
ROOT
ATOM      1  C   UNL A   1      31.705  28.470  27.553  1.00  0.00     0.275 C 
ENDROOT
BRANCH   1   2
ATOM      2  O   UNL A   1      32.489  27.491  26.838  1.00  0.00    -0.458 OA
BRANCH   2   3
ATOM      3  C   UNL A   1      31.780  26.478  26.269  1.00  0.00     0.342 C 
ATOM      4  O   UNL A   1      31.527  25.416  26.837  1.00  0.00    -0.246 OA
BRANCH   3   5
ATOM      5  C   UNL A   1      31.258  26.756  24.942  1.00  0.00     0.111 A 
ATOM      6  C   UNL A   1      31.934  26.972  23.741  1.00  0.00     0.140 A 
ATOM      7  N   UNL A   1      30.952  26.847  22.784  1.00  0.00    -0.262 N 
ATOM      8  C   UNL A   1      29.891  26.767  24.580  1.00  0.00     0.151 A 
ATOM      9  N   UNL A   1      29.704  26.933  23.276  1.00  0.00    -0.180 NA
ATOM     10  C   UNL A   1      31.076  26.408  21.412  1.00  0.00     0.174 C 
BRANCH   6  11
ATOM     11  C   UNL A   1      33.347  26.937  23.516  1.00  0.00     0.270 C 
ATOM     12  N   UNL A   1      34.042  25.767  23.417  1.00  0.00    -0.348 N 
ATOM     13  H   UNL A   1      35.013  25.932  23.409  1.00  0.00     0.164 HD
ATOM     14  O   UNL A   1      34.005  27.974  23.423  1.00  0.00    -0.267 OA
BRANCH  12  15
ATOM     15  C   UNL A   1      33.754  24.327  23.317  1.00  0.00     0.085 C 
ATOM     16  C   UNL A   1      33.437  23.816  21.915  1.00  0.00     0.031 C 
BRANCH  15  17
ATOM     17  C   UNL A   1      34.682  23.375  24.148  1.00  0.00    -0.009 C 
ATOM     18  C   UNL A   1      34.907  24.041  25.546  1.00  0.00     0.012 C 
ATOM     19  C   UNL A   1      36.081  23.186  23.496  1.00  0.00     0.012 C 
ATOM     20  C   UNL A   1      34.082  21.962  24.379  1.00  0.00     0.012 C 
ATOM     21  C   UNL A   1      35.818  23.197  26.440  1.00  0.00    -0.010 C 
ATOM     22  C   UNL A   1      37.006  22.345  24.399  1.00  0.00    -0.010 C 
ATOM     23  C   UNL A   1      34.998  21.116  25.287  1.00  0.00    -0.010 C 
ATOM     24  C   UNL A   1      35.168  21.821  26.644  1.00  0.00     0.007 C 
ATOM     25  C   UNL A   1      37.182  23.044  25.754  1.00  0.00     0.007 C 
ATOM     26  C   UNL A   1      36.379  20.964  24.632  1.00  0.00     0.007 C 
ENDBRANCH  15  17
ENDBRANCH  12  15
ENDBRANCH   6  11
ENDBRANCH   3   5
ENDBRANCH   2   3
ENDBRANCH   1   2
BRANCH   1  27
ATOM     27  C   UNL A   1      31.733  29.845  26.877  1.00  0.00     0.275 C 
BRANCH  27  28
ATOM     28  O   UNL A   1      33.069  30.226  26.489  1.00  0.00    -0.458 OA
BRANCH  28  29
ATOM     29  C   UNL A   1      33.564  31.293  27.154  1.00  0.00     0.338 C 
ATOM     30  O   UNL A   1      32.983  32.324  27.440  1.00  0.00    -0.246 OA
BRANCH  29  31
ATOM     31  C   UNL A   1      34.913  31.015  27.663  1.00  0.00     0.060 A 
ATOM     32  C   UNL A   1      35.186  29.698  28.010  1.00  0.00     0.016 A 
ATOM     33  C   UNL A   1      35.805  32.026  28.003  1.00  0.00     0.016 A 
ATOM     34  C   UNL A   1      36.303  29.375  28.763  1.00  0.00     0.010 A 
ATOM     35  C   UNL A   1      36.982  31.691  28.689  1.00  0.00     0.010 A 
ATOM     36  C   UNL A   1      37.229  30.366  29.101  1.00  0.00    -0.014 A 
BRANCH  36  37
ATOM     37  C   UNL A   1      38.420  30.002  29.916  1.00  0.00     0.031 A 
ATOM     38  C   UNL A   1      39.456  29.063  29.361  1.00  0.00     0.074 A 
ATOM     39  C   UNL A   1      38.596  30.548  31.137  1.00  0.00     0.049 A 
ATOM     40  N   UNL A   1      40.473  28.499  29.965  1.00  0.00    -0.248 NA
ATOM     41  C   UNL A   1      39.329  28.701  27.941  1.00  0.00     0.031 C 
ATOM     42  C   UNL A   1      37.704  31.525  31.765  1.00  0.00     0.029 A 
ATOM     43  N   UNL A   1      39.588  30.363  32.069  1.00  0.00    -0.354 N 
ATOM     44  C   UNL A   1      41.082  27.692  29.012  1.00  0.00     0.074 A 
ATOM     45  C   UNL A   1      40.308  27.820  27.794  1.00  0.00     0.031 C 
ATOM     46  C   UNL A   1      38.195  31.865  32.966  1.00  0.00     0.029 A 
ATOM     47  C   UNL A   1      39.381  31.062  33.234  1.00  0.00     0.049 A 
ATOM     48  H   UNL A   1      40.370  29.785  31.918  1.00  0.00     0.167 HD
ATOM     49  C   UNL A   1      42.188  26.922  29.142  1.00  0.00     0.037 A 
ATOM     50  C   UNL A   1      40.035  31.020  34.411  1.00  0.00     0.037 A 
ATOM     51  C   UNL A   1      42.970  26.827  30.350  1.00  0.00     0.049 A 
ATOM     52  C   UNL A   1      41.214  30.096  34.551  1.00  0.00     0.074 A 
ATOM     53  C   UNL A   1      44.099  26.065  30.590  1.00  0.00     0.029 A 
ATOM     54  N   UNL A   1      42.707  27.529  31.518  1.00  0.00    -0.354 N 
ATOM     55  N   UNL A   1      41.754  29.299  33.662  1.00  0.00    -0.248 NA
ATOM     56  C   UNL A   1      41.870  30.057  35.866  1.00  0.00     0.031 C 
ATOM     57  C   UNL A   1      44.493  26.269  31.916  1.00  0.00     0.029 A 
ATOM     58  C   UNL A   1      43.645  27.206  32.485  1.00  0.00     0.049 A 
ATOM     59  H   UNL A   1      41.964  28.163  31.641  1.00  0.00     0.167 HD
ATOM     60  C   UNL A   1      42.826  28.688  34.296  1.00  0.00     0.074 A 
ATOM     61  C   UNL A   1      42.874  29.222  35.640  1.00  0.00     0.031 C 
ATOM     62  C   UNL A   1      43.689  27.762  33.813  1.00  0.00     0.037 A 
BRANCH  49  63
ATOM     63  C   UNL A   1      42.615  26.100  27.960  1.00  0.00     0.064 A 
ATOM     64  C   UNL A   1      42.077  24.830  27.706  1.00  0.00     0.173 A 
ATOM     65  C   UNL A   1      43.536  26.617  27.034  1.00  0.00     0.173 A 
ATOM     66  F   UNL A   1      41.203  24.284  28.565  1.00  0.00    -0.203 F 
ATOM     67  C   UNL A   1      42.459  24.099  26.583  1.00  0.00     0.198 A 
ATOM     68  C   UNL A   1      43.891  25.897  25.895  1.00  0.00     0.198 A 
ATOM     69  F   UNL A   1      44.078  27.829  27.223  1.00  0.00    -0.203 F 
ATOM     70  F   UNL A   1      41.962  22.871  26.384  1.00  0.00    -0.200 F 
ATOM     71  C   UNL A   1      43.357  24.637  25.674  1.00  0.00     0.200 A 
ATOM     72  F   UNL A   1      44.748  26.427  25.010  1.00  0.00    -0.200 F 
ATOM     73  F   UNL A   1      43.712  23.941  24.585  1.00  0.00    -0.200 F 
ENDBRANCH  49  63
BRANCH  50  74
ATOM     74  C   UNL A   1      39.553  31.824  35.566  1.00  0.00     0.064 A 
ATOM     75  C   UNL A   1      40.077  33.095  35.838  1.00  0.00     0.173 A 
ATOM     76  C   UNL A   1      38.583  31.319  36.447  1.00  0.00     0.173 A 
ATOM     77  F   UNL A   1      41.023  33.614  35.043  1.00  0.00    -0.203 F 
ATOM     78  C   UNL A   1      39.673  33.815  36.962  1.00  0.00     0.198 A 
ATOM     79  C   UNL A   1      38.150  32.057  37.547  1.00  0.00     0.198 A 
ATOM     80  F   UNL A   1      38.048  30.108  36.237  1.00  0.00    -0.203 F 
ATOM     81  F   UNL A   1      40.241  34.998  37.236  1.00  0.00    -0.200 F 
ATOM     82  C   UNL A   1      38.707  33.299  37.811  1.00  0.00     0.200 A 
ATOM     83  F   UNL A   1      37.204  31.559  38.354  1.00  0.00    -0.200 F 
ATOM     84  F   UNL A   1      38.322  33.990  38.892  1.00  0.00    -0.200 F 
ENDBRANCH  50  74
BRANCH  62  85
ATOM     85  C   UNL A   1      44.792  27.310  34.726  1.00  0.00     0.064 A 
ATOM     86  C   UNL A   1      46.018  27.988  34.799  1.00  0.00     0.173 A 
ATOM     87  C   UNL A   1      44.606  26.196  35.560  1.00  0.00     0.173 A 
ATOM     88  F   UNL A   1      46.251  29.047  34.011  1.00  0.00    -0.203 F 
ATOM     89  C   UNL A   1      47.028  27.548  35.650  1.00  0.00     0.198 A 
ATOM     90  C   UNL A   1      45.604  25.782  36.436  1.00  0.00     0.198 A 
ATOM     91  F   UNL A   1      43.450  25.517  35.534  1.00  0.00    -0.203 F 
ATOM     92  F   UNL A   1      48.212  28.176  35.661  1.00  0.00    -0.200 F 
ATOM     93  C   UNL A   1      46.818  26.451  36.473  1.00  0.00     0.200 A 
ATOM     94  F   UNL A   1      45.394  24.732  37.241  1.00  0.00    -0.200 F 
ATOM     95  F   UNL A   1      47.790  26.035  37.297  1.00  0.00    -0.200 F 
ENDBRANCH  62  85
ENDBRANCH  36  37
ENDBRANCH  29  31
ENDBRANCH  28  29
ENDBRANCH  27  28
ENDBRANCH   1  27
TORSDOF 14
ENDMDL
MODEL 3
REMARK VINA RESULT:     -12.5      4.341      9.601
REMARK SMILES C[C@H](NC(=O)c1c(C(=O)OCCOC(=O)c2ccc(-c3c4nc(c(-c5c(F)c(F)c(F)c(F)c5F)c5ccc([nH]5)c(-c5c(F)c(F)c(F)c(F)c5F)c5nc(c(-c6c(F)c(F)c(F)c(F)c6F)c6ccc3[nH]6)C=C5)C=C4)cc2)cnn1C)[C@]12C[C@H]3C[C@H](C[C@H](C3)C1)C2
REMARK SMILES IDX 11 1 10 2 8 3 9 4 7 5 6 6 81 7 79 8 80 9 82 10 4 11 3 12
REMARK SMILES IDX 5 14 2 15 1 16 83 17 84 18 91 19 92 20 85 21 89 22 87 23
REMARK SMILES IDX 86 24 90 25 88 26 12 27 13 28 14 29 15 30 16 31 17 32 78 33
REMARK SMILES IDX 18 34 77 35 19 36 20 37 21 38 71 39 22 40 76 41 70 42 72 43
REMARK SMILES IDX 23 44 75 45 69 46 68 47 24 49 56 50 36 51 55 52 37 53 40 54
REMARK SMILES IDX 54 55 73 56 38 57 39 58 53 60 74 61 41 62 25 63 26 64 34 65
REMARK SMILES IDX 27 66 28 67 32 68 35 69 29 70 30 71 33 72 31 73 57 74 58 75
REMARK SMILES IDX 66 76 59 77 60 78 64 79 67 80 61 81 62 82 65 83 63 84 42 85
REMARK SMILES IDX 43 86 51 87 44 88 45 89 49 90 52 91 46 92 47 93 50 94 48 95
REMARK H PARENT 3 13 72 48 40 59
REMARK Flexibility Score: inf
ROOT
ATOM      1  C   UNL A   1      32.063  28.220  27.511  1.00  0.00     0.275 C 
ENDROOT
BRANCH   1   2
ATOM      2  O   UNL A   1      30.908  27.376  27.315  1.00  0.00    -0.458 OA
BRANCH   2   3
ATOM      3  C   UNL A   1      31.056  26.390  26.388  1.00  0.00     0.342 C 
ATOM      4  O   UNL A   1      31.265  25.211  26.671  1.00  0.00    -0.246 OA
BRANCH   3   5
ATOM      5  C   UNL A   1      30.870  26.804  25.008  1.00  0.00     0.111 A 
ATOM      6  C   UNL A   1      31.809  26.989  23.995  1.00  0.00     0.140 A 
ATOM      7  N   UNL A   1      31.049  27.047  22.848  1.00  0.00    -0.262 N 
ATOM      8  C   UNL A   1      29.624  27.018  24.373  1.00  0.00     0.151 A 
ATOM      9  N   UNL A   1      29.744  27.275  23.076  1.00  0.00    -0.180 NA
ATOM     10  C   UNL A   1      31.412  26.668  21.502  1.00  0.00     0.174 C 
BRANCH   6  11
ATOM     11  C   UNL A   1      33.223  26.776  24.066  1.00  0.00     0.270 C 
ATOM     12  N   UNL A   1      33.781  25.536  23.950  1.00  0.00    -0.348 N 
ATOM     13  H   UNL A   1      34.741  25.560  24.167  1.00  0.00     0.164 HD
ATOM     14  O   UNL A   1      34.001  27.712  24.256  1.00  0.00    -0.267 OA
BRANCH  12  15
ATOM     15  C   UNL A   1      33.357  24.173  23.594  1.00  0.00     0.085 C 
ATOM     16  C   UNL A   1      33.493  23.808  22.119  1.00  0.00     0.031 C 
BRANCH  15  17
ATOM     17  C   UNL A   1      33.793  23.032  24.576  1.00  0.00    -0.009 C 
ATOM     18  C   UNL A   1      34.980  22.263  23.906  1.00  0.00     0.012 C 
ATOM     19  C   UNL A   1      32.660  22.000  24.833  1.00  0.00     0.012 C 
ATOM     20  C   UNL A   1      34.275  23.548  25.959  1.00  0.00     0.012 C 
ATOM     21  C   UNL A   1      35.478  21.109  24.779  1.00  0.00    -0.010 C 
ATOM     22  C   UNL A   1      33.161  20.829  25.704  1.00  0.00    -0.010 C 
ATOM     23  C   UNL A   1      34.783  22.385  26.835  1.00  0.00    -0.010 C 
ATOM     24  C   UNL A   1      35.952  21.680  26.123  1.00  0.00     0.007 C 
ATOM     25  C   UNL A   1      34.326  20.121  24.999  1.00  0.00     0.007 C 
ATOM     26  C   UNL A   1      33.654  21.368  27.054  1.00  0.00     0.007 C 
ENDBRANCH  15  17
ENDBRANCH  12  15
ENDBRANCH   6  11
ENDBRANCH   3   5
ENDBRANCH   2   3
ENDBRANCH   1   2
BRANCH   1  27
ATOM     27  C   UNL A   1      31.867  29.620  26.920  1.00  0.00     0.275 C 
BRANCH  27  28
ATOM     28  O   UNL A   1      33.104  30.172  26.424  1.00  0.00    -0.458 OA
BRANCH  28  29
ATOM     29  C   UNL A   1      33.570  31.228  27.127  1.00  0.00     0.338 C 
ATOM     30  O   UNL A   1      32.961  32.231  27.448  1.00  0.00    -0.246 OA
BRANCH  29  31
ATOM     31  C   UNL A   1      34.925  30.968  27.628  1.00  0.00     0.060 A 
ATOM     32  C   UNL A   1      35.234  29.648  27.928  1.00  0.00     0.016 A 
ATOM     33  C   UNL A   1      35.789  31.990  28.004  1.00  0.00     0.016 A 
ATOM     34  C   UNL A   1      36.359  29.329  28.671  1.00  0.00     0.010 A 
ATOM     35  C   UNL A   1      36.975  31.664  28.680  1.00  0.00     0.010 A 
ATOM     36  C   UNL A   1      37.258  30.332  29.045  1.00  0.00    -0.014 A 
BRANCH  36  37
ATOM     37  C   UNL A   1      38.458  29.972  29.849  1.00  0.00     0.031 A 
ATOM     38  C   UNL A   1      39.493  29.040  29.282  1.00  0.00     0.074 A 
ATOM     39  C   UNL A   1      38.642  30.516  31.069  1.00  0.00     0.049 A 
ATOM     40  N   UNL A   1      40.518  28.479  29.876  1.00  0.00    -0.248 NA
ATOM     41  C   UNL A   1      39.355  28.681  27.862  1.00  0.00     0.031 C 
ATOM     42  C   UNL A   1      37.750  31.487  31.709  1.00  0.00     0.029 A 
ATOM     43  N   UNL A   1      39.643  30.333  31.992  1.00  0.00    -0.354 N 
ATOM     44  C   UNL A   1      41.122  27.678  28.915  1.00  0.00     0.074 A 
ATOM     45  C   UNL A   1      40.338  27.806  27.705  1.00  0.00     0.031 C 
ATOM     46  C   UNL A   1      38.249  31.825  32.906  1.00  0.00     0.029 A 
ATOM     47  C   UNL A   1      39.442  31.028  33.161  1.00  0.00     0.049 A 
ATOM     48  H   UNL A   1      40.426  29.759  31.833  1.00  0.00     0.167 HD
ATOM     49  C   UNL A   1      42.234  26.914  29.033  1.00  0.00     0.037 A 
ATOM     50  C   UNL A   1      40.107  30.986  34.332  1.00  0.00     0.037 A 
ATOM     51  C   UNL A   1      43.027  26.819  30.233  1.00  0.00     0.049 A 
ATOM     52  C   UNL A   1      41.292  30.068  34.460  1.00  0.00     0.074 A 
ATOM     53  C   UNL A   1      44.162  26.062  30.461  1.00  0.00     0.029 A 
ATOM     54  N   UNL A   1      42.771  27.517  31.406  1.00  0.00    -0.354 N 
ATOM     55  N   UNL A   1      41.828  29.275  33.563  1.00  0.00    -0.248 NA
ATOM     56  C   UNL A   1      41.959  30.028  35.768  1.00  0.00     0.031 C 
ATOM     57  C   UNL A   1      44.566  26.264  31.785  1.00  0.00     0.029 A 
ATOM     58  C   UNL A   1      43.719  27.195  32.363  1.00  0.00     0.049 A 
ATOM     59  H   UNL A   1      42.026  28.147  31.537  1.00  0.00     0.167 HD
ATOM     60  C   UNL A   1      42.908  28.668  34.186  1.00  0.00     0.074 A 
ATOM     61  C   UNL A   1      42.966  29.199  35.531  1.00  0.00     0.031 C 
ATOM     62  C   UNL A   1      43.772  27.748  33.693  1.00  0.00     0.037 A 
BRANCH  49  63
ATOM     63  C   UNL A   1      42.655  26.097  27.845  1.00  0.00     0.064 A 
ATOM     64  C   UNL A   1      43.619  26.554  26.935  1.00  0.00     0.173 A 
ATOM     65  C   UNL A   1      42.127  24.810  27.648  1.00  0.00     0.173 A 
ATOM     66  F   UNL A   1      44.147  27.780  27.070  1.00  0.00    -0.203 F 
ATOM     67  C   UNL A   1      44.023  25.764  25.860  1.00  0.00     0.198 A 
ATOM     68  C   UNL A   1      42.557  24.011  26.591  1.00  0.00     0.198 A 
ATOM     69  F   UNL A   1      41.206  24.320  28.491  1.00  0.00    -0.203 F 
ATOM     70  F   UNL A   1      44.916  26.238  24.981  1.00  0.00    -0.200 F 
ATOM     71  C   UNL A   1      43.500  24.490  25.696  1.00  0.00     0.200 A 
ATOM     72  F   UNL A   1      42.061  22.774  26.444  1.00  0.00    -0.200 F 
ATOM     73  F   UNL A   1      43.902  23.725  24.671  1.00  0.00    -0.200 F 
ENDBRANCH  49  63
BRANCH  50  74
ATOM     74  C   UNL A   1      39.631  31.784  35.494  1.00  0.00     0.064 A 
ATOM     75  C   UNL A   1      38.643  31.294  36.359  1.00  0.00     0.173 A 
ATOM     76  C   UNL A   1      40.129  33.073  35.741  1.00  0.00     0.173 A 
ATOM     77  F   UNL A   1      38.116  30.078  36.153  1.00  0.00    -0.203 F 
ATOM     78  C   UNL A   1      38.149  32.074  37.404  1.00  0.00     0.198 A 
ATOM     79  C   UNL A   1      39.664  33.836  36.811  1.00  0.00     0.198 A 
ATOM     80  F   UNL A   1      41.074  33.595  34.945  1.00  0.00    -0.203 F 
ATOM     81  F   UNL A   1      37.155  31.607  38.172  1.00  0.00    -0.200 F 
ATOM     82  C   UNL A   1      38.664  33.341  37.633  1.00  0.00     0.200 A 
ATOM     83  F   UNL A   1      40.178  35.053  37.036  1.00  0.00    -0.200 F 
ATOM     84  F   UNL A   1      38.186  34.090  38.635  1.00  0.00    -0.200 F 
ENDBRANCH  50  74
BRANCH  62  85
ATOM     85  C   UNL A   1      44.885  27.299  34.595  1.00  0.00     0.064 A 
ATOM     86  C   UNL A   1      46.101  27.994  34.673  1.00  0.00     0.173 A 
ATOM     87  C   UNL A   1      44.720  26.170  35.413  1.00  0.00     0.173 A 
ATOM     88  F   UNL A   1      46.315  29.069  33.900  1.00  0.00    -0.203 F 
ATOM     89  C   UNL A   1      47.121  27.558  35.514  1.00  0.00     0.198 A 
ATOM     90  C   UNL A   1      45.727  25.758  36.278  1.00  0.00     0.198 A 
ATOM     91  F   UNL A   1      43.574  25.474  35.381  1.00  0.00    -0.203 F 
ATOM     92  F   UNL A   1      48.295  28.203  35.530  1.00  0.00    -0.200 F 
ATOM     93  C   UNL A   1      46.931  26.445  36.321  1.00  0.00     0.200 A 
ATOM     94  F   UNL A   1      45.536  24.694  37.069  1.00  0.00    -0.200 F 
ATOM     95  F   UNL A   1      47.912  26.031  37.135  1.00  0.00    -0.200 F 
ENDBRANCH  62  85
ENDBRANCH  36  37
ENDBRANCH  29  31
ENDBRANCH  28  29
ENDBRANCH  27  28
ENDBRANCH   1  27
TORSDOF 14
ENDMDL
