MODEL 1
REMARK VINA RESULT:     -10.5      0.000      0.000
REMARK SMILES COCCS(=O)(=O)CCn1cc(C(=O)OCCOC(=O)c2ccc(-c3c4nc(c(-c5c(F)c(F)c(F)c(F)c5F)c5ccc([nH]5)c(-c5c(F)c(F)c(F)c(F)c5F)c5nc(c(-c6c(F)c(F)c(F)c(F)c6F)c6ccc3[nH]6)C=C5)C=C4)cc2)nn1
REMARK SMILES IDX 13 1 14 2 12 3 10 4 11 5 85 6 84 7 9 8 8 9 5 10 6 11 7 12
REMARK SMILES IDX 4 13 3 14 2 15 1 16 15 17 16 18 17 19 18 20 19 21 20 22
REMARK SMILES IDX 21 23 22 24 83 25 23 26 82 27 24 28 25 29 26 30 76 31 27 32
REMARK SMILES IDX 81 33 75 34 77 35 28 36 80 37 74 38 73 39 29 41 61 42 41 43
REMARK SMILES IDX 60 44 42 45 45 46 59 47 78 48 43 49 44 50 58 52 79 53 46 54
REMARK SMILES IDX 30 55 31 56 39 57 32 58 33 59 37 60 40 61 34 62 35 63 38 64
REMARK SMILES IDX 36 65 62 66 63 67 71 68 64 69 65 70 69 71 72 72 66 73 67 74
REMARK SMILES IDX 70 75 68 76 47 77 48 78 56 79 49 80 50 81 54 82 57 83 51 84
REMARK SMILES IDX 52 85 55 86 53 87
REMARK H PARENT 77 40 45 51
REMARK Flexibility Score: inf
ROOT
ATOM      1  C   UNL A   1      35.032  23.430  24.615  1.00  0.00     0.360 C 
ATOM      2  O   UNL A   1      34.828  23.542  25.820  1.00  0.00    -0.244 OA
ENDROOT
BRANCH   1   3
ATOM      3  C   UNL A   1      34.237  24.084  23.586  1.00  0.00     0.190 A 
ATOM      4  N   UNL A   1      32.799  25.305  22.528  1.00  0.00    -0.251 N 
ATOM      5  C   UNL A   1      33.408  25.180  23.736  1.00  0.00     0.147 A 
ATOM      6  N   UNL A   1      33.254  24.402  21.649  1.00  0.00    -0.067 NA
ATOM      7  N   UNL A   1      34.135  23.638  22.287  1.00  0.00    -0.123 NA
BRANCH   4   8
ATOM      8  C   UNL A   1      31.806  26.276  22.145  1.00  0.00     0.162 C 
BRANCH   8   9
ATOM      9  C   UNL A   1      30.740  26.597  23.175  1.00  0.00     0.160 C 
BRANCH   9  10
ATOM     10  S   UNL A   1      29.912  28.156  22.985  1.00  0.00     0.154 S 
ATOM     11  O   UNL A   1      28.521  27.930  23.334  1.00  0.00    -0.229 OA
ATOM     12  O   UNL A   1      30.240  28.619  21.647  1.00  0.00    -0.229 OA
BRANCH  10  13
ATOM     13  C   UNL A   1      30.566  29.350  24.133  1.00  0.00     0.165 C 
BRANCH  13  14
ATOM     14  C   UNL A   1      32.012  29.153  24.542  1.00  0.00     0.176 C 
BRANCH  14  15
ATOM     15  O   UNL A   1      32.415  30.009  25.611  1.00  0.00    -0.384 OA
ATOM     16  C   UNL A   1      31.992  29.596  26.897  1.00  0.00     0.194 C 
ENDBRANCH  14  15
ENDBRANCH  13  14
ENDBRANCH  10  13
ENDBRANCH   9  10
ENDBRANCH   8   9
ENDBRANCH   4   8
ENDBRANCH   1   3
BRANCH   1  17
ATOM     17  O   UNL A   1      36.075  22.722  24.075  1.00  0.00    -0.457 OA
BRANCH  17  18
ATOM     18  C   UNL A   1      36.347  21.435  24.650  1.00  0.00     0.275 C 
BRANCH  18  19
ATOM     19  C   UNL A   1      37.825  21.280  24.972  1.00  0.00     0.275 C 
BRANCH  19  20
ATOM     20  O   UNL A   1      38.193  22.064  26.107  1.00  0.00    -0.458 OA
BRANCH  20  21
ATOM     21  C   UNL A   1      39.523  22.264  26.244  1.00  0.00     0.338 C 
ATOM     22  O   UNL A   1      40.422  21.531  25.867  1.00  0.00    -0.246 OA
BRANCH  21  23
ATOM     23  C   UNL A   1      39.736  23.347  27.206  1.00  0.00     0.060 A 
ATOM     24  C   UNL A   1      38.894  24.460  27.150  1.00  0.00     0.016 A 
ATOM     25  C   UNL A   1      40.938  23.366  27.926  1.00  0.00     0.016 A 
ATOM     26  C   UNL A   1      39.329  25.652  27.696  1.00  0.00     0.010 A 
ATOM     27  C   UNL A   1      41.375  24.550  28.461  1.00  0.00     0.010 A 
ATOM     28  C   UNL A   1      40.594  25.693  28.290  1.00  0.00    -0.014 A 
BRANCH  28  29
ATOM     29  C   UNL A   1      41.047  26.922  28.915  1.00  0.00     0.031 A 
ATOM     30  C   UNL A   1      42.302  27.437  28.304  1.00  0.00     0.074 A 
ATOM     31  C   UNL A   1      40.253  27.596  29.771  1.00  0.00     0.049 A 
ATOM     32  N   UNL A   1      43.416  27.727  28.888  1.00  0.00    -0.248 NA
ATOM     33  C   UNL A   1      42.372  27.502  26.829  1.00  0.00     0.031 C 
ATOM     34  C   UNL A   1      38.878  27.247  30.152  1.00  0.00     0.029 A 
ATOM     35  N   UNL A   1      40.436  28.804  30.374  1.00  0.00    -0.354 N 
ATOM     36  C   UNL A   1      44.255  28.197  27.878  1.00  0.00     0.074 A 
ATOM     37  C   UNL A   1      43.640  27.854  26.630  1.00  0.00     0.031 C 
ATOM     38  C   UNL A   1      38.281  28.323  30.710  1.00  0.00     0.029 A 
ATOM     39  C   UNL A   1      39.261  29.388  30.833  1.00  0.00     0.049 A 
ATOM     40  H   UNL A   1      41.321  29.223  30.476  1.00  0.00     0.167 HD
ATOM     41  C   UNL A   1      45.221  29.113  28.158  1.00  0.00     0.037 A 
ATOM     42  C   UNL A   1      39.095  30.680  31.209  1.00  0.00     0.037 A 
ATOM     43  C   UNL A   1      45.500  29.140  29.568  1.00  0.00     0.049 A 
ATOM     44  C   UNL A   1      40.443  31.238  31.474  1.00  0.00     0.074 A 
ATOM     45  C   UNL A   1      46.115  28.307  30.476  1.00  0.00     0.029 A 
ATOM     46  N   UNL A   1      44.729  30.023  30.276  1.00  0.00    -0.354 N 
ATOM     47  N   UNL A   1      41.202  30.861  32.464  1.00  0.00    -0.248 NA
ATOM     48  C   UNL A   1      41.121  31.980  30.417  1.00  0.00     0.031 C 
ATOM     49  C   UNL A   1      45.497  28.579  31.733  1.00  0.00     0.029 A 
ATOM     50  C   UNL A   1      44.552  29.590  31.560  1.00  0.00     0.049 A 
ATOM     51  H   UNL A   1      44.354  30.856  29.909  1.00  0.00     0.167 HD
ATOM     52  C   UNL A   1      42.487  30.929  31.958  1.00  0.00     0.074 A 
ATOM     53  C   UNL A   1      42.391  31.783  30.782  1.00  0.00     0.031 C 
ATOM     54  C   UNL A   1      43.431  30.030  32.360  1.00  0.00     0.037 A 
BRANCH  41  55
ATOM     55  C   UNL A   1      45.514  30.319  27.285  1.00  0.00     0.064 A 
ATOM     56  C   UNL A   1      46.859  30.704  27.101  1.00  0.00     0.173 A 
ATOM     57  C   UNL A   1      44.555  31.291  26.921  1.00  0.00     0.173 A 
ATOM     58  F   UNL A   1      47.858  29.871  27.430  1.00  0.00    -0.203 F 
ATOM     59  C   UNL A   1      47.210  31.988  26.673  1.00  0.00     0.198 A 
ATOM     60  C   UNL A   1      44.909  32.552  26.444  1.00  0.00     0.198 A 
ATOM     61  F   UNL A   1      43.244  31.120  27.118  1.00  0.00    -0.203 F 
ATOM     62  F   UNL A   1      48.500  32.349  26.641  1.00  0.00    -0.200 F 
ATOM     63  C   UNL A   1      46.235  32.913  26.352  1.00  0.00     0.200 A 
ATOM     64  F   UNL A   1      43.947  33.442  26.162  1.00  0.00    -0.200 F 
ATOM     65  F   UNL A   1      46.566  34.164  26.006  1.00  0.00    -0.200 F 
ENDBRANCH  41  55
BRANCH  42  66
ATOM     66  C   UNL A   1      37.894  31.540  31.090  1.00  0.00     0.064 A 
ATOM     67  C   UNL A   1      37.412  31.945  29.832  1.00  0.00     0.173 A 
ATOM     68  C   UNL A   1      37.035  31.757  32.184  1.00  0.00     0.173 A 
ATOM     69  F   UNL A   1      38.147  31.738  28.731  1.00  0.00    -0.203 F 
ATOM     70  C   UNL A   1      36.138  32.503  29.678  1.00  0.00     0.198 A 
ATOM     71  C   UNL A   1      35.767  32.323  32.031  1.00  0.00     0.198 A 
ATOM     72  F   UNL A   1      37.366  31.337  33.414  1.00  0.00    -0.203 F 
ATOM     73  F   UNL A   1      35.688  32.816  28.455  1.00  0.00    -0.200 F 
ATOM     74  C   UNL A   1      35.313  32.681  30.775  1.00  0.00     0.200 A 
ATOM     75  F   UNL A   1      34.966  32.456  33.097  1.00  0.00    -0.200 F 
ATOM     76  F   UNL A   1      34.069  33.156  30.621  1.00  0.00    -0.200 F 
ENDBRANCH  42  66
BRANCH  54  77
ATOM     77  C   UNL A   1      43.184  29.313  33.652  1.00  0.00     0.064 A 
ATOM     78  C   UNL A   1      43.473  29.841  34.921  1.00  0.00     0.173 A 
ATOM     79  C   UNL A   1      42.537  28.073  33.597  1.00  0.00     0.173 A 
ATOM     80  F   UNL A   1      44.014  31.057  35.056  1.00  0.00    -0.203 F 
ATOM     81  C   UNL A   1      43.164  29.132  36.080  1.00  0.00     0.198 A 
ATOM     82  C   UNL A   1      42.192  27.387  34.755  1.00  0.00     0.198 A 
ATOM     83  F   UNL A   1      42.196  27.546  32.410  1.00  0.00    -0.203 F 
ATOM     84  F   UNL A   1      43.468  29.645  37.282  1.00  0.00    -0.200 F 
ATOM     85  C   UNL A   1      42.517  27.910  35.996  1.00  0.00     0.200 A 
ATOM     86  F   UNL A   1      41.524  26.229  34.668  1.00  0.00    -0.200 F 
ATOM     87  F   UNL A   1      42.184  27.246  37.112  1.00  0.00    -0.200 F 
ENDBRANCH  54  77
ENDBRANCH  28  29
ENDBRANCH  21  23
ENDBRANCH  20  21
ENDBRANCH  19  20
ENDBRANCH  18  19
ENDBRANCH  17  18
ENDBRANCH   1  17
TORSDOF 17
ENDMDL
MODEL 2
REMARK VINA RESULT:     -10.4      2.870      4.624
REMARK SMILES COCCS(=O)(=O)CCn1cc(C(=O)OCCOC(=O)c2ccc(-c3c4nc(c(-c5c(F)c(F)c(F)c(F)c5F)c5ccc([nH]5)c(-c5c(F)c(F)c(F)c(F)c5F)c5nc(c(-c6c(F)c(F)c(F)c(F)c6F)c6ccc3[nH]6)C=C5)C=C4)cc2)nn1
REMARK SMILES IDX 13 1 14 2 12 3 10 4 11 5 85 6 84 7 9 8 8 9 5 10 6 11 7 12
REMARK SMILES IDX 4 13 3 14 2 15 1 16 15 17 16 18 17 19 18 20 19 21 20 22
REMARK SMILES IDX 21 23 22 24 83 25 23 26 82 27 24 28 25 29 26 30 76 31 27 32
REMARK SMILES IDX 81 33 75 34 77 35 28 36 80 37 74 38 73 39 29 41 61 42 41 43
REMARK SMILES IDX 60 44 42 45 45 46 59 47 78 48 43 49 44 50 58 52 79 53 46 54
REMARK SMILES IDX 30 55 31 56 39 57 32 58 33 59 37 60 40 61 34 62 35 63 38 64
REMARK SMILES IDX 36 65 62 66 63 67 71 68 64 69 65 70 69 71 72 72 66 73 67 74
REMARK SMILES IDX 70 75 68 76 47 77 48 78 56 79 49 80 50 81 54 82 57 83 51 84
REMARK SMILES IDX 52 85 55 86 53 87
REMARK H PARENT 77 40 45 51
REMARK Flexibility Score: inf
ROOT
ATOM      1  C   UNL A   1      41.193  21.359  26.541  1.00  0.00     0.360 C 
ATOM      2  O   UNL A   1      41.966  21.852  27.358  1.00  0.00    -0.244 OA
ENDROOT
BRANCH   1   3
ATOM      3  C   UNL A   1      39.834  21.825  26.316  1.00  0.00     0.190 A 
ATOM      4  N   UNL A   1      37.789  22.037  25.641  1.00  0.00    -0.251 N 
ATOM      5  C   UNL A   1      38.787  21.121  25.750  1.00  0.00     0.147 A 
ATOM      6  N   UNL A   1      38.144  23.220  26.162  1.00  0.00    -0.067 NA
ATOM      7  N   UNL A   1      39.403  23.108  26.575  1.00  0.00    -0.123 NA
BRANCH   4   8
ATOM      8  C   UNL A   1      36.476  21.838  25.083  1.00  0.00     0.162 C 
BRANCH   8   9
ATOM      9  C   UNL A   1      36.100  22.716  23.905  1.00  0.00     0.160 C 
BRANCH   9  10
ATOM     10  S   UNL A   1      34.819  23.910  24.196  1.00  0.00     0.154 S 
ATOM     11  O   UNL A   1      34.556  24.551  22.920  1.00  0.00    -0.229 OA
ATOM     12  O   UNL A   1      35.276  24.718  25.313  1.00  0.00    -0.229 OA
BRANCH  10  13
ATOM     13  C   UNL A   1      33.319  23.098  24.709  1.00  0.00     0.165 C 
BRANCH  13  14
ATOM     14  C   UNL A   1      32.870  21.932  23.852  1.00  0.00     0.176 C 
BRANCH  14  15
ATOM     15  O   UNL A   1      31.665  22.194  23.133  1.00  0.00    -0.384 OA
ATOM     16  C   UNL A   1      31.066  23.447  23.411  1.00  0.00     0.194 C 
ENDBRANCH  14  15
ENDBRANCH  13  14
ENDBRANCH  10  13
ENDBRANCH   9  10
ENDBRANCH   8   9
ENDBRANCH   4   8
ENDBRANCH   1   3
BRANCH   1  17
ATOM     17  O   UNL A   1      41.528  20.341  25.685  1.00  0.00    -0.457 OA
BRANCH  17  18
ATOM     18  C   UNL A   1      42.397  19.322  26.203  1.00  0.00     0.275 C 
BRANCH  18  19
ATOM     19  C   UNL A   1      43.621  19.144  25.319  1.00  0.00     0.275 C 
BRANCH  19  20
ATOM     20  O   UNL A   1      44.529  20.236  25.465  1.00  0.00    -0.458 OA
BRANCH  20  21
ATOM     21  C   UNL A   1      44.508  21.125  24.447  1.00  0.00     0.338 C 
ATOM     22  O   UNL A   1      44.621  20.885  23.257  1.00  0.00    -0.246 OA
BRANCH  21  23
ATOM     23  C   UNL A   1      44.652  22.472  25.000  1.00  0.00     0.060 A 
ATOM     24  C   UNL A   1      45.510  22.655  26.088  1.00  0.00     0.016 A 
ATOM     25  C   UNL A   1      43.714  23.445  24.628  1.00  0.00     0.016 A 
ATOM     26  C   UNL A   1      45.328  23.757  26.901  1.00  0.00     0.010 A 
ATOM     27  C   UNL A   1      43.527  24.534  25.439  1.00  0.00     0.010 A 
ATOM     28  C   UNL A   1      44.295  24.649  26.598  1.00  0.00    -0.014 A 
BRANCH  28  29
ATOM     29  C   UNL A   1      44.120  25.839  27.410  1.00  0.00     0.031 A 
ATOM     30  C   UNL A   1      45.127  26.888  27.098  1.00  0.00     0.074 A 
ATOM     31  C   UNL A   1      43.013  26.008  28.160  1.00  0.00     0.049 A 
ATOM     32  N   UNL A   1      45.937  27.485  27.906  1.00  0.00    -0.248 NA
ATOM     33  C   UNL A   1      45.364  27.212  25.676  1.00  0.00     0.031 C 
ATOM     34  C   UNL A   1      41.860  25.101  28.240  1.00  0.00     0.029 A 
ATOM     35  N   UNL A   1      42.606  27.079  28.898  1.00  0.00    -0.354 N 
ATOM     36  C   UNL A   1      46.642  28.398  27.121  1.00  0.00     0.074 A 
ATOM     37  C   UNL A   1      46.395  28.052  25.753  1.00  0.00     0.031 C 
ATOM     38  C   UNL A   1      40.808  25.760  28.775  1.00  0.00     0.029 A 
ATOM     39  C   UNL A   1      41.245  27.084  29.179  1.00  0.00     0.049 A 
ATOM     40  H   UNL A   1      43.221  27.784  29.203  1.00  0.00     0.167 HD
ATOM     41  C   UNL A   1      47.105  29.556  27.662  1.00  0.00     0.037 A 
ATOM     42  C   UNL A   1      40.519  28.135  29.637  1.00  0.00     0.037 A 
ATOM     43  C   UNL A   1      47.155  29.461  29.096  1.00  0.00     0.049 A 
ATOM     44  C   UNL A   1      41.474  29.117  30.202  1.00  0.00     0.074 A 
ATOM     45  C   UNL A   1      47.926  28.794  30.022  1.00  0.00     0.029 A 
ATOM     46  N   UNL A   1      46.004  29.853  29.726  1.00  0.00    -0.354 N 
ATOM     47  N   UNL A   1      42.180  28.907  31.278  1.00  0.00    -0.248 NA
ATOM     48  C   UNL A   1      41.929  30.222  29.366  1.00  0.00     0.031 C 
ATOM     49  C   UNL A   1      47.087  28.601  31.159  1.00  0.00     0.029 A 
ATOM     50  C   UNL A   1      45.846  29.185  30.906  1.00  0.00     0.049 A 
ATOM     51  H   UNL A   1      45.376  30.525  29.374  1.00  0.00     0.167 HD
ATOM     52  C   UNL A   1      43.382  29.544  31.032  1.00  0.00     0.074 A 
ATOM     53  C   UNL A   1      43.107  30.473  29.944  1.00  0.00     0.031 C 
ATOM     54  C   UNL A   1      44.546  29.024  31.518  1.00  0.00     0.037 A 
BRANCH  41  55
ATOM     55  C   UNL A   1      46.998  30.907  26.978  1.00  0.00     0.064 A 
ATOM     56  C   UNL A   1      48.126  31.754  26.985  1.00  0.00     0.173 A 
ATOM     57  C   UNL A   1      45.778  31.531  26.634  1.00  0.00     0.173 A 
ATOM     58  F   UNL A   1      49.336  31.278  27.315  1.00  0.00    -0.203 F 
ATOM     59  C   UNL A   1      48.020  33.130  26.754  1.00  0.00     0.198 A 
ATOM     60  C   UNL A   1      45.685  32.893  26.353  1.00  0.00     0.198 A 
ATOM     61  F   UNL A   1      44.605  30.891  26.669  1.00  0.00    -0.203 F 
ATOM     62  F   UNL A   1      49.096  33.914  26.904  1.00  0.00    -0.200 F 
ATOM     63  C   UNL A   1      46.800  33.699  26.446  1.00  0.00     0.200 A 
ATOM     64  F   UNL A   1      44.487  33.429  26.080  1.00  0.00    -0.200 F 
ATOM     65  F   UNL A   1      46.682  35.024  26.291  1.00  0.00    -0.200 F 
ENDBRANCH  41  55
BRANCH  42  66
ATOM     66  C   UNL A   1      39.100  28.474  29.374  1.00  0.00     0.064 A 
ATOM     67  C   UNL A   1      38.177  28.608  30.426  1.00  0.00     0.173 A 
ATOM     68  C   UNL A   1      38.679  28.941  28.114  1.00  0.00     0.173 A 
ATOM     69  F   UNL A   1      38.511  28.227  31.667  1.00  0.00    -0.203 F 
ATOM     70  C   UNL A   1      36.924  29.201  30.235  1.00  0.00     0.198 A 
ATOM     71  C   UNL A   1      37.425  29.524  27.922  1.00  0.00     0.198 A 
ATOM     72  F   UNL A   1      39.510  28.931  27.062  1.00  0.00    -0.203 F 
ATOM     73  F   UNL A   1      36.098  29.370  31.277  1.00  0.00    -0.200 F 
ATOM     74  C   UNL A   1      36.554  29.668  28.986  1.00  0.00     0.200 A 
ATOM     75  F   UNL A   1      37.094  30.005  26.715  1.00  0.00    -0.200 F 
ATOM     76  F   UNL A   1      35.381  30.293  28.814  1.00  0.00    -0.200 F 
ENDBRANCH  42  66
BRANCH  54  77
ATOM     77  C   UNL A   1      44.439  28.070  32.668  1.00  0.00     0.064 A 
ATOM     78  C   UNL A   1      44.315  26.677  32.537  1.00  0.00     0.173 A 
ATOM     79  C   UNL A   1      44.564  28.592  33.962  1.00  0.00     0.173 A 
ATOM     80  F   UNL A   1      44.275  26.099  31.331  1.00  0.00    -0.203 F 
ATOM     81  C   UNL A   1      44.274  25.851  33.658  1.00  0.00     0.198 A 
ATOM     82  C   UNL A   1      44.566  27.762  35.077  1.00  0.00     0.198 A 
ATOM     83  F   UNL A   1      44.733  29.912  34.140  1.00  0.00    -0.203 F 
ATOM     84  F   UNL A   1      44.134  24.525  33.511  1.00  0.00    -0.200 F 
ATOM     85  C   UNL A   1      44.407  26.393  34.926  1.00  0.00     0.200 A 
ATOM     86  F   UNL A   1      44.742  28.287  36.297  1.00  0.00    -0.200 F 
ATOM     87  F   UNL A   1      44.408  25.595  36.003  1.00  0.00    -0.200 F 
ENDBRANCH  54  77
ENDBRANCH  28  29
ENDBRANCH  21  23
ENDBRANCH  20  21
ENDBRANCH  19  20
ENDBRANCH  18  19
ENDBRANCH  17  18
ENDBRANCH   1  17
TORSDOF 17
ENDMDL
MODEL 3
REMARK VINA RESULT:     -10.4      1.075      2.064
REMARK SMILES COCCS(=O)(=O)CCn1cc(C(=O)OCCOC(=O)c2ccc(-c3c4nc(c(-c5c(F)c(F)c(F)c(F)c5F)c5ccc([nH]5)c(-c5c(F)c(F)c(F)c(F)c5F)c5nc(c(-c6c(F)c(F)c(F)c(F)c6F)c6ccc3[nH]6)C=C5)C=C4)cc2)nn1
REMARK SMILES IDX 13 1 14 2 12 3 10 4 11 5 85 6 84 7 9 8 8 9 5 10 6 11 7 12
REMARK SMILES IDX 4 13 3 14 2 15 1 16 15 17 16 18 17 19 18 20 19 21 20 22
REMARK SMILES IDX 21 23 22 24 83 25 23 26 82 27 24 28 25 29 26 30 76 31 27 32
REMARK SMILES IDX 81 33 75 34 77 35 28 36 80 37 74 38 73 39 29 41 61 42 41 43
REMARK SMILES IDX 60 44 42 45 45 46 59 47 78 48 43 49 44 50 58 52 79 53 46 54
REMARK SMILES IDX 30 55 31 56 39 57 32 58 33 59 37 60 40 61 34 62 35 63 38 64
REMARK SMILES IDX 36 65 62 66 63 67 71 68 64 69 65 70 69 71 72 72 66 73 67 74
REMARK SMILES IDX 70 75 68 76 47 77 48 78 56 79 49 80 50 81 54 82 57 83 51 84
REMARK SMILES IDX 52 85 55 86 53 87
REMARK H PARENT 77 40 45 51
REMARK Flexibility Score: inf
ROOT
ATOM      1  C   UNL A   1      35.445  22.869  23.648  1.00  0.00     0.360 C 
ATOM      2  O   UNL A   1      36.224  23.259  22.783  1.00  0.00    -0.244 OA
ENDROOT
BRANCH   1   3
ATOM      3  C   UNL A   1      34.366  23.673  24.200  1.00  0.00     0.190 A 
ATOM      4  N   UNL A   1      33.206  25.111  25.327  1.00  0.00    -0.251 N 
ATOM      5  C   UNL A   1      34.479  24.837  24.937  1.00  0.00     0.147 A 
ATOM      6  N   UNL A   1      32.334  24.229  24.819  1.00  0.00    -0.067 NA
ATOM      7  N   UNL A   1      33.033  23.334  24.129  1.00  0.00    -0.123 NA
BRANCH   4   8
ATOM      8  C   UNL A   1      32.760  26.205  26.149  1.00  0.00     0.162 C 
BRANCH   8   9
ATOM      9  C   UNL A   1      33.528  27.507  26.022  1.00  0.00     0.160 C 
BRANCH   9  10
ATOM     10  S   UNL A   1      32.822  28.917  26.837  1.00  0.00     0.154 S 
ATOM     11  O   UNL A   1      33.917  29.603  27.498  1.00  0.00    -0.229 OA
ATOM     12  O   UNL A   1      31.722  28.403  27.637  1.00  0.00    -0.229 OA
BRANCH  10  13
ATOM     13  C   UNL A   1      32.127  30.040  25.642  1.00  0.00     0.165 C 
BRANCH  13  14
ATOM     14  C   UNL A   1      31.220  29.419  24.599  1.00  0.00     0.176 C 
BRANCH  14  15
ATOM     15  O   UNL A   1      31.928  28.915  23.467  1.00  0.00    -0.384 OA
ATOM     16  C   UNL A   1      31.312  27.818  22.818  1.00  0.00     0.194 C 
ENDBRANCH  14  15
ENDBRANCH  13  14
ENDBRANCH  10  13
ENDBRANCH   9  10
ENDBRANCH   8   9
ENDBRANCH   4   8
ENDBRANCH   1   3
BRANCH   1  17
ATOM     17  O   UNL A   1      35.447  21.599  24.166  1.00  0.00    -0.457 OA
BRANCH  17  18
ATOM     18  C   UNL A   1      36.024  21.436  25.470  1.00  0.00     0.275 C 
BRANCH  18  19
ATOM     19  C   UNL A   1      37.537  21.308  25.389  1.00  0.00     0.275 C 
BRANCH  19  20
ATOM     20  O   UNL A   1      38.186  22.348  26.121  1.00  0.00    -0.458 OA
BRANCH  20  21
ATOM     21  C   UNL A   1      39.457  22.070  26.486  1.00  0.00     0.338 C 
ATOM     22  O   UNL A   1      39.920  20.979  26.772  1.00  0.00    -0.246 OA
BRANCH  21  23
ATOM     23  C   UNL A   1      40.137  23.327  26.804  1.00  0.00     0.060 A 
ATOM     24  C   UNL A   1      41.229  23.290  27.674  1.00  0.00     0.016 A 
ATOM     25  C   UNL A   1      39.493  24.529  26.478  1.00  0.00     0.016 A 
ATOM     26  C   UNL A   1      41.589  24.445  28.341  1.00  0.00     0.010 A 
ATOM     27  C   UNL A   1      39.843  25.674  27.146  1.00  0.00     0.010 A 
ATOM     28  C   UNL A   1      40.847  25.608  28.112  1.00  0.00    -0.014 A 
BRANCH  28  29
ATOM     29  C   UNL A   1      41.242  26.844  28.764  1.00  0.00     0.031 A 
ATOM     30  C   UNL A   1      42.506  27.396  28.208  1.00  0.00     0.074 A 
ATOM     31  C   UNL A   1      40.395  27.490  29.590  1.00  0.00     0.049 A 
ATOM     32  N   UNL A   1      43.587  27.711  28.839  1.00  0.00    -0.248 NA
ATOM     33  C   UNL A   1      42.634  27.474  26.738  1.00  0.00     0.031 C 
ATOM     34  C   UNL A   1      39.016  27.102  29.913  1.00  0.00     0.029 A 
ATOM     35  N   UNL A   1      40.522  28.697  30.209  1.00  0.00    -0.354 N 
ATOM     36  C   UNL A   1      44.454  28.211  27.867  1.00  0.00     0.074 A 
ATOM     37  C   UNL A   1      43.900  27.861  26.592  1.00  0.00     0.031 C 
ATOM     38  C   UNL A   1      38.368  28.157  30.453  1.00  0.00     0.029 A 
ATOM     39  C   UNL A   1      39.313  29.246  30.623  1.00  0.00     0.049 A 
ATOM     40  H   UNL A   1      41.390  29.139  30.349  1.00  0.00     0.167 HD
ATOM     41  C   UNL A   1      45.382  29.149  28.191  1.00  0.00     0.037 A 
ATOM     42  C   UNL A   1      39.098  30.531  31.001  1.00  0.00     0.037 A 
ATOM     43  C   UNL A   1      45.603  29.173  29.612  1.00  0.00     0.049 A 
ATOM     44  C   UNL A   1      40.418  31.123  31.323  1.00  0.00     0.074 A 
ATOM     45  C   UNL A   1      46.202  28.351  30.539  1.00  0.00     0.029 A 
ATOM     46  N   UNL A   1      44.781  30.030  30.294  1.00  0.00    -0.354 N 
ATOM     47  N   UNL A   1      41.147  30.758  32.341  1.00  0.00    -0.248 NA
ATOM     48  C   UNL A   1      41.119  31.890  30.300  1.00  0.00     0.031 C 
ATOM     49  C   UNL A   1      45.527  28.596  31.772  1.00  0.00     0.029 A 
ATOM     50  C   UNL A   1      44.563  29.583  31.566  1.00  0.00     0.049 A 
ATOM     51  H   UNL A   1      44.398  30.855  29.917  1.00  0.00     0.167 HD
ATOM     52  C   UNL A   1      42.449  30.864  31.889  1.00  0.00     0.074 A 
ATOM     53  C   UNL A   1      42.377  31.724  30.715  1.00  0.00     0.031 C 
ATOM     54  C   UNL A   1      43.400  29.987  32.323  1.00  0.00     0.037 A 
BRANCH  41  55
ATOM     55  C   UNL A   1      45.679  30.370  27.340  1.00  0.00     0.064 A 
ATOM     56  C   UNL A   1      47.024  30.762  27.172  1.00  0.00     0.173 A 
ATOM     57  C   UNL A   1      44.719  31.343  26.982  1.00  0.00     0.173 A 
ATOM     58  F   UNL A   1      48.023  29.927  27.497  1.00  0.00    -0.203 F 
ATOM     59  C   UNL A   1      47.374  32.053  26.766  1.00  0.00     0.198 A 
ATOM     60  C   UNL A   1      45.072  32.613  26.527  1.00  0.00     0.198 A 
ATOM     61  F   UNL A   1      43.407  31.165  27.166  1.00  0.00    -0.203 F 
ATOM     62  F   UNL A   1      48.663  32.419  26.750  1.00  0.00    -0.200 F 
ATOM     63  C   UNL A   1      46.398  32.979  26.451  1.00  0.00     0.200 A 
ATOM     64  F   UNL A   1      44.110  33.504  26.251  1.00  0.00    -0.200 F 
ATOM     65  F   UNL A   1      46.728  34.237  26.127  1.00  0.00    -0.200 F 
ENDBRANCH  41  55
BRANCH  42  66
ATOM     66  C   UNL A   1      37.880  31.360  30.837  1.00  0.00     0.064 A 
ATOM     67  C   UNL A   1      37.400  31.704  29.561  1.00  0.00     0.173 A 
ATOM     68  C   UNL A   1      37.007  31.602  31.916  1.00  0.00     0.173 A 
ATOM     69  F   UNL A   1      38.149  31.469  28.474  1.00  0.00    -0.203 F 
ATOM     70  C   UNL A   1      36.116  32.229  29.375  1.00  0.00     0.198 A 
ATOM     71  C   UNL A   1      35.730  32.134  31.730  1.00  0.00     0.198 A 
ATOM     72  F   UNL A   1      37.337  31.239  33.164  1.00  0.00    -0.203 F 
ATOM     73  F   UNL A   1      35.671  32.482  28.136  1.00  0.00    -0.200 F 
ATOM     74  C   UNL A   1      35.278  32.432  30.458  1.00  0.00     0.200 A 
ATOM     75  F   UNL A   1      34.917  32.292  32.784  1.00  0.00    -0.200 F 
ATOM     76  F   UNL A   1      34.026  32.874  30.275  1.00  0.00    -0.200 F 
ENDBRANCH  42  66
BRANCH  54  77
ATOM     77  C   UNL A   1      43.120  29.255  33.599  1.00  0.00     0.064 A 
ATOM     78  C   UNL A   1      42.439  28.029  33.680  1.00  0.00     0.173 A 
ATOM     79  C   UNL A   1      43.653  29.780  34.783  1.00  0.00     0.173 A 
ATOM     80  F   UNL A   1      41.975  27.423  32.581  1.00  0.00    -0.203 F 
ATOM     81  C   UNL A   1      42.265  27.384  34.903  1.00  0.00     0.198 A 
ATOM     82  C   UNL A   1      43.514  29.114  35.995  1.00  0.00     0.198 A 
ATOM     83  F   UNL A   1      44.353  30.926  34.753  1.00  0.00    -0.203 F 
ATOM     84  F   UNL A   1      41.593  26.224  34.961  1.00  0.00    -0.200 F 
ATOM     85  C   UNL A   1      42.809  27.923  36.057  1.00  0.00     0.200 A 
ATOM     86  F   UNL A   1      44.083  29.616  37.099  1.00  0.00    -0.200 F 
ATOM     87  F   UNL A   1      42.676  27.283  37.227  1.00  0.00    -0.200 F 
ENDBRANCH  54  77
ENDBRANCH  28  29
ENDBRANCH  21  23
ENDBRANCH  20  21
ENDBRANCH  19  20
ENDBRANCH  18  19
ENDBRANCH  17  18
ENDBRANCH   1  17
TORSDOF 17
ENDMDL
