MODEL 1
REMARK VINA RESULT:     -12.3      0.000      0.000
REMARK SMILES C[NH+]1CCC(NC(=O)N[C@@H]2C=C[C@H](C(=O)OCCOC(=O)c3ccc(-c4c5nc(c(-c6c(F)c(F)c(F)c(F)c6F)c6ccc([nH]6)c(-c6c(F)c(F)c(F)c(F)c6F)c6nc(c(-c7c(F)c(F)c(F)c(F)c7F)c7ccc4[nH]7)C=C6)C=C5)cc3)C2)CC1
REMARK SMILES IDX 17 1 16 2 14 3 15 4 13 5 10 6 11 7 85 8 12 9 9 10 6 11 7 12
REMARK SMILES IDX 8 14 5 16 1 17 2 18 3 19 87 20 4 22 86 23 18 24 19 25 20 26
REMARK SMILES IDX 21 27 22 28 23 29 84 30 24 31 83 32 25 33 26 34 27 35 77 36
REMARK SMILES IDX 28 37 82 38 76 39 78 40 29 41 81 42 75 43 74 44 30 46 62 47
REMARK SMILES IDX 42 48 61 49 43 50 46 51 60 52 79 53 44 54 45 55 59 57 80 58
REMARK SMILES IDX 47 59 31 60 32 61 40 62 33 63 34 64 38 65 41 66 35 67 36 68
REMARK SMILES IDX 39 69 37 70 63 71 64 72 72 73 65 74 66 75 70 76 73 77 67 78
REMARK SMILES IDX 68 79 71 80 69 81 48 82 49 83 57 84 50 85 51 86 55 87 58 88
REMARK SMILES IDX 52 89 53 90 56 91 54 92
REMARK H PARENT 6 13 9 15 2 21 78 45 46 56
REMARK Flexibility Score: inf
ROOT
ATOM      1  C   UNL A   1      35.857  20.245  24.968  1.00  0.00     0.274 C 
ENDROOT
BRANCH   1   2
ATOM      2  O   UNL A   1      34.937  21.081  25.698  1.00  0.00    -0.462 OA
BRANCH   2   3
ATOM      3  C   UNL A   1      34.069  21.846  24.975  1.00  0.00     0.312 C 
ATOM      4  O   UNL A   1      33.582  21.543  23.896  1.00  0.00    -0.252 OA
BRANCH   3   5
ATOM      5  C   UNL A   1      33.744  23.114  25.756  1.00  0.00     0.124 C 
ATOM      6  C   UNL A   1      32.972  25.016  24.390  1.00  0.00     0.107 C 
ATOM      7  C   UNL A   1      34.348  25.234  24.930  1.00  0.00    -0.006 C 
ATOM      8  C   UNL A   1      32.495  23.795  25.193  1.00  0.00     0.048 C 
ATOM      9  C   UNL A   1      34.788  24.184  25.632  1.00  0.00    -0.014 C 
BRANCH   6  10
ATOM     10  N   UNL A   1      33.141  24.810  22.965  1.00  0.00    -0.332 N 
ATOM     11  N   UNL A   1      32.455  26.813  21.886  1.00  0.00    -0.335 N 
ATOM     12  C   UNL A   1      32.972  25.574  21.871  1.00  0.00     0.315 C 
ATOM     13  H   UNL A   1      32.176  27.148  21.003  1.00  0.00     0.165 HD
ATOM     14  O   UNL A   1      33.291  25.098  20.778  1.00  0.00    -0.249 OA
ATOM     15  H   UNL A   1      33.452  23.901  22.748  1.00  0.00     0.165 HD
BRANCH  11  16
ATOM     16  C   UNL A   1      32.238  27.739  22.971  1.00  0.00     0.095 C 
ATOM     17  C   UNL A   1      31.595  30.476  26.013  1.00  0.00     0.332 C 
ATOM     18  N   UNL A   1      31.925  30.065  24.643  1.00  0.00    -0.337 N 
ATOM     19  C   UNL A   1      30.755  29.402  24.042  1.00  0.00     0.264 C 
ATOM     20  C   UNL A   1      33.158  29.260  24.656  1.00  0.00     0.264 C 
ATOM     21  H   UNL A   1      32.128  30.867  24.045  1.00  0.00     0.347 HD
ATOM     22  C   UNL A   1      31.061  28.677  22.733  1.00  0.00     0.086 C 
ATOM     23  C   UNL A   1      33.455  28.586  23.312  1.00  0.00     0.086 C 
ENDBRANCH  11  16
ENDBRANCH   6  10
ENDBRANCH   3   5
ENDBRANCH   2   3
ENDBRANCH   1   2
BRANCH   1  24
ATOM     24  C   UNL A   1      37.120  21.027  24.620  1.00  0.00     0.275 C 
BRANCH  24  25
ATOM     25  O   UNL A   1      37.626  21.654  25.813  1.00  0.00    -0.458 OA
BRANCH  25  26
ATOM     26  C   UNL A   1      38.897  21.356  26.155  1.00  0.00     0.338 C 
ATOM     27  O   UNL A   1      39.487  20.295  26.014  1.00  0.00    -0.246 OA
BRANCH  26  28
ATOM     28  C   UNL A   1      39.542  22.571  26.668  1.00  0.00     0.060 A 
ATOM     29  C   UNL A   1      39.064  23.797  26.224  1.00  0.00     0.016 A 
ATOM     30  C   UNL A   1      40.677  22.512  27.479  1.00  0.00     0.016 A 
ATOM     31  C   UNL A   1      39.768  24.956  26.510  1.00  0.00     0.010 A 
ATOM     32  C   UNL A   1      41.328  23.701  27.846  1.00  0.00     0.010 A 
ATOM     33  C   UNL A   1      40.891  24.937  27.341  1.00  0.00    -0.014 A 
BRANCH  33  34
ATOM     34  C   UNL A   1      41.594  26.220  27.610  1.00  0.00     0.031 A 
ATOM     35  C   UNL A   1      40.972  27.247  28.511  1.00  0.00     0.074 A 
ATOM     36  C   UNL A   1      42.848  26.423  27.151  1.00  0.00     0.049 A 
ATOM     37  N   UNL A   1      41.382  28.458  28.797  1.00  0.00    -0.248 NA
ATOM     38  C   UNL A   1      39.731  26.857  29.199  1.00  0.00     0.031 C 
ATOM     39  C   UNL A   1      43.631  25.456  26.381  1.00  0.00     0.029 A 
ATOM     40  N   UNL A   1      43.701  27.489  27.307  1.00  0.00    -0.354 N 
ATOM     41  C   UNL A   1      40.422  28.993  29.644  1.00  0.00     0.074 A 
ATOM     42  C   UNL A   1      39.423  27.968  29.855  1.00  0.00     0.031 C 
ATOM     43  C   UNL A   1      44.865  25.945  26.185  1.00  0.00     0.029 A 
ATOM     44  C   UNL A   1      44.933  27.295  26.729  1.00  0.00     0.049 A 
ATOM     45  H   UNL A   1      43.455  28.312  27.787  1.00  0.00     0.167 HD
ATOM     46  C   UNL A   1      40.374  30.237  30.177  1.00  0.00     0.037 A 
ATOM     47  C   UNL A   1      45.989  28.124  26.616  1.00  0.00     0.037 A 
ATOM     48  C   UNL A   1      41.392  31.240  30.005  1.00  0.00     0.049 A 
ATOM     49  C   UNL A   1      45.884  29.520  27.165  1.00  0.00     0.074 A 
ATOM     50  C   UNL A   1      41.407  32.543  30.472  1.00  0.00     0.029 A 
ATOM     51  N   UNL A   1      42.585  31.043  29.328  1.00  0.00    -0.354 N 
ATOM     52  N   UNL A   1      44.922  30.061  27.871  1.00  0.00    -0.248 NA
ATOM     53  C   UNL A   1      46.997  30.433  26.869  1.00  0.00     0.031 C 
ATOM     54  C   UNL A   1      42.595  33.147  30.045  1.00  0.00     0.029 A 
ATOM     55  C   UNL A   1      43.336  32.208  29.345  1.00  0.00     0.049 A 
ATOM     56  H   UNL A   1      42.860  30.200  28.899  1.00  0.00     0.167 HD
ATOM     57  C   UNL A   1      45.306  31.374  28.096  1.00  0.00     0.074 A 
ATOM     58  C   UNL A   1      46.609  31.541  27.486  1.00  0.00     0.031 C 
ATOM     59  C   UNL A   1      44.629  32.360  28.732  1.00  0.00     0.037 A 
BRANCH  46  60
ATOM     60  C   UNL A   1      39.137  30.614  30.931  1.00  0.00     0.064 A 
ATOM     61  C   UNL A   1      39.039  30.482  32.322  1.00  0.00     0.173 A 
ATOM     62  C   UNL A   1      38.041  31.151  30.239  1.00  0.00     0.173 A 
ATOM     63  F   UNL A   1      40.054  29.956  33.024  1.00  0.00    -0.203 F 
ATOM     64  C   UNL A   1      37.880  30.867  32.993  1.00  0.00     0.198 A 
ATOM     65  C   UNL A   1      36.893  31.552  30.914  1.00  0.00     0.198 A 
ATOM     66  F   UNL A   1      38.089  31.296  28.906  1.00  0.00    -0.203 F 
ATOM     67  F   UNL A   1      37.792  30.706  34.321  1.00  0.00    -0.200 F 
ATOM     68  C   UNL A   1      36.812  31.407  32.291  1.00  0.00     0.200 A 
ATOM     69  F   UNL A   1      35.866  32.079  30.233  1.00  0.00    -0.200 F 
ATOM     70  F   UNL A   1      35.701  31.781  32.939  1.00  0.00    -0.200 F 
ENDBRANCH  46  60
BRANCH  47  71
ATOM     71  C   UNL A   1      47.213  27.684  25.893  1.00  0.00     0.064 A 
ATOM     72  C   UNL A   1      48.327  27.194  26.587  1.00  0.00     0.173 A 
ATOM     73  C   UNL A   1      47.304  27.774  24.496  1.00  0.00     0.173 A 
ATOM     74  F   UNL A   1      48.307  27.127  27.927  1.00  0.00    -0.203 F 
ATOM     75  C   UNL A   1      49.488  26.821  25.911  1.00  0.00     0.198 A 
ATOM     76  C   UNL A   1      48.451  27.370  23.820  1.00  0.00     0.198 A 
ATOM     77  F   UNL A   1      46.273  28.253  23.784  1.00  0.00    -0.203 F 
ATOM     78  F   UNL A   1      50.560  26.407  26.602  1.00  0.00    -0.200 F 
ATOM     79  C   UNL A   1      49.546  26.901  24.528  1.00  0.00     0.200 A 
ATOM     80  F   UNL A   1      48.500  27.446  22.482  1.00  0.00    -0.200 F 
ATOM     81  F   UNL A   1      50.664  26.546  23.880  1.00  0.00    -0.200 F 
ENDBRANCH  47  71
BRANCH  59  82
ATOM     82  C   UNL A   1      45.281  33.708  28.795  1.00  0.00     0.064 A 
ATOM     83  C   UNL A   1      46.163  34.038  29.834  1.00  0.00     0.173 A 
ATOM     84  C   UNL A   1      45.057  34.660  27.792  1.00  0.00     0.173 A 
ATOM     85  F   UNL A   1      46.396  33.165  30.826  1.00  0.00    -0.203 F 
ATOM     86  C   UNL A   1      46.785  35.283  29.875  1.00  0.00     0.198 A 
ATOM     87  C   UNL A   1      45.698  35.894  27.822  1.00  0.00     0.198 A 
ATOM     88  F   UNL A   1      44.224  34.388  26.775  1.00  0.00    -0.203 F 
ATOM     89  F   UNL A   1      47.598  35.592  30.894  1.00  0.00    -0.200 F 
ATOM     90  C   UNL A   1      46.558  36.206  28.865  1.00  0.00     0.200 A 
ATOM     91  F   UNL A   1      45.485  36.783  26.842  1.00  0.00    -0.200 F 
ATOM     92  F   UNL A   1      47.163  37.401  28.902  1.00  0.00    -0.200 F 
ENDBRANCH  59  82
ENDBRANCH  33  34
ENDBRANCH  26  28
ENDBRANCH  25  26
ENDBRANCH  24  25
ENDBRANCH   1  24
TORSDOF 13
ENDMDL
MODEL 2
REMARK VINA RESULT:     -12.3      4.529      9.963
REMARK SMILES C[NH+]1CCC(NC(=O)N[C@@H]2C=C[C@H](C(=O)OCCOC(=O)c3ccc(-c4c5nc(c(-c6c(F)c(F)c(F)c(F)c6F)c6ccc([nH]6)c(-c6c(F)c(F)c(F)c(F)c6F)c6nc(c(-c7c(F)c(F)c(F)c(F)c7F)c7ccc4[nH]7)C=C6)C=C5)cc3)C2)CC1
REMARK SMILES IDX 17 1 16 2 14 3 15 4 13 5 10 6 11 7 85 8 12 9 9 10 6 11 7 12
REMARK SMILES IDX 8 14 5 16 1 17 2 18 3 19 87 20 4 22 86 23 18 24 19 25 20 26
REMARK SMILES IDX 21 27 22 28 23 29 84 30 24 31 83 32 25 33 26 34 27 35 77 36
REMARK SMILES IDX 28 37 82 38 76 39 78 40 29 41 81 42 75 43 74 44 30 46 62 47
REMARK SMILES IDX 42 48 61 49 43 50 46 51 60 52 79 53 44 54 45 55 59 57 80 58
REMARK SMILES IDX 47 59 31 60 32 61 40 62 33 63 34 64 38 65 41 66 35 67 36 68
REMARK SMILES IDX 39 69 37 70 63 71 64 72 72 73 65 74 66 75 70 76 73 77 67 78
REMARK SMILES IDX 68 79 71 80 69 81 48 82 49 83 57 84 50 85 51 86 55 87 58 88
REMARK SMILES IDX 52 89 53 90 56 91 54 92
REMARK H PARENT 6 13 9 15 2 21 78 45 46 56
REMARK Flexibility Score: inf
ROOT
ATOM      1  C   UNL A   1      31.123  29.754  24.696  1.00  0.00     0.274 C 
ENDROOT
BRANCH   1   2
ATOM      2  O   UNL A   1      32.325  29.287  24.051  1.00  0.00    -0.462 OA
BRANCH   2   3
ATOM      3  C   UNL A   1      32.287  28.060  23.457  1.00  0.00     0.312 C 
ATOM      4  O   UNL A   1      31.411  27.660  22.703  1.00  0.00    -0.252 OA
BRANCH   3   5
ATOM      5  C   UNL A   1      33.547  27.285  23.822  1.00  0.00     0.124 C 
ATOM      6  C   UNL A   1      33.185  25.322  25.270  1.00  0.00     0.107 C 
ATOM      7  C   UNL A   1      33.862  26.439  25.996  1.00  0.00    -0.006 C 
ATOM      8  C   UNL A   1      33.282  25.777  23.805  1.00  0.00     0.048 C 
ATOM      9  C   UNL A   1      34.016  27.522  25.227  1.00  0.00    -0.014 C 
BRANCH   6  10
ATOM     10  N   UNL A   1      31.847  25.251  25.823  1.00  0.00    -0.332 N 
ATOM     11  N   UNL A   1      31.324  22.948  26.087  1.00  0.00    -0.335 N 
ATOM     12  C   UNL A   1      31.040  24.253  26.226  1.00  0.00     0.315 C 
ATOM     13  H   UNL A   1      30.552  22.349  26.207  1.00  0.00     0.165 HD
ATOM     14  O   UNL A   1      29.958  24.554  26.736  1.00  0.00    -0.249 OA
ATOM     15  H   UNL A   1      31.434  26.138  25.928  1.00  0.00     0.165 HD
BRANCH  11  16
ATOM     16  C   UNL A   1      32.564  22.271  25.794  1.00  0.00     0.095 C 
ATOM     17  C   UNL A   1      36.080  20.234  24.990  1.00  0.00     0.332 C 
ATOM     18  N   UNL A   1      34.793  20.450  25.662  1.00  0.00    -0.337 N 
ATOM     19  C   UNL A   1      33.711  20.396  24.664  1.00  0.00     0.264 C 
ATOM     20  C   UNL A   1      34.852  21.694  26.448  1.00  0.00     0.264 C 
ATOM     21  H   UNL A   1      34.589  19.710  26.335  1.00  0.00     0.347 HD
ATOM     22  C   UNL A   1      32.363  20.889  25.187  1.00  0.00     0.086 C 
ATOM     23  C   UNL A   1      33.488  22.130  26.994  1.00  0.00     0.086 C 
ENDBRANCH  11  16
ENDBRANCH   6  10
ENDBRANCH   3   5
ENDBRANCH   2   3
ENDBRANCH   1   2
BRANCH   1  24
ATOM     24  C   UNL A   1      31.438  30.254  26.103  1.00  0.00     0.275 C 
BRANCH  24  25
ATOM     25  O   UNL A   1      32.853  30.495  26.207  1.00  0.00    -0.458 OA
BRANCH  25  26
ATOM     26  C   UNL A   1      33.230  31.539  26.974  1.00  0.00     0.338 C 
ATOM     27  O   UNL A   1      32.604  32.560  27.219  1.00  0.00    -0.246 OA
BRANCH  26  28
ATOM     28  C   UNL A   1      34.530  31.229  27.583  1.00  0.00     0.060 A 
ATOM     29  C   UNL A   1      34.781  29.911  27.940  1.00  0.00     0.016 A 
ATOM     30  C   UNL A   1      35.444  32.232  27.911  1.00  0.00     0.016 A 
ATOM     31  C   UNL A   1      35.897  29.606  28.704  1.00  0.00     0.010 A 
ATOM     32  C   UNL A   1      36.621  31.898  28.599  1.00  0.00     0.010 A 
ATOM     33  C   UNL A   1      36.846  30.579  29.026  1.00  0.00    -0.014 A 
BRANCH  33  34
ATOM     34  C   UNL A   1      38.022  30.178  29.844  1.00  0.00     0.031 A 
ATOM     35  C   UNL A   1      39.118  29.350  29.236  1.00  0.00     0.074 A 
ATOM     36  C   UNL A   1      38.179  30.654  31.097  1.00  0.00     0.049 A 
ATOM     37  N   UNL A   1      40.175  28.826  29.804  1.00  0.00    -0.248 NA
ATOM     38  C   UNL A   1      39.024  29.090  27.790  1.00  0.00     0.031 C 
ATOM     39  C   UNL A   1      37.265  31.580  31.768  1.00  0.00     0.029 A 
ATOM     40  N   UNL A   1      39.186  30.465  32.013  1.00  0.00    -0.354 N 
ATOM     41  C   UNL A   1      40.836  28.127  28.805  1.00  0.00     0.074 A 
ATOM     42  C   UNL A   1      40.082  28.317  27.585  1.00  0.00     0.031 C 
ATOM     43  C   UNL A   1      37.781  31.924  32.957  1.00  0.00     0.029 A 
ATOM     44  C   UNL A   1      39.011  31.174  33.178  1.00  0.00     0.049 A 
ATOM     45  H   UNL A   1      39.960  29.878  31.851  1.00  0.00     0.167 HD
ATOM     46  C   UNL A   1      41.959  27.378  28.908  1.00  0.00     0.037 A 
ATOM     47  C   UNL A   1      39.738  31.192  34.311  1.00  0.00     0.037 A 
ATOM     48  C   UNL A   1      42.735  27.228  30.110  1.00  0.00     0.049 A 
ATOM     49  C   UNL A   1      40.947  30.303  34.417  1.00  0.00     0.074 A 
ATOM     50  C   UNL A   1      43.863  26.454  30.320  1.00  0.00     0.029 A 
ATOM     51  N   UNL A   1      42.472  27.884  31.303  1.00  0.00    -0.354 N 
ATOM     52  N   UNL A   1      41.505  29.553  33.501  1.00  0.00    -0.248 NA
ATOM     53  C   UNL A   1      41.605  30.236  35.730  1.00  0.00     0.031 C 
ATOM     54  C   UNL A   1      44.262  26.612  31.652  1.00  0.00     0.029 A 
ATOM     55  C   UNL A   1      43.405  27.515  32.260  1.00  0.00     0.049 A 
ATOM     56  H   UNL A   1      41.733  28.518  31.449  1.00  0.00     0.167 HD
ATOM     57  C   UNL A   1      42.570  28.920  34.123  1.00  0.00     0.074 A 
ATOM     58  C   UNL A   1      42.607  29.403  35.487  1.00  0.00     0.031 C 
ATOM     59  C   UNL A   1      43.427  28.002  33.615  1.00  0.00     0.037 A 
BRANCH  46  60
ATOM     60  C   UNL A   1      42.373  26.591  27.704  1.00  0.00     0.064 A 
ATOM     61  C   UNL A   1      43.334  27.059  26.799  1.00  0.00     0.173 A 
ATOM     62  C   UNL A   1      41.812  25.325  27.477  1.00  0.00     0.173 A 
ATOM     63  F   UNL A   1      43.884  28.271  26.963  1.00  0.00    -0.203 F 
ATOM     64  C   UNL A   1      43.713  26.287  25.701  1.00  0.00     0.198 A 
ATOM     65  C   UNL A   1      42.206  24.550  26.392  1.00  0.00     0.198 A 
ATOM     66  F   UNL A   1      40.886  24.836  28.317  1.00  0.00    -0.203 F 
ATOM     67  F   UNL A   1      44.612  26.763  24.828  1.00  0.00    -0.200 F 
ATOM     68  C   UNL A   1      43.154  25.033  25.502  1.00  0.00     0.200 A 
ATOM     69  F   UNL A   1      41.669  23.336  26.207  1.00  0.00    -0.200 F 
ATOM     70  F   UNL A   1      43.524  24.292  24.450  1.00  0.00    -0.200 F 
ENDBRANCH  46  60
BRANCH  47  71
ATOM     71  C   UNL A   1      39.306  32.026  35.465  1.00  0.00     0.064 A 
ATOM     72  C   UNL A   1      38.472  31.505  36.463  1.00  0.00     0.173 A 
ATOM     73  C   UNL A   1      39.693  33.371  35.575  1.00  0.00     0.173 A 
ATOM     74  F   UNL A   1      38.040  30.237  36.382  1.00  0.00    -0.203 F 
ATOM     75  C   UNL A   1      38.035  32.300  37.522  1.00  0.00     0.198 A 
ATOM     76  C   UNL A   1      39.282  34.153  36.650  1.00  0.00     0.198 A 
ATOM     77  F   UNL A   1      40.474  33.925  34.637  1.00  0.00    -0.203 F 
ATOM     78  F   UNL A   1      37.194  31.793  38.435  1.00  0.00    -0.200 F 
ATOM     79  C   UNL A   1      38.446  33.620  37.619  1.00  0.00     0.200 A 
ATOM     80  F   UNL A   1      39.686  35.429  36.741  1.00  0.00    -0.200 F 
ATOM     81  F   UNL A   1      38.022  34.385  38.635  1.00  0.00    -0.200 F 
ENDBRANCH  47  71
BRANCH  59  82
ATOM     82  C   UNL A   1      44.473  27.456  34.538  1.00  0.00     0.064 A 
ATOM     83  C   UNL A   1      45.703  28.108  34.706  1.00  0.00     0.173 A 
ATOM     84  C   UNL A   1      44.231  26.299  35.291  1.00  0.00     0.173 A 
ATOM     85  F   UNL A   1      45.987  29.210  33.995  1.00  0.00    -0.203 F 
ATOM     86  C   UNL A   1      46.662  27.610  35.585  1.00  0.00     0.198 A 
ATOM     87  C   UNL A   1      45.181  25.817  36.186  1.00  0.00     0.198 A 
ATOM     88  F   UNL A   1      43.067  25.643  35.167  1.00  0.00    -0.203 F 
ATOM     89  F   UNL A   1      47.844  28.228  35.705  1.00  0.00    -0.200 F 
ATOM     90  C   UNL A   1      46.396  26.470  36.329  1.00  0.00     0.200 A 
ATOM     91  F   UNL A   1      44.922  24.720  36.910  1.00  0.00    -0.200 F 
ATOM     92  F   UNL A   1      47.318  25.996  37.179  1.00  0.00    -0.200 F 
ENDBRANCH  59  82
ENDBRANCH  33  34
ENDBRANCH  26  28
ENDBRANCH  25  26
ENDBRANCH  24  25
ENDBRANCH   1  24
TORSDOF 13
ENDMDL
MODEL 3
REMARK VINA RESULT:     -12.2      0.097      1.614
REMARK SMILES C[NH+]1CCC(NC(=O)N[C@@H]2C=C[C@H](C(=O)OCCOC(=O)c3ccc(-c4c5nc(c(-c6c(F)c(F)c(F)c(F)c6F)c6ccc([nH]6)c(-c6c(F)c(F)c(F)c(F)c6F)c6nc(c(-c7c(F)c(F)c(F)c(F)c7F)c7ccc4[nH]7)C=C6)C=C5)cc3)C2)CC1
REMARK SMILES IDX 17 1 16 2 14 3 15 4 13 5 10 6 11 7 85 8 12 9 9 10 6 11 7 12
REMARK SMILES IDX 8 14 5 16 1 17 2 18 3 19 87 20 4 22 86 23 18 24 19 25 20 26
REMARK SMILES IDX 21 27 22 28 23 29 84 30 24 31 83 32 25 33 26 34 27 35 77 36
REMARK SMILES IDX 28 37 82 38 76 39 78 40 29 41 81 42 75 43 74 44 30 46 62 47
REMARK SMILES IDX 42 48 61 49 43 50 46 51 60 52 79 53 44 54 45 55 59 57 80 58
REMARK SMILES IDX 47 59 31 60 32 61 40 62 33 63 34 64 38 65 41 66 35 67 36 68
REMARK SMILES IDX 39 69 37 70 63 71 64 72 72 73 65 74 66 75 70 76 73 77 67 78
REMARK SMILES IDX 68 79 71 80 69 81 48 82 49 83 57 84 50 85 51 86 55 87 58 88
REMARK SMILES IDX 52 89 53 90 56 91 54 92
REMARK H PARENT 6 13 9 15 2 21 78 45 46 56
REMARK Flexibility Score: inf
ROOT
ATOM      1  C   UNL A   1      35.866  20.243  24.994  1.00  0.00     0.274 C 
ENDROOT
BRANCH   1   2
ATOM      2  O   UNL A   1      35.040  21.118  25.787  1.00  0.00    -0.462 OA
BRANCH   2   3
ATOM      3  C   UNL A   1      34.071  21.830  25.142  1.00  0.00     0.312 C 
ATOM      4  O   UNL A   1      33.463  21.464  24.147  1.00  0.00    -0.252 OA
BRANCH   3   5
ATOM      5  C   UNL A   1      33.813  23.128  25.896  1.00  0.00     0.124 C 
ATOM      6  C   UNL A   1      33.118  25.033  24.493  1.00  0.00     0.107 C 
ATOM      7  C   UNL A   1      34.508  25.199  25.017  1.00  0.00    -0.006 C 
ATOM      8  C   UNL A   1      32.592  23.854  25.327  1.00  0.00     0.048 C 
ATOM      9  C   UNL A   1      34.905  24.145  25.739  1.00  0.00    -0.014 C 
BRANCH   6  10
ATOM     10  N   UNL A   1      33.265  24.787  23.072  1.00  0.00    -0.332 N 
ATOM     11  N   UNL A   1      32.470  26.724  21.945  1.00  0.00    -0.335 N 
ATOM     12  C   UNL A   1      33.039  25.507  21.958  1.00  0.00     0.315 C 
ATOM     13  H   UNL A   1      32.158  27.018  21.059  1.00  0.00     0.165 HD
ATOM     14  O   UNL A   1      33.353  25.009  20.874  1.00  0.00    -0.249 OA
ATOM     15  H   UNL A   1      33.608  23.886  22.877  1.00  0.00     0.165 HD
BRANCH  11  16
ATOM     16  C   UNL A   1      32.238  27.675  23.005  1.00  0.00     0.095 C 
ATOM     17  C   UNL A   1      31.556  30.484  25.972  1.00  0.00     0.332 C 
ATOM     18  N   UNL A   1      31.919  30.040  24.620  1.00  0.00    -0.337 N 
ATOM     19  C   UNL A   1      30.756  29.386  23.998  1.00  0.00     0.264 C 
ATOM     20  C   UNL A   1      33.136  29.213  24.687  1.00  0.00     0.264 C 
ATOM     21  H   UNL A   1      32.155  30.825  24.014  1.00  0.00     0.347 HD
ATOM     22  C   UNL A   1      31.087  28.629  22.713  1.00  0.00     0.086 C 
ATOM     23  C   UNL A   1      33.460  28.507  23.365  1.00  0.00     0.086 C 
ENDBRANCH  11  16
ENDBRANCH   6  10
ENDBRANCH   3   5
ENDBRANCH   2   3
ENDBRANCH   1   2
BRANCH   1  24
ATOM     24  C   UNL A   1      37.160  20.949  24.601  1.00  0.00     0.275 C 
BRANCH  24  25
ATOM     25  O   UNL A   1      37.659  21.677  25.738  1.00  0.00    -0.458 OA
BRANCH  25  26
ATOM     26  C   UNL A   1      38.905  21.367  26.151  1.00  0.00     0.338 C 
ATOM     27  O   UNL A   1      39.480  20.292  26.071  1.00  0.00    -0.246 OA
BRANCH  26  28
ATOM     28  C   UNL A   1      39.549  22.586  26.657  1.00  0.00     0.060 A 
ATOM     29  C   UNL A   1      39.100  23.807  26.170  1.00  0.00     0.016 A 
ATOM     30  C   UNL A   1      40.657  22.532  27.504  1.00  0.00     0.016 A 
ATOM     31  C   UNL A   1      39.809  24.963  26.453  1.00  0.00     0.010 A 
ATOM     32  C   UNL A   1      41.310  23.721  27.866  1.00  0.00     0.010 A 
ATOM     33  C   UNL A   1      40.905  24.950  27.320  1.00  0.00    -0.014 A 
BRANCH  33  34
ATOM     34  C   UNL A   1      41.615  26.231  27.583  1.00  0.00     0.031 A 
ATOM     35  C   UNL A   1      40.996  27.268  28.477  1.00  0.00     0.074 A 
ATOM     36  C   UNL A   1      42.870  26.424  27.126  1.00  0.00     0.049 A 
ATOM     37  N   UNL A   1      41.412  28.478  28.756  1.00  0.00    -0.248 NA
ATOM     38  C   UNL A   1      39.751  26.889  29.164  1.00  0.00     0.031 C 
ATOM     39  C   UNL A   1      43.650  25.448  26.364  1.00  0.00     0.029 A 
ATOM     40  N   UNL A   1      43.730  27.485  27.277  1.00  0.00    -0.354 N 
ATOM     41  C   UNL A   1      40.454  29.023  29.597  1.00  0.00     0.074 A 
ATOM     42  C   UNL A   1      39.449  28.005  29.812  1.00  0.00     0.031 C 
ATOM     43  C   UNL A   1      44.887  25.928  26.168  1.00  0.00     0.029 A 
ATOM     44  C   UNL A   1      44.962  27.281  26.703  1.00  0.00     0.049 A 
ATOM     45  H   UNL A   1      43.487  28.313  27.752  1.00  0.00     0.167 HD
ATOM     46  C   UNL A   1      40.412  30.271  30.123  1.00  0.00     0.037 A 
ATOM     47  C   UNL A   1      46.023  28.103  26.588  1.00  0.00     0.037 A 
ATOM     48  C   UNL A   1      41.436  31.266  29.948  1.00  0.00     0.049 A 
ATOM     49  C   UNL A   1      45.924  29.503  27.129  1.00  0.00     0.074 A 
ATOM     50  C   UNL A   1      41.458  32.572  30.406  1.00  0.00     0.029 A 
ATOM     51  N   UNL A   1      42.630  31.058  29.274  1.00  0.00    -0.354 N 
ATOM     52  N   UNL A   1      44.964  30.054  27.828  1.00  0.00    -0.248 NA
ATOM     53  C   UNL A   1      47.044  30.408  26.830  1.00  0.00     0.031 C 
ATOM     54  C   UNL A   1      42.650  33.167  29.978  1.00  0.00     0.029 A 
ATOM     55  C   UNL A   1      43.387  32.219  29.286  1.00  0.00     0.049 A 
ATOM     56  H   UNL A   1      42.900  30.211  28.851  1.00  0.00     0.167 HD
ATOM     57  C   UNL A   1      45.356  31.366  28.047  1.00  0.00     0.074 A 
ATOM     58  C   UNL A   1      46.661  31.521  27.438  1.00  0.00     0.031 C 
ATOM     59  C   UNL A   1      44.683  32.360  28.675  1.00  0.00     0.037 A 
BRANCH  46  60
ATOM     60  C   UNL A   1      39.176  30.659  30.871  1.00  0.00     0.064 A 
ATOM     61  C   UNL A   1      38.056  31.208  30.233  1.00  0.00     0.173 A 
ATOM     62  C   UNL A   1      39.107  30.442  32.256  1.00  0.00     0.173 A 
ATOM     63  F   UNL A   1      38.081  31.452  28.915  1.00  0.00    -0.203 F 
ATOM     64  C   UNL A   1      36.912  31.535  30.960  1.00  0.00     0.198 A 
ATOM     65  C   UNL A   1      37.958  30.752  32.975  1.00  0.00     0.198 A 
ATOM     66  F   UNL A   1      40.156  29.919  32.910  1.00  0.00    -0.203 F 
ATOM     67  F   UNL A   1      35.861  32.087  30.339  1.00  0.00    -0.200 F 
ATOM     68  C   UNL A   1      36.862  31.301  32.327  1.00  0.00     0.200 A 
ATOM     69  F   UNL A   1      37.911  30.518  34.294  1.00  0.00    -0.200 F 
ATOM     70  F   UNL A   1      35.760  31.612  33.022  1.00  0.00    -0.200 F 
ENDBRANCH  46  60
BRANCH  47  71
ATOM     71  C   UNL A   1      47.246  27.651  25.871  1.00  0.00     0.064 A 
ATOM     72  C   UNL A   1      48.355  27.158  26.571  1.00  0.00     0.173 A 
ATOM     73  C   UNL A   1      47.341  27.734  24.473  1.00  0.00     0.173 A 
ATOM     74  F   UNL A   1      48.330  27.097  27.911  1.00  0.00    -0.203 F 
ATOM     75  C   UNL A   1      49.515  26.773  25.900  1.00  0.00     0.198 A 
ATOM     76  C   UNL A   1      48.488  27.320  23.803  1.00  0.00     0.198 A 
ATOM     77  F   UNL A   1      46.316  28.218  23.756  1.00  0.00    -0.203 F 
ATOM     78  F   UNL A   1      50.582  26.356  26.595  1.00  0.00    -0.200 F 
ATOM     79  C   UNL A   1      49.578  26.847  24.516  1.00  0.00     0.200 A 
ATOM     80  F   UNL A   1      48.542  27.390  22.465  1.00  0.00    -0.200 F 
ATOM     81  F   UNL A   1      50.695  26.481  23.873  1.00  0.00    -0.200 F 
ENDBRANCH  47  71
BRANCH  59  82
ATOM     82  C   UNL A   1      45.342  33.704  28.732  1.00  0.00     0.064 A 
ATOM     83  C   UNL A   1      45.103  34.671  27.745  1.00  0.00     0.173 A 
ATOM     84  C   UNL A   1      46.186  34.044  29.799  1.00  0.00     0.173 A 
ATOM     85  F   UNL A   1      44.315  34.386  26.696  1.00  0.00    -0.203 F 
ATOM     86  C   UNL A   1      45.698  35.927  27.816  1.00  0.00     0.198 A 
ATOM     87  C   UNL A   1      46.761  35.308  29.879  1.00  0.00     0.198 A 
ATOM     88  F   UNL A   1      46.442  33.153  30.768  1.00  0.00    -0.203 F 
ATOM     89  F   UNL A   1      45.483  36.825  26.845  1.00  0.00    -0.200 F 
ATOM     90  C   UNL A   1      46.520  36.247  28.887  1.00  0.00     0.200 A 
ATOM     91  F   UNL A   1      47.549  35.620  30.917  1.00  0.00    -0.200 F 
ATOM     92  F   UNL A   1      47.087  37.459  28.957  1.00  0.00    -0.200 F 
ENDBRANCH  59  82
ENDBRANCH  33  34
ENDBRANCH  26  28
ENDBRANCH  25  26
ENDBRANCH  24  25
ENDBRANCH   1  24
TORSDOF 13
ENDMDL
