MODEL 1
REMARK VINA RESULT:     -11.6      0.000      0.000
REMARK SMILES CC[C@@H](C)N(C)C(=O)N1[C@@H](C(=O)OCCOC(=O)c2ccc(-c3c4nc(c(-c5c(F)c(F)c(F)c(F)c5F)c5ccc([nH]5)c(-c5c(F)c(F)c(F)c(F)c5F)c5nc(c(-c6c(F)c(F)c(F)c(F)c6F)c6ccc3[nH]6)C=C5)C=C4)cc2)CC[C@H]2CCCC[C@H]21
REMARK SMILES IDX 14 1 13 2 11 3 12 4 10 5 9 6 89 7 82 8 84 9 88 10 83 11
REMARK SMILES IDX 85 12 87 13 86 14 7 15 8 16 5 17 6 18 3 19 4 20 2 21 1 22
REMARK SMILES IDX 15 23 16 24 17 25 18 26 19 27 20 28 81 29 21 30 80 31 22 32
REMARK SMILES IDX 23 33 24 34 74 35 25 36 79 37 73 38 75 39 26 40 78 41 72 42
REMARK SMILES IDX 71 43 27 45 59 46 39 47 58 48 40 49 43 50 57 51 76 52 41 53
REMARK SMILES IDX 42 54 56 56 77 57 44 58 28 59 29 60 37 61 30 62 31 63 35 64
REMARK SMILES IDX 38 65 32 66 33 67 36 68 34 69 60 70 61 71 69 72 62 73 63 74
REMARK SMILES IDX 67 75 70 76 64 77 65 78 68 79 66 80 45 81 46 82 54 83 47 84
REMARK SMILES IDX 48 85 52 86 55 87 49 88 50 89 53 90 51 91
REMARK H PARENT 75 44 43 55
REMARK Flexibility Score: inf
ROOT
ATOM      1  C   UNL A   1      31.781  28.323  27.263  1.00  0.00     0.274 C 
ENDROOT
BRANCH   1   2
ATOM      2  O   UNL A   1      32.532  27.327  26.542  1.00  0.00    -0.461 OA
BRANCH   2   3
ATOM      3  C   UNL A   1      31.961  26.094  26.474  1.00  0.00     0.329 C 
ATOM      4  O   UNL A   1      30.831  25.835  26.874  1.00  0.00    -0.250 OA
BRANCH   3   5
ATOM      5  C   UNL A   1      32.899  25.039  25.848  1.00  0.00     0.197 C 
ATOM      6  N   UNL A   1      32.815  24.778  24.401  1.00  0.00    -0.308 N 
ATOM      7  C   UNL A   1      33.796  23.820  23.856  1.00  0.00     0.091 C 
ATOM      8  C   UNL A   1      32.951  23.741  26.661  1.00  0.00     0.038 C 
ATOM      9  C   UNL A   1      34.024  22.553  24.708  1.00  0.00     0.012 C 
ATOM     10  C   UNL A   1      33.662  23.458  22.371  1.00  0.00     0.025 C 
ATOM     11  C   UNL A   1      34.127  22.883  26.202  1.00  0.00     0.008 C 
ATOM     12  C   UNL A   1      33.035  21.403  24.463  1.00  0.00     0.006 C 
ATOM     13  C   UNL A   1      32.781  22.248  22.051  1.00  0.00     0.002 C 
ATOM     14  C   UNL A   1      32.151  21.534  23.238  1.00  0.00     0.000 C 
BRANCH   6  15
ATOM     15  C   UNL A   1      31.672  25.132  23.715  1.00  0.00     0.320 C 
ATOM     16  O   UNL A   1      30.635  24.485  23.807  1.00  0.00    -0.248 OA
BRANCH  15  17
ATOM     17  N   UNL A   1      31.789  26.231  22.868  1.00  0.00    -0.325 N 
ATOM     18  C   UNL A   1      31.778  26.126  21.408  1.00  0.00     0.149 C 
BRANCH  17  19
ATOM     19  C   UNL A   1      31.578  27.592  23.400  1.00  0.00     0.083 C 
ATOM     20  C   UNL A   1      30.114  28.048  23.335  1.00  0.00     0.031 C 
BRANCH  19  21
ATOM     21  C   UNL A   1      32.556  28.590  22.750  1.00  0.00     0.021 C 
ATOM     22  C   UNL A   1      33.971  28.497  23.299  1.00  0.00     0.006 C 
ENDBRANCH  19  21
ENDBRANCH  17  19
ENDBRANCH  15  17
ENDBRANCH   6  15
ENDBRANCH   3   5
ENDBRANCH   2   3
ENDBRANCH   1   2
BRANCH   1  23
ATOM     23  C   UNL A   1      31.776  29.682  26.552  1.00  0.00     0.275 C 
BRANCH  23  24
ATOM     24  O   UNL A   1      33.109  30.158  26.277  1.00  0.00    -0.458 OA
BRANCH  24  25
ATOM     25  C   UNL A   1      33.498  31.228  27.006  1.00  0.00     0.338 C 
ATOM     26  O   UNL A   1      32.838  32.229  27.254  1.00  0.00    -0.246 OA
BRANCH  25  27
ATOM     27  C   UNL A   1      34.794  30.969  27.653  1.00  0.00     0.060 A 
ATOM     28  C   UNL A   1      35.097  29.642  27.980  1.00  0.00     0.016 A 
ATOM     29  C   UNL A   1      35.672  31.998  28.001  1.00  0.00     0.016 A 
ATOM     30  C   UNL A   1      36.280  29.329  28.640  1.00  0.00     0.010 A 
ATOM     31  C   UNL A   1      36.847  31.687  28.695  1.00  0.00     0.010 A 
ATOM     32  C   UNL A   1      37.149  30.354  29.025  1.00  0.00    -0.014 A 
BRANCH  32  33
ATOM     33  C   UNL A   1      38.305  30.026  29.890  1.00  0.00     0.031 A 
ATOM     34  C   UNL A   1      39.373  29.117  29.360  1.00  0.00     0.074 A 
ATOM     35  C   UNL A   1      38.425  30.580  31.109  1.00  0.00     0.049 A 
ATOM     36  N   UNL A   1      40.432  28.639  29.962  1.00  0.00    -0.248 NA
ATOM     37  C   UNL A   1      39.232  28.694  27.958  1.00  0.00     0.031 C 
ATOM     38  C   UNL A   1      37.493  31.540  31.695  1.00  0.00     0.029 A 
ATOM     39  N   UNL A   1      39.387  30.410  32.073  1.00  0.00    -0.354 N 
ATOM     40  C   UNL A   1      41.074  27.848  29.019  1.00  0.00     0.074 A 
ATOM     41  C   UNL A   1      40.284  27.902  27.808  1.00  0.00     0.031 C 
ATOM     42  C   UNL A   1      37.922  31.867  32.927  1.00  0.00     0.029 A 
ATOM     43  C   UNL A   1      39.134  31.107  33.228  1.00  0.00     0.049 A 
ATOM     44  H   UNL A   1      40.182  29.843  31.948  1.00  0.00     0.167 HD
ATOM     45  C   UNL A   1      42.218  27.138  29.157  1.00  0.00     0.037 A 
ATOM     46  C   UNL A   1      39.790  31.102  34.404  1.00  0.00     0.037 A 
ATOM     47  C   UNL A   1      43.001  27.091  30.363  1.00  0.00     0.049 A 
ATOM     48  C   UNL A   1      41.017  30.242  34.557  1.00  0.00     0.074 A 
ATOM     49  C   UNL A   1      44.169  26.392  30.609  1.00  0.00     0.029 A 
ATOM     50  N   UNL A   1      42.691  27.775  31.529  1.00  0.00    -0.354 N 
ATOM     51  N   UNL A   1      41.606  29.474  33.673  1.00  0.00    -0.248 NA
ATOM     52  C   UNL A   1      41.667  30.242  35.875  1.00  0.00     0.031 C 
ATOM     53  C   UNL A   1      44.545  26.622  31.938  1.00  0.00     0.029 A 
ATOM     54  C   UNL A   1      43.634  27.500  32.505  1.00  0.00     0.049 A 
ATOM     55  H   UNL A   1      41.913  28.368  31.646  1.00  0.00     0.167 HD
ATOM     56  C   UNL A   1      42.703  28.917  34.317  1.00  0.00     0.074 A 
ATOM     57  C   UNL A   1      42.706  29.448  35.665  1.00  0.00     0.031 C 
ATOM     58  C   UNL A   1      43.622  28.044  33.838  1.00  0.00     0.037 A 
BRANCH  45  59
ATOM     59  C   UNL A   1      42.664  26.317  27.985  1.00  0.00     0.064 A 
ATOM     60  C   UNL A   1      42.228  24.997  27.798  1.00  0.00     0.173 A 
ATOM     61  C   UNL A   1      43.529  26.867  27.027  1.00  0.00     0.173 A 
ATOM     62  F   UNL A   1      41.417  24.421  28.697  1.00  0.00    -0.203 F 
ATOM     63  C   UNL A   1      42.660  24.250  26.705  1.00  0.00     0.198 A 
ATOM     64  C   UNL A   1      43.938  26.126  25.922  1.00  0.00     0.198 A 
ATOM     65  F   UNL A   1      43.975  28.126  27.161  1.00  0.00    -0.203 F 
ATOM     66  F   UNL A   1      42.267  22.977  26.568  1.00  0.00    -0.200 F 
ATOM     67  C   UNL A   1      43.509  24.816  25.766  1.00  0.00     0.200 A 
ATOM     68  F   UNL A   1      44.754  26.677  25.012  1.00  0.00    -0.200 F 
ATOM     69  F   UNL A   1      43.922  24.097  24.713  1.00  0.00    -0.200 F 
ENDBRANCH  45  59
BRANCH  46  70
ATOM     70  C   UNL A   1      39.282  31.910  35.542  1.00  0.00     0.064 A 
ATOM     71  C   UNL A   1      39.666  33.247  35.712  1.00  0.00     0.173 A 
ATOM     72  C   UNL A   1      38.412  31.355  36.493  1.00  0.00     0.173 A 
ATOM     73  F   UNL A   1      40.518  33.813  34.845  1.00  0.00    -0.203 F 
ATOM     74  C   UNL A   1      39.212  33.993  36.798  1.00  0.00     0.198 A 
ATOM     75  C   UNL A   1      37.938  32.110  37.563  1.00  0.00     0.198 A 
ATOM     76  F   UNL A   1      38.019  30.078  36.380  1.00  0.00    -0.203 F 
ATOM     77  F   UNL A   1      39.630  35.256  36.962  1.00  0.00    -0.200 F 
ATOM     78  C   UNL A   1      38.343  33.426  37.719  1.00  0.00     0.200 A 
ATOM     79  F   UNL A   1      37.091  31.561  38.446  1.00  0.00    -0.200 F 
ATOM     80  F   UNL A   1      37.906  34.145  38.761  1.00  0.00    -0.200 F 
ENDBRANCH  46  70
BRANCH  58  81
ATOM     81  C   UNL A   1      44.727  27.633  34.766  1.00  0.00     0.064 A 
ATOM     82  C   UNL A   1      45.911  28.375  34.873  1.00  0.00     0.173 A 
ATOM     83  C   UNL A   1      44.579  26.507  35.591  1.00  0.00     0.173 A 
ATOM     84  F   UNL A   1      46.106  29.452  34.095  1.00  0.00    -0.203 F 
ATOM     85  C   UNL A   1      46.917  27.994  35.756  1.00  0.00     0.198 A 
ATOM     86  C   UNL A   1      45.576  26.143  36.490  1.00  0.00     0.198 A 
ATOM     87  F   UNL A   1      43.462  25.767  35.531  1.00  0.00    -0.203 F 
ATOM     88  F   UNL A   1      48.059  28.694  35.813  1.00  0.00    -0.200 F 
ATOM     89  C   UNL A   1      46.746  26.882  36.568  1.00  0.00     0.200 A 
ATOM     90  F   UNL A   1      45.404  25.075  37.283  1.00  0.00    -0.200 F 
ATOM     91  F   UNL A   1      47.713  26.519  37.423  1.00  0.00    -0.200 F 
ENDBRANCH  58  81
ENDBRANCH  32  33
ENDBRANCH  25  27
ENDBRANCH  24  25
ENDBRANCH  23  24
ENDBRANCH   1  23
TORSDOF 15
ENDMDL
MODEL 2
REMARK VINA RESULT:     -11.5      4.330      9.532
REMARK SMILES CC[C@@H](C)N(C)C(=O)N1[C@@H](C(=O)OCCOC(=O)c2ccc(-c3c4nc(c(-c5c(F)c(F)c(F)c(F)c5F)c5ccc([nH]5)c(-c5c(F)c(F)c(F)c(F)c5F)c5nc(c(-c6c(F)c(F)c(F)c(F)c6F)c6ccc3[nH]6)C=C5)C=C4)cc2)CC[C@H]2CCCC[C@H]21
REMARK SMILES IDX 14 1 13 2 11 3 12 4 10 5 9 6 89 7 82 8 84 9 88 10 83 11
REMARK SMILES IDX 85 12 87 13 86 14 7 15 8 16 5 17 6 18 3 19 4 20 2 21 1 22
REMARK SMILES IDX 15 23 16 24 17 25 18 26 19 27 20 28 81 29 21 30 80 31 22 32
REMARK SMILES IDX 23 33 24 34 74 35 25 36 79 37 73 38 75 39 26 40 78 41 72 42
REMARK SMILES IDX 71 43 27 45 59 46 39 47 58 48 40 49 43 50 57 51 76 52 41 53
REMARK SMILES IDX 42 54 56 56 77 57 44 58 28 59 29 60 37 61 30 62 31 63 35 64
REMARK SMILES IDX 38 65 32 66 33 67 36 68 34 69 60 70 61 71 69 72 62 73 63 74
REMARK SMILES IDX 67 75 70 76 64 77 65 78 68 79 66 80 45 81 46 82 54 83 47 84
REMARK SMILES IDX 48 85 52 86 55 87 49 88 50 89 53 90 51 91
REMARK H PARENT 75 44 43 55
REMARK Flexibility Score: inf
ROOT
ATOM      1  C   UNL A   1      36.646  22.596  23.603  1.00  0.00     0.274 C 
ENDROOT
BRANCH   1   2
ATOM      2  O   UNL A   1      35.771  23.536  24.255  1.00  0.00    -0.461 OA
BRANCH   2   3
ATOM      3  C   UNL A   1      34.741  24.005  23.500  1.00  0.00     0.329 C 
ATOM      4  O   UNL A   1      34.468  23.594  22.377  1.00  0.00    -0.250 OA
BRANCH   3   5
ATOM      5  C   UNL A   1      33.952  25.130  24.203  1.00  0.00     0.197 C 
ATOM      6  N   UNL A   1      32.656  24.810  24.827  1.00  0.00    -0.308 N 
ATOM      7  C   UNL A   1      31.995  25.911  25.553  1.00  0.00     0.091 C 
ATOM      8  C   UNL A   1      33.883  26.412  23.369  1.00  0.00     0.038 C 
ATOM      9  C   UNL A   1      32.028  27.282  24.844  1.00  0.00     0.012 C 
ATOM     10  C   UNL A   1      30.600  25.628  26.124  1.00  0.00     0.025 C 
ATOM     11  C   UNL A   1      33.404  27.575  24.233  1.00  0.00     0.008 C 
ATOM     12  C   UNL A   1      30.907  27.525  23.822  1.00  0.00     0.006 C 
ATOM     13  C   UNL A   1      29.420  25.953  25.206  1.00  0.00     0.002 C 
ATOM     14  C   UNL A   1      29.762  26.531  23.840  1.00  0.00     0.000 C 
BRANCH   6  15
ATOM     15  C   UNL A   1      31.975  23.677  24.431  1.00  0.00     0.320 C 
ATOM     16  O   UNL A   1      31.360  23.628  23.372  1.00  0.00    -0.248 OA
BRANCH  15  17
ATOM     17  N   UNL A   1      31.984  22.618  25.335  1.00  0.00    -0.325 N 
ATOM     18  C   UNL A   1      30.816  22.227  26.126  1.00  0.00     0.149 C 
BRANCH  17  19
ATOM     19  C   UNL A   1      33.069  21.618  25.283  1.00  0.00     0.083 C 
ATOM     20  C   UNL A   1      32.647  20.301  24.618  1.00  0.00     0.031 C 
BRANCH  19  21
ATOM     21  C   UNL A   1      33.699  21.423  26.676  1.00  0.00     0.021 C 
ATOM     22  C   UNL A   1      34.281  22.700  27.262  1.00  0.00     0.006 C 
ENDBRANCH  19  21
ENDBRANCH  17  19
ENDBRANCH  15  17
ENDBRANCH   6  15
ENDBRANCH   3   5
ENDBRANCH   2   3
ENDBRANCH   1   2
BRANCH   1  23
ATOM     23  C   UNL A   1      36.991  21.398  24.496  1.00  0.00     0.275 C 
BRANCH  23  24
ATOM     24  O   UNL A   1      37.420  21.805  25.811  1.00  0.00    -0.458 OA
BRANCH  24  25
ATOM     25  C   UNL A   1      38.720  21.562  26.092  1.00  0.00     0.338 C 
ATOM     26  O   UNL A   1      39.357  20.554  25.813  1.00  0.00    -0.246 OA
BRANCH  25  27
ATOM     27  C   UNL A   1      39.367  22.769  26.630  1.00  0.00     0.060 A 
ATOM     28  C   UNL A   1      38.953  24.005  26.119  1.00  0.00     0.016 A 
ATOM     29  C   UNL A   1      40.404  22.705  27.563  1.00  0.00     0.016 A 
ATOM     30  C   UNL A   1      39.557  25.183  26.542  1.00  0.00     0.010 A 
ATOM     31  C   UNL A   1      41.035  23.888  27.965  1.00  0.00     0.010 A 
ATOM     32  C   UNL A   1      40.620  25.129  27.448  1.00  0.00    -0.014 A 
BRANCH  32  33
ATOM     33  C   UNL A   1      41.374  26.368  27.743  1.00  0.00     0.031 A 
ATOM     34  C   UNL A   1      40.702  27.459  28.523  1.00  0.00     0.074 A 
ATOM     35  C   UNL A   1      42.659  26.491  27.369  1.00  0.00     0.049 A 
ATOM     36  N   UNL A   1      41.142  28.650  28.834  1.00  0.00    -0.248 NA
ATOM     37  C   UNL A   1      39.351  27.162  29.026  1.00  0.00     0.031 C 
ATOM     38  C   UNL A   1      43.440  25.466  26.681  1.00  0.00     0.029 A 
ATOM     39  N   UNL A   1      43.534  27.538  27.519  1.00  0.00    -0.354 N 
ATOM     40  C   UNL A   1      40.119  29.252  29.554  1.00  0.00     0.074 A 
ATOM     41  C   UNL A   1      39.033  28.299  29.629  1.00  0.00     0.031 C 
ATOM     42  C   UNL A   1      44.678  25.939  26.455  1.00  0.00     0.029 A 
ATOM     43  C   UNL A   1      44.760  27.314  26.946  1.00  0.00     0.049 A 
ATOM     44  H   UNL A   1      43.303  28.370  27.991  1.00  0.00     0.167 HD
ATOM     45  C   UNL A   1      40.091  30.490  30.099  1.00  0.00     0.037 A 
ATOM     46  C   UNL A   1      45.814  28.139  26.805  1.00  0.00     0.037 A 
ATOM     47  C   UNL A   1      41.176  31.432  30.025  1.00  0.00     0.049 A 
ATOM     48  C   UNL A   1      45.730  29.540  27.353  1.00  0.00     0.074 A 
ATOM     49  C   UNL A   1      41.242  32.717  30.533  1.00  0.00     0.029 A 
ATOM     50  N   UNL A   1      42.388  31.187  29.397  1.00  0.00    -0.354 N 
ATOM     51  N   UNL A   1      44.751  30.114  28.009  1.00  0.00    -0.248 NA
ATOM     52  C   UNL A   1      46.893  30.411  27.133  1.00  0.00     0.031 C 
ATOM     53  C   UNL A   1      42.482  33.263  30.180  1.00  0.00     0.029 A 
ATOM     54  C   UNL A   1      43.203  32.303  29.489  1.00  0.00     0.049 A 
ATOM     55  H   UNL A   1      42.633  30.343  28.952  1.00  0.00     0.167 HD
ATOM     56  C   UNL A   1      45.186  31.401  28.298  1.00  0.00     0.074 A 
ATOM     57  C   UNL A   1      46.524  31.519  27.757  1.00  0.00     0.031 C 
ATOM     58  C   UNL A   1      44.535  32.397  28.949  1.00  0.00     0.037 A 
BRANCH  45  59
ATOM     59  C   UNL A   1      38.827  30.912  30.785  1.00  0.00     0.064 A 
ATOM     60  C   UNL A   1      37.746  31.455  30.074  1.00  0.00     0.173 A 
ATOM     61  C   UNL A   1      38.690  30.755  32.173  1.00  0.00     0.173 A 
ATOM     62  F   UNL A   1      37.836  31.642  28.749  1.00  0.00    -0.203 F 
ATOM     63  C   UNL A   1      36.583  31.845  30.732  1.00  0.00     0.198 A 
ATOM     64  C   UNL A   1      37.516  31.124  32.823  1.00  0.00     0.198 A 
ATOM     65  F   UNL A   1      39.696  30.241  32.897  1.00  0.00    -0.203 F 
ATOM     66  F   UNL A   1      35.579  32.402  30.041  1.00  0.00    -0.200 F 
ATOM     67  C   UNL A   1      36.466  31.674  32.104  1.00  0.00     0.200 A 
ATOM     68  F   UNL A   1      37.403  30.951  34.147  1.00  0.00    -0.200 F 
ATOM     69  F   UNL A   1      35.345  32.049  32.735  1.00  0.00    -0.200 F 
ENDBRANCH  45  59
BRANCH  46  70
ATOM     70  C   UNL A   1      47.030  27.677  26.086  1.00  0.00     0.064 A 
ATOM     71  C   UNL A   1      47.113  27.736  24.688  1.00  0.00     0.173 A 
ATOM     72  C   UNL A   1      48.128  27.153  26.784  1.00  0.00     0.173 A 
ATOM     73  F   UNL A   1      46.078  28.203  23.976  1.00  0.00    -0.203 F 
ATOM     74  C   UNL A   1      48.242  27.273  24.015  1.00  0.00     0.198 A 
ATOM     75  C   UNL A   1      49.267  26.716  26.111  1.00  0.00     0.198 A 
ATOM     76  F   UNL A   1      48.096  27.069  28.122  1.00  0.00    -0.203 F 
ATOM     77  F   UNL A   1      48.278  27.300  22.676  1.00  0.00    -0.200 F 
ATOM     78  C   UNL A   1      49.321  26.770  24.728  1.00  0.00     0.200 A 
ATOM     79  F   UNL A   1      50.311  26.238  26.804  1.00  0.00    -0.200 F 
ATOM     80  F   UNL A   1      50.407  26.328  24.079  1.00  0.00    -0.200 F 
ENDBRANCH  46  70
BRANCH  58  81
ATOM     81  C   UNL A   1      45.274  33.688  29.141  1.00  0.00     0.064 A 
ATOM     82  C   UNL A   1      46.098  33.904  30.254  1.00  0.00     0.173 A 
ATOM     83  C   UNL A   1      45.189  34.704  28.176  1.00  0.00     0.173 A 
ATOM     84  F   UNL A   1      46.199  32.969  31.211  1.00  0.00    -0.203 F 
ATOM     85  C   UNL A   1      46.795  35.100  30.406  1.00  0.00     0.198 A 
ATOM     86  C   UNL A   1      45.907  35.887  28.319  1.00  0.00     0.198 A 
ATOM     87  F   UNL A   1      44.419  34.543  27.091  1.00  0.00    -0.203 F 
ATOM     88  F   UNL A   1      47.545  35.303  31.499  1.00  0.00    -0.200 F 
ATOM     89  C   UNL A   1      46.704  36.087  29.436  1.00  0.00     0.200 A 
ATOM     90  F   UNL A   1      45.828  36.836  27.375  1.00  0.00    -0.200 F 
ATOM     91  F   UNL A   1      47.381  37.235  29.581  1.00  0.00    -0.200 F 
ENDBRANCH  58  81
ENDBRANCH  32  33
ENDBRANCH  25  27
ENDBRANCH  24  25
ENDBRANCH  23  24
ENDBRANCH   1  23
TORSDOF 15
ENDMDL
MODEL 3
REMARK VINA RESULT:     -11.3      4.349      6.847
REMARK SMILES CC[C@@H](C)N(C)C(=O)N1[C@@H](C(=O)OCCOC(=O)c2ccc(-c3c4nc(c(-c5c(F)c(F)c(F)c(F)c5F)c5ccc([nH]5)c(-c5c(F)c(F)c(F)c(F)c5F)c5nc(c(-c6c(F)c(F)c(F)c(F)c6F)c6ccc3[nH]6)C=C5)C=C4)cc2)CC[C@H]2CCCC[C@H]21
REMARK SMILES IDX 14 1 13 2 11 3 12 4 10 5 9 6 89 7 82 8 84 9 88 10 83 11
REMARK SMILES IDX 85 12 87 13 86 14 7 15 8 16 5 17 6 18 3 19 4 20 2 21 1 22
REMARK SMILES IDX 15 23 16 24 17 25 18 26 19 27 20 28 81 29 21 30 80 31 22 32
REMARK SMILES IDX 23 33 24 34 74 35 25 36 79 37 73 38 75 39 26 40 78 41 72 42
REMARK SMILES IDX 71 43 27 45 59 46 39 47 58 48 40 49 43 50 57 51 76 52 41 53
REMARK SMILES IDX 42 54 56 56 77 57 44 58 28 59 29 60 37 61 30 62 31 63 35 64
REMARK SMILES IDX 38 65 32 66 33 67 36 68 34 69 60 70 61 71 69 72 62 73 63 74
REMARK SMILES IDX 67 75 70 76 64 77 65 78 68 79 66 80 45 81 46 82 54 83 47 84
REMARK SMILES IDX 48 85 52 86 55 87 49 88 50 89 53 90 51 91
REMARK H PARENT 75 44 43 55
REMARK Flexibility Score: inf
ROOT
ATOM      1  C   UNL A   1      36.776  23.070  23.921  1.00  0.00     0.274 C 
ENDROOT
BRANCH   1   2
ATOM      2  O   UNL A   1      35.988  22.796  22.748  1.00  0.00    -0.461 OA
BRANCH   2   3
ATOM      3  C   UNL A   1      34.748  23.357  22.727  1.00  0.00     0.329 C 
ATOM      4  O   UNL A   1      34.046  23.437  21.724  1.00  0.00    -0.250 OA
BRANCH   3   5
ATOM      5  C   UNL A   1      34.318  23.900  24.106  1.00  0.00     0.197 C 
ATOM      6  N   UNL A   1      33.467  23.063  24.970  1.00  0.00    -0.308 N 
ATOM      7  C   UNL A   1      33.163  23.607  26.306  1.00  0.00     0.091 C 
ATOM      8  C   UNL A   1      33.816  25.346  24.039  1.00  0.00     0.038 C 
ATOM      9  C   UNL A   1      32.804  25.109  26.340  1.00  0.00     0.012 C 
ATOM     10  C   UNL A   1      32.199  22.799  27.183  1.00  0.00     0.025 C 
ATOM     11  C   UNL A   1      33.733  25.937  25.444  1.00  0.00     0.008 C 
ATOM     12  C   UNL A   1      31.330  25.444  26.067  1.00  0.00     0.006 C 
ATOM     13  C   UNL A   1      30.715  23.152  27.053  1.00  0.00     0.002 C 
ATOM     14  C   UNL A   1      30.367  24.272  26.082  1.00  0.00     0.000 C 
BRANCH   6  15
ATOM     15  C   UNL A   1      32.734  22.038  24.408  1.00  0.00     0.320 C 
ATOM     16  O   UNL A   1      31.669  22.241  23.836  1.00  0.00    -0.248 OA
BRANCH  15  17
ATOM     17  N   UNL A   1      33.250  20.756  24.585  1.00  0.00    -0.325 N 
ATOM     18  C   UNL A   1      34.543  20.491  25.215  1.00  0.00     0.149 C 
BRANCH  17  19
ATOM     19  C   UNL A   1      32.359  19.584  24.462  1.00  0.00     0.083 C 
ATOM     20  C   UNL A   1      32.602  18.524  25.544  1.00  0.00     0.031 C 
BRANCH  19  21
ATOM     21  C   UNL A   1      32.402  19.016  23.030  1.00  0.00     0.021 C 
ATOM     22  C   UNL A   1      32.992  17.617  22.950  1.00  0.00     0.006 C 
ENDBRANCH  19  21
ENDBRANCH  17  19
ENDBRANCH  15  17
ENDBRANCH   6  15
ENDBRANCH   3   5
ENDBRANCH   2   3
ENDBRANCH   1   2
BRANCH   1  23
ATOM     23  C   UNL A   1      37.505  21.824  24.442  1.00  0.00     0.275 C 
BRANCH  23  24
ATOM     24  O   UNL A   1      37.782  21.906  25.855  1.00  0.00    -0.458 OA
BRANCH  24  25
ATOM     25  C   UNL A   1      39.078  21.734  26.197  1.00  0.00     0.338 C 
ATOM     26  O   UNL A   1      39.783  20.764  25.945  1.00  0.00    -0.246 OA
BRANCH  25  27
ATOM     27  C   UNL A   1      39.630  22.971  26.772  1.00  0.00     0.060 A 
ATOM     28  C   UNL A   1      39.078  24.183  26.341  1.00  0.00     0.016 A 
ATOM     29  C   UNL A   1      40.707  22.963  27.660  1.00  0.00     0.016 A 
ATOM     30  C   UNL A   1      39.584  25.393  26.802  1.00  0.00     0.010 A 
ATOM     31  C   UNL A   1      41.239  24.181  28.098  1.00  0.00     0.010 A 
ATOM     32  C   UNL A   1      40.686  25.399  27.663  1.00  0.00    -0.014 A 
BRANCH  32  33
ATOM     33  C   UNL A   1      41.330  26.691  27.992  1.00  0.00     0.031 A 
ATOM     34  C   UNL A   1      42.760  26.911  27.595  1.00  0.00     0.074 A 
ATOM     35  C   UNL A   1      40.629  27.673  28.584  1.00  0.00     0.049 A 
ATOM     36  N   UNL A   1      43.544  27.929  27.841  1.00  0.00    -0.248 NA
ATOM     37  C   UNL A   1      43.390  25.839  26.808  1.00  0.00     0.031 C 
ATOM     38  C   UNL A   1      39.214  27.603  28.940  1.00  0.00     0.029 A 
ATOM     39  N   UNL A   1      41.019  28.924  28.990  1.00  0.00    -0.354 N 
ATOM     40  C   UNL A   1      44.762  27.615  27.254  1.00  0.00     0.074 A 
ATOM     41  C   UNL A   1      44.619  26.309  26.647  1.00  0.00     0.031 C 
ATOM     42  C   UNL A   1      38.855  28.759  29.524  1.00  0.00     0.029 A 
ATOM     43  C   UNL A   1      40.025  29.630  29.620  1.00  0.00     0.049 A 
ATOM     44  H   UNL A   1      41.924  29.282  28.844  1.00  0.00     0.167 HD
ATOM     45  C   UNL A   1      45.897  28.351  27.231  1.00  0.00     0.037 A 
ATOM     46  C   UNL A   1      40.068  30.827  30.233  1.00  0.00     0.037 A 
ATOM     47  C   UNL A   1      46.033  29.650  27.834  1.00  0.00     0.049 A 
ATOM     48  C   UNL A   1      41.366  31.593  30.261  1.00  0.00     0.074 A 
ATOM     49  C   UNL A   1      47.145  30.472  27.876  1.00  0.00     0.029 A 
ATOM     50  N   UNL A   1      45.017  30.315  28.503  1.00  0.00    -0.354 N 
ATOM     51  N   UNL A   1      42.522  31.281  29.729  1.00  0.00    -0.248 NA
ATOM     52  C   UNL A   1      41.365  32.874  30.982  1.00  0.00     0.031 C 
ATOM     53  C   UNL A   1      46.812  31.619  28.605  1.00  0.00     0.029 A 
ATOM     54  C   UNL A   1      45.480  31.531  28.979  1.00  0.00     0.049 A 
ATOM     55  H   UNL A   1      44.101  29.973  28.623  1.00  0.00     0.167 HD
ATOM     56  C   UNL A   1      43.379  32.331  30.031  1.00  0.00     0.074 A 
ATOM     57  C   UNL A   1      42.604  33.298  30.782  1.00  0.00     0.031 C 
ATOM     58  C   UNL A   1      44.690  32.481  29.718  1.00  0.00     0.037 A 
BRANCH  45  59
ATOM     59  C   UNL A   1      47.097  27.743  26.567  1.00  0.00     0.064 A 
ATOM     60  C   UNL A   1      47.362  27.933  25.203  1.00  0.00     0.173 A 
ATOM     61  C   UNL A   1      48.001  26.973  27.313  1.00  0.00     0.173 A 
ATOM     62  F   UNL A   1      46.516  28.646  24.444  1.00  0.00    -0.203 F 
ATOM     63  C   UNL A   1      48.479  27.355  24.605  1.00  0.00     0.198 A 
ATOM     64  C   UNL A   1      49.130  26.417  26.717  1.00  0.00     0.198 A 
ATOM     65  F   UNL A   1      47.792  26.762  28.621  1.00  0.00    -0.203 F 
ATOM     66  F   UNL A   1      48.691  27.512  23.291  1.00  0.00    -0.200 F 
ATOM     67  C   UNL A   1      49.364  26.603  25.363  1.00  0.00     0.200 A 
ATOM     68  F   UNL A   1      49.988  25.697  27.453  1.00  0.00    -0.200 F 
ATOM     69  F   UNL A   1      50.440  26.049  24.787  1.00  0.00    -0.200 F 
ENDBRANCH  45  59
BRANCH  46  70
ATOM     70  C   UNL A   1      38.855  31.364  30.903  1.00  0.00     0.064 A 
ATOM     71  C   UNL A   1      38.620  31.140  32.267  1.00  0.00     0.173 A 
ATOM     72  C   UNL A   1      37.899  32.100  30.187  1.00  0.00     0.173 A 
ATOM     73  F   UNL A   1      39.490  30.419  32.986  1.00  0.00    -0.203 F 
ATOM     74  C   UNL A   1      37.466  31.619  32.885  1.00  0.00     0.198 A 
ATOM     75  C   UNL A   1      36.760  32.601  30.813  1.00  0.00     0.198 A 
ATOM     76  F   UNL A   1      38.074  32.337  28.879  1.00  0.00    -0.203 F 
ATOM     77  F   UNL A   1      37.243  31.353  34.179  1.00  0.00    -0.200 F 
ATOM     78  C   UNL A   1      36.540  32.355  32.159  1.00  0.00     0.200 A 
ATOM     79  F   UNL A   1      35.872  33.319  30.110  1.00  0.00    -0.200 F 
ATOM     80  F   UNL A   1      35.433  32.816  32.756  1.00  0.00    -0.200 F 
ENDBRANCH  46  70
BRANCH  58  81
ATOM     81  C   UNL A   1      45.360  33.749  30.158  1.00  0.00     0.064 A 
ATOM     82  C   UNL A   1      45.358  34.897  29.354  1.00  0.00     0.173 A 
ATOM     83  C   UNL A   1      45.971  33.828  31.419  1.00  0.00     0.173 A 
ATOM     84  F   UNL A   1      44.799  34.867  28.134  1.00  0.00    -0.203 F 
ATOM     85  C   UNL A   1      45.965  36.074  29.786  1.00  0.00     0.198 A 
ATOM     86  C   UNL A   1      46.554  35.012  31.858  1.00  0.00     0.198 A 
ATOM     87  F   UNL A   1      45.994  32.758  32.228  1.00  0.00    -0.203 F 
ATOM     88  F   UNL A   1      45.989  37.148  28.985  1.00  0.00    -0.200 F 
ATOM     89  C   UNL A   1      46.556  36.132  31.040  1.00  0.00     0.200 A 
ATOM     90  F   UNL A   1      47.115  35.071  33.074  1.00  0.00    -0.200 F 
ATOM     91  F   UNL A   1      47.134  37.267  31.458  1.00  0.00    -0.200 F 
ENDBRANCH  58  81
ENDBRANCH  32  33
ENDBRANCH  25  27
ENDBRANCH  24  25
ENDBRANCH  23  24
ENDBRANCH   1  23
TORSDOF 15
ENDMDL
