MODEL 1
REMARK VINA RESULT:     -10.4      0.000      0.000
REMARK SMILES C[C@H](Oc1ccc([N+](=O)[O-])cc1F)C(=O)OCCOC(=O)c1ccc(-c2c3nc(c(-c4c(F)c(F)c(F)c(F)c4F)c4ccc([nH]4)c(-c4c(F)c(F)c(F)c(F)c4F)c4nc(c(-c5c(F)c(F)c(F)c(F)c5F)c5ccc2[nH]5)C=C4)C=C3)cc1
REMARK SMILES IDX 17 1 16 2 14 3 15 4 2 5 1 6 3 7 4 8 5 9 12 10 6 11 11 12
REMARK SMILES IDX 13 13 7 14 8 15 9 16 10 17 18 18 19 19 20 20 21 21 22 22
REMARK SMILES IDX 23 23 84 24 24 25 83 26 25 27 26 28 27 29 77 30 28 31 82 32
REMARK SMILES IDX 76 33 78 34 29 35 81 36 75 37 74 38 30 40 62 41 42 42 61 43
REMARK SMILES IDX 43 44 46 45 60 46 79 47 44 48 45 49 59 51 80 52 47 53 31 54
REMARK SMILES IDX 32 55 40 56 33 57 34 58 38 59 41 60 35 61 36 62 39 63 37 64
REMARK SMILES IDX 63 65 64 66 72 67 65 68 66 69 70 70 73 71 67 72 68 73 71 74
REMARK SMILES IDX 69 75 48 76 49 77 57 78 50 79 51 80 55 81 58 82 52 83 53 84
REMARK SMILES IDX 56 85 54 86
REMARK H PARENT 78 39 46 50
REMARK Flexibility Score: inf
ROOT
ATOM      1  C   UNL A   1      33.309  34.937  29.010  1.00  0.00     0.274 C 
ENDROOT
BRANCH   1   2
ATOM      2  O   UNL A   1      34.600  34.384  29.329  1.00  0.00    -0.459 OA
BRANCH   2   3
ATOM      3  C   UNL A   1      34.651  33.046  29.575  1.00  0.00     0.347 C 
ATOM      4  O   UNL A   1      34.082  32.482  30.504  1.00  0.00    -0.248 OA
BRANCH   3   5
ATOM      5  C   UNL A   1      35.581  32.310  28.605  1.00  0.00     0.279 C 
ATOM      6  C   UNL A   1      36.802  33.206  28.405  1.00  0.00     0.066 C 
BRANCH   5   7
ATOM      7  O   UNL A   1      34.911  32.017  27.381  1.00  0.00    -0.476 OA
BRANCH   7   8
ATOM      8  C   UNL A   1      34.188  30.861  27.264  1.00  0.00     0.156 A 
ATOM      9  C   UNL A   1      34.717  29.568  27.207  1.00  0.00     0.057 A 
ATOM     10  C   UNL A   1      32.800  31.025  27.149  1.00  0.00     0.171 A 
ATOM     11  C   UNL A   1      33.883  28.475  26.942  1.00  0.00     0.089 A 
ATOM     12  C   UNL A   1      31.952  29.948  26.904  1.00  0.00     0.128 A 
ATOM     13  F   UNL A   1      32.259  32.249  27.239  1.00  0.00    -0.203 F 
ATOM     14  C   UNL A   1      32.507  28.675  26.769  1.00  0.00     0.272 A 
BRANCH  14  15
ATOM     15  N   UNL A   1      31.650  27.543  26.403  1.00  0.00     0.062 N 
ATOM     16  O   UNL A   1      31.027  26.979  27.312  1.00  0.00    -0.258 OA
ATOM     17  O   UNL A   1      31.612  27.211  25.210  1.00  0.00    -0.258 OA
ENDBRANCH  14  15
ENDBRANCH   7   8
ENDBRANCH   5   7
ENDBRANCH   3   5
ENDBRANCH   2   3
ENDBRANCH   1   2
BRANCH   1  18
ATOM     18  C   UNL A   1      32.897  36.037  29.991  1.00  0.00     0.275 C 
BRANCH  18  19
ATOM     19  O   UNL A   1      32.297  35.491  31.180  1.00  0.00    -0.458 OA
BRANCH  19  20
ATOM     20  C   UNL A   1      32.800  35.961  32.346  1.00  0.00     0.338 C 
ATOM     21  O   UNL A   1      32.329  36.821  33.067  1.00  0.00    -0.246 OA
BRANCH  20  22
ATOM     22  C   UNL A   1      33.969  35.153  32.728  1.00  0.00     0.060 A 
ATOM     23  C   UNL A   1      35.239  35.683  32.477  1.00  0.00     0.016 A 
ATOM     24  C   UNL A   1      33.824  33.886  33.294  1.00  0.00     0.016 A 
ATOM     25  C   UNL A   1      36.375  34.956  32.820  1.00  0.00     0.010 A 
ATOM     26  C   UNL A   1      34.966  33.152  33.627  1.00  0.00     0.010 A 
ATOM     27  C   UNL A   1      36.246  33.687  33.399  1.00  0.00    -0.014 A 
BRANCH  27  28
ATOM     28  C   UNL A   1      37.454  32.921  33.780  1.00  0.00     0.031 A 
ATOM     29  C   UNL A   1      38.153  33.210  35.072  1.00  0.00     0.074 A 
ATOM     30  C   UNL A   1      37.917  31.967  32.951  1.00  0.00     0.049 A 
ATOM     31  N   UNL A   1      39.274  32.714  35.531  1.00  0.00    -0.248 NA
ATOM     32  C   UNL A   1      37.509  34.180  35.971  1.00  0.00     0.031 C 
ATOM     33  C   UNL A   1      37.290  31.574  31.689  1.00  0.00     0.029 A 
ATOM     34  N   UNL A   1      39.025  31.163  33.040  1.00  0.00    -0.354 N 
ATOM     35  C   UNL A   1      39.475  33.315  36.765  1.00  0.00     0.074 A 
ATOM     36  C   UNL A   1      38.369  34.223  36.982  1.00  0.00     0.031 C 
ATOM     37  C   UNL A   1      38.030  30.613  31.114  1.00  0.00     0.029 A 
ATOM     38  C   UNL A   1      39.206  30.356  31.943  1.00  0.00     0.049 A 
ATOM     39  H   UNL A   1      39.633  31.165  33.814  1.00  0.00     0.167 HD
ATOM     40  C   UNL A   1      40.493  33.118  37.634  1.00  0.00     0.037 A 
ATOM     41  C   UNL A   1      40.222  29.532  31.626  1.00  0.00     0.037 A 
ATOM     42  C   UNL A   1      41.582  32.202  37.417  1.00  0.00     0.049 A 
ATOM     43  C   UNL A   1      41.383  29.396  32.575  1.00  0.00     0.074 A 
ATOM     44  C   UNL A   1      42.639  31.908  38.260  1.00  0.00     0.029 A 
ATOM     45  N   UNL A   1      41.756  31.438  36.272  1.00  0.00    -0.354 N 
ATOM     46  N   UNL A   1      41.559  29.958  33.745  1.00  0.00    -0.248 NA
ATOM     47  C   UNL A   1      42.491  28.526  32.155  1.00  0.00     0.031 C 
ATOM     48  C   UNL A   1      43.478  31.000  37.607  1.00  0.00     0.029 A 
ATOM     49  C   UNL A   1      42.921  30.698  36.375  1.00  0.00     0.049 A 
ATOM     50  H   UNL A   1      41.142  31.424  35.503  1.00  0.00     0.167 HD
ATOM     51  C   UNL A   1      42.787  29.506  34.206  1.00  0.00     0.074 A 
ATOM     52  C   UNL A   1      43.309  28.607  33.196  1.00  0.00     0.031 C 
ATOM     53  C   UNL A   1      43.426  29.811  35.360  1.00  0.00     0.037 A 
BRANCH  40  54
ATOM     54  C   UNL A   1      40.503  33.908  38.907  1.00  0.00     0.064 A 
ATOM     55  C   UNL A   1      41.260  35.087  39.000  1.00  0.00     0.173 A 
ATOM     56  C   UNL A   1      39.862  33.441  40.061  1.00  0.00     0.173 A 
ATOM     57  F   UNL A   1      41.896  35.568  37.923  1.00  0.00    -0.203 F 
ATOM     58  C   UNL A   1      41.394  35.755  40.213  1.00  0.00     0.198 A 
ATOM     59  C   UNL A   1      39.984  34.123  41.269  1.00  0.00     0.198 A 
ATOM     60  F   UNL A   1      39.122  32.323  40.017  1.00  0.00    -0.203 F 
ATOM     61  F   UNL A   1      42.153  36.857  40.289  1.00  0.00    -0.200 F 
ATOM     62  C   UNL A   1      40.758  35.272  41.347  1.00  0.00     0.200 A 
ATOM     63  F   UNL A   1      39.359  33.664  42.362  1.00  0.00    -0.200 F 
ATOM     64  F   UNL A   1      40.895  35.912  42.516  1.00  0.00    -0.200 F 
ENDBRANCH  40  54
BRANCH  41  65
ATOM     65  C   UNL A   1      40.202  28.802  30.333  1.00  0.00     0.064 A 
ATOM     66  C   UNL A   1      40.834  29.326  29.195  1.00  0.00     0.173 A 
ATOM     67  C   UNL A   1      39.546  27.571  30.206  1.00  0.00     0.173 A 
ATOM     68  F   UNL A   1      41.481  30.499  29.265  1.00  0.00    -0.203 F 
ATOM     69  C   UNL A   1      40.792  28.657  27.974  1.00  0.00     0.198 A 
ATOM     70  C   UNL A   1      39.527  26.889  28.991  1.00  0.00     0.198 A 
ATOM     71  F   UNL A   1      38.950  27.017  31.272  1.00  0.00    -0.203 F 
ATOM     72  F   UNL A   1      41.378  29.196  26.896  1.00  0.00    -0.200 F 
ATOM     73  C   UNL A   1      40.142  27.436  27.874  1.00  0.00     0.200 A 
ATOM     74  F   UNL A   1      38.921  25.697  28.904  1.00  0.00    -0.200 F 
ATOM     75  F   UNL A   1      40.114  26.784  26.703  1.00  0.00    -0.200 F 
ENDBRANCH  41  65
BRANCH  53  76
ATOM     76  C   UNL A   1      44.761  29.177  35.607  1.00  0.00     0.064 A 
ATOM     77  C   UNL A   1      44.856  27.965  36.307  1.00  0.00     0.173 A 
ATOM     78  C   UNL A   1      45.949  29.820  35.236  1.00  0.00     0.173 A 
ATOM     79  F   UNL A   1      43.745  27.316  36.689  1.00  0.00    -0.203 F 
ATOM     80  C   UNL A   1      46.096  27.430  36.647  1.00  0.00     0.198 A 
ATOM     81  C   UNL A   1      47.188  29.271  35.557  1.00  0.00     0.198 A 
ATOM     82  F   UNL A   1      45.908  30.974  34.553  1.00  0.00    -0.203 F 
ATOM     83  F   UNL A   1      46.164  26.291  37.349  1.00  0.00    -0.200 F 
ATOM     84  C   UNL A   1      47.260  28.084  36.271  1.00  0.00     0.200 A 
ATOM     85  F   UNL A   1      48.313  29.893  35.178  1.00  0.00    -0.200 F 
ATOM     86  F   UNL A   1      48.453  27.569  36.600  1.00  0.00    -0.200 F 
ENDBRANCH  53  76
ENDBRANCH  27  28
ENDBRANCH  20  22
ENDBRANCH  19  20
ENDBRANCH  18  19
ENDBRANCH   1  18
TORSDOF 14
ENDMDL
MODEL 2
REMARK VINA RESULT:     -10.3      6.533     10.637
REMARK SMILES C[C@H](Oc1ccc([N+](=O)[O-])cc1F)C(=O)OCCOC(=O)c1ccc(-c2c3nc(c(-c4c(F)c(F)c(F)c(F)c4F)c4ccc([nH]4)c(-c4c(F)c(F)c(F)c(F)c4F)c4nc(c(-c5c(F)c(F)c(F)c(F)c5F)c5ccc2[nH]5)C=C4)C=C3)cc1
REMARK SMILES IDX 17 1 16 2 14 3 15 4 2 5 1 6 3 7 4 8 5 9 12 10 6 11 11 12
REMARK SMILES IDX 13 13 7 14 8 15 9 16 10 17 18 18 19 19 20 20 21 21 22 22
REMARK SMILES IDX 23 23 84 24 24 25 83 26 25 27 26 28 27 29 77 30 28 31 82 32
REMARK SMILES IDX 76 33 78 34 29 35 81 36 75 37 74 38 30 40 62 41 42 42 61 43
REMARK SMILES IDX 43 44 46 45 60 46 79 47 44 48 45 49 59 51 80 52 47 53 31 54
REMARK SMILES IDX 32 55 40 56 33 57 34 58 38 59 41 60 35 61 36 62 39 63 37 64
REMARK SMILES IDX 63 65 64 66 72 67 65 68 66 69 70 70 73 71 67 72 68 73 71 74
REMARK SMILES IDX 69 75 48 76 49 77 57 78 50 79 51 80 55 81 58 82 52 83 53 84
REMARK SMILES IDX 56 85 54 86
REMARK H PARENT 78 39 46 50
REMARK Flexibility Score: inf
ROOT
ATOM      1  C   UNL A   1      35.968  21.921  24.252  1.00  0.00     0.274 C 
ENDROOT
BRANCH   1   2
ATOM      2  O   UNL A   1      35.247  22.416  25.395  1.00  0.00    -0.459 OA
BRANCH   2   3
ATOM      3  C   UNL A   1      34.124  23.145  25.145  1.00  0.00     0.347 C 
ATOM      4  O   UNL A   1      33.702  24.049  25.858  1.00  0.00    -0.248 OA
BRANCH   3   5
ATOM      5  C   UNL A   1      33.377  22.655  23.899  1.00  0.00     0.279 C 
ATOM      6  C   UNL A   1      32.897  23.903  23.160  1.00  0.00     0.066 C 
BRANCH   5   7
ATOM      7  O   UNL A   1      32.307  21.785  24.257  1.00  0.00    -0.476 OA
BRANCH   7   8
ATOM      8  C   UNL A   1      32.512  20.433  24.285  1.00  0.00     0.156 A 
ATOM      9  C   UNL A   1      32.977  19.698  25.380  1.00  0.00     0.057 A 
ATOM     10  C   UNL A   1      32.266  19.758  23.080  1.00  0.00     0.171 A 
ATOM     11  C   UNL A   1      33.282  18.339  25.242  1.00  0.00     0.089 A 
ATOM     12  C   UNL A   1      32.545  18.403  22.927  1.00  0.00     0.128 A 
ATOM     13  F   UNL A   1      31.782  20.428  22.024  1.00  0.00    -0.203 F 
ATOM     14  C   UNL A   1      33.086  17.704  24.008  1.00  0.00     0.272 A 
BRANCH  14  15
ATOM     15  N   UNL A   1      33.490  16.306  23.840  1.00  0.00     0.062 N 
ATOM     16  O   UNL A   1      34.260  16.041  22.906  1.00  0.00    -0.258 OA
ATOM     17  O   UNL A   1      33.027  15.472  24.630  1.00  0.00    -0.258 OA
ENDBRANCH  14  15
ENDBRANCH   7   8
ENDBRANCH   5   7
ENDBRANCH   3   5
ENDBRANCH   2   3
ENDBRANCH   1   2
BRANCH   1  18
ATOM     18  C   UNL A   1      37.121  20.998  24.656  1.00  0.00     0.275 C 
BRANCH  18  19
ATOM     19  O   UNL A   1      37.627  21.320  25.964  1.00  0.00    -0.458 OA
BRANCH  19  20
ATOM     20  C   UNL A   1      38.958  21.137  26.128  1.00  0.00     0.338 C 
ATOM     21  O   UNL A   1      39.604  20.130  25.902  1.00  0.00    -0.246 OA
BRANCH  20  22
ATOM     22  C   UNL A   1      39.581  22.420  26.489  1.00  0.00     0.060 A 
ATOM     23  C   UNL A   1      40.754  22.385  27.250  1.00  0.00     0.016 A 
ATOM     24  C   UNL A   1      39.009  23.636  26.113  1.00  0.00     0.016 A 
ATOM     25  C   UNL A   1      41.379  23.574  27.617  1.00  0.00     0.010 A 
ATOM     26  C   UNL A   1      39.632  24.829  26.492  1.00  0.00     0.010 A 
ATOM     27  C   UNL A   1      40.823  24.803  27.238  1.00  0.00    -0.014 A 
BRANCH  27  28
ATOM     28  C   UNL A   1      41.498  26.067  27.613  1.00  0.00     0.031 A 
ATOM     29  C   UNL A   1      40.760  27.113  28.390  1.00  0.00     0.074 A 
ATOM     30  C   UNL A   1      42.777  26.263  27.246  1.00  0.00     0.049 A 
ATOM     31  N   UNL A   1      41.149  28.316  28.726  1.00  0.00    -0.248 NA
ATOM     32  C   UNL A   1      39.409  26.764  28.855  1.00  0.00     0.031 C 
ATOM     33  C   UNL A   1      43.603  25.293  26.526  1.00  0.00     0.029 A 
ATOM     34  N   UNL A   1      43.603  27.345  27.418  1.00  0.00    -0.354 N 
ATOM     35  C   UNL A   1      40.092  28.871  29.433  1.00  0.00     0.074 A 
ATOM     36  C   UNL A   1      39.038  27.880  29.470  1.00  0.00     0.031 C 
ATOM     37  C   UNL A   1      44.814  25.829  26.306  1.00  0.00     0.029 A 
ATOM     38  C   UNL A   1      44.834  27.195  26.827  1.00  0.00     0.049 A 
ATOM     39  H   UNL A   1      43.339  28.153  27.916  1.00  0.00     0.167 HD
ATOM     40  C   UNL A   1      40.019  30.097  30.000  1.00  0.00     0.037 A 
ATOM     41  C   UNL A   1      45.847  28.071  26.689  1.00  0.00     0.037 A 
ATOM     42  C   UNL A   1      41.079  31.071  29.971  1.00  0.00     0.049 A 
ATOM     43  C   UNL A   1      45.704  29.456  27.259  1.00  0.00     0.074 A 
ATOM     44  C   UNL A   1      41.108  32.326  30.552  1.00  0.00     0.029 A 
ATOM     45  N   UNL A   1      42.292  30.900  29.321  1.00  0.00    -0.354 N 
ATOM     46  N   UNL A   1      44.707  29.969  27.937  1.00  0.00    -0.248 NA
ATOM     47  C   UNL A   1      46.817  30.390  27.033  1.00  0.00     0.031 C 
ATOM     48  C   UNL A   1      42.321  32.935  30.216  1.00  0.00     0.029 A 
ATOM     49  C   UNL A   1      43.063  32.042  29.460  1.00  0.00     0.049 A 
ATOM     50  H   UNL A   1      42.564  30.089  28.835  1.00  0.00     0.167 HD
ATOM     51  C   UNL A   1      45.072  31.276  28.226  1.00  0.00     0.074 A 
ATOM     52  C   UNL A   1      46.392  31.476  27.665  1.00  0.00     0.031 C 
ATOM     53  C   UNL A   1      44.373  32.225  28.894  1.00  0.00     0.037 A 
BRANCH  40  54
ATOM     54  C   UNL A   1      38.751  30.482  30.699  1.00  0.00     0.064 A 
ATOM     55  C   UNL A   1      37.702  31.076  29.981  1.00  0.00     0.173 A 
ATOM     56  C   UNL A   1      38.620  30.369  32.089  1.00  0.00     0.173 A 
ATOM     57  F   UNL A   1      37.785  31.210  28.650  1.00  0.00    -0.203 F 
ATOM     58  C   UNL A   1      36.577  31.566  30.637  1.00  0.00     0.198 A 
ATOM     59  C   UNL A   1      37.485  30.845  32.739  1.00  0.00     0.198 A 
ATOM     60  F   UNL A   1      39.595  29.801  32.815  1.00  0.00    -0.203 F 
ATOM     61  F   UNL A   1      35.603  32.166  29.936  1.00  0.00    -0.200 F 
ATOM     62  C   UNL A   1      36.470  31.453  32.014  1.00  0.00     0.200 A 
ATOM     63  F   UNL A   1      37.375  30.723  34.069  1.00  0.00    -0.200 F 
ATOM     64  F   UNL A   1      35.390  31.934  32.645  1.00  0.00    -0.200 F 
ENDBRANCH  40  54
BRANCH  41  65
ATOM     65  C   UNL A   1      47.070  27.671  25.947  1.00  0.00     0.064 A 
ATOM     66  C   UNL A   1      47.125  27.745  24.547  1.00  0.00     0.173 A 
ATOM     67  C   UNL A   1      48.205  27.201  26.620  1.00  0.00     0.173 A 
ATOM     68  F   UNL A   1      46.066  28.193  23.856  1.00  0.00    -0.203 F 
ATOM     69  C   UNL A   1      48.260  27.343  23.847  1.00  0.00     0.198 A 
ATOM     70  C   UNL A   1      49.350  26.825  25.921  1.00  0.00     0.198 A 
ATOM     71  F   UNL A   1      48.210  27.138  27.960  1.00  0.00    -0.203 F 
ATOM     72  F   UNL A   1      48.273  27.395  22.508  1.00  0.00    -0.200 F 
ATOM     73  C   UNL A   1      49.374  26.888  24.536  1.00  0.00     0.200 A 
ATOM     74  F   UNL A   1      50.435  26.411  26.591  1.00  0.00    -0.200 F 
ATOM     75  F   UNL A   1      50.473  26.516  23.864  1.00  0.00    -0.200 F 
ENDBRANCH  41  65
BRANCH  53  76
ATOM     76  C   UNL A   1      45.011  33.571  29.061  1.00  0.00     0.064 A 
ATOM     77  C   UNL A   1      44.842  34.565  28.085  1.00  0.00     0.173 A 
ATOM     78  C   UNL A   1      45.867  33.839  30.137  1.00  0.00     0.173 A 
ATOM     79  F   UNL A   1      44.038  34.350  27.033  1.00  0.00    -0.203 F 
ATOM     80  C   UNL A   1      45.528  35.774  28.171  1.00  0.00     0.198 A 
ATOM     81  C   UNL A   1      46.533  35.058  30.231  1.00  0.00     0.198 A 
ATOM     82  F   UNL A   1      46.048  32.924  31.100  1.00  0.00    -0.203 F 
ATOM     83  F   UNL A   1      45.382  36.695  27.209  1.00  0.00    -0.200 F 
ATOM     84  C   UNL A   1      46.372  36.019  29.244  1.00  0.00     0.200 A 
ATOM     85  F   UNL A   1      47.333  35.302  31.278  1.00  0.00    -0.200 F 
ATOM     86  F   UNL A   1      47.032  37.183  29.324  1.00  0.00    -0.200 F 
ENDBRANCH  53  76
ENDBRANCH  27  28
ENDBRANCH  20  22
ENDBRANCH  19  20
ENDBRANCH  18  19
ENDBRANCH   1  18
TORSDOF 14
ENDMDL
MODEL 3
REMARK VINA RESULT:     -10.3      2.104      3.542
REMARK SMILES C[C@H](Oc1ccc([N+](=O)[O-])cc1F)C(=O)OCCOC(=O)c1ccc(-c2c3nc(c(-c4c(F)c(F)c(F)c(F)c4F)c4ccc([nH]4)c(-c4c(F)c(F)c(F)c(F)c4F)c4nc(c(-c5c(F)c(F)c(F)c(F)c5F)c5ccc2[nH]5)C=C4)C=C3)cc1
REMARK SMILES IDX 17 1 16 2 14 3 15 4 2 5 1 6 3 7 4 8 5 9 12 10 6 11 11 12
REMARK SMILES IDX 13 13 7 14 8 15 9 16 10 17 18 18 19 19 20 20 21 21 22 22
REMARK SMILES IDX 23 23 84 24 24 25 83 26 25 27 26 28 27 29 77 30 28 31 82 32
REMARK SMILES IDX 76 33 78 34 29 35 81 36 75 37 74 38 30 40 62 41 42 42 61 43
REMARK SMILES IDX 43 44 46 45 60 46 79 47 44 48 45 49 59 51 80 52 47 53 31 54
REMARK SMILES IDX 32 55 40 56 33 57 34 58 38 59 41 60 35 61 36 62 39 63 37 64
REMARK SMILES IDX 63 65 64 66 72 67 65 68 66 69 70 70 73 71 67 72 68 73 71 74
REMARK SMILES IDX 69 75 48 76 49 77 57 78 50 79 51 80 55 81 58 82 52 83 53 84
REMARK SMILES IDX 56 85 54 86
REMARK H PARENT 78 39 46 50
REMARK Flexibility Score: inf
ROOT
ATOM      1  C   UNL A   1      32.040  32.351  27.136  1.00  0.00     0.274 C 
ENDROOT
BRANCH   1   2
ATOM      2  O   UNL A   1      32.649  31.054  27.273  1.00  0.00    -0.459 OA
BRANCH   2   3
ATOM      3  C   UNL A   1      32.311  30.116  26.345  1.00  0.00     0.347 C 
ATOM      4  O   UNL A   1      31.541  30.302  25.408  1.00  0.00    -0.248 OA
BRANCH   3   5
ATOM      5  C   UNL A   1      32.938  28.749  26.642  1.00  0.00     0.279 C 
ATOM      6  C   UNL A   1      34.406  29.006  26.978  1.00  0.00     0.066 C 
BRANCH   5   7
ATOM      7  O   UNL A   1      32.776  27.864  25.537  1.00  0.00    -0.476 OA
BRANCH   7   8
ATOM      8  C   UNL A   1      32.075  26.700  25.698  1.00  0.00     0.156 A 
ATOM      9  C   UNL A   1      30.682  26.576  25.687  1.00  0.00     0.057 A 
ATOM     10  C   UNL A   1      32.849  25.555  25.934  1.00  0.00     0.171 A 
ATOM     11  C   UNL A   1      30.079  25.353  26.005  1.00  0.00     0.089 A 
ATOM     12  C   UNL A   1      32.269  24.325  26.233  1.00  0.00     0.128 A 
ATOM     13  F   UNL A   1      34.188  25.634  25.911  1.00  0.00    -0.203 F 
ATOM     14  C   UNL A   1      30.877  24.239  26.299  1.00  0.00     0.272 A 
BRANCH  14  15
ATOM     15  N   UNL A   1      30.246  22.985  26.719  1.00  0.00     0.062 N 
ATOM     16  O   UNL A   1      30.501  21.967  26.060  1.00  0.00    -0.258 OA
ATOM     17  O   UNL A   1      29.485  23.021  27.695  1.00  0.00    -0.258 OA
ENDBRANCH  14  15
ENDBRANCH   7   8
ENDBRANCH   5   7
ENDBRANCH   3   5
ENDBRANCH   2   3
ENDBRANCH   1   2
BRANCH   1  18
ATOM     18  C   UNL A   1      33.004  33.480  27.509  1.00  0.00     0.275 C 
BRANCH  18  19
ATOM     19  O   UNL A   1      32.347  34.510  28.269  1.00  0.00    -0.458 OA
BRANCH  19  20
ATOM     20  C   UNL A   1      33.174  35.377  28.900  1.00  0.00     0.338 C 
ATOM     21  O   UNL A   1      33.002  36.567  29.087  1.00  0.00    -0.246 OA
BRANCH  20  22
ATOM     22  C   UNL A   1      34.294  34.630  29.494  1.00  0.00     0.060 A 
ATOM     23  C   UNL A   1      34.033  33.853  30.626  1.00  0.00     0.016 A 
ATOM     24  C   UNL A   1      35.583  34.713  28.966  1.00  0.00     0.016 A 
ATOM     25  C   UNL A   1      35.061  33.129  31.224  1.00  0.00     0.010 A 
ATOM     26  C   UNL A   1      36.617  33.994  29.574  1.00  0.00     0.010 A 
ATOM     27  C   UNL A   1      36.359  33.194  30.700  1.00  0.00    -0.014 A 
BRANCH  27  28
ATOM     28  C   UNL A   1      37.449  32.409  31.324  1.00  0.00     0.031 A 
ATOM     29  C   UNL A   1      37.952  32.772  32.688  1.00  0.00     0.074 A 
ATOM     30  C   UNL A   1      37.982  31.373  30.652  1.00  0.00     0.049 A 
ATOM     31  N   UNL A   1      38.957  32.267  33.355  1.00  0.00    -0.248 NA
ATOM     32  C   UNL A   1      37.230  33.838  33.399  1.00  0.00     0.031 C 
ATOM     33  C   UNL A   1      37.539  30.907  29.338  1.00  0.00     0.029 A 
ATOM     34  N   UNL A   1      39.016  30.531  30.976  1.00  0.00    -0.354 N 
ATOM     35  C   UNL A   1      38.996  32.956  34.558  1.00  0.00     0.074 A 
ATOM     36  C   UNL A   1      37.922  33.925  34.529  1.00  0.00     0.031 C 
ATOM     37  C   UNL A   1      38.305  29.870  28.961  1.00  0.00     0.029 A 
ATOM     38  C   UNL A   1      39.320  29.631  29.985  1.00  0.00     0.049 A 
ATOM     39  H   UNL A   1      39.495  30.570  31.836  1.00  0.00     0.167 HD
ATOM     40  C   UNL A   1      39.854  32.786  35.591  1.00  0.00     0.037 A 
ATOM     41  C   UNL A   1      40.327  28.740  29.895  1.00  0.00     0.037 A 
ATOM     42  C   UNL A   1      40.911  31.809  35.618  1.00  0.00     0.049 A 
ATOM     43  C   UNL A   1      41.315  28.632  31.025  1.00  0.00     0.074 A 
ATOM     44  C   UNL A   1      41.804  31.539  36.639  1.00  0.00     0.029 A 
ATOM     45  N   UNL A   1      41.218  30.948  34.575  1.00  0.00    -0.354 N 
ATOM     46  N   UNL A   1      41.337  29.278  32.165  1.00  0.00    -0.248 NA
ATOM     47  C   UNL A   1      42.425  27.683  30.853  1.00  0.00     0.031 C 
ATOM     48  C   UNL A   1      42.683  30.546  36.198  1.00  0.00     0.029 A 
ATOM     49  C   UNL A   1      42.311  30.169  34.917  1.00  0.00     0.049 A 
ATOM     50  H   UNL A   1      40.732  30.899  33.721  1.00  0.00     0.167 HD
ATOM     51  C   UNL A   1      42.451  28.812  32.848  1.00  0.00     0.074 A 
ATOM     52  C   UNL A   1      43.073  27.813  32.003  1.00  0.00     0.031 C 
ATOM     53  C   UNL A   1      42.918  29.182  34.064  1.00  0.00     0.037 A 
BRANCH  40  54
ATOM     54  C   UNL A   1      39.709  33.675  36.788  1.00  0.00     0.064 A 
ATOM     55  C   UNL A   1      38.868  33.301  37.847  1.00  0.00     0.173 A 
ATOM     56  C   UNL A   1      40.306  34.941  36.834  1.00  0.00     0.173 A 
ATOM     57  F   UNL A   1      38.269  32.102  37.843  1.00  0.00    -0.203 F 
ATOM     58  C   UNL A   1      38.611  34.176  38.898  1.00  0.00     0.198 A 
ATOM     59  C   UNL A   1      40.061  35.807  37.897  1.00  0.00     0.198 A 
ATOM     60  F   UNL A   1      41.124  35.339  35.848  1.00  0.00    -0.203 F 
ATOM     61  F   UNL A   1      37.773  33.813  39.880  1.00  0.00    -0.200 F 
ATOM     62  C   UNL A   1      39.205  35.428  38.922  1.00  0.00     0.200 A 
ATOM     63  F   UNL A   1      40.647  37.012  37.927  1.00  0.00    -0.200 F 
ATOM     64  F   UNL A   1      38.951  36.272  39.931  1.00  0.00    -0.200 F 
ENDBRANCH  40  54
BRANCH  41  65
ATOM     65  C   UNL A   1      40.468  27.910  28.672  1.00  0.00     0.064 A 
ATOM     66  C   UNL A   1      41.221  28.357  27.576  1.00  0.00     0.173 A 
ATOM     67  C   UNL A   1      39.849  26.658  28.571  1.00  0.00     0.173 A 
ATOM     68  F   UNL A   1      41.839  29.547  27.625  1.00  0.00    -0.203 F 
ATOM     69  C   UNL A   1      41.332  27.592  26.417  1.00  0.00     0.198 A 
ATOM     70  C   UNL A   1      39.982  25.881  27.422  1.00  0.00     0.198 A 
ATOM     71  F   UNL A   1      39.141  26.176  29.603  1.00  0.00    -0.203 F 
ATOM     72  F   UNL A   1      42.032  28.057  25.374  1.00  0.00    -0.200 F 
ATOM     73  C   UNL A   1      40.716  26.352  26.343  1.00  0.00     0.200 A 
ATOM     74  F   UNL A   1      39.409  24.671  27.364  1.00  0.00    -0.200 F 
ATOM     75  F   UNL A   1      40.834  25.609  25.234  1.00  0.00    -0.200 F 
ENDBRANCH  41  65
BRANCH  53  76
ATOM     76  C   UNL A   1      44.161  28.512  34.567  1.00  0.00     0.064 A 
ATOM     77  C   UNL A   1      45.427  29.005  34.217  1.00  0.00     0.173 A 
ATOM     78  C   UNL A   1      44.095  27.328  35.312  1.00  0.00     0.173 A 
ATOM     79  F   UNL A   1      45.539  30.132  33.497  1.00  0.00    -0.203 F 
ATOM     80  C   UNL A   1      46.585  28.320  34.577  1.00  0.00     0.198 A 
ATOM     81  C   UNL A   1      45.256  26.658  35.690  1.00  0.00     0.198 A 
ATOM     82  F   UNL A   1      42.907  26.827  35.682  1.00  0.00    -0.203 F 
ATOM     83  F   UNL A   1      47.782  28.787  34.199  1.00  0.00    -0.200 F 
ATOM     84  C   UNL A   1      46.498  27.149  35.313  1.00  0.00     0.200 A 
ATOM     85  F   UNL A   1      45.173  25.537  36.419  1.00  0.00    -0.200 F 
ATOM     86  F   UNL A   1      47.613  26.490  35.659  1.00  0.00    -0.200 F 
ENDBRANCH  53  76
ENDBRANCH  27  28
ENDBRANCH  20  22
ENDBRANCH  19  20
ENDBRANCH  18  19
ENDBRANCH   1  18
TORSDOF 14
ENDMDL
