MODEL 1
REMARK VINA RESULT:     -12.5      0.000      0.000
REMARK SMILES O=C(OCCOC(=O)c1nn(-c2ccc(Br)cc2F)cc1CCCO)c1ccc(-c2c3nc(c(-c4c(F)c(F)c(F)c(F)c4F)c4ccc([nH]4)c(-c4c(F)c(F)c(F)c(F)c4F)c4nc(c(-c5c(F)c(F)c(F)c(F)c5F)c5ccc2[nH]5)C=C4)C=C3)cc1
REMARK SMILES IDX 5 1 4 2 3 3 2 4 1 5 26 6 27 7 88 8 28 9 87 10 29 11 30 12
REMARK SMILES IDX 31 13 81 14 32 15 86 16 80 17 82 18 33 19 85 20 79 21 78 22
REMARK SMILES IDX 34 24 66 25 46 26 65 27 47 28 50 29 64 30 83 31 48 32 49 33
REMARK SMILES IDX 63 35 84 36 51 37 35 38 36 39 44 40 37 41 38 42 42 43 45 44
REMARK SMILES IDX 39 45 40 46 43 47 41 48 67 49 68 50 76 51 69 52 70 53 74 54
REMARK SMILES IDX 77 55 71 56 72 57 75 58 73 59 52 60 53 61 61 62 54 63 55 64
REMARK SMILES IDX 59 65 62 66 56 67 57 68 60 69 58 70 6 71 7 72 8 73 9 74
REMARK SMILES IDX 10 75 21 76 11 77 20 78 22 79 23 80 24 81 25 82 12 84 13 85
REMARK SMILES IDX 18 86 14 87 17 88 19 89 15 90 16 91
REMARK H PARENT 82 23 50 34 25 83
REMARK Flexibility Score: inf
ROOT
ATOM      1  C   UNL A   1      37.356  22.593  25.459  1.00  0.00     0.275 C 
ENDROOT
BRANCH   1   2
ATOM      2  C   UNL A   1      38.367  21.488  25.736  1.00  0.00     0.275 C 
BRANCH   2   3
ATOM      3  O   UNL A   1      39.660  22.042  26.028  1.00  0.00    -0.458 OA
BRANCH   3   4
ATOM      4  C   UNL A   1      40.280  22.410  27.160  1.00  0.00     0.338 C 
ATOM      5  O   UNL A   1      40.593  21.500  27.934  1.00  0.00    -0.246 OA
BRANCH   4   6
ATOM      6  C   UNL A   1      40.591  23.809  27.601  1.00  0.00     0.060 A 
ATOM      7  C   UNL A   1      41.650  24.276  28.384  1.00  0.00     0.016 A 
ATOM      8  C   UNL A   1      39.675  24.767  27.128  1.00  0.00     0.016 A 
ATOM      9  C   UNL A   1      41.745  25.639  28.723  1.00  0.00     0.010 A 
ATOM     10  C   UNL A   1      39.840  26.124  27.358  1.00  0.00     0.010 A 
ATOM     11  C   UNL A   1      40.812  26.563  28.241  1.00  0.00    -0.014 A 
BRANCH  11  12
ATOM     12  C   UNL A   1      40.823  27.964  28.680  1.00  0.00     0.031 A 
ATOM     13  C   UNL A   1      41.932  28.838  28.194  1.00  0.00     0.074 A 
ATOM     14  C   UNL A   1      39.819  28.516  29.402  1.00  0.00     0.049 A 
ATOM     15  N   UNL A   1      42.836  29.449  28.895  1.00  0.00    -0.248 NA
ATOM     16  C   UNL A   1      42.073  29.035  26.746  1.00  0.00     0.031 C 
ATOM     17  C   UNL A   1      38.519  27.944  29.776  1.00  0.00     0.029 A 
ATOM     18  N   UNL A   1      39.736  29.781  29.903  1.00  0.00    -0.354 N 
ATOM     19  C   UNL A   1      43.579  30.220  28.001  1.00  0.00     0.074 A 
ATOM     20  C   UNL A   1      43.125  29.855  26.683  1.00  0.00     0.031 C 
ATOM     21  C   UNL A   1      37.703  28.916  30.236  1.00  0.00     0.029 A 
ATOM     22  C   UNL A   1      38.479  30.131  30.376  1.00  0.00     0.049 A 
ATOM     23  H   UNL A   1      40.504  30.396  29.928  1.00  0.00     0.167 HD
ATOM     24  C   UNL A   1      44.412  31.219  28.414  1.00  0.00     0.037 A 
ATOM     25  C   UNL A   1      38.091  31.332  30.866  1.00  0.00     0.037 A 
ATOM     26  C   UNL A   1      44.753  31.087  29.806  1.00  0.00     0.049 A 
ATOM     27  C   UNL A   1      39.314  32.046  31.299  1.00  0.00     0.074 A 
ATOM     28  C   UNL A   1      45.393  30.113  30.549  1.00  0.00     0.029 A 
ATOM     29  N   UNL A   1      44.107  31.871  30.730  1.00  0.00    -0.354 N 
ATOM     30  N   UNL A   1      40.050  31.676  32.310  1.00  0.00    -0.248 NA
ATOM     31  C   UNL A   1      39.965  32.914  30.332  1.00  0.00     0.031 C 
ATOM     32  C   UNL A   1      44.655  30.041  31.768  1.00  0.00     0.029 A 
ATOM     33  C   UNL A   1      43.664  31.023  31.716  1.00  0.00     0.049 A 
ATOM     34  H   UNL A   1      43.985  32.847  30.692  1.00  0.00     0.167 HD
ATOM     35  C   UNL A   1      41.353  31.901  31.895  1.00  0.00     0.074 A 
ATOM     36  C   UNL A   1      41.234  32.745  30.709  1.00  0.00     0.031 C 
ATOM     37  C   UNL A   1      42.393  31.163  32.384  1.00  0.00     0.037 A 
BRANCH  24  38
ATOM     38  C   UNL A   1      44.727  32.460  27.617  1.00  0.00     0.064 A 
ATOM     39  C   UNL A   1      45.947  32.571  26.918  1.00  0.00     0.173 A 
ATOM     40  C   UNL A   1      43.983  33.653  27.730  1.00  0.00     0.173 A 
ATOM     41  F   UNL A   1      46.755  31.510  26.782  1.00  0.00    -0.203 F 
ATOM     42  C   UNL A   1      46.399  33.793  26.408  1.00  0.00     0.198 A 
ATOM     43  C   UNL A   1      44.412  34.859  27.175  1.00  0.00     0.198 A 
ATOM     44  F   UNL A   1      42.867  33.719  28.469  1.00  0.00    -0.203 F 
ATOM     45  F   UNL A   1      47.611  33.871  25.838  1.00  0.00    -0.200 F 
ATOM     46  C   UNL A   1      45.631  34.936  26.535  1.00  0.00     0.200 A 
ATOM     47  F   UNL A   1      43.662  35.959  27.329  1.00  0.00    -0.200 F 
ATOM     48  F   UNL A   1      46.082  36.115  26.088  1.00  0.00    -0.200 F 
ENDBRANCH  24  38
BRANCH  25  49
ATOM     49  C   UNL A   1      36.776  31.993  30.735  1.00  0.00     0.064 A 
ATOM     50  C   UNL A   1      35.905  32.108  31.829  1.00  0.00     0.173 A 
ATOM     51  C   UNL A   1      36.472  32.777  29.604  1.00  0.00     0.173 A 
ATOM     52  F   UNL A   1      36.148  31.425  32.958  1.00  0.00    -0.203 F 
ATOM     53  C   UNL A   1      34.814  32.982  31.807  1.00  0.00     0.198 A 
ATOM     54  C   UNL A   1      35.381  33.644  29.581  1.00  0.00     0.198 A 
ATOM     55  F   UNL A   1      37.286  32.787  28.538  1.00  0.00    -0.203 F 
ATOM     56  F   UNL A   1      34.042  33.115  32.895  1.00  0.00    -0.200 F 
ATOM     57  C   UNL A   1      34.560  33.759  30.688  1.00  0.00     0.200 A 
ATOM     58  F   UNL A   1      35.167  34.417  28.506  1.00  0.00    -0.200 F 
ATOM     59  F   UNL A   1      33.555  34.645  30.692  1.00  0.00    -0.200 F 
ENDBRANCH  25  49
BRANCH  37  60
ATOM     60  C   UNL A   1      42.120  30.239  33.543  1.00  0.00     0.064 A 
ATOM     61  C   UNL A   1      41.715  28.899  33.401  1.00  0.00     0.173 A 
ATOM     62  C   UNL A   1      42.423  30.678  34.839  1.00  0.00     0.173 A 
ATOM     63  F   UNL A   1      41.510  28.364  32.193  1.00  0.00    -0.203 F 
ATOM     64  C   UNL A   1      41.571  28.059  34.505  1.00  0.00     0.198 A 
ATOM     65  C   UNL A   1      42.316  29.826  35.937  1.00  0.00     0.198 A 
ATOM     66  F   UNL A   1      42.874  31.926  35.037  1.00  0.00    -0.203 F 
ATOM     67  F   UNL A   1      41.171  26.789  34.337  1.00  0.00    -0.200 F 
ATOM     68  C   UNL A   1      41.879  28.522  35.772  1.00  0.00     0.200 A 
ATOM     69  F   UNL A   1      42.665  30.263  37.154  1.00  0.00    -0.200 F 
ATOM     70  F   UNL A   1      41.783  27.704  36.830  1.00  0.00    -0.200 F 
ENDBRANCH  37  60
ENDBRANCH  11  12
ENDBRANCH   4   6
ENDBRANCH   3   4
ENDBRANCH   2   3
ENDBRANCH   1   2
BRANCH   1  71
ATOM     71  O   UNL A   1      36.236  22.070  24.728  1.00  0.00    -0.457 OA
BRANCH  71  72
ATOM     72  C   UNL A   1      35.765  22.822  23.688  1.00  0.00     0.359 C 
ATOM     73  O   UNL A   1      36.334  22.968  22.609  1.00  0.00    -0.244 OA
BRANCH  72  74
ATOM     74  C   UNL A   1      34.491  23.453  24.029  1.00  0.00     0.173 A 
ATOM     75  N   UNL A   1      34.422  24.794  24.123  1.00  0.00    -0.160 NA
ATOM     76  C   UNL A   1      33.234  22.855  24.350  1.00  0.00     0.006 A 
ATOM     77  N   UNL A   1      33.238  25.039  24.715  1.00  0.00    -0.237 N 
ATOM     78  C   UNL A   1      32.502  23.896  24.886  1.00  0.00     0.119 A 
BRANCH  76  79
ATOM     79  C   UNL A   1      32.805  21.427  24.307  1.00  0.00     0.042 C 
BRANCH  79  80
ATOM     80  C   UNL A   1      33.169  20.564  25.515  1.00  0.00     0.033 C 
BRANCH  80  81
ATOM     81  C   UNL A   1      32.911  19.081  25.256  1.00  0.00     0.156 C 
BRANCH  81  82
ATOM     82  O   UNL A   1      32.569  18.450  26.486  1.00  0.00    -0.396 OA
ATOM     83  H   UNL A   1      33.262  18.622  27.142  1.00  0.00     0.210 HD
ENDBRANCH  81  82
ENDBRANCH  80  81
ENDBRANCH  79  80
ENDBRANCH  76  79
BRANCH  77  84
ATOM     84  C   UNL A   1      32.881  26.350  25.065  1.00  0.00     0.100 A 
ATOM     85  C   UNL A   1      33.005  26.753  26.400  1.00  0.00     0.032 A 
ATOM     86  C   UNL A   1      32.399  27.234  24.103  1.00  0.00     0.149 A 
ATOM     87  C   UNL A   1      32.684  28.063  26.752  1.00  0.00     0.018 A 
ATOM     88  C   UNL A   1      32.023  28.524  24.463  1.00  0.00     0.057 A 
ATOM     89  F   UNL A   1      32.210  26.844  22.835  1.00  0.00    -0.205 F 
ATOM     90  C   UNL A   1      32.185  28.938  25.785  1.00  0.00     0.021 A 
ATOM     91  Br  UNL A   1      31.718  30.702  26.275  1.00  0.00    -0.051 Br
ENDBRANCH  77  84
ENDBRANCH  72  74
ENDBRANCH  71  72
ENDBRANCH   1  71
TORSDOF 16
ENDMDL
MODEL 2
REMARK VINA RESULT:     -12.3      4.005      6.615
REMARK SMILES O=C(OCCOC(=O)c1nn(-c2ccc(Br)cc2F)cc1CCCO)c1ccc(-c2c3nc(c(-c4c(F)c(F)c(F)c(F)c4F)c4ccc([nH]4)c(-c4c(F)c(F)c(F)c(F)c4F)c4nc(c(-c5c(F)c(F)c(F)c(F)c5F)c5ccc2[nH]5)C=C4)C=C3)cc1
REMARK SMILES IDX 5 1 4 2 3 3 2 4 1 5 26 6 27 7 88 8 28 9 87 10 29 11 30 12
REMARK SMILES IDX 31 13 81 14 32 15 86 16 80 17 82 18 33 19 85 20 79 21 78 22
REMARK SMILES IDX 34 24 66 25 46 26 65 27 47 28 50 29 64 30 83 31 48 32 49 33
REMARK SMILES IDX 63 35 84 36 51 37 35 38 36 39 44 40 37 41 38 42 42 43 45 44
REMARK SMILES IDX 39 45 40 46 43 47 41 48 67 49 68 50 76 51 69 52 70 53 74 54
REMARK SMILES IDX 77 55 71 56 72 57 75 58 73 59 52 60 53 61 61 62 54 63 55 64
REMARK SMILES IDX 59 65 62 66 56 67 57 68 60 69 58 70 6 71 7 72 8 73 9 74
REMARK SMILES IDX 10 75 21 76 11 77 20 78 22 79 23 80 24 81 25 82 12 84 13 85
REMARK SMILES IDX 18 86 14 87 17 88 19 89 15 90 16 91
REMARK H PARENT 82 23 50 34 25 83
REMARK Flexibility Score: inf
ROOT
ATOM      1  C   UNL A   1      43.983  22.836  24.790  1.00  0.00     0.275 C 
ENDROOT
BRANCH   1   2
ATOM      2  C   UNL A   1      43.268  21.797  25.643  1.00  0.00     0.275 C 
BRANCH   2   3
ATOM      3  O   UNL A   1      41.853  22.040  25.662  1.00  0.00    -0.458 OA
BRANCH   3   4
ATOM      4  C   UNL A   1      40.987  22.418  26.615  1.00  0.00     0.338 C 
ATOM      5  O   UNL A   1      40.282  21.528  27.100  1.00  0.00    -0.246 OA
BRANCH   4   6
ATOM      6  C   UNL A   1      40.755  23.811  27.118  1.00  0.00     0.060 A 
ATOM      7  C   UNL A   1      39.724  24.704  26.810  1.00  0.00     0.016 A 
ATOM      8  C   UNL A   1      41.721  24.247  28.044  1.00  0.00     0.016 A 
ATOM      9  C   UNL A   1      39.705  25.997  27.366  1.00  0.00     0.010 A 
ATOM     10  C   UNL A   1      41.631  25.472  28.685  1.00  0.00     0.010 A 
ATOM     11  C   UNL A   1      40.687  26.399  28.277  1.00  0.00    -0.014 A 
BRANCH  11  12
ATOM     12  C   UNL A   1      40.753  27.780  28.773  1.00  0.00     0.031 A 
ATOM     13  C   UNL A   1      41.838  28.660  28.242  1.00  0.00     0.074 A 
ATOM     14  C   UNL A   1      39.814  28.313  29.589  1.00  0.00     0.049 A 
ATOM     15  N   UNL A   1      42.800  29.228  28.899  1.00  0.00    -0.248 NA
ATOM     16  C   UNL A   1      41.875  28.916  26.797  1.00  0.00     0.031 C 
ATOM     17  C   UNL A   1      38.536  27.742  30.035  1.00  0.00     0.029 A 
ATOM     18  N   UNL A   1      39.788  29.557  30.147  1.00  0.00    -0.354 N 
ATOM     19  C   UNL A   1      43.488  30.027  27.985  1.00  0.00     0.074 A 
ATOM     20  C   UNL A   1      42.932  29.724  26.690  1.00  0.00     0.031 C 
ATOM     21  C   UNL A   1      37.772  28.705  30.594  1.00  0.00     0.029 A 
ATOM     22  C   UNL A   1      38.575  29.903  30.726  1.00  0.00     0.049 A 
ATOM     23  H   UNL A   1      40.566  30.160  30.140  1.00  0.00     0.167 HD
ATOM     24  C   UNL A   1      44.364  30.997  28.376  1.00  0.00     0.037 A 
ATOM     25  C   UNL A   1      38.244  31.086  31.293  1.00  0.00     0.037 A 
ATOM     26  C   UNL A   1      44.805  30.801  29.732  1.00  0.00     0.049 A 
ATOM     27  C   UNL A   1      39.506  31.765  31.663  1.00  0.00     0.074 A 
ATOM     28  C   UNL A   1      45.482  29.788  30.385  1.00  0.00     0.029 A 
ATOM     29  N   UNL A   1      44.241  31.553  30.733  1.00  0.00    -0.354 N 
ATOM     30  N   UNL A   1      40.309  31.344  32.601  1.00  0.00    -0.248 NA
ATOM     31  C   UNL A   1      40.098  32.666  30.687  1.00  0.00     0.031 C 
ATOM     32  C   UNL A   1      44.834  29.674  31.651  1.00  0.00     0.029 A 
ATOM     33  C   UNL A   1      43.858  30.670  31.713  1.00  0.00     0.049 A 
ATOM     34  H   UNL A   1      44.132  32.532  30.745  1.00  0.00     0.167 HD
ATOM     35  C   UNL A   1      41.581  31.570  32.100  1.00  0.00     0.074 A 
ATOM     36  C   UNL A   1      41.389  32.465  30.962  1.00  0.00     0.031 C 
ATOM     37  C   UNL A   1      42.642  30.798  32.479  1.00  0.00     0.037 A 
BRANCH  24  38
ATOM     38  C   UNL A   1      44.640  32.266  27.611  1.00  0.00     0.064 A 
ATOM     39  C   UNL A   1      45.834  32.413  26.875  1.00  0.00     0.173 A 
ATOM     40  C   UNL A   1      43.888  33.447  27.787  1.00  0.00     0.173 A 
ATOM     41  F   UNL A   1      46.648  31.366  26.676  1.00  0.00    -0.203 F 
ATOM     42  C   UNL A   1      46.257  33.656  26.390  1.00  0.00     0.198 A 
ATOM     43  C   UNL A   1      44.286  34.675  27.258  1.00  0.00     0.198 A 
ATOM     44  F   UNL A   1      42.798  33.476  28.565  1.00  0.00    -0.203 F 
ATOM     45  F   UNL A   1      47.447  33.766  25.783  1.00  0.00    -0.200 F 
ATOM     46  C   UNL A   1      45.482  34.786  26.581  1.00  0.00     0.200 A 
ATOM     47  F   UNL A   1      43.531  35.761  27.473  1.00  0.00    -0.200 F 
ATOM     48  F   UNL A   1      45.906  35.983  26.157  1.00  0.00    -0.200 F 
ENDBRANCH  24  38
BRANCH  25  49
ATOM     49  C   UNL A   1      36.933  31.770  31.288  1.00  0.00     0.064 A 
ATOM     50  C   UNL A   1      36.226  32.000  32.477  1.00  0.00     0.173 A 
ATOM     51  C   UNL A   1      36.486  32.463  30.145  1.00  0.00     0.173 A 
ATOM     52  F   UNL A   1      36.614  31.408  33.616  1.00  0.00    -0.203 F 
ATOM     53  C   UNL A   1      35.155  32.898  32.529  1.00  0.00     0.198 A 
ATOM     54  C   UNL A   1      35.415  33.355  30.197  1.00  0.00     0.198 A 
ATOM     55  F   UNL A   1      37.143  32.362  28.980  1.00  0.00    -0.203 F 
ATOM     56  F   UNL A   1      34.545  33.142  33.697  1.00  0.00    -0.200 F 
ATOM     57  C   UNL A   1      34.759  33.584  31.393  1.00  0.00     0.200 A 
ATOM     58  F   UNL A   1      35.065  34.040  29.098  1.00  0.00    -0.200 F 
ATOM     59  F   UNL A   1      33.778  34.494  31.457  1.00  0.00    -0.200 F 
ENDBRANCH  25  49
BRANCH  37  60
ATOM     60  C   UNL A   1      42.441  29.829  33.616  1.00  0.00     0.064 A 
ATOM     61  C   UNL A   1      42.058  28.485  33.445  1.00  0.00     0.173 A 
ATOM     62  C   UNL A   1      42.791  30.230  34.912  1.00  0.00     0.173 A 
ATOM     63  F   UNL A   1      41.812  27.988  32.229  1.00  0.00    -0.203 F 
ATOM     64  C   UNL A   1      41.982  27.606  34.524  1.00  0.00     0.198 A 
ATOM     65  C   UNL A   1      42.750  29.339  35.984  1.00  0.00     0.198 A 
ATOM     66  F   UNL A   1      43.223  31.481  35.134  1.00  0.00    -0.203 F 
ATOM     67  F   UNL A   1      41.602  26.333  34.330  1.00  0.00    -0.200 F 
ATOM     68  C   UNL A   1      42.335  28.032  35.792  1.00  0.00     0.200 A 
ATOM     69  F   UNL A   1      43.144  29.743  37.199  1.00  0.00    -0.200 F 
ATOM     70  F   UNL A   1      42.304  27.176  36.824  1.00  0.00    -0.200 F 
ENDBRANCH  37  60
ENDBRANCH  11  12
ENDBRANCH   4   6
ENDBRANCH   3   4
ENDBRANCH   2   3
ENDBRANCH   1   2
BRANCH   1  71
ATOM     71  O   UNL A   1      44.266  24.010  25.568  1.00  0.00    -0.457 OA
BRANCH  71  72
ATOM     72  C   UNL A   1      45.494  24.082  26.164  1.00  0.00     0.359 C 
ATOM     73  O   UNL A   1      46.516  23.548  25.742  1.00  0.00    -0.244 OA
BRANCH  72  74
ATOM     74  C   UNL A   1      45.435  24.871  27.395  1.00  0.00     0.173 A 
ATOM     75  N   UNL A   1      45.326  24.241  28.579  1.00  0.00    -0.160 NA
ATOM     76  C   UNL A   1      45.422  26.289  27.569  1.00  0.00     0.006 A 
ATOM     77  N   UNL A   1      45.013  25.210  29.459  1.00  0.00    -0.237 N 
ATOM     78  C   UNL A   1      45.041  26.454  28.886  1.00  0.00     0.119 A 
BRANCH  76  79
ATOM     79  C   UNL A   1      45.596  27.385  26.574  1.00  0.00     0.042 C 
BRANCH  79  80
ATOM     80  C   UNL A   1      47.017  27.633  26.067  1.00  0.00     0.033 C 
BRANCH  80  81
ATOM     81  C   UNL A   1      47.154  27.323  24.577  1.00  0.00     0.156 C 
BRANCH  81  82
ATOM     82  O   UNL A   1      46.012  27.828  23.893  1.00  0.00    -0.396 OA
ATOM     83  H   UNL A   1      45.547  28.461  24.463  1.00  0.00     0.210 HD
ENDBRANCH  81  82
ENDBRANCH  80  81
ENDBRANCH  79  80
ENDBRANCH  76  79
BRANCH  77  84
ATOM     84  C   UNL A   1      44.721  24.885  30.792  1.00  0.00     0.100 A 
ATOM     85  C   UNL A   1      45.022  25.812  31.798  1.00  0.00     0.032 A 
ATOM     86  C   UNL A   1      44.152  23.656  31.115  1.00  0.00     0.149 A 
ATOM     87  C   UNL A   1      44.706  25.513  33.122  1.00  0.00     0.018 A 
ATOM     88  C   UNL A   1      43.891  23.331  32.442  1.00  0.00     0.057 A 
ATOM     89  F   UNL A   1      43.921  22.730  30.173  1.00  0.00    -0.205 F 
ATOM     90  C   UNL A   1      44.153  24.271  33.439  1.00  0.00     0.021 A 
ATOM     91  Br  UNL A   1      43.759  23.856  35.240  1.00  0.00    -0.051 Br
ENDBRANCH  77  84
ENDBRANCH  72  74
ENDBRANCH  71  72
ENDBRANCH   1  71
TORSDOF 16
ENDMDL
MODEL 3
REMARK VINA RESULT:     -12.3      5.314     10.877
REMARK SMILES O=C(OCCOC(=O)c1nn(-c2ccc(Br)cc2F)cc1CCCO)c1ccc(-c2c3nc(c(-c4c(F)c(F)c(F)c(F)c4F)c4ccc([nH]4)c(-c4c(F)c(F)c(F)c(F)c4F)c4nc(c(-c5c(F)c(F)c(F)c(F)c5F)c5ccc2[nH]5)C=C4)C=C3)cc1
REMARK SMILES IDX 5 1 4 2 3 3 2 4 1 5 26 6 27 7 88 8 28 9 87 10 29 11 30 12
REMARK SMILES IDX 31 13 81 14 32 15 86 16 80 17 82 18 33 19 85 20 79 21 78 22
REMARK SMILES IDX 34 24 66 25 46 26 65 27 47 28 50 29 64 30 83 31 48 32 49 33
REMARK SMILES IDX 63 35 84 36 51 37 35 38 36 39 44 40 37 41 38 42 42 43 45 44
REMARK SMILES IDX 39 45 40 46 43 47 41 48 67 49 68 50 76 51 69 52 70 53 74 54
REMARK SMILES IDX 77 55 71 56 72 57 75 58 73 59 52 60 53 61 61 62 54 63 55 64
REMARK SMILES IDX 59 65 62 66 56 67 57 68 60 69 58 70 6 71 7 72 8 73 9 74
REMARK SMILES IDX 10 75 21 76 11 77 20 78 22 79 23 80 24 81 25 82 12 84 13 85
REMARK SMILES IDX 18 86 14 87 17 88 19 89 15 90 16 91
REMARK H PARENT 82 23 50 34 25 83
REMARK Flexibility Score: inf
ROOT
ATOM      1  C   UNL A   1      35.515  33.882  31.568  1.00  0.00     0.275 C 
ENDROOT
BRANCH   1   2
ATOM      2  C   UNL A   1      34.515  32.861  31.043  1.00  0.00     0.275 C 
BRANCH   2   3
ATOM      3  O   UNL A   1      34.455  32.899  29.608  1.00  0.00    -0.458 OA
BRANCH   3   4
ATOM      4  C   UNL A   1      35.352  32.681  28.633  1.00  0.00     0.338 C 
ATOM      5  O   UNL A   1      35.209  33.339  27.599  1.00  0.00    -0.246 OA
BRANCH   4   6
ATOM      6  C   UNL A   1      36.478  31.691  28.654  1.00  0.00     0.060 A 
ATOM      7  C   UNL A   1      36.491  30.355  28.243  1.00  0.00     0.016 A 
ATOM      8  C   UNL A   1      37.687  32.220  29.145  1.00  0.00     0.016 A 
ATOM      9  C   UNL A   1      37.654  29.573  28.381  1.00  0.00     0.010 A 
ATOM     10  C   UNL A   1      38.861  31.485  29.162  1.00  0.00     0.010 A 
ATOM     11  C   UNL A   1      38.835  30.130  28.881  1.00  0.00    -0.014 A 
BRANCH  11  12
ATOM     12  C   UNL A   1      40.019  29.303  29.145  1.00  0.00     0.031 A 
ATOM     13  C   UNL A   1      40.354  28.998  30.568  1.00  0.00     0.074 A 
ATOM     14  C   UNL A   1      40.740  28.717  28.160  1.00  0.00     0.049 A 
ATOM     15  N   UNL A   1      41.424  29.321  31.224  1.00  0.00    -0.248 NA
ATOM     16  C   UNL A   1      39.364  28.270  31.371  1.00  0.00     0.031 C 
ATOM     17  C   UNL A   1      40.466  28.652  26.718  1.00  0.00     0.029 A 
ATOM     18  N   UNL A   1      41.875  27.970  28.274  1.00  0.00    -0.354 N 
ATOM     19  C   UNL A   1      41.315  28.723  32.481  1.00  0.00     0.074 A 
ATOM     20  C   UNL A   1      39.987  28.168  32.547  1.00  0.00     0.031 C 
ATOM     21  C   UNL A   1      41.266  27.733  26.137  1.00  0.00     0.029 A 
ATOM     22  C   UNL A   1      42.237  27.293  27.118  1.00  0.00     0.049 A 
ATOM     23  H   UNL A   1      42.395  27.915  29.108  1.00  0.00     0.167 HD
ATOM     24  C   UNL A   1      42.381  28.594  33.324  1.00  0.00     0.037 A 
ATOM     25  C   UNL A   1      43.272  26.435  26.958  1.00  0.00     0.037 A 
ATOM     26  C   UNL A   1      43.449  29.492  32.974  1.00  0.00     0.049 A 
ATOM     27  C   UNL A   1      44.249  26.721  28.033  1.00  0.00     0.074 A 
ATOM     28  C   UNL A   1      43.559  30.867  32.889  1.00  0.00     0.029 A 
ATOM     29  N   UNL A   1      44.529  29.007  32.279  1.00  0.00    -0.354 N 
ATOM     30  N   UNL A   1      44.946  27.820  28.106  1.00  0.00    -0.248 NA
ATOM     31  C   UNL A   1      44.125  25.972  29.273  1.00  0.00     0.031 C 
ATOM     32  C   UNL A   1      44.341  31.099  31.719  1.00  0.00     0.029 A 
ATOM     33  C   UNL A   1      44.716  29.853  31.213  1.00  0.00     0.049 A 
ATOM     34  H   UNL A   1      45.063  28.209  32.500  1.00  0.00     0.167 HD
ATOM     35  C   UNL A   1      44.982  28.123  29.457  1.00  0.00     0.074 A 
ATOM     36  C   UNL A   1      44.539  26.906  30.133  1.00  0.00     0.031 C 
ATOM     37  C   UNL A   1      45.102  29.412  29.895  1.00  0.00     0.037 A 
BRANCH  24  38
ATOM     38  C   UNL A   1      42.554  27.479  34.325  1.00  0.00     0.064 A 
ATOM     39  C   UNL A   1      43.127  26.251  33.935  1.00  0.00     0.173 A 
ATOM     40  C   UNL A   1      41.938  27.484  35.594  1.00  0.00     0.173 A 
ATOM     41  F   UNL A   1      43.707  26.118  32.732  1.00  0.00    -0.203 F 
ATOM     42  C   UNL A   1      43.050  25.109  34.740  1.00  0.00     0.198 A 
ATOM     43  C   UNL A   1      41.909  26.358  36.417  1.00  0.00     0.198 A 
ATOM     44  F   UNL A   1      41.252  28.546  36.037  1.00  0.00    -0.203 F 
ATOM     45  F   UNL A   1      43.521  23.939  34.286  1.00  0.00    -0.200 F 
ATOM     46  C   UNL A   1      42.442  25.164  35.981  1.00  0.00     0.200 A 
ATOM     47  F   UNL A   1      41.295  26.428  37.607  1.00  0.00    -0.200 F 
ATOM     48  F   UNL A   1      42.328  24.063  36.734  1.00  0.00    -0.200 F 
ENDBRANCH  24  38
BRANCH  25  49
ATOM     49  C   UNL A   1      43.338  25.226  26.110  1.00  0.00     0.064 A 
ATOM     50  C   UNL A   1      44.418  25.001  25.244  1.00  0.00     0.173 A 
ATOM     51  C   UNL A   1      42.482  24.132  26.347  1.00  0.00     0.173 A 
ATOM     52  F   UNL A   1      45.300  25.981  24.999  1.00  0.00    -0.203 F 
ATOM     53  C   UNL A   1      44.649  23.745  24.674  1.00  0.00     0.198 A 
ATOM     54  C   UNL A   1      42.710  22.881  25.774  1.00  0.00     0.198 A 
ATOM     55  F   UNL A   1      41.465  24.231  27.216  1.00  0.00    -0.203 F 
ATOM     56  F   UNL A   1      45.728  23.550  23.903  1.00  0.00    -0.200 F 
ATOM     57  C   UNL A   1      43.803  22.683  24.950  1.00  0.00     0.200 A 
ATOM     58  F   UNL A   1      41.905  21.852  26.078  1.00  0.00    -0.200 F 
ATOM     59  F   UNL A   1      44.063  21.464  24.459  1.00  0.00    -0.200 F 
ENDBRANCH  25  49
BRANCH  37  60
ATOM     60  C   UNL A   1      45.409  30.479  28.875  1.00  0.00     0.064 A 
ATOM     61  C   UNL A   1      44.426  31.197  28.169  1.00  0.00     0.173 A 
ATOM     62  C   UNL A   1      46.737  30.894  28.714  1.00  0.00     0.173 A 
ATOM     63  F   UNL A   1      43.126  30.941  28.345  1.00  0.00    -0.203 F 
ATOM     64  C   UNL A   1      44.762  32.241  27.309  1.00  0.00     0.198 A 
ATOM     65  C   UNL A   1      47.069  31.963  27.883  1.00  0.00     0.198 A 
ATOM     66  F   UNL A   1      47.718  30.291  29.405  1.00  0.00    -0.203 F 
ATOM     67  F   UNL A   1      43.802  32.899  26.641  1.00  0.00    -0.200 F 
ATOM     68  C   UNL A   1      46.083  32.628  27.173  1.00  0.00     0.200 A 
ATOM     69  F   UNL A   1      48.343  32.367  27.795  1.00  0.00    -0.200 F 
ATOM     70  F   UNL A   1      46.405  33.661  26.379  1.00  0.00    -0.200 F 
ENDBRANCH  37  60
ENDBRANCH  11  12
ENDBRANCH   4   6
ENDBRANCH   3   4
ENDBRANCH   2   3
ENDBRANCH   1   2
BRANCH   1  71
ATOM     71  O   UNL A   1      36.492  33.239  32.402  1.00  0.00    -0.457 OA
BRANCH  71  72
ATOM     72  C   UNL A   1      37.411  34.042  33.018  1.00  0.00     0.359 C 
ATOM     73  O   UNL A   1      37.145  34.927  33.827  1.00  0.00    -0.244 OA
BRANCH  72  74
ATOM     74  C   UNL A   1      38.768  33.724  32.574  1.00  0.00     0.173 A 
ATOM     75  N   UNL A   1      39.411  34.576  31.754  1.00  0.00    -0.160 NA
ATOM     76  C   UNL A   1      39.565  32.568  32.835  1.00  0.00     0.006 A 
ATOM     77  N   UNL A   1      40.479  33.887  31.311  1.00  0.00    -0.237 N 
ATOM     78  C   UNL A   1      40.596  32.668  31.922  1.00  0.00     0.119 A 
BRANCH  76  79
ATOM     79  C   UNL A   1      39.315  31.406  33.736  1.00  0.00     0.042 C 
BRANCH  79  80
ATOM     80  C   UNL A   1      39.809  31.536  35.177  1.00  0.00     0.033 C 
BRANCH  80  81
ATOM     81  C   UNL A   1      38.653  31.614  36.173  1.00  0.00     0.156 C 
BRANCH  81  82
ATOM     82  O   UNL A   1      37.424  31.488  35.464  1.00  0.00    -0.396 OA
ATOM     83  H   UNL A   1      37.243  32.309  34.981  1.00  0.00     0.210 HD
ENDBRANCH  81  82
ENDBRANCH  80  81
ENDBRANCH  79  80
ENDBRANCH  76  79
BRANCH  77  84
ATOM     84  C   UNL A   1      41.327  34.447  30.342  1.00  0.00     0.100 A 
ATOM     85  C   UNL A   1      42.706  34.477  30.582  1.00  0.00     0.032 A 
ATOM     86  C   UNL A   1      40.805  34.976  29.164  1.00  0.00     0.149 A 
ATOM     87  C   UNL A   1      43.559  35.001  29.613  1.00  0.00     0.018 A 
ATOM     88  C   UNL A   1      41.649  35.552  28.221  1.00  0.00     0.057 A 
ATOM     89  F   UNL A   1      39.483  35.018  28.948  1.00  0.00    -0.205 F 
ATOM     90  C   UNL A   1      43.026  35.545  28.442  1.00  0.00     0.021 A 
ATOM     91  Br  UNL A   1      44.185  36.286  27.146  1.00  0.00    -0.051 Br
ENDBRANCH  77  84
ENDBRANCH  72  74
ENDBRANCH  71  72
ENDBRANCH   1  71
TORSDOF 16
ENDMDL
