MODEL 1
REMARK VINA RESULT:     -13.1      0.000      0.000
REMARK SMILES Cc1cc(Cl)c(C)c2c1O[C@H](C(F)(F)F)C(C(=O)OCCOC(=O)c1ccc(-c3c4nc(c(-c5c(F)c(F)c(F)c(F)c5F)c5ccc([nH]5)c(-c5c(F)c(F)c(F)c(F)c5F)c5nc(c(-c6c(F)c(F)c(F)c(F)c6F)c6ccc3[nH]6)C=C5)C=C4)cc1)=C2
REMARK SMILES IDX 21 1 20 2 19 3 17 4 18 5 16 6 1 7 2 8 3 9 9 10 4 11 8 12
REMARK SMILES IDX 10 13 5 14 6 15 88 16 11 17 7 18 12 19 13 20 14 21 15 22
REMARK SMILES IDX 22 23 23 24 24 25 25 26 26 27 87 28 27 29 86 30 28 31 29 32
REMARK SMILES IDX 30 33 80 34 31 35 85 36 79 37 81 38 32 39 84 40 78 41 77 42
REMARK SMILES IDX 33 44 65 45 45 46 64 47 46 48 49 49 63 50 82 51 47 52 48 53
REMARK SMILES IDX 62 55 83 56 50 57 34 58 35 59 43 60 36 61 37 62 41 63 44 64
REMARK SMILES IDX 38 65 39 66 42 67 40 68 66 69 67 70 75 71 68 72 69 73 73 74
REMARK SMILES IDX 76 75 70 76 71 77 74 78 72 79 51 80 52 81 60 82 53 83 54 84
REMARK SMILES IDX 58 85 61 86 55 87 56 88 59 89 57 90
REMARK H PARENT 81 43 49 54
REMARK Flexibility Score: inf
ROOT
ATOM      1  C   UNL A   1      31.814  29.932  25.610  1.00  0.00     0.275 C 
ENDROOT
BRANCH   1   2
ATOM      2  C   UNL A   1      31.405  28.486  25.331  1.00  0.00     0.275 C 
BRANCH   2   3
ATOM      3  O   UNL A   1      32.478  27.569  25.641  1.00  0.00    -0.459 OA
BRANCH   3   4
ATOM      4  C   UNL A   1      33.064  26.972  24.578  1.00  0.00     0.338 C 
ATOM      5  O   UNL A   1      33.475  27.520  23.567  1.00  0.00    -0.246 OA
BRANCH   4   6
ATOM      6  C   UNL A   1      33.163  25.516  24.793  1.00  0.00     0.087 C 
ATOM      7  C   UNL A   1      32.156  20.519  24.828  1.00  0.00     0.048 C 
ATOM      8  C   UNL A   1      33.406  21.350  24.885  1.00  0.00    -0.007 A 
ATOM      9  C   UNL A   1      34.656  20.727  24.911  1.00  0.00     0.028 A 
ATOM     10  C   UNL A   1      33.343  22.749  24.923  1.00  0.00     0.131 A 
ATOM     11  C   UNL A   1      35.833  21.478  24.967  1.00  0.00     0.045 A 
ATOM     12  C   UNL A   1      34.518  23.517  24.952  1.00  0.00     0.022 A 
ATOM     13  O   UNL A   1      32.084  23.291  24.957  1.00  0.00    -0.475 OA
ATOM     14  Cl  UNL A   1      37.317  20.587  24.997  1.00  0.00    -0.084 Cl
ATOM     15  C   UNL A   1      35.790  22.883  24.986  1.00  0.00    -0.021 A 
ATOM     16  C   UNL A   1      34.379  24.972  24.908  1.00  0.00     0.027 C 
ATOM     17  C   UNL A   1      31.906  24.708  24.719  1.00  0.00     0.316 C 
ATOM     18  C   UNL A   1      37.057  23.702  25.049  1.00  0.00     0.047 C 
BRANCH  17  19
ATOM     19  C   UNL A   1      31.186  24.904  23.375  1.00  0.00     0.430 C 
ATOM     20  F   UNL A   1      30.319  23.894  23.127  1.00  0.00    -0.167 F 
ATOM     21  F   UNL A   1      30.461  26.048  23.363  1.00  0.00    -0.167 F 
ATOM     22  F   UNL A   1      32.052  24.963  22.338  1.00  0.00    -0.167 F 
ENDBRANCH  17  19
ENDBRANCH   4   6
ENDBRANCH   3   4
ENDBRANCH   2   3
ENDBRANCH   1   2
BRANCH   1  23
ATOM     23  O   UNL A   1      32.329  30.052  26.949  1.00  0.00    -0.458 OA
BRANCH  23  24
ATOM     24  C   UNL A   1      32.971  31.209  27.220  1.00  0.00     0.338 C 
ATOM     25  O   UNL A   1      32.499  32.333  27.251  1.00  0.00    -0.246 OA
BRANCH  24  26
ATOM     26  C   UNL A   1      34.370  30.940  27.583  1.00  0.00     0.060 A 
ATOM     27  C   UNL A   1      34.764  29.623  27.780  1.00  0.00     0.016 A 
ATOM     28  C   UNL A   1      35.224  31.981  27.942  1.00  0.00     0.016 A 
ATOM     29  C   UNL A   1      35.926  29.345  28.491  1.00  0.00     0.010 A 
ATOM     30  C   UNL A   1      36.465  31.687  28.525  1.00  0.00     0.010 A 
ATOM     31  C   UNL A   1      36.807  30.367  28.872  1.00  0.00    -0.014 A 
BRANCH  31  32
ATOM     32  C   UNL A   1      38.031  30.056  29.675  1.00  0.00     0.031 A 
ATOM     33  C   UNL A   1      39.143  29.222  29.080  1.00  0.00     0.074 A 
ATOM     34  C   UNL A   1      38.192  30.551  30.921  1.00  0.00     0.049 A 
ATOM     35  N   UNL A   1      40.169  28.662  29.672  1.00  0.00    -0.248 NA
ATOM     36  C   UNL A   1      39.089  28.973  27.630  1.00  0.00     0.031 C 
ATOM     37  C   UNL A   1      37.253  31.435  31.614  1.00  0.00     0.029 A 
ATOM     38  N   UNL A   1      39.219  30.400  31.824  1.00  0.00    -0.354 N 
ATOM     39  C   UNL A   1      40.835  27.941  28.686  1.00  0.00     0.074 A 
ATOM     40  C   UNL A   1      40.098  28.131  27.456  1.00  0.00     0.031 C 
ATOM     41  C   UNL A   1      37.777  31.809  32.788  1.00  0.00     0.029 A 
ATOM     42  C   UNL A   1      39.022  31.082  33.002  1.00  0.00     0.049 A 
ATOM     43  H   UNL A   1      40.018  29.855  31.645  1.00  0.00     0.167 HD
ATOM     44  C   UNL A   1      41.957  27.189  28.800  1.00  0.00     0.037 A 
ATOM     45  C   UNL A   1      39.721  31.082  34.153  1.00  0.00     0.037 A 
ATOM     46  C   UNL A   1      42.731  27.067  30.009  1.00  0.00     0.049 A 
ATOM     47  C   UNL A   1      40.924  30.193  34.277  1.00  0.00     0.074 A 
ATOM     48  C   UNL A   1      43.883  26.329  30.224  1.00  0.00     0.029 A 
ATOM     49  N   UNL A   1      42.450  27.721  31.199  1.00  0.00    -0.354 N 
ATOM     50  N   UNL A   1      41.482  29.428  33.373  1.00  0.00    -0.248 NA
ATOM     51  C   UNL A   1      41.575  30.140  35.593  1.00  0.00     0.031 C 
ATOM     52  C   UNL A   1      44.275  26.504  31.554  1.00  0.00     0.029 A 
ATOM     53  C   UNL A   1      43.398  27.391  32.155  1.00  0.00     0.049 A 
ATOM     54  H   UNL A   1      41.689  28.330  31.343  1.00  0.00     0.167 HD
ATOM     55  C   UNL A   1      42.550  28.808  34.004  1.00  0.00     0.074 A 
ATOM     56  C   UNL A   1      42.581  29.306  35.363  1.00  0.00     0.031 C 
ATOM     57  C   UNL A   1      43.420  27.898  33.503  1.00  0.00     0.037 A 
BRANCH  44  58
ATOM     58  C   UNL A   1      42.416  26.411  27.599  1.00  0.00     0.064 A 
ATOM     59  C   UNL A   1      43.414  26.888  26.738  1.00  0.00     0.173 A 
ATOM     60  C   UNL A   1      41.902  25.126  27.356  1.00  0.00     0.173 A 
ATOM     61  F   UNL A   1      43.931  28.113  26.917  1.00  0.00    -0.203 F 
ATOM     62  C   UNL A   1      43.869  26.116  25.670  1.00  0.00     0.198 A 
ATOM     63  C   UNL A   1      42.381  24.344  26.309  1.00  0.00     0.198 A 
ATOM     64  F   UNL A   1      40.951  24.617  28.154  1.00  0.00    -0.203 F 
ATOM     65  F   UNL A   1      44.800  26.605  24.840  1.00  0.00    -0.200 F 
ATOM     66  C   UNL A   1      43.362  24.841  25.464  1.00  0.00     0.200 A 
ATOM     67  F   UNL A   1      41.901  23.107  26.122  1.00  0.00    -0.200 F 
ATOM     68  F   UNL A   1      43.818  24.092  24.450  1.00  0.00    -0.200 F 
ENDBRANCH  44  58
BRANCH  45  69
ATOM     69  C   UNL A   1      39.257  31.911  35.299  1.00  0.00     0.064 A 
ATOM     70  C   UNL A   1      39.594  33.268  35.390  1.00  0.00     0.173 A 
ATOM     71  C   UNL A   1      38.446  31.374  36.312  1.00  0.00     0.173 A 
ATOM     72  F   UNL A   1      40.392  33.823  34.466  1.00  0.00    -0.203 F 
ATOM     73  C   UNL A   1      39.135  34.056  36.445  1.00  0.00     0.198 A 
ATOM     74  C   UNL A   1      37.957  32.170  37.345  1.00  0.00     0.198 A 
ATOM     75  F   UNL A   1      38.099  30.079  36.279  1.00  0.00    -0.203 F 
ATOM     76  F   UNL A   1      39.500  35.342  36.525  1.00  0.00    -0.200 F 
ATOM     77  C   UNL A   1      38.306  33.509  37.412  1.00  0.00     0.200 A 
ATOM     78  F   UNL A   1      37.141  31.641  38.266  1.00  0.00    -0.200 F 
ATOM     79  F   UNL A   1      37.846  34.273  38.413  1.00  0.00    -0.200 F 
ENDBRANCH  45  69
BRANCH  57  80
ATOM     80  C   UNL A   1      44.495  27.393  34.420  1.00  0.00     0.064 A 
ATOM     81  C   UNL A   1      44.325  26.221  35.173  1.00  0.00     0.173 A 
ATOM     82  C   UNL A   1      45.728  28.056  34.504  1.00  0.00     0.173 A 
ATOM     83  F   UNL A   1      43.158  25.560  35.138  1.00  0.00    -0.203 F 
ATOM     84  C   UNL A   1      45.345  25.743  35.989  1.00  0.00     0.198 A 
ATOM     85  C   UNL A   1      46.756  27.557  35.299  1.00  0.00     0.198 A 
ATOM     86  F   UNL A   1      45.943  29.176  33.799  1.00  0.00    -0.203 F 
ATOM     87  F   UNL A   1      45.147  24.644  36.731  1.00  0.00    -0.200 F 
ATOM     88  C   UNL A   1      46.562  26.405  36.045  1.00  0.00     0.200 A 
ATOM     89  F   UNL A   1      47.937  28.190  35.339  1.00  0.00    -0.200 F 
ATOM     90  F   UNL A   1      47.548  25.934  36.821  1.00  0.00    -0.200 F 
ENDBRANCH  57  80
ENDBRANCH  31  32
ENDBRANCH  24  26
ENDBRANCH  23  24
ENDBRANCH   1  23
TORSDOF 12
ENDMDL
MODEL 2
REMARK VINA RESULT:     -13.0      0.190      1.658
REMARK SMILES Cc1cc(Cl)c(C)c2c1O[C@H](C(F)(F)F)C(C(=O)OCCOC(=O)c1ccc(-c3c4nc(c(-c5c(F)c(F)c(F)c(F)c5F)c5ccc([nH]5)c(-c5c(F)c(F)c(F)c(F)c5F)c5nc(c(-c6c(F)c(F)c(F)c(F)c6F)c6ccc3[nH]6)C=C5)C=C4)cc1)=C2
REMARK SMILES IDX 21 1 20 2 19 3 17 4 18 5 16 6 1 7 2 8 3 9 9 10 4 11 8 12
REMARK SMILES IDX 10 13 5 14 6 15 88 16 11 17 7 18 12 19 13 20 14 21 15 22
REMARK SMILES IDX 22 23 23 24 24 25 25 26 26 27 87 28 27 29 86 30 28 31 29 32
REMARK SMILES IDX 30 33 80 34 31 35 85 36 79 37 81 38 32 39 84 40 78 41 77 42
REMARK SMILES IDX 33 44 65 45 45 46 64 47 46 48 49 49 63 50 82 51 47 52 48 53
REMARK SMILES IDX 62 55 83 56 50 57 34 58 35 59 43 60 36 61 37 62 41 63 44 64
REMARK SMILES IDX 38 65 39 66 42 67 40 68 66 69 67 70 75 71 68 72 69 73 73 74
REMARK SMILES IDX 76 75 70 76 71 77 74 78 72 79 51 80 52 81 60 82 53 83 54 84
REMARK SMILES IDX 58 85 61 86 55 87 56 88 59 89 57 90
REMARK H PARENT 81 43 49 54
REMARK Flexibility Score: inf
ROOT
ATOM      1  C   UNL A   1      31.790  29.966  25.454  1.00  0.00     0.275 C 
ENDROOT
BRANCH   1   2
ATOM      2  C   UNL A   1      31.388  28.538  25.085  1.00  0.00     0.275 C 
BRANCH   2   3
ATOM      3  O   UNL A   1      32.382  27.585  25.524  1.00  0.00    -0.459 OA
BRANCH   3   4
ATOM      4  C   UNL A   1      33.098  26.991  24.542  1.00  0.00     0.338 C 
ATOM      5  O   UNL A   1      33.613  27.539  23.580  1.00  0.00    -0.246 OA
BRANCH   4   6
ATOM      6  C   UNL A   1      33.197  25.538  24.781  1.00  0.00     0.087 C 
ATOM      7  C   UNL A   1      32.173  20.548  24.943  1.00  0.00     0.048 C 
ATOM      8  C   UNL A   1      33.427  21.375  24.945  1.00  0.00    -0.007 A 
ATOM      9  C   UNL A   1      34.675  20.746  24.943  1.00  0.00     0.028 A 
ATOM     10  C   UNL A   1      33.371  22.774  24.958  1.00  0.00     0.131 A 
ATOM     11  C   UNL A   1      35.856  21.493  24.947  1.00  0.00     0.045 A 
ATOM     12  C   UNL A   1      34.550  23.537  24.936  1.00  0.00     0.022 A 
ATOM     13  O   UNL A   1      32.116  23.322  25.022  1.00  0.00    -0.475 OA
ATOM     14  Cl  UNL A   1      37.337  20.596  24.948  1.00  0.00    -0.084 Cl
ATOM     15  C   UNL A   1      35.819  22.898  24.942  1.00  0.00    -0.021 A 
ATOM     16  C   UNL A   1      34.415  24.991  24.868  1.00  0.00     0.027 C 
ATOM     17  C   UNL A   1      31.936  24.735  24.763  1.00  0.00     0.316 C 
ATOM     18  C   UNL A   1      37.091  23.713  24.949  1.00  0.00     0.047 C 
BRANCH  17  19
ATOM     19  C   UNL A   1      31.175  24.909  23.438  1.00  0.00     0.430 C 
ATOM     20  F   UNL A   1      30.346  25.979  23.481  1.00  0.00    -0.167 F 
ATOM     21  F   UNL A   1      32.023  25.118  22.403  1.00  0.00    -0.167 F 
ATOM     22  F   UNL A   1      30.426  23.825  23.135  1.00  0.00    -0.167 F 
ENDBRANCH  17  19
ENDBRANCH   4   6
ENDBRANCH   3   4
ENDBRANCH   2   3
ENDBRANCH   1   2
BRANCH   1  23
ATOM     23  O   UNL A   1      32.353  29.996  26.779  1.00  0.00    -0.458 OA
BRANCH  23  24
ATOM     24  C   UNL A   1      32.927  31.165  27.138  1.00  0.00     0.338 C 
ATOM     25  O   UNL A   1      32.394  32.258  27.232  1.00  0.00    -0.246 OA
BRANCH  24  26
ATOM     26  C   UNL A   1      34.332  30.947  27.511  1.00  0.00     0.060 A 
ATOM     27  C   UNL A   1      34.784  29.643  27.665  1.00  0.00     0.016 A 
ATOM     28  C   UNL A   1      35.132  32.011  27.921  1.00  0.00     0.016 A 
ATOM     29  C   UNL A   1      35.949  29.392  28.382  1.00  0.00     0.010 A 
ATOM     30  C   UNL A   1      36.377  31.753  28.511  1.00  0.00     0.010 A 
ATOM     31  C   UNL A   1      36.776  30.438  28.813  1.00  0.00    -0.014 A 
BRANCH  31  32
ATOM     32  C   UNL A   1      38.003  30.153  29.623  1.00  0.00     0.031 A 
ATOM     33  C   UNL A   1      39.130  29.333  29.036  1.00  0.00     0.074 A 
ATOM     34  C   UNL A   1      38.152  30.660  30.865  1.00  0.00     0.049 A 
ATOM     35  N   UNL A   1      40.164  28.795  29.636  1.00  0.00    -0.248 NA
ATOM     36  C   UNL A   1      39.084  29.073  27.588  1.00  0.00     0.031 C 
ATOM     37  C   UNL A   1      37.197  31.534  31.548  1.00  0.00     0.029 A 
ATOM     38  N   UNL A   1      39.179  30.533  31.772  1.00  0.00    -0.354 N 
ATOM     39  C   UNL A   1      40.844  28.077  28.657  1.00  0.00     0.074 A 
ATOM     40  C   UNL A   1      40.108  28.247  27.423  1.00  0.00     0.031 C 
ATOM     41  C   UNL A   1      37.711  31.925  32.721  1.00  0.00     0.029 A 
ATOM     42  C   UNL A   1      38.967  31.220  32.944  1.00  0.00     0.049 A 
ATOM     43  H   UNL A   1      39.987  30.000  31.599  1.00  0.00     0.167 HD
ATOM     44  C   UNL A   1      41.978  27.346  28.780  1.00  0.00     0.037 A 
ATOM     45  C   UNL A   1      39.662  31.241  34.097  1.00  0.00     0.037 A 
ATOM     46  C   UNL A   1      42.751  27.245  29.992  1.00  0.00     0.049 A 
ATOM     47  C   UNL A   1      40.880  30.373  34.231  1.00  0.00     0.074 A 
ATOM     48  C   UNL A   1      43.915  26.528  30.216  1.00  0.00     0.029 A 
ATOM     49  N   UNL A   1      42.455  27.904  31.176  1.00  0.00    -0.354 N 
ATOM     50  N   UNL A   1      41.453  29.611  33.334  1.00  0.00    -0.248 NA
ATOM     51  C   UNL A   1      41.528  30.341  35.549  1.00  0.00     0.031 C 
ATOM     52  C   UNL A   1      44.299  26.719  31.546  1.00  0.00     0.029 A 
ATOM     53  C   UNL A   1      43.407  27.596  32.137  1.00  0.00     0.049 A 
ATOM     54  H   UNL A   1      41.684  28.501  31.313  1.00  0.00     0.167 HD
ATOM     55  C   UNL A   1      42.530  29.013  33.973  1.00  0.00     0.074 A 
ATOM     56  C   UNL A   1      42.548  29.522  35.328  1.00  0.00     0.031 C 
ATOM     57  C   UNL A   1      43.416  28.114  33.481  1.00  0.00     0.037 A 
BRANCH  44  58
ATOM     58  C   UNL A   1      42.454  26.566  27.586  1.00  0.00     0.064 A 
ATOM     59  C   UNL A   1      43.430  27.063  26.711  1.00  0.00     0.173 A 
ATOM     60  C   UNL A   1      41.979  25.262  27.364  1.00  0.00     0.173 A 
ATOM     61  F   UNL A   1      43.909  28.306  26.870  1.00  0.00    -0.203 F 
ATOM     62  C   UNL A   1      43.902  26.291  25.651  1.00  0.00     0.198 A 
ATOM     63  C   UNL A   1      42.476  24.482  26.323  1.00  0.00     0.198 A 
ATOM     64  F   UNL A   1      41.050  24.734  28.176  1.00  0.00    -0.203 F 
ATOM     65  F   UNL A   1      44.811  26.799  24.807  1.00  0.00    -0.200 F 
ATOM     66  C   UNL A   1      43.434  24.998  25.465  1.00  0.00     0.200 A 
ATOM     67  F   UNL A   1      42.034  23.228  26.157  1.00  0.00    -0.200 F 
ATOM     68  F   UNL A   1      43.907  24.250  24.458  1.00  0.00    -0.200 F 
ENDBRANCH  44  58
BRANCH  45  69
ATOM     69  C   UNL A   1      39.181  32.071  35.235  1.00  0.00     0.064 A 
ATOM     70  C   UNL A   1      38.425  31.506  36.270  1.00  0.00     0.173 A 
ATOM     71  C   UNL A   1      39.489  33.438  35.328  1.00  0.00     0.173 A 
ATOM     72  F   UNL A   1      38.076  30.212  36.215  1.00  0.00    -0.203 F 
ATOM     73  C   UNL A   1      37.999  32.273  37.354  1.00  0.00     0.198 A 
ATOM     74  C   UNL A   1      39.096  34.195  36.429  1.00  0.00     0.198 A 
ATOM     75  F   UNL A   1      40.204  34.033  34.361  1.00  0.00    -0.203 F 
ATOM     76  F   UNL A   1      37.248  31.715  38.312  1.00  0.00    -0.200 F 
ATOM     77  C   UNL A   1      38.347  33.612  37.439  1.00  0.00     0.200 A 
ATOM     78  F   UNL A   1      39.452  35.483  36.514  1.00  0.00    -0.200 F 
ATOM     79  F   UNL A   1      37.958  34.343  38.492  1.00  0.00    -0.200 F 
ENDBRANCH  45  69
BRANCH  57  80
ATOM     80  C   UNL A   1      44.497  27.634  34.405  1.00  0.00     0.064 A 
ATOM     81  C   UNL A   1      45.696  28.344  34.559  1.00  0.00     0.173 A 
ATOM     82  C   UNL A   1      44.308  26.483  35.184  1.00  0.00     0.173 A 
ATOM     83  F   UNL A   1      45.930  29.442  33.825  1.00  0.00    -0.203 F 
ATOM     84  C   UNL A   1      46.674  27.910  35.449  1.00  0.00     0.198 A 
ATOM     85  C   UNL A   1      45.276  26.068  36.094  1.00  0.00     0.198 A 
ATOM     86  F   UNL A   1      43.176  25.772  35.078  1.00  0.00    -0.203 F 
ATOM     87  F   UNL A   1      47.830  28.581  35.552  1.00  0.00    -0.200 F 
ATOM     88  C   UNL A   1      46.460  26.778  36.221  1.00  0.00     0.200 A 
ATOM     89  F   UNL A   1      45.061  24.984  36.851  1.00  0.00    -0.200 F 
ATOM     90  F   UNL A   1      47.399  26.369  37.087  1.00  0.00    -0.200 F 
ENDBRANCH  57  80
ENDBRANCH  31  32
ENDBRANCH  24  26
ENDBRANCH  23  24
ENDBRANCH   1  23
TORSDOF 12
ENDMDL
MODEL 3
REMARK VINA RESULT:     -13.0      4.338      9.632
REMARK SMILES Cc1cc(Cl)c(C)c2c1O[C@H](C(F)(F)F)C(C(=O)OCCOC(=O)c1ccc(-c3c4nc(c(-c5c(F)c(F)c(F)c(F)c5F)c5ccc([nH]5)c(-c5c(F)c(F)c(F)c(F)c5F)c5nc(c(-c6c(F)c(F)c(F)c(F)c6F)c6ccc3[nH]6)C=C5)C=C4)cc1)=C2
REMARK SMILES IDX 21 1 20 2 19 3 17 4 18 5 16 6 1 7 2 8 3 9 9 10 4 11 8 12
REMARK SMILES IDX 10 13 5 14 6 15 88 16 11 17 7 18 12 19 13 20 14 21 15 22
REMARK SMILES IDX 22 23 23 24 24 25 25 26 26 27 87 28 27 29 86 30 28 31 29 32
REMARK SMILES IDX 30 33 80 34 31 35 85 36 79 37 81 38 32 39 84 40 78 41 77 42
REMARK SMILES IDX 33 44 65 45 45 46 64 47 46 48 49 49 63 50 82 51 47 52 48 53
REMARK SMILES IDX 62 55 83 56 50 57 34 58 35 59 43 60 36 61 37 62 41 63 44 64
REMARK SMILES IDX 38 65 39 66 42 67 40 68 66 69 67 70 75 71 68 72 69 73 73 74
REMARK SMILES IDX 76 75 70 76 71 77 74 78 72 79 51 80 52 81 60 82 53 83 54 84
REMARK SMILES IDX 58 85 61 86 55 87 56 88 59 89 57 90
REMARK H PARENT 81 43 49 54
REMARK Flexibility Score: inf
ROOT
ATOM      1  C   UNL A   1      36.608  20.491  25.001  1.00  0.00     0.275 C 
ENDROOT
BRANCH   1   2
ATOM      2  C   UNL A   1      35.198  21.073  25.097  1.00  0.00     0.275 C 
BRANCH   2   3
ATOM      3  O   UNL A   1      35.223  22.517  25.053  1.00  0.00    -0.459 OA
BRANCH   3   4
ATOM      4  C   UNL A   1      34.603  23.146  26.077  1.00  0.00     0.338 C 
ATOM      5  O   UNL A   1      34.783  22.952  27.270  1.00  0.00    -0.246 OA
BRANCH   4   6
ATOM      6  C   UNL A   1      33.645  24.145  25.567  1.00  0.00     0.087 C 
ATOM      7  C   UNL A   1      29.400  26.403  23.875  1.00  0.00     0.048 C 
ATOM      8  C   UNL A   1      30.657  26.875  24.548  1.00  0.00    -0.007 A 
ATOM      9  C   UNL A   1      30.802  28.224  24.885  1.00  0.00     0.028 A 
ATOM     10  C   UNL A   1      31.700  25.985  24.837  1.00  0.00     0.131 A 
ATOM     11  C   UNL A   1      31.963  28.688  25.508  1.00  0.00     0.045 A 
ATOM     12  C   UNL A   1      32.862  26.434  25.488  1.00  0.00     0.022 A 
ATOM     13  O   UNL A   1      31.516  24.692  24.424  1.00  0.00    -0.475 OA
ATOM     14  Cl  UNL A   1      32.021  30.379  25.871  1.00  0.00    -0.084 Cl
ATOM     15  C   UNL A   1      33.012  27.807  25.824  1.00  0.00    -0.021 A 
ATOM     16  C   UNL A   1      33.874  25.437  25.831  1.00  0.00     0.027 C 
ATOM     17  C   UNL A   1      32.395  23.650  24.912  1.00  0.00     0.316 C 
ATOM     18  C   UNL A   1      34.271  28.301  26.495  1.00  0.00     0.047 C 
BRANCH  17  19
ATOM     19  C   UNL A   1      31.601  22.719  25.842  1.00  0.00     0.430 C 
ATOM     20  F   UNL A   1      31.715  23.099  27.137  1.00  0.00    -0.167 F 
ATOM     21  F   UNL A   1      30.278  22.737  25.550  1.00  0.00    -0.167 F 
ATOM     22  F   UNL A   1      32.017  21.436  25.755  1.00  0.00    -0.167 F 
ENDBRANCH  17  19
ENDBRANCH   4   6
ENDBRANCH   3   4
ENDBRANCH   2   3
ENDBRANCH   1   2
BRANCH   1  23
ATOM     23  O   UNL A   1      37.586  21.545  25.086  1.00  0.00    -0.458 OA
BRANCH  23  24
ATOM     24  C   UNL A   1      38.714  21.234  25.760  1.00  0.00     0.338 C 
ATOM     25  O   UNL A   1      39.318  20.174  25.751  1.00  0.00    -0.246 OA
BRANCH  24  26
ATOM     26  C   UNL A   1      39.215  22.412  26.482  1.00  0.00     0.060 A 
ATOM     27  C   UNL A   1      38.675  23.655  26.182  1.00  0.00     0.016 A 
ATOM     28  C   UNL A   1      40.353  22.325  27.281  1.00  0.00     0.016 A 
ATOM     29  C   UNL A   1      39.362  24.813  26.527  1.00  0.00     0.010 A 
ATOM     30  C   UNL A   1      40.959  23.499  27.751  1.00  0.00     0.010 A 
ATOM     31  C   UNL A   1      40.513  24.764  27.326  1.00  0.00    -0.014 A 
BRANCH  31  32
ATOM     32  C   UNL A   1      41.267  26.015  27.652  1.00  0.00     0.031 A 
ATOM     33  C   UNL A   1      40.640  27.078  28.526  1.00  0.00     0.074 A 
ATOM     34  C   UNL A   1      42.532  26.200  27.219  1.00  0.00     0.049 A 
ATOM     35  N   UNL A   1      41.029  28.311  28.742  1.00  0.00    -0.248 NA
ATOM     36  C   UNL A   1      39.407  26.713  29.241  1.00  0.00     0.031 C 
ATOM     37  C   UNL A   1      43.312  25.242  26.433  1.00  0.00     0.029 A 
ATOM     38  N   UNL A   1      43.401  27.252  27.397  1.00  0.00    -0.354 N 
ATOM     39  C   UNL A   1      40.055  28.884  29.553  1.00  0.00     0.074 A 
ATOM     40  C   UNL A   1      39.055  27.866  29.793  1.00  0.00     0.031 C 
ATOM     41  C   UNL A   1      44.556  25.709  26.267  1.00  0.00     0.029 A 
ATOM     42  C   UNL A   1      44.627  27.061  26.805  1.00  0.00     0.049 A 
ATOM     43  H   UNL A   1      43.166  28.065  27.900  1.00  0.00     0.167 HD
ATOM     44  C   UNL A   1      40.002  30.143  30.052  1.00  0.00     0.037 A 
ATOM     45  C   UNL A   1      45.676  27.892  26.651  1.00  0.00     0.037 A 
ATOM     46  C   UNL A   1      41.040  31.128  29.877  1.00  0.00     0.049 A 
ATOM     47  C   UNL A   1      45.570  29.303  27.156  1.00  0.00     0.074 A 
ATOM     48  C   UNL A   1      41.079  32.431  30.343  1.00  0.00     0.029 A 
ATOM     49  N   UNL A   1      42.234  30.909  29.206  1.00  0.00    -0.354 N 
ATOM     50  N   UNL A   1      44.598  29.869  27.825  1.00  0.00    -0.248 NA
ATOM     51  C   UNL A   1      46.693  30.200  26.852  1.00  0.00     0.031 C 
ATOM     52  C   UNL A   1      42.277  33.013  29.919  1.00  0.00     0.029 A 
ATOM     53  C   UNL A   1      43.008  32.059  29.234  1.00  0.00     0.049 A 
ATOM     54  H   UNL A   1      42.493  30.063  28.774  1.00  0.00     0.167 HD
ATOM     55  C   UNL A   1      44.991  31.184  28.029  1.00  0.00     0.074 A 
ATOM     56  C   UNL A   1      46.303  31.326  27.435  1.00  0.00     0.031 C 
ATOM     57  C   UNL A   1      44.316  32.186  28.643  1.00  0.00     0.037 A 
BRANCH  44  58
ATOM     58  C   UNL A   1      38.776  30.555  30.817  1.00  0.00     0.064 A 
ATOM     59  C   UNL A   1      38.710  30.485  32.215  1.00  0.00     0.173 A 
ATOM     60  C   UNL A   1      37.676  31.105  30.137  1.00  0.00     0.173 A 
ATOM     61  F   UNL A   1      39.727  29.957  32.913  1.00  0.00    -0.203 F 
ATOM     62  C   UNL A   1      37.586  30.937  32.904  1.00  0.00     0.198 A 
ATOM     63  C   UNL A   1      36.568  31.585  30.829  1.00  0.00     0.198 A 
ATOM     64  F   UNL A   1      37.689  31.203  28.799  1.00  0.00    -0.203 F 
ATOM     65  F   UNL A   1      37.531  30.830  34.238  1.00  0.00    -0.200 F 
ATOM     66  C   UNL A   1      36.522  31.497  32.212  1.00  0.00     0.200 A 
ATOM     67  F   UNL A   1      35.549  32.142  30.159  1.00  0.00    -0.200 F 
ATOM     68  F   UNL A   1      35.451  31.952  32.878  1.00  0.00    -0.200 F 
ENDBRANCH  44  58
BRANCH  45  69
ATOM     69  C   UNL A   1      46.892  27.422  25.933  1.00  0.00     0.064 A 
ATOM     70  C   UNL A   1      47.036  27.623  24.554  1.00  0.00     0.173 A 
ATOM     71  C   UNL A   1      47.945  26.788  26.611  1.00  0.00     0.173 A 
ATOM     72  F   UNL A   1      46.046  28.195  23.853  1.00  0.00    -0.203 F 
ATOM     73  C   UNL A   1      48.188  27.213  23.883  1.00  0.00     0.198 A 
ATOM     74  C   UNL A   1      49.110  26.413  25.947  1.00  0.00     0.198 A 
ATOM     75  F   UNL A   1      47.856  26.564  27.930  1.00  0.00    -0.203 F 
ATOM     76  F   UNL A   1      48.285  27.386  22.558  1.00  0.00    -0.200 F 
ATOM     77  C   UNL A   1      49.228  26.622  24.582  1.00  0.00     0.200 A 
ATOM     78  F   UNL A   1      50.120  25.859  26.632  1.00  0.00    -0.200 F 
ATOM     79  F   UNL A   1      50.344  26.249  23.940  1.00  0.00    -0.200 F 
ENDBRANCH  45  69
BRANCH  57  80
ATOM     80  C   UNL A   1      44.991  33.523  28.726  1.00  0.00     0.064 A 
ATOM     81  C   UNL A   1      45.878  33.831  29.768  1.00  0.00     0.173 A 
ATOM     82  C   UNL A   1      44.792  34.484  27.724  1.00  0.00     0.173 A 
ATOM     83  F   UNL A   1      46.090  32.951  30.758  1.00  0.00    -0.203 F 
ATOM     84  C   UNL A   1      46.529  35.061  29.812  1.00  0.00     0.198 A 
ATOM     85  C   UNL A   1      45.467  35.701  27.757  1.00  0.00     0.198 A 
ATOM     86  F   UNL A   1      43.959  34.235  26.704  1.00  0.00    -0.203 F 
ATOM     87  F   UNL A   1      47.341  35.351  30.838  1.00  0.00    -0.200 F 
ATOM     88  C   UNL A   1      46.329  35.991  28.802  1.00  0.00     0.200 A 
ATOM     89  F   UNL A   1      45.286  36.592  26.772  1.00  0.00    -0.200 F 
ATOM     90  F   UNL A   1      46.967  37.169  28.840  1.00  0.00    -0.200 F 
ENDBRANCH  57  80
ENDBRANCH  31  32
ENDBRANCH  24  26
ENDBRANCH  23  24
ENDBRANCH   1  23
TORSDOF 12
ENDMDL
