MODEL 1
REMARK VINA RESULT:     -11.4      0.000      0.000
REMARK SMILES Cn1cc(S[C@@H]2CCC[C@]([NH2+]C3CC3)(C(=O)OCCOC(=O)c3ccc(-c4c5nc(c(-c6c(F)c(F)c(F)c(F)c6F)c6ccc([nH]6)c(-c6c(F)c(F)c(F)c(F)c6F)c6nc(c(-c7c(F)c(F)c(F)c(F)c7F)c7ccc4[nH]7)C=C6)C=C5)cc3)C2)cn1
REMARK SMILES IDX 18 1 17 2 15 3 16 4 10 5 6 6 7 7 86 8 8 9 9 10 5 11 4 12
REMARK SMILES IDX 1 13 2 14 3 15 88 16 87 17 11 18 12 21 13 22 14 23 19 24
REMARK SMILES IDX 20 25 21 26 22 27 23 28 24 29 85 30 25 31 84 32 26 33 27 34
REMARK SMILES IDX 28 35 78 36 29 37 83 38 77 39 79 40 30 41 82 42 76 43 75 44
REMARK SMILES IDX 31 46 63 47 43 48 62 49 44 50 47 51 61 52 80 53 45 54 46 55
REMARK SMILES IDX 60 57 81 58 48 59 32 60 33 61 41 62 34 63 35 64 39 65 42 66
REMARK SMILES IDX 36 67 37 68 40 69 38 70 64 71 65 72 73 73 66 74 67 75 71 76
REMARK SMILES IDX 74 77 68 78 69 79 72 80 70 81 49 82 50 83 58 84 51 85 52 86
REMARK SMILES IDX 56 87 59 88 53 89 54 90 57 91 55 92
REMARK H PARENT 11 19 11 20 79 45 47 56
REMARK Flexibility Score: inf
ROOT
ATOM      1  C   UNL A   1      31.393  31.664  26.662  1.00  0.00     0.274 C 
ENDROOT
BRANCH   1   2
ATOM      2  O   UNL A   1      32.299  30.773  25.976  1.00  0.00    -0.457 OA
BRANCH   2   3
ATOM      3  C   UNL A   1      31.917  29.465  25.969  1.00  0.00     0.368 C 
ATOM      4  O   UNL A   1      31.448  28.888  26.949  1.00  0.00    -0.245 OA
BRANCH   3   5
ATOM      5  C   UNL A   1      32.065  28.771  24.563  1.00  0.00     0.195 C 
ATOM      6  C   UNL A   1      31.774  26.479  23.444  1.00  0.00     0.058 C 
ATOM      7  C   UNL A   1      33.260  26.425  23.070  1.00  0.00     0.015 C 
ATOM      8  C   UNL A   1      31.462  27.355  24.661  1.00  0.00     0.096 C 
ATOM      9  C   UNL A   1      33.929  27.794  23.028  1.00  0.00     0.008 C 
ATOM     10  C   UNL A   1      33.570  28.683  24.217  1.00  0.00     0.081 C 
BRANCH   6  11
ATOM     11  S   UNL A   1      30.973  24.843  23.606  1.00  0.00    -0.119 SA
BRANCH  11  12
ATOM     12  C   UNL A   1      31.424  24.187  25.151  1.00  0.00     0.046 A 
ATOM     13  C   UNL A   1      33.187  22.386  27.711  1.00  0.00     0.173 C 
ATOM     14  N   UNL A   1      32.332  23.194  26.874  1.00  0.00    -0.275 N 
ATOM     15  C   UNL A   1      32.587  23.611  25.597  1.00  0.00     0.123 A 
ATOM     16  N   UNL A   1      31.123  23.565  27.329  1.00  0.00    -0.181 NA
ATOM     17  C   UNL A   1      30.570  24.170  26.273  1.00  0.00     0.150 A 
ENDBRANCH  11  12
ENDBRANCH   6  11
BRANCH   5  18
ATOM     18  N   UNL A   1      31.279  29.652  23.668  1.00  0.00    -0.330 N 
ATOM     19  H   UNL A   1      31.662  29.497  22.734  1.00  0.00     0.347 HD
ATOM     20  H   UNL A   1      31.380  30.540  24.158  1.00  0.00     0.347 HD
BRANCH  18  21
ATOM     21  C   UNL A   1      29.846  29.618  23.501  1.00  0.00     0.183 C 
ATOM     22  C   UNL A   1      29.079  30.907  23.608  1.00  0.00     0.071 C 
ATOM     23  C   UNL A   1      29.274  30.270  22.266  1.00  0.00     0.071 C 
ENDBRANCH  18  21
ENDBRANCH   5  18
ENDBRANCH   3   5
ENDBRANCH   2   3
ENDBRANCH   1   2
BRANCH   1  24
ATOM     24  C   UNL A   1      31.940  33.092  26.710  1.00  0.00     0.275 C 
BRANCH  24  25
ATOM     25  O   UNL A   1      32.506  33.372  28.003  1.00  0.00    -0.458 OA
BRANCH  25  26
ATOM     26  C   UNL A   1      33.632  34.116  28.006  1.00  0.00     0.338 C 
ATOM     27  O   UNL A   1      33.741  35.306  27.752  1.00  0.00    -0.246 OA
BRANCH  26  28
ATOM     28  C   UNL A   1      34.780  33.289  28.406  1.00  0.00     0.060 A 
ATOM     29  C   UNL A   1      34.561  32.000  28.889  1.00  0.00     0.016 A 
ATOM     30  C   UNL A   1      36.057  33.848  28.454  1.00  0.00     0.016 A 
ATOM     31  C   UNL A   1      35.590  31.297  29.507  1.00  0.00     0.010 A 
ATOM     32  C   UNL A   1      37.111  33.109  29.003  1.00  0.00     0.010 A 
ATOM     33  C   UNL A   1      36.877  31.843  29.572  1.00  0.00    -0.014 A 
BRANCH  33  34
ATOM     34  C   UNL A   1      37.956  31.119  30.289  1.00  0.00     0.031 A 
ATOM     35  C   UNL A   1      38.177  31.362  31.756  1.00  0.00     0.074 A 
ATOM     36  C   UNL A   1      38.715  30.217  29.639  1.00  0.00     0.049 A 
ATOM     37  N   UNL A   1      39.144  30.939  32.531  1.00  0.00    -0.248 NA
ATOM     38  C   UNL A   1      37.179  32.197  32.445  1.00  0.00     0.031 C 
ATOM     39  C   UNL A   1      38.568  29.843  28.232  1.00  0.00     0.029 A 
ATOM     40  N   UNL A   1      39.760  29.444  30.081  1.00  0.00    -0.354 N 
ATOM     41  C   UNL A   1      38.897  31.490  33.781  1.00  0.00     0.074 A 
ATOM     42  C   UNL A   1      37.687  32.276  33.666  1.00  0.00     0.031 C 
ATOM     43  C   UNL A   1      39.469  28.894  27.933  1.00  0.00     0.029 A 
ATOM     44  C   UNL A   1      40.300  28.642  29.106  1.00  0.00     0.049 A 
ATOM     45  H   UNL A   1      40.090  29.463  31.008  1.00  0.00     0.167 HD
ATOM     46  C   UNL A   1      39.617  31.354  34.919  1.00  0.00     0.037 A 
ATOM     47  C   UNL A   1      41.367  27.822  29.144  1.00  0.00     0.037 A 
ATOM     48  C   UNL A   1      40.794  30.537  35.045  1.00  0.00     0.049 A 
ATOM     49  C   UNL A   1      42.164  27.707  30.412  1.00  0.00     0.074 A 
ATOM     50  C   UNL A   1      41.598  30.342  36.155  1.00  0.00     0.029 A 
ATOM     51  N   UNL A   1      41.325  29.761  34.026  1.00  0.00    -0.354 N 
ATOM     52  N   UNL A   1      41.961  28.286  31.569  1.00  0.00    -0.248 NA
ATOM     53  C   UNL A   1      43.350  26.842  30.372  1.00  0.00     0.031 C 
ATOM     54  C   UNL A   1      42.628  29.462  35.800  1.00  0.00     0.029 A 
ATOM     55  C   UNL A   1      42.448  29.089  34.478  1.00  0.00     0.049 A 
ATOM     56  H   UNL A   1      40.958  29.698  33.114  1.00  0.00     0.167 HD
ATOM     57  C   UNL A   1      42.989  27.856  32.396  1.00  0.00     0.074 A 
ATOM     58  C   UNL A   1      43.803  26.948  31.613  1.00  0.00     0.031 C 
ATOM     59  C   UNL A   1      43.241  28.190  33.684  1.00  0.00     0.037 A 
BRANCH  46  60
ATOM     60  C   UNL A   1      39.168  32.134  36.117  1.00  0.00     0.064 A 
ATOM     61  C   UNL A   1      38.267  31.601  37.048  1.00  0.00     0.173 A 
ATOM     62  C   UNL A   1      39.677  33.420  36.351  1.00  0.00     0.173 A 
ATOM     63  F   UNL A   1      37.740  30.383  36.856  1.00  0.00    -0.203 F 
ATOM     64  C   UNL A   1      37.877  32.337  38.165  1.00  0.00     0.198 A 
ATOM     65  C   UNL A   1      39.301  34.144  37.478  1.00  0.00     0.198 A 
ATOM     66  F   UNL A   1      40.545  33.971  35.489  1.00  0.00    -0.203 F 
ATOM     67  F   UNL A   1      36.988  31.824  39.026  1.00  0.00    -0.200 F 
ATOM     68  C   UNL A   1      38.398  33.605  38.382  1.00  0.00     0.200 A 
ATOM     69  F   UNL A   1      39.810  35.366  37.690  1.00  0.00    -0.200 F 
ATOM     70  F   UNL A   1      38.025  34.308  39.460  1.00  0.00    -0.200 F 
ENDBRANCH  46  60
BRANCH  47  71
ATOM     71  C   UNL A   1      41.761  27.070  27.926  1.00  0.00     0.064 A 
ATOM     72  C   UNL A   1      42.616  27.640  26.974  1.00  0.00     0.173 A 
ATOM     73  C   UNL A   1      41.294  25.769  27.693  1.00  0.00     0.173 A 
ATOM     74  F   UNL A   1      43.067  28.892  27.143  1.00  0.00    -0.203 F 
ATOM     75  C   UNL A   1      42.986  26.936  25.830  1.00  0.00     0.198 A 
ATOM     76  C   UNL A   1      41.684  25.057  26.561  1.00  0.00     0.198 A 
ATOM     77  F   UNL A   1      40.471  25.184  28.576  1.00  0.00    -0.203 F 
ATOM     78  F   UNL A   1      43.779  27.514  24.917  1.00  0.00    -0.200 F 
ATOM     79  C   UNL A   1      42.525  25.643  25.628  1.00  0.00     0.200 A 
ATOM     80  F   UNL A   1      41.243  23.806  26.375  1.00  0.00    -0.200 F 
ATOM     81  F   UNL A   1      42.886  24.965  24.530  1.00  0.00    -0.200 F 
ENDBRANCH  47  71
BRANCH  59  82
ATOM     82  C   UNL A   1      44.437  27.561  34.328  1.00  0.00     0.064 A 
ATOM     83  C   UNL A   1      44.328  26.364  35.050  1.00  0.00     0.173 A 
ATOM     84  C   UNL A   1      45.706  28.141  34.194  1.00  0.00     0.173 A 
ATOM     85  F   UNL A   1      43.131  25.783  35.217  1.00  0.00    -0.203 F 
ATOM     86  C   UNL A   1      45.450  25.776  35.628  1.00  0.00     0.198 A 
ATOM     87  C   UNL A   1      46.827  27.541  34.758  1.00  0.00     0.198 A 
ATOM     88  F   UNL A   1      45.857  29.285  33.511  1.00  0.00    -0.203 F 
ATOM     89  F   UNL A   1      45.321  24.648  36.342  1.00  0.00    -0.200 F 
ATOM     90  C   UNL A   1      46.699  26.362  35.478  1.00  0.00     0.200 A 
ATOM     91  F   UNL A   1      48.034  28.104  34.609  1.00  0.00    -0.200 F 
ATOM     92  F   UNL A   1      47.777  25.794  36.034  1.00  0.00    -0.200 F 
ENDBRANCH  59  82
ENDBRANCH  33  34
ENDBRANCH  26  28
ENDBRANCH  25  26
ENDBRANCH  24  25
ENDBRANCH   1  24
TORSDOF 15
ENDMDL
MODEL 2
REMARK VINA RESULT:     -11.3      1.825      7.801
REMARK SMILES Cn1cc(S[C@@H]2CCC[C@]([NH2+]C3CC3)(C(=O)OCCOC(=O)c3ccc(-c4c5nc(c(-c6c(F)c(F)c(F)c(F)c6F)c6ccc([nH]6)c(-c6c(F)c(F)c(F)c(F)c6F)c6nc(c(-c7c(F)c(F)c(F)c(F)c7F)c7ccc4[nH]7)C=C6)C=C5)cc3)C2)cn1
REMARK SMILES IDX 18 1 17 2 15 3 16 4 10 5 6 6 7 7 86 8 8 9 9 10 5 11 4 12
REMARK SMILES IDX 1 13 2 14 3 15 88 16 87 17 11 18 12 21 13 22 14 23 19 24
REMARK SMILES IDX 20 25 21 26 22 27 23 28 24 29 85 30 25 31 84 32 26 33 27 34
REMARK SMILES IDX 28 35 78 36 29 37 83 38 77 39 79 40 30 41 82 42 76 43 75 44
REMARK SMILES IDX 31 46 63 47 43 48 62 49 44 50 47 51 61 52 80 53 45 54 46 55
REMARK SMILES IDX 60 57 81 58 48 59 32 60 33 61 41 62 34 63 35 64 39 65 42 66
REMARK SMILES IDX 36 67 37 68 40 69 38 70 64 71 65 72 73 73 66 74 67 75 71 76
REMARK SMILES IDX 74 77 68 78 69 79 72 80 70 81 49 82 50 83 58 84 51 85 52 86
REMARK SMILES IDX 56 87 59 88 53 89 54 90 57 91 55 92
REMARK H PARENT 11 19 11 20 79 45 47 56
REMARK Flexibility Score: inf
ROOT
ATOM      1  C   UNL A   1      31.590  28.795  25.806  1.00  0.00     0.274 C 
ENDROOT
BRANCH   1   2
ATOM      2  O   UNL A   1      32.349  27.685  26.333  1.00  0.00    -0.457 OA
BRANCH   2   3
ATOM      3  C   UNL A   1      31.733  26.473  26.232  1.00  0.00     0.368 C 
ATOM      4  O   UNL A   1      30.603  26.246  26.663  1.00  0.00    -0.245 OA
BRANCH   3   5
ATOM      5  C   UNL A   1      32.576  25.400  25.445  1.00  0.00     0.195 C 
ATOM      6  C   UNL A   1      33.374  22.968  25.651  1.00  0.00     0.058 C 
ATOM      7  C   UNL A   1      34.843  23.404  25.635  1.00  0.00     0.015 C 
ATOM      8  C   UNL A   1      32.403  24.041  26.155  1.00  0.00     0.096 C 
ATOM      9  C   UNL A   1      35.067  24.776  25.009  1.00  0.00     0.008 C 
ATOM     10  C   UNL A   1      34.062  25.827  25.474  1.00  0.00     0.081 C 
BRANCH   6  11
ATOM     11  S   UNL A   1      33.064  21.374  26.492  1.00  0.00    -0.119 SA
BRANCH  11  12
ATOM     12  C   UNL A   1      32.875  20.160  25.264  1.00  0.00     0.046 A 
ATOM     13  C   UNL A   1      33.115  17.061  23.463  1.00  0.00     0.173 C 
ATOM     14  N   UNL A   1      32.865  18.379  23.996  1.00  0.00    -0.275 N 
ATOM     15  C   UNL A   1      33.085  18.803  25.276  1.00  0.00     0.123 A 
ATOM     16  N   UNL A   1      32.412  19.347  23.179  1.00  0.00    -0.181 NA
ATOM     17  C   UNL A   1      32.421  20.433  23.957  1.00  0.00     0.150 A 
ENDBRANCH  11  12
ENDBRANCH   6  11
BRANCH   5  18
ATOM     18  N   UNL A   1      31.960  25.408  24.098  1.00  0.00    -0.330 N 
ATOM     19  H   UNL A   1      30.958  25.516  24.261  1.00  0.00     0.347 HD
ATOM     20  H   UNL A   1      32.361  24.553  23.713  1.00  0.00     0.347 HD
BRANCH  18  21
ATOM     21  C   UNL A   1      32.273  26.333  23.035  1.00  0.00     0.183 C 
ATOM     22  C   UNL A   1      31.851  25.989  21.634  1.00  0.00     0.071 C 
ATOM     23  C   UNL A   1      31.123  27.061  22.384  1.00  0.00     0.071 C 
ENDBRANCH  18  21
ENDBRANCH   5  18
ENDBRANCH   3   5
ENDBRANCH   2   3
ENDBRANCH   1   2
BRANCH   1  24
ATOM     24  C   UNL A   1      31.786  30.057  26.647  1.00  0.00     0.275 C 
BRANCH  24  25
ATOM     25  O   UNL A   1      33.023  30.706  26.300  1.00  0.00    -0.458 OA
BRANCH  25  26
ATOM     26  C   UNL A   1      33.472  31.627  27.179  1.00  0.00     0.338 C 
ATOM     27  O   UNL A   1      32.899  32.636  27.562  1.00  0.00    -0.246 OA
BRANCH  26  28
ATOM     28  C   UNL A   1      34.798  31.239  27.682  1.00  0.00     0.060 A 
ATOM     29  C   UNL A   1      35.029  29.914  28.051  1.00  0.00     0.016 A 
ATOM     30  C   UNL A   1      35.759  32.216  27.940  1.00  0.00     0.016 A 
ATOM     31  C   UNL A   1      36.176  29.573  28.760  1.00  0.00     0.010 A 
ATOM     32  C   UNL A   1      36.949  31.858  28.583  1.00  0.00     0.010 A 
ATOM     33  C   UNL A   1      37.149  30.541  29.035  1.00  0.00    -0.014 A 
BRANCH  33  34
ATOM     34  C   UNL A   1      38.340  30.188  29.848  1.00  0.00     0.031 A 
ATOM     35  C   UNL A   1      39.410  29.304  29.269  1.00  0.00     0.074 A 
ATOM     36  C   UNL A   1      38.484  30.686  31.091  1.00  0.00     0.049 A 
ATOM     37  N   UNL A   1      40.453  28.771  29.854  1.00  0.00    -0.248 NA
ATOM     38  C   UNL A   1      39.290  28.974  27.839  1.00  0.00     0.031 C 
ATOM     39  C   UNL A   1      37.551  31.600  31.750  1.00  0.00     0.029 A 
ATOM     40  N   UNL A   1      39.477  30.496  32.019  1.00  0.00    -0.354 N 
ATOM     41  C   UNL A   1      41.084  28.008  28.881  1.00  0.00     0.074 A 
ATOM     42  C   UNL A   1      40.313  28.149  27.664  1.00  0.00     0.031 C 
ATOM     43  C   UNL A   1      38.028  31.913  32.965  1.00  0.00     0.029 A 
ATOM     44  C   UNL A   1      39.263  31.171  33.196  1.00  0.00     0.049 A 
ATOM     45  H   UNL A   1      40.267  29.931  31.857  1.00  0.00     0.167 HD
ATOM     46  C   UNL A   1      42.204  27.256  28.996  1.00  0.00     0.037 A 
ATOM     47  C   UNL A   1      39.966  31.164  34.344  1.00  0.00     0.037 A 
ATOM     48  C   UNL A   1      42.996  27.152  30.192  1.00  0.00     0.049 A 
ATOM     49  C   UNL A   1      41.192  30.303  34.454  1.00  0.00     0.074 A 
ATOM     50  C   UNL A   1      44.143  26.408  30.409  1.00  0.00     0.029 A 
ATOM     51  N   UNL A   1      42.731  27.830  31.372  1.00  0.00    -0.354 N 
ATOM     52  N   UNL A   1      41.742  29.532  33.549  1.00  0.00    -0.248 NA
ATOM     53  C   UNL A   1      41.881  30.295  35.751  1.00  0.00     0.031 C 
ATOM     54  C   UNL A   1      44.561  26.622  31.728  1.00  0.00     0.029 A 
ATOM     55  C   UNL A   1      43.688  27.520  32.322  1.00  0.00     0.049 A 
ATOM     56  H   UNL A   1      41.972  28.442  31.513  1.00  0.00     0.167 HD
ATOM     57  C   UNL A   1      42.841  28.949  34.163  1.00  0.00     0.074 A 
ATOM     58  C   UNL A   1      42.894  29.473  35.513  1.00  0.00     0.031 C 
ATOM     59  C   UNL A   1      43.723  28.054  33.657  1.00  0.00     0.037 A 
BRANCH  46  60
ATOM     60  C   UNL A   1      42.625  26.459  27.799  1.00  0.00     0.064 A 
ATOM     61  C   UNL A   1      43.556  26.952  26.875  1.00  0.00     0.173 A 
ATOM     62  C   UNL A   1      42.112  25.169  27.597  1.00  0.00     0.173 A 
ATOM     63  F   UNL A   1      44.060  28.186  27.017  1.00  0.00    -0.203 F 
ATOM     64  C   UNL A   1      43.947  26.185  25.780  1.00  0.00     0.198 A 
ATOM     65  C   UNL A   1      42.520  24.398  26.512  1.00  0.00     0.198 A 
ATOM     66  F   UNL A   1      41.220  24.653  28.456  1.00  0.00    -0.203 F 
ATOM     67  F   UNL A   1      44.813  26.687  24.888  1.00  0.00    -0.200 F 
ATOM     68  C   UNL A   1      43.434  24.908  25.602  1.00  0.00     0.200 A 
ATOM     69  F   UNL A   1      42.029  23.163  26.345  1.00  0.00    -0.200 F 
ATOM     70  F   UNL A   1      43.816  24.172  24.550  1.00  0.00    -0.200 F 
ENDBRANCH  46  60
BRANCH  47  71
ATOM     71  C   UNL A   1      39.503  31.980  35.495  1.00  0.00     0.064 A 
ATOM     72  C   UNL A   1      38.558  31.477  36.399  1.00  0.00     0.173 A 
ATOM     73  C   UNL A   1      39.999  33.272  35.715  1.00  0.00     0.173 A 
ATOM     74  F   UNL A   1      38.037  30.256  36.212  1.00  0.00    -0.203 F 
ATOM     75  C   UNL A   1      38.121  32.242  37.478  1.00  0.00     0.198 A 
ATOM     76  C   UNL A   1      39.580  34.026  36.808  1.00  0.00     0.198 A 
ATOM     77  F   UNL A   1      40.903  33.796  34.875  1.00  0.00    -0.203 F 
ATOM     78  F   UNL A   1      37.191  31.753  38.310  1.00  0.00    -0.200 F 
ATOM     79  C   UNL A   1      38.637  33.513  37.686  1.00  0.00     0.200 A 
ATOM     80  F   UNL A   1      40.087  35.250  37.010  1.00  0.00    -0.200 F 
ATOM     81  F   UNL A   1      38.221  34.245  38.728  1.00  0.00    -0.200 F 
ENDBRANCH  47  71
BRANCH  59  82
ATOM     82  C   UNL A   1      44.822  27.595  34.563  1.00  0.00     0.064 A 
ATOM     83  C   UNL A   1      44.680  26.446  35.354  1.00  0.00     0.173 A 
ATOM     84  C   UNL A   1      46.039  28.290  34.615  1.00  0.00     0.173 A 
ATOM     85  F   UNL A   1      43.528  25.761  35.347  1.00  0.00    -0.203 F 
ATOM     86  C   UNL A   1      45.717  26.016  36.178  1.00  0.00     0.198 A 
ATOM     87  C   UNL A   1      47.078  27.847  35.427  1.00  0.00     0.198 A 
ATOM     88  F   UNL A   1      46.220  29.393  33.875  1.00  0.00    -0.203 F 
ATOM     89  F   UNL A   1      45.550  24.934  36.951  1.00  0.00    -0.200 F 
ATOM     90  C   UNL A   1      46.916  26.713  36.211  1.00  0.00     0.200 A 
ATOM     91  F   UNL A   1      48.238  28.517  35.455  1.00  0.00    -0.200 F 
ATOM     92  F   UNL A   1      47.911  26.297  37.004  1.00  0.00    -0.200 F 
ENDBRANCH  59  82
ENDBRANCH  33  34
ENDBRANCH  26  28
ENDBRANCH  25  26
ENDBRANCH  24  25
ENDBRANCH   1  24
TORSDOF 15
ENDMDL
MODEL 3
REMARK VINA RESULT:     -11.2      4.682      7.823
REMARK SMILES Cn1cc(S[C@@H]2CCC[C@]([NH2+]C3CC3)(C(=O)OCCOC(=O)c3ccc(-c4c5nc(c(-c6c(F)c(F)c(F)c(F)c6F)c6ccc([nH]6)c(-c6c(F)c(F)c(F)c(F)c6F)c6nc(c(-c7c(F)c(F)c(F)c(F)c7F)c7ccc4[nH]7)C=C6)C=C5)cc3)C2)cn1
REMARK SMILES IDX 18 1 17 2 15 3 16 4 10 5 6 6 7 7 86 8 8 9 9 10 5 11 4 12
REMARK SMILES IDX 1 13 2 14 3 15 88 16 87 17 11 18 12 21 13 22 14 23 19 24
REMARK SMILES IDX 20 25 21 26 22 27 23 28 24 29 85 30 25 31 84 32 26 33 27 34
REMARK SMILES IDX 28 35 78 36 29 37 83 38 77 39 79 40 30 41 82 42 76 43 75 44
REMARK SMILES IDX 31 46 63 47 43 48 62 49 44 50 47 51 61 52 80 53 45 54 46 55
REMARK SMILES IDX 60 57 81 58 48 59 32 60 33 61 41 62 34 63 35 64 39 65 42 66
REMARK SMILES IDX 36 67 37 68 40 69 38 70 64 71 65 72 73 73 66 74 67 75 71 76
REMARK SMILES IDX 74 77 68 78 69 79 72 80 70 81 49 82 50 83 58 84 51 85 52 86
REMARK SMILES IDX 56 87 59 88 53 89 54 90 57 91 55 92
REMARK H PARENT 11 19 11 20 79 45 47 56
REMARK Flexibility Score: inf
ROOT
ATOM      1  C   UNL A   1      35.511  21.517  25.412  1.00  0.00     0.274 C 
ENDROOT
BRANCH   1   2
ATOM      2  O   UNL A   1      34.665  21.772  24.269  1.00  0.00    -0.457 OA
BRANCH   2   3
ATOM      3  C   UNL A   1      34.788  23.020  23.736  1.00  0.00     0.368 C 
ATOM      4  O   UNL A   1      35.557  23.295  22.817  1.00  0.00    -0.245 OA
BRANCH   3   5
ATOM      5  C   UNL A   1      33.796  24.073  24.360  1.00  0.00     0.195 C 
ATOM      6  C   UNL A   1      32.699  26.328  23.812  1.00  0.00     0.058 C 
ATOM      7  C   UNL A   1      33.376  26.998  25.014  1.00  0.00     0.015 C 
ATOM      8  C   UNL A   1      33.445  25.105  23.270  1.00  0.00     0.096 C 
ATOM      9  C   UNL A   1      33.811  26.015  26.095  1.00  0.00     0.008 C 
ATOM     10  C   UNL A   1      34.505  24.772  25.543  1.00  0.00     0.081 C 
BRANCH   6  11
ATOM     11  S   UNL A   1      32.262  27.471  22.453  1.00  0.00    -0.119 SA
BRANCH  11  12
ATOM     12  C   UNL A   1      30.613  27.965  22.691  1.00  0.00     0.046 A 
ATOM     13  C   UNL A   1      27.650  29.987  22.888  1.00  0.00     0.173 C 
ATOM     14  N   UNL A   1      28.684  28.980  22.862  1.00  0.00    -0.275 N 
ATOM     15  C   UNL A   1      29.932  29.096  22.316  1.00  0.00     0.123 A 
ATOM     16  N   UNL A   1      28.470  27.798  23.466  1.00  0.00    -0.181 NA
ATOM     17  C   UNL A   1      29.651  27.181  23.361  1.00  0.00     0.150 A 
ENDBRANCH  11  12
ENDBRANCH   6  11
BRANCH   5  18
ATOM     18  N   UNL A   1      32.627  23.248  24.746  1.00  0.00    -0.330 N 
ATOM     19  H   UNL A   1      32.910  22.283  24.572  1.00  0.00     0.347 HD
ATOM     20  H   UNL A   1      31.898  23.708  24.203  1.00  0.00     0.347 HD
BRANCH  18  21
ATOM     21  C   UNL A   1      32.001  23.232  26.046  1.00  0.00     0.183 C 
ATOM     22  C   UNL A   1      30.770  24.068  26.262  1.00  0.00     0.071 C 
ATOM     23  C   UNL A   1      30.646  22.579  26.158  1.00  0.00     0.071 C 
ENDBRANCH  18  21
ENDBRANCH   5  18
ENDBRANCH   3   5
ENDBRANCH   2   3
ENDBRANCH   1   2
BRANCH   1  24
ATOM     24  C   UNL A   1      36.783  20.770  25.012  1.00  0.00     0.275 C 
BRANCH  24  25
ATOM     25  O   UNL A   1      37.916  21.657  25.032  1.00  0.00    -0.458 OA
BRANCH  25  26
ATOM     26  C   UNL A   1      38.893  21.347  25.911  1.00  0.00     0.338 C 
ATOM     27  O   UNL A   1      39.327  20.238  26.184  1.00  0.00    -0.246 OA
BRANCH  26  28
ATOM     28  C   UNL A   1      39.434  22.573  26.516  1.00  0.00     0.060 A 
ATOM     29  C   UNL A   1      38.943  23.812  26.108  1.00  0.00     0.016 A 
ATOM     30  C   UNL A   1      40.537  22.502  27.366  1.00  0.00     0.016 A 
ATOM     31  C   UNL A   1      39.603  24.982  26.468  1.00  0.00     0.010 A 
ATOM     32  C   UNL A   1      41.153  23.682  27.794  1.00  0.00     0.010 A 
ATOM     33  C   UNL A   1      40.716  24.931  27.316  1.00  0.00    -0.014 A 
BRANCH  33  34
ATOM     34  C   UNL A   1      41.457  26.175  27.645  1.00  0.00     0.031 A 
ATOM     35  C   UNL A   1      40.804  27.237  28.487  1.00  0.00     0.074 A 
ATOM     36  C   UNL A   1      42.725  26.341  27.224  1.00  0.00     0.049 A 
ATOM     37  N   UNL A   1      41.224  28.444  28.772  1.00  0.00    -0.248 NA
ATOM     38  C   UNL A   1      39.503  26.897  29.087  1.00  0.00     0.031 C 
ATOM     39  C   UNL A   1      43.495  25.365  26.452  1.00  0.00     0.029 A 
ATOM     40  N   UNL A   1      43.592  27.391  27.394  1.00  0.00    -0.354 N 
ATOM     41  C   UNL A   1      40.223  29.021  29.541  1.00  0.00     0.074 A 
ATOM     42  C   UNL A   1      39.175  28.033  29.685  1.00  0.00     0.031 C 
ATOM     43  C   UNL A   1      44.728  25.849  26.238  1.00  0.00     0.029 A 
ATOM     44  C   UNL A   1      44.814  27.195  26.798  1.00  0.00     0.049 A 
ATOM     45  H   UNL A   1      43.361  28.206  27.896  1.00  0.00     0.167 HD
ATOM     46  C   UNL A   1      40.182  30.264  30.076  1.00  0.00     0.037 A 
ATOM     47  C   UNL A   1      45.871  28.020  26.685  1.00  0.00     0.037 A 
ATOM     48  C   UNL A   1      41.243  31.230  29.972  1.00  0.00     0.049 A 
ATOM     49  C   UNL A   1      45.792  29.404  27.267  1.00  0.00     0.074 A 
ATOM     50  C   UNL A   1      41.291  32.520  30.472  1.00  0.00     0.029 A 
ATOM     51  N   UNL A   1      42.454  31.003  29.336  1.00  0.00    -0.354 N 
ATOM     52  N   UNL A   1      44.813  29.963  27.934  1.00  0.00    -0.248 NA
ATOM     53  C   UNL A   1      46.955  30.275  27.060  1.00  0.00     0.031 C 
ATOM     54  C   UNL A   1      42.526  33.079  30.121  1.00  0.00     0.029 A 
ATOM     55  C   UNL A   1      43.255  32.128  29.426  1.00  0.00     0.049 A 
ATOM     56  H   UNL A   1      42.706  30.164  28.885  1.00  0.00     0.167 HD
ATOM     57  C   UNL A   1      45.241  31.250  28.229  1.00  0.00     0.074 A 
ATOM     58  C   UNL A   1      46.578  31.381  27.687  1.00  0.00     0.031 C 
ATOM     59  C   UNL A   1      44.582  32.236  28.882  1.00  0.00     0.037 A 
BRANCH  46  60
ATOM     60  C   UNL A   1      38.933  30.663  30.800  1.00  0.00     0.064 A 
ATOM     61  C   UNL A   1      38.805  30.516  32.187  1.00  0.00     0.173 A 
ATOM     62  C   UNL A   1      37.862  31.233  30.094  1.00  0.00     0.173 A 
ATOM     63  F   UNL A   1      39.795  29.960  32.901  1.00  0.00    -0.203 F 
ATOM     64  C   UNL A   1      37.641  30.911  32.842  1.00  0.00     0.198 A 
ATOM     65  C   UNL A   1      36.709  31.645  30.754  1.00  0.00     0.198 A 
ATOM     66  F   UNL A   1      37.939  31.396  28.765  1.00  0.00    -0.203 F 
ATOM     67  F   UNL A   1      37.525  30.732  34.165  1.00  0.00    -0.200 F 
ATOM     68  C   UNL A   1      36.596  31.480  32.127  1.00  0.00     0.200 A 
ATOM     69  F   UNL A   1      35.703  32.200  30.064  1.00  0.00    -0.200 F 
ATOM     70  F   UNL A   1      35.480  31.864  32.760  1.00  0.00    -0.200 F 
ENDBRANCH  46  60
BRANCH  47  71
ATOM     71  C   UNL A   1      47.085  27.567  25.961  1.00  0.00     0.064 A 
ATOM     72  C   UNL A   1      47.195  27.722  24.574  1.00  0.00     0.173 A 
ATOM     73  C   UNL A   1      48.158  26.976  26.643  1.00  0.00     0.173 A 
ATOM     74  F   UNL A   1      46.182  28.259  23.878  1.00  0.00    -0.203 F 
ATOM     75  C   UNL A   1      48.333  27.295  23.892  1.00  0.00     0.198 A 
ATOM     76  C   UNL A   1      49.305  26.572  25.964  1.00  0.00     0.198 A 
ATOM     77  F   UNL A   1      48.097  26.805  27.972  1.00  0.00    -0.203 F 
ATOM     78  F   UNL A   1      48.401  27.423  22.560  1.00  0.00    -0.200 F 
ATOM     79  C   UNL A   1      49.390  26.727  24.589  1.00  0.00     0.200 A 
ATOM     80  F   UNL A   1      50.327  26.032  26.642  1.00  0.00    -0.200 F 
ATOM     81  F   UNL A   1      50.486  26.323  23.934  1.00  0.00    -0.200 F 
ENDBRANCH  47  71
BRANCH  59  82
ATOM     82  C   UNL A   1      45.302  33.537  29.056  1.00  0.00     0.064 A 
ATOM     83  C   UNL A   1      45.173  34.570  28.117  1.00  0.00     0.173 A 
ATOM     84  C   UNL A   1      46.101  33.764  30.186  1.00  0.00     0.173 A 
ATOM     85  F   UNL A   1      44.432  34.390  27.013  1.00  0.00    -0.203 F 
ATOM     86  C   UNL A   1      45.831  35.784  28.298  1.00  0.00     0.198 A 
ATOM     87  C   UNL A   1      46.742  34.984  30.372  1.00  0.00     0.198 A 
ATOM     88  F   UNL A   1      46.252  32.804  31.111  1.00  0.00    -0.203 F 
ATOM     89  F   UNL A   1      45.720  36.748  27.373  1.00  0.00    -0.200 F 
ATOM     90  C   UNL A   1      46.611  35.992  29.426  1.00  0.00     0.200 A 
ATOM     91  F   UNL A   1      47.491  35.187  31.463  1.00  0.00    -0.200 F 
ATOM     92  F   UNL A   1      47.242  37.160  29.598  1.00  0.00    -0.200 F 
ENDBRANCH  59  82
ENDBRANCH  33  34
ENDBRANCH  26  28
ENDBRANCH  25  26
ENDBRANCH  24  25
ENDBRANCH   1  24
TORSDOF 15
ENDMDL
