MODEL 1
REMARK VINA RESULT:     -10.3      0.000      0.000
REMARK SMILES CCCC[C@@H](C(=O)OCCOC(=O)c1ccc(-c2c3nc(c(-c4c(F)c(F)c(F)c(F)c4F)c4ccc([nH]4)c(-c4c(F)c(F)c(F)c(F)c4F)c4nc(c(-c5c(F)c(F)c(F)c(F)c5F)c5ccc2[nH]5)C=C4)C=C3)cc1)[C@@H](O)C1CC1
REMARK SMILES IDX 9 1 8 2 6 3 7 4 5 5 4 6 3 7 2 8 1 9 77 10 78 11 79 13 80 14
REMARK SMILES IDX 81 15 10 16 11 17 12 18 13 19 14 20 15 21 76 22 16 23 75 24
REMARK SMILES IDX 17 25 18 26 19 27 69 28 20 29 74 30 68 31 70 32 21 33 73 34
REMARK SMILES IDX 67 35 66 36 22 38 54 39 34 40 53 41 35 42 38 43 52 44 71 45
REMARK SMILES IDX 36 46 37 47 51 49 72 50 39 51 23 52 24 53 32 54 25 55 26 56
REMARK SMILES IDX 30 57 33 58 27 59 28 60 31 61 29 62 55 63 56 64 64 65 57 66
REMARK SMILES IDX 58 67 62 68 65 69 59 70 60 71 63 72 61 73 40 74 41 75 49 76
REMARK SMILES IDX 42 77 43 78 47 79 50 80 44 81 45 82 48 83 46 84
REMARK H PARENT 78 12 70 37 38 48
REMARK Flexibility Score: inf
ROOT
ATOM      1  C   UNL A   1      31.918  28.408  25.930  1.00  0.00     0.274 C 
ENDROOT
BRANCH   1   2
ATOM      2  O   UNL A   1      32.828  28.141  24.842  1.00  0.00    -0.462 OA
BRANCH   2   3
ATOM      3  C   UNL A   1      32.447  28.533  23.597  1.00  0.00     0.311 C 
ATOM      4  O   UNL A   1      33.221  29.053  22.804  1.00  0.00    -0.252 OA
BRANCH   3   5
ATOM      5  C   UNL A   1      30.950  28.304  23.338  1.00  0.00     0.128 C 
BRANCH   5   6
ATOM      6  C   UNL A   1      30.709  27.110  22.358  1.00  0.00     0.018 C 
BRANCH   6   7
ATOM      7  C   UNL A   1      31.810  26.045  22.234  1.00  0.00     0.001 C 
BRANCH   7   8
ATOM      8  C   UNL A   1      31.834  24.980  23.327  1.00  0.00    -0.003 C 
ATOM      9  C   UNL A   1      30.613  24.073  23.312  1.00  0.00     0.004 C 
ENDBRANCH   7   8
ENDBRANCH   6   7
ENDBRANCH   5   6
BRANCH   5  10
ATOM     10  C   UNL A   1      30.233  29.552  22.738  1.00  0.00     0.131 C 
BRANCH  10  11
ATOM     11  O   UNL A   1      30.977  29.974  21.585  1.00  0.00    -0.392 OA
ATOM     12  H   UNL A   1      30.433  29.860  20.791  1.00  0.00     0.210 HD
ENDBRANCH  10  11
BRANCH  10  13
ATOM     13  C   UNL A   1      28.778  29.399  22.338  1.00  0.00     0.019 C 
ATOM     14  C   UNL A   1      27.748  30.342  22.926  1.00  0.00     0.006 C 
ATOM     15  C   UNL A   1      28.035  30.372  21.452  1.00  0.00     0.006 C 
ENDBRANCH  10  13
ENDBRANCH   5  10
ENDBRANCH   3   5
ENDBRANCH   2   3
ENDBRANCH   1   2
BRANCH   1  16
ATOM     16  C   UNL A   1      31.814  29.912  26.170  1.00  0.00     0.275 C 
BRANCH  16  17
ATOM     17  O   UNL A   1      33.137  30.472  26.157  1.00  0.00    -0.458 OA
BRANCH  17  18
ATOM     18  C   UNL A   1      33.376  31.481  27.021  1.00  0.00     0.338 C 
ATOM     19  O   UNL A   1      32.688  32.471  27.231  1.00  0.00    -0.246 OA
BRANCH  18  20
ATOM     20  C   UNL A   1      34.633  31.197  27.729  1.00  0.00     0.060 A 
ATOM     21  C   UNL A   1      34.873  29.907  28.199  1.00  0.00     0.016 A 
ATOM     22  C   UNL A   1      35.550  32.213  27.982  1.00  0.00     0.016 A 
ATOM     23  C   UNL A   1      36.004  29.628  28.959  1.00  0.00     0.010 A 
ATOM     24  C   UNL A   1      36.729  31.917  28.676  1.00  0.00     0.010 A 
ATOM     25  C   UNL A   1      36.961  30.624  29.182  1.00  0.00    -0.014 A 
BRANCH  25  26
ATOM     26  C   UNL A   1      38.194  30.318  29.952  1.00  0.00     0.031 A 
ATOM     27  C   UNL A   1      39.260  29.452  29.345  1.00  0.00     0.074 A 
ATOM     28  C   UNL A   1      38.367  30.821  31.189  1.00  0.00     0.049 A 
ATOM     29  N   UNL A   1      40.303  28.903  29.912  1.00  0.00    -0.248 NA
ATOM     30  C   UNL A   1      39.136  29.168  27.906  1.00  0.00     0.031 C 
ATOM     31  C   UNL A   1      37.453  31.740  31.868  1.00  0.00     0.029 A 
ATOM     32  N   UNL A   1      39.378  30.628  32.099  1.00  0.00    -0.354 N 
ATOM     33  C   UNL A   1      40.934  28.173  28.915  1.00  0.00     0.074 A 
ATOM     34  C   UNL A   1      40.163  28.354  27.703  1.00  0.00     0.031 C 
ATOM     35  C   UNL A   1      37.951  32.043  33.077  1.00  0.00     0.029 A 
ATOM     36  C   UNL A   1      39.170  31.272  33.294  1.00  0.00     0.049 A 
ATOM     37  H   UNL A   1      40.174  30.079  31.913  1.00  0.00     0.167 HD
ATOM     38  C   UNL A   1      42.051  27.412  29.009  1.00  0.00     0.037 A 
ATOM     39  C   UNL A   1      39.850  31.207  34.454  1.00  0.00     0.037 A 
ATOM     40  C   UNL A   1      42.833  27.262  30.207  1.00  0.00     0.049 A 
ATOM     41  C   UNL A   1      41.036  30.287  34.558  1.00  0.00     0.074 A 
ATOM     42  C   UNL A   1      43.982  26.515  30.401  1.00  0.00     0.029 A 
ATOM     43  N   UNL A   1      42.549  27.880  31.415  1.00  0.00    -0.354 N 
ATOM     44  N   UNL A   1      41.587  29.542  33.633  1.00  0.00    -0.248 NA
ATOM     45  C   UNL A   1      41.672  30.173  35.879  1.00  0.00     0.031 C 
ATOM     46  C   UNL A   1      44.373  26.653  31.737  1.00  0.00     0.029 A 
ATOM     47  C   UNL A   1      43.487  27.513  32.366  1.00  0.00     0.049 A 
ATOM     48  H   UNL A   1      41.793  28.490  31.573  1.00  0.00     0.167 HD
ATOM     49  C   UNL A   1      42.630  28.872  34.255  1.00  0.00     0.074 A 
ATOM     50  C   UNL A   1      42.652  29.315  35.633  1.00  0.00     0.031 C 
ATOM     51  C   UNL A   1      43.487  27.960  33.734  1.00  0.00     0.037 A 
BRANCH  38  52
ATOM     52  C   UNL A   1      42.468  26.645  27.792  1.00  0.00     0.064 A 
ATOM     53  C   UNL A   1      43.426  27.140  26.897  1.00  0.00     0.173 A 
ATOM     54  C   UNL A   1      41.925  25.376  27.542  1.00  0.00     0.173 A 
ATOM     55  F   UNL A   1      43.960  28.355  27.085  1.00  0.00    -0.203 F 
ATOM     56  C   UNL A   1      43.813  26.398  25.784  1.00  0.00     0.198 A 
ATOM     57  C   UNL A   1      42.329  24.628  26.440  1.00  0.00     0.198 A 
ATOM     58  F   UNL A   1      41.006  24.858  28.372  1.00  0.00    -0.203 F 
ATOM     59  F   UNL A   1      44.705  26.902  24.921  1.00  0.00    -0.200 F 
ATOM     60  C   UNL A   1      43.269  25.141  25.560  1.00  0.00     0.200 A 
ATOM     61  F   UNL A   1      41.808  23.410  26.230  1.00  0.00    -0.200 F 
ATOM     62  F   UNL A   1      43.647  24.426  24.491  1.00  0.00    -0.200 F 
ENDBRANCH  38  52
BRANCH  39  63
ATOM     63  C   UNL A   1      39.381  31.979  35.633  1.00  0.00     0.064 A 
ATOM     64  C   UNL A   1      38.464  31.429  36.538  1.00  0.00     0.173 A 
ATOM     65  C   UNL A   1      39.836  33.284  35.876  1.00  0.00     0.173 A 
ATOM     66  F   UNL A   1      37.977  30.197  36.331  1.00  0.00    -0.203 F 
ATOM     67  C   UNL A   1      38.018  32.156  37.640  1.00  0.00     0.198 A 
ATOM     68  C   UNL A   1      39.410  33.999  36.993  1.00  0.00     0.198 A 
ATOM     69  F   UNL A   1      40.707  33.859  35.034  1.00  0.00    -0.203 F 
ATOM     70  F   UNL A   1      37.111  31.622  38.470  1.00  0.00    -0.200 F 
ATOM     71  C   UNL A   1      38.497  33.437  37.870  1.00  0.00     0.200 A 
ATOM     72  F   UNL A   1      39.884  35.233  37.215  1.00  0.00    -0.200 F 
ATOM     73  F   UNL A   1      38.071  34.133  38.933  1.00  0.00    -0.200 F 
ENDBRANCH  39  63
BRANCH  51  74
ATOM     74  C   UNL A   1      44.517  27.384  34.657  1.00  0.00     0.064 A 
ATOM     75  C   UNL A   1      44.282  26.190  35.353  1.00  0.00     0.173 A 
ATOM     76  C   UNL A   1      45.764  28.006  34.811  1.00  0.00     0.173 A 
ATOM     77  F   UNL A   1      43.096  25.572  35.249  1.00  0.00    -0.203 F 
ATOM     78  C   UNL A   1      45.257  25.645  36.183  1.00  0.00     0.198 A 
ATOM     79  C   UNL A   1      46.744  27.446  35.625  1.00  0.00     0.198 A 
ATOM     80  F   UNL A   1      46.036  29.148  34.162  1.00  0.00    -0.203 F 
ATOM     81  F   UNL A   1      45.001  24.520  36.866  1.00  0.00    -0.200 F 
ATOM     82  C   UNL A   1      46.489  26.269  36.313  1.00  0.00     0.200 A 
ATOM     83  F   UNL A   1      47.938  28.046  35.744  1.00  0.00    -0.200 F 
ATOM     84  F   UNL A   1      47.429  25.739  37.107  1.00  0.00    -0.200 F 
ENDBRANCH  51  74
ENDBRANCH  25  26
ENDBRANCH  18  20
ENDBRANCH  17  18
ENDBRANCH  16  17
ENDBRANCH   1  16
TORSDOF 17
ENDMDL
MODEL 2
REMARK VINA RESULT:     -10.2      0.362      2.090
REMARK SMILES CCCC[C@@H](C(=O)OCCOC(=O)c1ccc(-c2c3nc(c(-c4c(F)c(F)c(F)c(F)c4F)c4ccc([nH]4)c(-c4c(F)c(F)c(F)c(F)c4F)c4nc(c(-c5c(F)c(F)c(F)c(F)c5F)c5ccc2[nH]5)C=C4)C=C3)cc1)[C@@H](O)C1CC1
REMARK SMILES IDX 9 1 8 2 6 3 7 4 5 5 4 6 3 7 2 8 1 9 77 10 78 11 79 13 80 14
REMARK SMILES IDX 81 15 10 16 11 17 12 18 13 19 14 20 15 21 76 22 16 23 75 24
REMARK SMILES IDX 17 25 18 26 19 27 69 28 20 29 74 30 68 31 70 32 21 33 73 34
REMARK SMILES IDX 67 35 66 36 22 38 54 39 34 40 53 41 35 42 38 43 52 44 71 45
REMARK SMILES IDX 36 46 37 47 51 49 72 50 39 51 23 52 24 53 32 54 25 55 26 56
REMARK SMILES IDX 30 57 33 58 27 59 28 60 31 61 29 62 55 63 56 64 64 65 57 66
REMARK SMILES IDX 58 67 62 68 65 69 59 70 60 71 63 72 61 73 40 74 41 75 49 76
REMARK SMILES IDX 42 77 43 78 47 79 50 80 44 81 45 82 48 83 46 84
REMARK H PARENT 78 12 70 37 38 48
REMARK Flexibility Score: inf
ROOT
ATOM      1  C   UNL A   1      31.857  28.457  26.100  1.00  0.00     0.274 C 
ENDROOT
BRANCH   1   2
ATOM      2  O   UNL A   1      32.645  28.130  24.936  1.00  0.00    -0.462 OA
BRANCH   2   3
ATOM      3  C   UNL A   1      32.201  28.580  23.732  1.00  0.00     0.311 C 
ATOM      4  O   UNL A   1      32.955  29.025  22.876  1.00  0.00    -0.252 OA
BRANCH   3   5
ATOM      5  C   UNL A   1      30.670  28.521  23.608  1.00  0.00     0.128 C 
BRANCH   5   6
ATOM      6  C   UNL A   1      30.201  27.221  22.878  1.00  0.00     0.018 C 
BRANCH   6   7
ATOM      7  C   UNL A   1      30.113  25.925  23.698  1.00  0.00     0.001 C 
BRANCH   7   8
ATOM      8  C   UNL A   1      30.908  24.738  23.159  1.00  0.00    -0.003 C 
ATOM      9  C   UNL A   1      32.212  25.141  22.488  1.00  0.00     0.004 C 
ENDBRANCH   7   8
ENDBRANCH   6   7
ENDBRANCH   5   6
BRANCH   5  10
ATOM     10  C   UNL A   1      30.071  29.734  22.833  1.00  0.00     0.131 C 
BRANCH  10  11
ATOM     11  O   UNL A   1      30.689  29.778  21.539  1.00  0.00    -0.392 OA
ATOM     12  H   UNL A   1      30.018  29.625  20.856  1.00  0.00     0.210 HD
ENDBRANCH  10  11
BRANCH  10  13
ATOM     13  C   UNL A   1      28.566  29.770  22.645  1.00  0.00     0.019 C 
ATOM     14  C   UNL A   1      27.776  30.924  23.228  1.00  0.00     0.006 C 
ATOM     15  C   UNL A   1      27.847  30.743  21.739  1.00  0.00     0.006 C 
ENDBRANCH  10  13
ENDBRANCH   5  10
ENDBRANCH   3   5
ENDBRANCH   2   3
ENDBRANCH   1   2
BRANCH   1  16
ATOM     16  C   UNL A   1      31.879  29.964  26.342  1.00  0.00     0.275 C 
BRANCH  16  17
ATOM     17  O   UNL A   1      33.245  30.409  26.341  1.00  0.00    -0.458 OA
BRANCH  17  18
ATOM     18  C   UNL A   1      33.539  31.464  27.130  1.00  0.00     0.338 C 
ATOM     19  O   UNL A   1      32.895  32.493  27.281  1.00  0.00    -0.246 OA
BRANCH  18  20
ATOM     20  C   UNL A   1      34.797  31.178  27.837  1.00  0.00     0.060 A 
ATOM     21  C   UNL A   1      35.000  29.910  28.377  1.00  0.00     0.016 A 
ATOM     22  C   UNL A   1      35.750  32.176  28.020  1.00  0.00     0.016 A 
ATOM     23  C   UNL A   1      36.133  29.636  29.137  1.00  0.00     0.010 A 
ATOM     24  C   UNL A   1      36.928  31.880  28.715  1.00  0.00     0.010 A 
ATOM     25  C   UNL A   1      37.124  30.610  29.291  1.00  0.00    -0.014 A 
BRANCH  25  26
ATOM     26  C   UNL A   1      38.358  30.306  30.061  1.00  0.00     0.031 A 
ATOM     27  C   UNL A   1      39.418  29.428  29.462  1.00  0.00     0.074 A 
ATOM     28  C   UNL A   1      38.537  30.823  31.292  1.00  0.00     0.049 A 
ATOM     29  N   UNL A   1      40.460  28.880  30.033  1.00  0.00    -0.248 NA
ATOM     30  C   UNL A   1      39.289  29.128  28.027  1.00  0.00     0.031 C 
ATOM     31  C   UNL A   1      37.629  31.755  31.962  1.00  0.00     0.029 A 
ATOM     32  N   UNL A   1      39.549  30.635  32.202  1.00  0.00    -0.354 N 
ATOM     33  C   UNL A   1      41.084  28.135  29.043  1.00  0.00     0.074 A 
ATOM     34  C   UNL A   1      40.311  28.307  27.831  1.00  0.00     0.031 C 
ATOM     35  C   UNL A   1      38.131  32.069  33.167  1.00  0.00     0.029 A 
ATOM     36  C   UNL A   1      39.347  31.294  33.390  1.00  0.00     0.049 A 
ATOM     37  H   UNL A   1      40.342  30.080  32.021  1.00  0.00     0.167 HD
ATOM     38  C   UNL A   1      42.197  27.370  29.143  1.00  0.00     0.037 A 
ATOM     39  C   UNL A   1      40.030  31.239  34.549  1.00  0.00     0.037 A 
ATOM     40  C   UNL A   1      42.981  27.229  30.341  1.00  0.00     0.049 A 
ATOM     41  C   UNL A   1      41.211  30.315  34.661  1.00  0.00     0.074 A 
ATOM     42  C   UNL A   1      44.127  26.478  30.541  1.00  0.00     0.029 A 
ATOM     43  N   UNL A   1      42.704  27.863  31.542  1.00  0.00    -0.354 N 
ATOM     44  N   UNL A   1      41.756  29.555  33.743  1.00  0.00    -0.248 NA
ATOM     45  C   UNL A   1      41.849  30.213  35.982  1.00  0.00     0.031 C 
ATOM     46  C   UNL A   1      44.522  26.630  31.875  1.00  0.00     0.029 A 
ATOM     47  C   UNL A   1      43.643  27.502  32.495  1.00  0.00     0.049 A 
ATOM     48  H   UNL A   1      41.951  28.479  31.695  1.00  0.00     0.167 HD
ATOM     49  C   UNL A   1      42.797  28.887  34.371  1.00  0.00     0.074 A 
ATOM     50  C   UNL A   1      42.825  29.347  35.743  1.00  0.00     0.031 C 
ATOM     51  C   UNL A   1      43.648  27.965  33.858  1.00  0.00     0.037 A 
BRANCH  38  52
ATOM     52  C   UNL A   1      42.608  26.586  27.934  1.00  0.00     0.064 A 
ATOM     53  C   UNL A   1      42.109  25.302  27.679  1.00  0.00     0.173 A 
ATOM     54  C   UNL A   1      43.488  27.150  26.998  1.00  0.00     0.173 A 
ATOM     55  F   UNL A   1      41.278  24.715  28.554  1.00  0.00    -0.203 F 
ATOM     56  C   UNL A   1      42.490  24.602  26.538  1.00  0.00     0.198 A 
ATOM     57  C   UNL A   1      43.851  26.456  25.848  1.00  0.00     0.198 A 
ATOM     58  F   UNL A   1      43.991  28.378  27.197  1.00  0.00    -0.203 F 
ATOM     59  F   UNL A   1      42.029  23.362  26.328  1.00  0.00    -0.200 F 
ATOM     60  C   UNL A   1      43.356  25.182  25.620  1.00  0.00     0.200 A 
ATOM     61  F   UNL A   1      44.681  27.021  24.959  1.00  0.00    -0.200 F 
ATOM     62  F   UNL A   1      43.717  24.509  24.519  1.00  0.00    -0.200 F 
ENDBRANCH  38  52
BRANCH  39  63
ATOM     63  C   UNL A   1      39.568  32.028  35.720  1.00  0.00     0.064 A 
ATOM     64  C   UNL A   1      40.131  33.276  36.017  1.00  0.00     0.173 A 
ATOM     65  C   UNL A   1      38.558  31.548  36.569  1.00  0.00     0.173 A 
ATOM     66  F   UNL A   1      41.120  33.763  35.253  1.00  0.00    -0.203 F 
ATOM     67  C   UNL A   1      39.703  34.013  37.119  1.00  0.00     0.198 A 
ATOM     68  C   UNL A   1      38.114  32.298  37.654  1.00  0.00     0.198 A 
ATOM     69  F   UNL A   1      37.994  30.354  36.333  1.00  0.00    -0.203 F 
ATOM     70  F   UNL A   1      40.284  35.187  37.404  1.00  0.00    -0.200 F 
ATOM     71  C   UNL A   1      38.690  33.527  37.932  1.00  0.00     0.200 A 
ATOM     72  F   UNL A   1      37.127  31.827  38.430  1.00  0.00    -0.200 F 
ATOM     73  F   UNL A   1      38.276  34.239  38.989  1.00  0.00    -0.200 F 
ENDBRANCH  39  63
BRANCH  51  74
ATOM     74  C   UNL A   1      44.677  27.394  34.785  1.00  0.00     0.064 A 
ATOM     75  C   UNL A   1      45.910  28.032  34.982  1.00  0.00     0.173 A 
ATOM     76  C   UNL A   1      44.411  26.227  35.516  1.00  0.00     0.173 A 
ATOM     77  F   UNL A   1      46.214  29.140  34.290  1.00  0.00    -0.203 F 
ATOM     78  C   UNL A   1      46.847  27.512  35.870  1.00  0.00     0.198 A 
ATOM     79  C   UNL A   1      45.342  25.724  36.419  1.00  0.00     0.198 A 
ATOM     80  F   UNL A   1      43.243  25.585  35.364  1.00  0.00    -0.203 F 
ATOM     81  F   UNL A   1      48.034  28.118  36.019  1.00  0.00    -0.200 F 
ATOM     82  C   UNL A   1      46.561  26.364  36.593  1.00  0.00     0.200 A 
ATOM     83  F   UNL A   1      45.061  24.618  37.123  1.00  0.00    -0.200 F 
ATOM     84  F   UNL A   1      47.461  25.869  37.453  1.00  0.00    -0.200 F 
ENDBRANCH  51  74
ENDBRANCH  25  26
ENDBRANCH  18  20
ENDBRANCH  17  18
ENDBRANCH  16  17
ENDBRANCH   1  16
TORSDOF 17
ENDMDL
MODEL 3
REMARK VINA RESULT:     -10.0      1.099      2.646
REMARK SMILES CCCC[C@@H](C(=O)OCCOC(=O)c1ccc(-c2c3nc(c(-c4c(F)c(F)c(F)c(F)c4F)c4ccc([nH]4)c(-c4c(F)c(F)c(F)c(F)c4F)c4nc(c(-c5c(F)c(F)c(F)c(F)c5F)c5ccc2[nH]5)C=C4)C=C3)cc1)[C@@H](O)C1CC1
REMARK SMILES IDX 9 1 8 2 6 3 7 4 5 5 4 6 3 7 2 8 1 9 77 10 78 11 79 13 80 14
REMARK SMILES IDX 81 15 10 16 11 17 12 18 13 19 14 20 15 21 76 22 16 23 75 24
REMARK SMILES IDX 17 25 18 26 19 27 69 28 20 29 74 30 68 31 70 32 21 33 73 34
REMARK SMILES IDX 67 35 66 36 22 38 54 39 34 40 53 41 35 42 38 43 52 44 71 45
REMARK SMILES IDX 36 46 37 47 51 49 72 50 39 51 23 52 24 53 32 54 25 55 26 56
REMARK SMILES IDX 30 57 33 58 27 59 28 60 31 61 29 62 55 63 56 64 64 65 57 66
REMARK SMILES IDX 58 67 62 68 65 69 59 70 60 71 63 72 61 73 40 74 41 75 49 76
REMARK SMILES IDX 42 77 43 78 47 79 50 80 44 81 45 82 48 83 46 84
REMARK H PARENT 78 12 70 37 38 48
REMARK Flexibility Score: inf
ROOT
ATOM      1  C   UNL A   1      31.426  29.272  24.798  1.00  0.00     0.274 C 
ENDROOT
BRANCH   1   2
ATOM      2  O   UNL A   1      30.733  28.010  24.898  1.00  0.00    -0.462 OA
BRANCH   2   3
ATOM      3  C   UNL A   1      30.838  27.153  23.848  1.00  0.00     0.311 C 
ATOM      4  O   UNL A   1      30.456  27.441  22.721  1.00  0.00    -0.252 OA
BRANCH   3   5
ATOM      5  C   UNL A   1      31.424  25.791  24.253  1.00  0.00     0.128 C 
BRANCH   5   6
ATOM      6  C   UNL A   1      31.270  24.734  23.112  1.00  0.00     0.018 C 
BRANCH   6   7
ATOM      7  C   UNL A   1      32.545  24.230  22.419  1.00  0.00     0.001 C 
BRANCH   7   8
ATOM      8  C   UNL A   1      33.136  22.933  22.966  1.00  0.00    -0.003 C 
ATOM      9  C   UNL A   1      32.240  21.724  22.748  1.00  0.00     0.004 C 
ENDBRANCH   7   8
ENDBRANCH   6   7
ENDBRANCH   5   6
BRANCH   5  10
ATOM     10  C   UNL A   1      30.763  25.196  25.533  1.00  0.00     0.131 C 
BRANCH  10  11
ATOM     11  O   UNL A   1      29.378  25.575  25.530  1.00  0.00    -0.392 OA
ATOM     12  H   UNL A   1      29.198  26.145  26.293  1.00  0.00     0.210 HD
ENDBRANCH  10  11
BRANCH  10  13
ATOM     13  C   UNL A   1      30.846  23.694  25.731  1.00  0.00     0.019 C 
ATOM     14  C   UNL A   1      31.683  23.144  26.868  1.00  0.00     0.006 C 
ATOM     15  C   UNL A   1      30.194  22.951  26.875  1.00  0.00     0.006 C 
ENDBRANCH  10  13
ENDBRANCH   5  10
ENDBRANCH   3   5
ENDBRANCH   2   3
ENDBRANCH   1   2
BRANCH   1  16
ATOM     16  C   UNL A   1      31.799  29.778  26.189  1.00  0.00     0.275 C 
BRANCH  16  17
ATOM     17  O   UNL A   1      33.047  30.484  26.101  1.00  0.00    -0.458 OA
BRANCH  17  18
ATOM     18  C   UNL A   1      33.254  31.463  27.007  1.00  0.00     0.338 C 
ATOM     19  O   UNL A   1      32.542  32.430  27.245  1.00  0.00    -0.246 OA
BRANCH  18  20
ATOM     20  C   UNL A   1      34.509  31.180  27.719  1.00  0.00     0.060 A 
ATOM     21  C   UNL A   1      34.760  29.883  28.163  1.00  0.00     0.016 A 
ATOM     22  C   UNL A   1      35.410  32.201  28.002  1.00  0.00     0.016 A 
ATOM     23  C   UNL A   1      35.888  29.601  28.926  1.00  0.00     0.010 A 
ATOM     24  C   UNL A   1      36.587  31.904  28.700  1.00  0.00     0.010 A 
ATOM     25  C   UNL A   1      36.830  30.603  29.180  1.00  0.00    -0.014 A 
BRANCH  25  26
ATOM     26  C   UNL A   1      38.061  30.295  29.953  1.00  0.00     0.031 A 
ATOM     27  C   UNL A   1      39.113  29.403  29.362  1.00  0.00     0.074 A 
ATOM     28  C   UNL A   1      38.243  30.821  31.180  1.00  0.00     0.049 A 
ATOM     29  N   UNL A   1      40.150  28.850  29.939  1.00  0.00    -0.248 NA
ATOM     30  C   UNL A   1      38.983  29.091  27.930  1.00  0.00     0.031 C 
ATOM     31  C   UNL A   1      37.344  31.766  31.842  1.00  0.00     0.029 A 
ATOM     32  N   UNL A   1      39.253  30.632  32.092  1.00  0.00    -0.354 N 
ATOM     33  C   UNL A   1      40.768  28.092  28.956  1.00  0.00     0.074 A 
ATOM     34  C   UNL A   1      39.997  28.260  27.741  1.00  0.00     0.031 C 
ATOM     35  C   UNL A   1      37.848  32.086  33.044  1.00  0.00     0.029 A 
ATOM     36  C   UNL A   1      39.057  31.303  33.274  1.00  0.00     0.049 A 
ATOM     37  H   UNL A   1      40.041  30.068  31.916  1.00  0.00     0.167 HD
ATOM     38  C   UNL A   1      41.874  27.318  29.062  1.00  0.00     0.037 A 
ATOM     39  C   UNL A   1      39.738  31.251  34.434  1.00  0.00     0.037 A 
ATOM     40  C   UNL A   1      42.657  27.180  30.262  1.00  0.00     0.049 A 
ATOM     41  C   UNL A   1      40.911  30.318  34.555  1.00  0.00     0.074 A 
ATOM     42  C   UNL A   1      43.796  26.421  30.469  1.00  0.00     0.029 A 
ATOM     43  N   UNL A   1      42.384  27.827  31.458  1.00  0.00    -0.354 N 
ATOM     44  N   UNL A   1      41.450  29.546  33.644  1.00  0.00    -0.248 NA
ATOM     45  C   UNL A   1      41.548  30.221  35.877  1.00  0.00     0.031 C 
ATOM     46  C   UNL A   1      44.192  26.581  31.802  1.00  0.00     0.029 A 
ATOM     47  C   UNL A   1      43.319  27.465  32.414  1.00  0.00     0.049 A 
ATOM     48  H   UNL A   1      41.637  28.450  31.605  1.00  0.00     0.167 HD
ATOM     49  C   UNL A   1      42.485  28.874  34.277  1.00  0.00     0.074 A 
ATOM     50  C   UNL A   1      42.516  29.345  35.646  1.00  0.00     0.031 C 
ATOM     51  C   UNL A   1      43.328  27.940  33.773  1.00  0.00     0.037 A 
BRANCH  38  52
ATOM     52  C   UNL A   1      42.279  26.520  27.861  1.00  0.00     0.064 A 
ATOM     53  C   UNL A   1      43.254  26.975  26.964  1.00  0.00     0.173 A 
ATOM     54  C   UNL A   1      41.704  25.262  27.627  1.00  0.00     0.173 A 
ATOM     55  F   UNL A   1      43.820  28.179  27.136  1.00  0.00    -0.203 F 
ATOM     56  C   UNL A   1      43.628  26.206  25.865  1.00  0.00     0.198 A 
ATOM     57  C   UNL A   1      42.095  24.486  26.540  1.00  0.00     0.198 A 
ATOM     58  F   UNL A   1      40.767  24.782  28.460  1.00  0.00    -0.203 F 
ATOM     59  F   UNL A   1      44.539  26.672  25.000  1.00  0.00    -0.200 F 
ATOM     60  C   UNL A   1      43.053  24.960  25.658  1.00  0.00     0.200 A 
ATOM     61  F   UNL A   1      41.543  23.279  26.346  1.00  0.00    -0.200 F 
ATOM     62  F   UNL A   1      43.418  24.218  24.603  1.00  0.00    -0.200 F 
ENDBRANCH  38  52
BRANCH  39  63
ATOM     63  C   UNL A   1      39.282  32.054  35.598  1.00  0.00     0.064 A 
ATOM     64  C   UNL A   1      39.737  33.364  35.794  1.00  0.00     0.173 A 
ATOM     65  C   UNL A   1      38.387  31.526  36.541  1.00  0.00     0.173 A 
ATOM     66  F   UNL A   1      40.618  33.902  34.937  1.00  0.00    -0.203 F 
ATOM     67  C   UNL A   1      39.316  34.115  36.889  1.00  0.00     0.198 A 
ATOM     68  C   UNL A   1      37.946  32.287  37.620  1.00  0.00     0.198 A 
ATOM     69  F   UNL A   1      37.929  30.273  36.404  1.00  0.00    -0.203 F 
ATOM     70  F   UNL A   1      39.796  35.353  37.075  1.00  0.00    -0.200 F 
ATOM     71  C   UNL A   1      38.415  33.579  37.797  1.00  0.00     0.200 A 
ATOM     72  F   UNL A   1      37.068  31.767  38.488  1.00  0.00    -0.200 F 
ATOM     73  F   UNL A   1      38.007  34.304  38.847  1.00  0.00    -0.200 F 
ENDBRANCH  39  63
BRANCH  51  74
ATOM     74  C   UNL A   1      44.351  27.368  34.706  1.00  0.00     0.064 A 
ATOM     75  C   UNL A   1      45.587  28.001  34.903  1.00  0.00     0.173 A 
ATOM     76  C   UNL A   1      44.077  26.206  35.441  1.00  0.00     0.173 A 
ATOM     77  F   UNL A   1      45.898  29.104  34.208  1.00  0.00    -0.203 F 
ATOM     78  C   UNL A   1      46.519  27.481  35.796  1.00  0.00     0.198 A 
ATOM     79  C   UNL A   1      45.004  25.702  36.349  1.00  0.00     0.198 A 
ATOM     80  F   UNL A   1      42.907  25.569  35.288  1.00  0.00    -0.203 F 
ATOM     81  F   UNL A   1      47.708  28.081  35.947  1.00  0.00    -0.200 F 
ATOM     82  C   UNL A   1      46.224  26.336  36.524  1.00  0.00     0.200 A 
ATOM     83  F   UNL A   1      44.715  24.600  37.056  1.00  0.00    -0.200 F 
ATOM     84  F   UNL A   1      47.120  25.841  37.388  1.00  0.00    -0.200 F 
ENDBRANCH  51  74
ENDBRANCH  25  26
ENDBRANCH  18  20
ENDBRANCH  17  18
ENDBRANCH  16  17
ENDBRANCH   1  16
TORSDOF 17
ENDMDL
