MODEL 1
REMARK VINA RESULT:     -12.4      0.000      0.000
REMARK SMILES O=C(N[C@@H](Cc1c[nH]c2ccccc12)C(=O)N[C@@H](CS)C(=O)N[C@@H](CO)C(=O)OCCOC(=O)c1ccc(-c2c3nc(c(-c4c(F)c(F)c(F)c(F)c4F)c4ccc([nH]4)c(-c4c(F)c(F)c(F)c(F)c4F)c4nc(c(-c5c(F)c(F)c(F)c(F)c5F)c5ccc2[nH]5)C=C4)C=C3)cc1)c1ccc(F)cc1
REMARK SMILES IDX 27 1 28 2 24 3 23 4 21 5 22 6 18 8 17 9 15 10 16 11 4 13
REMARK SMILES IDX 3 14 1 15 2 16 98 18 99 19 104 20 100 21 103 22 101 23
REMARK SMILES IDX 102 24 5 25 6 26 7 27 14 28 8 29 9 30 13 31 10 33 12 34
REMARK SMILES IDX 11 35 19 36 20 37 25 39 26 40 29 42 30 43 31 44 32 45 33 46
REMARK SMILES IDX 34 47 35 48 36 49 97 50 37 51 96 52 38 53 39 54 40 55 90 56
REMARK SMILES IDX 41 57 95 58 89 59 91 60 42 61 94 62 88 63 87 64 43 66 75 67
REMARK SMILES IDX 55 68 74 69 56 70 59 71 73 72 92 73 57 74 58 75 72 77 93 78
REMARK SMILES IDX 60 79 44 80 45 81 53 82 46 83 47 84 51 85 54 86 48 87 49 88
REMARK SMILES IDX 52 89 50 90 76 91 77 92 85 93 78 94 79 95 83 96 86 97 80 98
REMARK SMILES IDX 81 99 84 100 82 101 61 102 62 103 70 104 63 105 64 106
REMARK SMILES IDX 68 107 71 108 65 109 66 110 69 111 67 112
REMARK H PARENT 23 7 17 12 3 17 8 32 20 38 26 41 91 65 59 76
REMARK Flexibility Score: inf
ROOT
ATOM      1  C   UNL A   1      31.811  26.952  23.127  1.00  0.00     0.331 C 
ATOM      2  O   UNL A   1      30.721  26.414  22.964  1.00  0.00    -0.250 OA
ENDROOT
BRANCH   1   3
ATOM      3  C   UNL A   1      33.143  26.248  22.827  1.00  0.00     0.218 C 
BRANCH   3   4
ATOM      4  N   UNL A   1      33.924  25.933  24.035  1.00  0.00    -0.339 N 
ATOM      5  C   UNL A   1      33.345  25.714  25.249  1.00  0.00     0.244 C 
ATOM      6  O   UNL A   1      33.423  26.611  26.090  1.00  0.00    -0.273 OA
ATOM      7  H   UNL A   1      34.904  25.879  23.963  1.00  0.00     0.164 HD
BRANCH   5   8
ATOM      8  C   UNL A   1      32.617  24.378  25.542  1.00  0.00     0.181 C 
BRANCH   8   9
ATOM      9  N   UNL A   1      33.332  23.501  26.463  1.00  0.00    -0.342 N 
ATOM     10  C   UNL A   1      34.055  22.369  26.268  1.00  0.00     0.243 C 
ATOM     11  O   UNL A   1      34.501  21.863  27.308  1.00  0.00    -0.273 OA
ATOM     12  H   UNL A   1      33.280  23.785  27.404  1.00  0.00     0.164 HD
BRANCH  10  13
ATOM     13  C   UNL A   1      34.237  21.609  24.917  1.00  0.00     0.176 C 
BRANCH  13  14
ATOM     14  N   UNL A   1      34.716  22.493  23.847  1.00  0.00    -0.340 N 
ATOM     15  O   UNL A   1      36.071  23.946  22.801  1.00  0.00    -0.269 OA
ATOM     16  C   UNL A   1      35.929  23.125  23.703  1.00  0.00     0.251 C 
ATOM     17  H   UNL A   1      34.070  22.658  23.123  1.00  0.00     0.164 HD
BRANCH  16  18
ATOM     18  C   UNL A   1      37.026  22.897  24.671  1.00  0.00     0.040 A 
ATOM     19  C   UNL A   1      37.740  21.692  24.706  1.00  0.00     0.017 A 
ATOM     20  C   UNL A   1      37.351  23.929  25.563  1.00  0.00     0.017 A 
ATOM     21  C   UNL A   1      38.715  21.489  25.687  1.00  0.00     0.040 A 
ATOM     22  C   UNL A   1      38.334  23.725  26.535  1.00  0.00     0.040 A 
ATOM     23  C   UNL A   1      38.994  22.503  26.598  1.00  0.00     0.123 A 
ATOM     24  F   UNL A   1      39.914  22.298  27.550  1.00  0.00    -0.207 F 
ENDBRANCH  16  18
ENDBRANCH  13  14
BRANCH  13  25
ATOM     25  C   UNL A   1      34.803  20.172  24.879  1.00  0.00     0.072 C 
BRANCH  25  26
ATOM     26  C   UNL A   1      33.872  19.012  24.693  1.00  0.00    -0.020 A 
ATOM     27  C   UNL A   1      32.552  19.117  24.281  1.00  0.00     0.087 A 
ATOM     28  C   UNL A   1      34.128  17.609  24.857  1.00  0.00     0.003 A 
ATOM     29  N   UNL A   1      31.966  17.885  24.376  1.00  0.00    -0.361 N 
ATOM     30  C   UNL A   1      32.902  16.948  24.739  1.00  0.00     0.046 A 
ATOM     31  C   UNL A   1      35.276  16.834  25.126  1.00  0.00     0.010 A 
ATOM     32  H   UNL A   1      31.014  17.698  24.209  1.00  0.00     0.166 HD
ATOM     33  C   UNL A   1      32.753  15.573  24.954  1.00  0.00     0.026 A 
ATOM     34  C   UNL A   1      35.150  15.447  25.292  1.00  0.00     0.001 A 
ATOM     35  C   UNL A   1      33.903  14.831  25.227  1.00  0.00     0.002 A 
ENDBRANCH  25  26
ENDBRANCH  13  25
ENDBRANCH  10  13
ENDBRANCH   8   9
BRANCH   8  36
ATOM     36  C   UNL A   1      31.104  24.459  25.728  1.00  0.00     0.101 C 
BRANCH  36  37
ATOM     37  S   UNL A   1      30.450  22.997  26.566  1.00  0.00    -0.177 SA
ATOM     38  H   UNL A   1      29.899  23.364  27.753  1.00  0.00     0.102 HD
ENDBRANCH  36  37
ENDBRANCH   8  36
ENDBRANCH   5   8
ENDBRANCH   3   4
BRANCH   3  39
ATOM     39  C   UNL A   1      32.835  24.951  22.056  1.00  0.00     0.193 C 
BRANCH  39  40
ATOM     40  O   UNL A   1      32.333  25.252  20.749  1.00  0.00    -0.394 OA
ATOM     41  H   UNL A   1      31.366  25.182  20.749  1.00  0.00     0.210 HD
ENDBRANCH  39  40
ENDBRANCH   3  39
ENDBRANCH   1   3
BRANCH   1  42
ATOM     42  O   UNL A   1      32.001  28.198  23.650  1.00  0.00    -0.460 OA
BRANCH  42  43
ATOM     43  C   UNL A   1      31.046  28.650  24.634  1.00  0.00     0.274 C 
BRANCH  43  44
ATOM     44  C   UNL A   1      31.434  30.046  25.118  1.00  0.00     0.275 C 
BRANCH  44  45
ATOM     45  O   UNL A   1      32.603  29.919  25.943  1.00  0.00    -0.458 OA
BRANCH  45  46
ATOM     46  C   UNL A   1      32.870  30.946  26.786  1.00  0.00     0.338 C 
ATOM     47  O   UNL A   1      32.113  31.851  27.086  1.00  0.00    -0.246 OA
BRANCH  46  48
ATOM     48  C   UNL A   1      34.230  30.765  27.365  1.00  0.00     0.060 A 
ATOM     49  C   UNL A   1      34.709  29.492  27.654  1.00  0.00     0.016 A 
ATOM     50  C   UNL A   1      35.002  31.873  27.727  1.00  0.00     0.016 A 
ATOM     51  C   UNL A   1      35.892  29.343  28.379  1.00  0.00     0.010 A 
ATOM     52  C   UNL A   1      36.243  31.702  28.373  1.00  0.00     0.010 A 
ATOM     53  C   UNL A   1      36.703  30.428  28.747  1.00  0.00    -0.014 A 
BRANCH  53  54
ATOM     54  C   UNL A   1      37.974  30.220  29.529  1.00  0.00     0.031 A 
ATOM     55  C   UNL A   1      39.146  29.458  28.947  1.00  0.00     0.074 A 
ATOM     56  C   UNL A   1      38.144  30.742  30.765  1.00  0.00     0.049 A 
ATOM     57  N   UNL A   1      40.157  28.890  29.565  1.00  0.00    -0.248 NA
ATOM     58  C   UNL A   1      39.187  29.308  27.485  1.00  0.00     0.031 C 
ATOM     59  C   UNL A   1      37.187  31.588  31.479  1.00  0.00     0.029 A 
ATOM     60  N   UNL A   1      39.205  30.655  31.642  1.00  0.00    -0.354 N 
ATOM     61  C   UNL A   1      40.895  28.240  28.579  1.00  0.00     0.074 A 
ATOM     62  C   UNL A   1      40.237  28.512  27.319  1.00  0.00     0.031 C 
ATOM     63  C   UNL A   1      37.739  32.030  32.615  1.00  0.00     0.029 A 
ATOM     64  C   UNL A   1      38.998  31.329  32.822  1.00  0.00     0.049 A 
ATOM     65  H   UNL A   1      40.031  30.156  31.442  1.00  0.00     0.167 HD
ATOM     66  C   UNL A   1      42.008  27.476  28.722  1.00  0.00     0.037 A 
ATOM     67  C   UNL A   1      39.660  31.315  33.995  1.00  0.00     0.037 A 
ATOM     68  C   UNL A   1      42.733  27.308  29.959  1.00  0.00     0.049 A 
ATOM     69  C   UNL A   1      40.819  30.388  34.174  1.00  0.00     0.074 A 
ATOM     70  C   UNL A   1      43.891  26.582  30.193  1.00  0.00     0.029 A 
ATOM     71  N   UNL A   1      42.390  27.903  31.163  1.00  0.00    -0.354 N 
ATOM     72  N   UNL A   1      41.402  29.618  33.291  1.00  0.00    -0.248 NA
ATOM     73  C   UNL A   1      41.369  30.278  35.531  1.00  0.00     0.031 C 
ATOM     74  C   UNL A   1      44.224  26.705  31.548  1.00  0.00     0.029 A 
ATOM     75  C   UNL A   1      43.297  27.539  32.148  1.00  0.00     0.049 A 
ATOM     76  H   UNL A   1      41.617  28.496  31.298  1.00  0.00     0.167 HD
ATOM     77  C   UNL A   1      42.375  28.918  33.984  1.00  0.00     0.074 A 
ATOM     78  C   UNL A   1      42.325  29.375  35.358  1.00  0.00     0.031 C 
ATOM     79  C   UNL A   1      43.226  27.971  33.519  1.00  0.00     0.037 A 
BRANCH  66  80
ATOM     80  C   UNL A   1      42.483  26.689  27.533  1.00  0.00     0.064 A 
ATOM     81  C   UNL A   1      43.466  27.158  26.651  1.00  0.00     0.173 A 
ATOM     82  C   UNL A   1      41.982  25.392  27.321  1.00  0.00     0.173 A 
ATOM     83  F   UNL A   1      43.995  28.379  26.814  1.00  0.00    -0.203 F 
ATOM     84  C   UNL A   1      43.906  26.373  25.586  1.00  0.00     0.198 A 
ATOM     85  C   UNL A   1      42.447  24.598  26.276  1.00  0.00     0.198 A 
ATOM     86  F   UNL A   1      41.056  24.882  28.147  1.00  0.00    -0.203 F 
ATOM     87  F   UNL A   1      44.821  26.855  24.732  1.00  0.00    -0.200 F 
ATOM     88  C   UNL A   1      43.403  25.093  25.404  1.00  0.00     0.200 A 
ATOM     89  F   UNL A   1      41.975  23.353  26.119  1.00  0.00    -0.200 F 
ATOM     90  F   UNL A   1      43.840  24.334  24.389  1.00  0.00    -0.200 F 
ENDBRANCH  66  80
BRANCH  67  91
ATOM     91  C   UNL A   1      39.127  32.115  35.128  1.00  0.00     0.064 A 
ATOM     92  C   UNL A   1      38.379  31.514  36.146  1.00  0.00     0.173 A 
ATOM     93  C   UNL A   1      39.431  33.481  35.256  1.00  0.00     0.173 A 
ATOM     94  F   UNL A   1      38.030  30.223  36.049  1.00  0.00    -0.203 F 
ATOM     95  C   UNL A   1      37.985  32.241  37.268  1.00  0.00     0.198 A 
ATOM     96  C   UNL A   1      39.072  34.195  36.394  1.00  0.00     0.198 A 
ATOM     97  F   UNL A   1      40.140  34.103  34.301  1.00  0.00    -0.203 F 
ATOM     98  F   UNL A   1      37.263  31.648  38.228  1.00  0.00    -0.200 F 
ATOM     99  C   UNL A   1      38.350  33.573  37.401  1.00  0.00     0.200 A 
ATOM    100  F   UNL A   1      39.450  35.474  36.528  1.00  0.00    -0.200 F 
ATOM    101  F   UNL A   1      38.010  34.258  38.502  1.00  0.00    -0.200 F 
ENDBRANCH  67  91
BRANCH  79 102
ATOM    102  C   UNL A   1      44.175  27.371  34.510  1.00  0.00     0.064 A 
ATOM    103  C   UNL A   1      43.851  26.201  35.213  1.00  0.00     0.173 A 
ATOM    104  C   UNL A   1      45.416  27.973  34.768  1.00  0.00     0.173 A 
ATOM    105  F   UNL A   1      42.665  25.605  35.017  1.00  0.00    -0.203 F 
ATOM    106  C   UNL A   1      44.725  25.668  36.155  1.00  0.00     0.198 A 
ATOM    107  C   UNL A   1      46.297  27.425  35.696  1.00  0.00     0.198 A 
ATOM    108  F   UNL A   1      45.771  29.094  34.123  1.00  0.00    -0.203 F 
ATOM    109  F   UNL A   1      44.374  24.578  36.851  1.00  0.00    -0.200 F 
ATOM    110  C   UNL A   1      45.948  26.278  36.393  1.00  0.00     0.200 A 
ATOM    111  F   UNL A   1      47.479  28.012  35.923  1.00  0.00    -0.200 F 
ATOM    112  F   UNL A   1      46.785  25.767  37.307  1.00  0.00    -0.200 F 
ENDBRANCH  79 102
ENDBRANCH  53  54
ENDBRANCH  46  48
ENDBRANCH  45  46
ENDBRANCH  44  45
ENDBRANCH  43  44
ENDBRANCH  42  43
ENDBRANCH   1  42
TORSDOF 23
ENDMDL
MODEL 2
REMARK VINA RESULT:     -12.0      4.097      9.933
REMARK SMILES O=C(N[C@@H](Cc1c[nH]c2ccccc12)C(=O)N[C@@H](CS)C(=O)N[C@@H](CO)C(=O)OCCOC(=O)c1ccc(-c2c3nc(c(-c4c(F)c(F)c(F)c(F)c4F)c4ccc([nH]4)c(-c4c(F)c(F)c(F)c(F)c4F)c4nc(c(-c5c(F)c(F)c(F)c(F)c5F)c5ccc2[nH]5)C=C4)C=C3)cc1)c1ccc(F)cc1
REMARK SMILES IDX 27 1 28 2 24 3 23 4 21 5 22 6 18 8 17 9 15 10 16 11 4 13
REMARK SMILES IDX 3 14 1 15 2 16 98 18 99 19 104 20 100 21 103 22 101 23
REMARK SMILES IDX 102 24 5 25 6 26 7 27 14 28 8 29 9 30 13 31 10 33 12 34
REMARK SMILES IDX 11 35 19 36 20 37 25 39 26 40 29 42 30 43 31 44 32 45 33 46
REMARK SMILES IDX 34 47 35 48 36 49 97 50 37 51 96 52 38 53 39 54 40 55 90 56
REMARK SMILES IDX 41 57 95 58 89 59 91 60 42 61 94 62 88 63 87 64 43 66 75 67
REMARK SMILES IDX 55 68 74 69 56 70 59 71 73 72 92 73 57 74 58 75 72 77 93 78
REMARK SMILES IDX 60 79 44 80 45 81 53 82 46 83 47 84 51 85 54 86 48 87 49 88
REMARK SMILES IDX 52 89 50 90 76 91 77 92 85 93 78 94 79 95 83 96 86 97 80 98
REMARK SMILES IDX 81 99 84 100 82 101 61 102 62 103 70 104 63 105 64 106
REMARK SMILES IDX 68 107 71 108 65 109 66 110 69 111 67 112
REMARK H PARENT 23 7 17 12 3 17 8 32 20 38 26 41 91 65 59 76
REMARK Flexibility Score: inf
ROOT
ATOM      1  C   UNL A   1      34.041  19.147  24.603  1.00  0.00     0.331 C 
ATOM      2  O   UNL A   1      34.269  17.943  24.582  1.00  0.00    -0.250 OA
ENDROOT
BRANCH   1   3
ATOM      3  C   UNL A   1      32.755  19.764  24.033  1.00  0.00     0.218 C 
BRANCH   3   4
ATOM      4  N   UNL A   1      32.943  21.126  23.505  1.00  0.00    -0.339 N 
ATOM      5  C   UNL A   1      32.198  22.187  23.925  1.00  0.00     0.244 C 
ATOM      6  O   UNL A   1      31.316  22.600  23.169  1.00  0.00    -0.273 OA
ATOM      7  H   UNL A   1      33.636  21.276  22.822  1.00  0.00     0.164 HD
BRANCH   5   8
ATOM      8  C   UNL A   1      32.464  22.837  25.306  1.00  0.00     0.181 C 
BRANCH   8   9
ATOM      9  N   UNL A   1      31.293  22.886  26.175  1.00  0.00    -0.342 N 
ATOM     10  C   UNL A   1      30.418  23.880  26.470  1.00  0.00     0.243 C 
ATOM     11  O   UNL A   1      29.545  23.564  27.292  1.00  0.00    -0.273 OA
ATOM     12  H   UNL A   1      31.101  22.036  26.633  1.00  0.00     0.164 HD
BRANCH  10  13
ATOM     13  C   UNL A   1      30.507  25.363  25.993  1.00  0.00     0.176 C 
BRANCH  13  14
ATOM     14  N   UNL A   1      29.356  25.747  25.167  1.00  0.00    -0.340 N 
ATOM     15  O   UNL A   1      28.209  26.854  23.586  1.00  0.00    -0.269 OA
ATOM     16  C   UNL A   1      29.304  26.534  24.041  1.00  0.00     0.251 C 
ATOM     17  H   UNL A   1      28.490  25.387  25.465  1.00  0.00     0.164 HD
BRANCH  16  18
ATOM     18  C   UNL A   1      30.541  27.072  23.429  1.00  0.00     0.040 A 
ATOM     19  C   UNL A   1      31.399  26.265  22.670  1.00  0.00     0.017 A 
ATOM     20  C   UNL A   1      30.840  28.428  23.618  1.00  0.00     0.017 A 
ATOM     21  C   UNL A   1      32.594  26.794  22.176  1.00  0.00     0.040 A 
ATOM     22  C   UNL A   1      32.033  28.955  23.113  1.00  0.00     0.040 A 
ATOM     23  C   UNL A   1      32.905  28.129  22.413  1.00  0.00     0.123 A 
ATOM     24  F   UNL A   1      34.062  28.628  21.957  1.00  0.00    -0.207 F 
ENDBRANCH  16  18
ENDBRANCH  13  14
BRANCH  13  25
ATOM     25  C   UNL A   1      31.039  26.473  26.928  1.00  0.00     0.072 C 
BRANCH  25  26
ATOM     26  C   UNL A   1      32.369  27.104  26.648  1.00  0.00    -0.020 A 
ATOM     27  C   UNL A   1      33.454  26.447  26.088  1.00  0.00     0.087 A 
ATOM     28  C   UNL A   1      32.788  28.462  26.853  1.00  0.00     0.003 A 
ATOM     29  N   UNL A   1      34.537  27.281  26.127  1.00  0.00    -0.361 N 
ATOM     30  C   UNL A   1      34.163  28.514  26.604  1.00  0.00     0.046 A 
ATOM     31  C   UNL A   1      32.144  29.651  27.258  1.00  0.00     0.010 A 
ATOM     32  H   UNL A   1      35.451  27.033  25.855  1.00  0.00     0.166 HD
ATOM     33  C   UNL A   1      34.934  29.662  26.813  1.00  0.00     0.026 A 
ATOM     34  C   UNL A   1      32.895  30.823  27.422  1.00  0.00     0.001 A 
ATOM     35  C   UNL A   1      34.273  30.821  27.222  1.00  0.00     0.002 A 
ENDBRANCH  25  26
ENDBRANCH  13  25
ENDBRANCH  10  13
ENDBRANCH   8   9
BRANCH   8  36
ATOM     36  C   UNL A   1      33.786  22.478  25.978  1.00  0.00     0.101 C 
BRANCH  36  37
ATOM     37  S   UNL A   1      33.590  22.232  27.758  1.00  0.00    -0.177 SA
ATOM     38  H   UNL A   1      34.673  22.738  28.407  1.00  0.00     0.102 HD
ENDBRANCH  36  37
ENDBRANCH   8  36
ENDBRANCH   5   8
ENDBRANCH   3   4
BRANCH   3  39
ATOM     39  C   UNL A   1      32.237  18.841  22.915  1.00  0.00     0.193 C 
BRANCH  39  40
ATOM     40  O   UNL A   1      31.857  17.569  23.450  1.00  0.00    -0.394 OA
ATOM     41  H   UNL A   1      31.805  17.626  24.417  1.00  0.00     0.210 HD
ENDBRANCH  39  40
ENDBRANCH   3  39
ENDBRANCH   1   3
BRANCH   1  42
ATOM     42  O   UNL A   1      34.902  20.100  25.063  1.00  0.00    -0.460 OA
BRANCH  42  43
ATOM     43  C   UNL A   1      36.314  19.813  24.963  1.00  0.00     0.274 C 
BRANCH  43  44
ATOM     44  C   UNL A   1      37.065  21.081  24.561  1.00  0.00     0.275 C 
BRANCH  44  45
ATOM     45  O   UNL A   1      37.581  21.687  25.756  1.00  0.00    -0.458 OA
BRANCH  45  46
ATOM     46  C   UNL A   1      38.888  21.466  26.038  1.00  0.00     0.338 C 
ATOM     47  O   UNL A   1      39.522  20.458  25.785  1.00  0.00    -0.246 OA
BRANCH  46  48
ATOM     48  C   UNL A   1      39.472  22.690  26.652  1.00  0.00     0.060 A 
ATOM     49  C   UNL A   1      39.083  23.952  26.216  1.00  0.00     0.016 A 
ATOM     50  C   UNL A   1      40.496  22.591  27.600  1.00  0.00     0.016 A 
ATOM     51  C   UNL A   1      39.779  25.081  26.650  1.00  0.00     0.010 A 
ATOM     52  C   UNL A   1      41.123  23.750  28.102  1.00  0.00     0.010 A 
ATOM     53  C   UNL A   1      40.800  25.026  27.611  1.00  0.00    -0.014 A 
BRANCH  53  54
ATOM     54  C   UNL A   1      41.523  26.273  28.051  1.00  0.00     0.031 A 
ATOM     55  C   UNL A   1      40.851  27.311  28.926  1.00  0.00     0.074 A 
ATOM     56  C   UNL A   1      42.816  26.500  27.725  1.00  0.00     0.049 A 
ATOM     57  N   UNL A   1      41.171  28.570  29.117  1.00  0.00    -0.248 NA
ATOM     58  C   UNL A   1      39.663  26.882  29.679  1.00  0.00     0.031 C 
ATOM     59  C   UNL A   1      43.684  25.594  26.974  1.00  0.00     0.029 A 
ATOM     60  N   UNL A   1      43.642  27.568  28.009  1.00  0.00    -0.354 N 
ATOM     61  C   UNL A   1      40.175  29.103  29.930  1.00  0.00     0.074 A 
ATOM     62  C   UNL A   1      39.258  28.022  30.226  1.00  0.00     0.031 C 
ATOM     63  C   UNL A   1      44.930  26.081  26.954  1.00  0.00     0.029 A 
ATOM     64  C   UNL A   1      44.909  27.431  27.494  1.00  0.00     0.049 A 
ATOM     65  H   UNL A   1      43.351  28.353  28.527  1.00  0.00     0.167 HD
ATOM     66  C   UNL A   1      40.036  30.379  30.371  1.00  0.00     0.037 A 
ATOM     67  C   UNL A   1      45.922  28.308  27.352  1.00  0.00     0.037 A 
ATOM     68  C   UNL A   1      41.014  31.423  30.180  1.00  0.00     0.049 A 
ATOM     69  C   UNL A   1      45.719  29.736  27.743  1.00  0.00     0.074 A 
ATOM     70  C   UNL A   1      40.978  32.737  30.621  1.00  0.00     0.029 A 
ATOM     71  N   UNL A   1      42.222  31.263  29.521  1.00  0.00    -0.354 N 
ATOM     72  N   UNL A   1      44.693  30.290  28.338  1.00  0.00    -0.248 NA
ATOM     73  C   UNL A   1      46.788  30.676  27.380  1.00  0.00     0.031 C 
ATOM     74  C   UNL A   1      42.145  33.381  30.192  1.00  0.00     0.029 A 
ATOM     75  C   UNL A   1      42.927  32.458  29.519  1.00  0.00     0.049 A 
ATOM     76  H   UNL A   1      42.535  30.423  29.113  1.00  0.00     0.167 HD
ATOM     77  C   UNL A   1      44.980  31.643  28.407  1.00  0.00     0.074 A 
ATOM     78  C   UNL A   1      46.292  31.825  27.817  1.00  0.00     0.031 C 
ATOM     79  C   UNL A   1      44.216  32.644  28.906  1.00  0.00     0.037 A 
BRANCH  66  80
ATOM     80  C   UNL A   1      38.747  30.759  31.045  1.00  0.00     0.064 A 
ATOM     81  C   UNL A   1      38.600  30.812  32.437  1.00  0.00     0.173 A 
ATOM     82  C   UNL A   1      37.650  31.150  30.258  1.00  0.00     0.173 A 
ATOM     83  F   UNL A   1      39.617  30.468  33.239  1.00  0.00    -0.203 F 
ATOM     84  C   UNL A   1      37.396  31.212  33.015  1.00  0.00     0.198 A 
ATOM     85  C   UNL A   1      36.459  31.581  30.838  1.00  0.00     0.198 A 
ATOM     86  F   UNL A   1      37.741  31.141  28.919  1.00  0.00    -0.203 F 
ATOM     87  F   UNL A   1      37.264  31.221  34.350  1.00  0.00    -0.200 F 
ATOM     88  C   UNL A   1      36.331  31.602  32.217  1.00  0.00     0.200 A 
ATOM     89  F   UNL A   1      35.442  31.980  30.062  1.00  0.00    -0.200 F 
ATOM     90  F   UNL A   1      35.179  32.002  32.775  1.00  0.00    -0.200 F 
ENDBRANCH  66  80
BRANCH  67  91
ATOM     91  C   UNL A   1      47.166  27.862  26.672  1.00  0.00     0.064 A 
ATOM     92  C   UNL A   1      47.251  27.827  25.276  1.00  0.00     0.173 A 
ATOM     93  C   UNL A   1      48.320  27.545  27.408  1.00  0.00     0.173 A 
ATOM     94  F   UNL A   1      46.167  28.083  24.531  1.00  0.00    -0.203 F 
ATOM     95  C   UNL A   1      48.455  27.526  24.641  1.00  0.00     0.198 A 
ATOM     96  C   UNL A   1      49.530  27.284  26.774  1.00  0.00     0.198 A 
ATOM     97  F   UNL A   1      48.284  27.557  28.749  1.00  0.00    -0.203 F 
ATOM     98  F   UNL A   1      48.514  27.491  23.303  1.00  0.00    -0.200 F 
ATOM     99  C   UNL A   1      49.597  27.276  25.389  1.00  0.00     0.200 A 
ATOM    100  F   UNL A   1      50.633  27.069  27.503  1.00  0.00    -0.200 F 
ATOM    101  F   UNL A   1      50.763  27.033  24.777  1.00  0.00    -0.200 F 
ENDBRANCH  67  91
BRANCH  79 102
ATOM    102  C   UNL A   1      44.785  34.027  28.838  1.00  0.00     0.064 A 
ATOM    103  C   UNL A   1      44.445  34.904  27.797  1.00  0.00     0.173 A 
ATOM    104  C   UNL A   1      45.685  34.479  29.814  1.00  0.00     0.173 A 
ATOM    105  F   UNL A   1      43.607  34.506  26.828  1.00  0.00    -0.203 F 
ATOM    106  C   UNL A   1      45.003  36.176  27.724  1.00  0.00     0.198 A 
ATOM    107  C   UNL A   1      46.225  35.761  29.750  1.00  0.00     0.198 A 
ATOM    108  F   UNL A   1      46.042  33.677  30.828  1.00  0.00    -0.203 F 
ATOM    109  F   UNL A   1      44.703  36.980  26.695  1.00  0.00    -0.200 F 
ATOM    110  C   UNL A   1      45.890  36.605  28.701  1.00  0.00     0.200 A 
ATOM    111  F   UNL A   1      47.078  36.175  30.696  1.00  0.00    -0.200 F 
ATOM    112  F   UNL A   1      46.433  37.828  28.625  1.00  0.00    -0.200 F 
ENDBRANCH  79 102
ENDBRANCH  53  54
ENDBRANCH  46  48
ENDBRANCH  45  46
ENDBRANCH  44  45
ENDBRANCH  43  44
ENDBRANCH  42  43
ENDBRANCH   1  42
TORSDOF 23
ENDMDL
MODEL 3
REMARK VINA RESULT:     -11.5      2.913      8.436
REMARK SMILES O=C(N[C@@H](Cc1c[nH]c2ccccc12)C(=O)N[C@@H](CS)C(=O)N[C@@H](CO)C(=O)OCCOC(=O)c1ccc(-c2c3nc(c(-c4c(F)c(F)c(F)c(F)c4F)c4ccc([nH]4)c(-c4c(F)c(F)c(F)c(F)c4F)c4nc(c(-c5c(F)c(F)c(F)c(F)c5F)c5ccc2[nH]5)C=C4)C=C3)cc1)c1ccc(F)cc1
REMARK SMILES IDX 27 1 28 2 24 3 23 4 21 5 22 6 18 8 17 9 15 10 16 11 4 13
REMARK SMILES IDX 3 14 1 15 2 16 98 18 99 19 104 20 100 21 103 22 101 23
REMARK SMILES IDX 102 24 5 25 6 26 7 27 14 28 8 29 9 30 13 31 10 33 12 34
REMARK SMILES IDX 11 35 19 36 20 37 25 39 26 40 29 42 30 43 31 44 32 45 33 46
REMARK SMILES IDX 34 47 35 48 36 49 97 50 37 51 96 52 38 53 39 54 40 55 90 56
REMARK SMILES IDX 41 57 95 58 89 59 91 60 42 61 94 62 88 63 87 64 43 66 75 67
REMARK SMILES IDX 55 68 74 69 56 70 59 71 73 72 92 73 57 74 58 75 72 77 93 78
REMARK SMILES IDX 60 79 44 80 45 81 53 82 46 83 47 84 51 85 54 86 48 87 49 88
REMARK SMILES IDX 52 89 50 90 76 91 77 92 85 93 78 94 79 95 83 96 86 97 80 98
REMARK SMILES IDX 81 99 84 100 82 101 61 102 62 103 70 104 63 105 64 106
REMARK SMILES IDX 68 107 71 108 65 109 66 110 69 111 67 112
REMARK H PARENT 23 7 17 12 3 17 8 32 20 38 26 41 91 65 59 76
REMARK Flexibility Score: inf
ROOT
ATOM      1  C   UNL A   1      37.751  20.341  25.103  1.00  0.00     0.331 C 
ATOM      2  O   UNL A   1      37.496  19.151  24.954  1.00  0.00    -0.250 OA
ENDROOT
BRANCH   1   3
ATOM      3  C   UNL A   1      36.704  21.449  24.919  1.00  0.00     0.218 C 
BRANCH   3   4
ATOM      4  N   UNL A   1      35.566  21.339  25.848  1.00  0.00    -0.339 N 
ATOM      5  C   UNL A   1      34.531  22.226  25.851  1.00  0.00     0.244 C 
ATOM      6  O   UNL A   1      34.493  23.057  26.761  1.00  0.00    -0.273 OA
ATOM      7  H   UNL A   1      35.553  20.594  26.492  1.00  0.00     0.164 HD
BRANCH   5   8
ATOM      8  C   UNL A   1      33.450  22.176  24.742  1.00  0.00     0.181 C 
BRANCH   8   9
ATOM      9  N   UNL A   1      33.745  23.016  23.587  1.00  0.00    -0.342 N 
ATOM     10  C   UNL A   1      33.129  24.113  23.076  1.00  0.00     0.243 C 
ATOM     11  O   UNL A   1      33.652  24.557  22.043  1.00  0.00    -0.273 OA
ATOM     12  H   UNL A   1      34.543  22.734  23.082  1.00  0.00     0.164 HD
BRANCH  10  13
ATOM     13  C   UNL A   1      31.793  24.741  23.579  1.00  0.00     0.176 C 
BRANCH  13  14
ATOM     14  N   UNL A   1      31.517  24.403  24.981  1.00  0.00    -0.340 N 
ATOM     15  O   UNL A   1      31.544  24.620  27.215  1.00  0.00    -0.269 OA
ATOM     16  C   UNL A   1      31.700  25.152  26.120  1.00  0.00     0.251 C 
ATOM     17  H   UNL A   1      31.145  23.504  25.127  1.00  0.00     0.164 HD
BRANCH  16  18
ATOM     18  C   UNL A   1      32.170  26.555  26.042  1.00  0.00     0.040 A 
ATOM     19  C   UNL A   1      31.328  27.632  26.345  1.00  0.00     0.017 A 
ATOM     20  C   UNL A   1      33.499  26.790  25.662  1.00  0.00     0.017 A 
ATOM     21  C   UNL A   1      31.788  28.941  26.184  1.00  0.00     0.040 A 
ATOM     22  C   UNL A   1      33.958  28.102  25.511  1.00  0.00     0.040 A 
ATOM     23  C   UNL A   1      33.093  29.163  25.757  1.00  0.00     0.123 A 
ATOM     24  F   UNL A   1      33.525  30.419  25.583  1.00  0.00    -0.207 F 
ENDBRANCH  16  18
ENDBRANCH  13  14
BRANCH  13  25
ATOM     25  C   UNL A   1      31.371  26.166  23.156  1.00  0.00     0.072 C 
BRANCH  25  26
ATOM     26  C   UNL A   1      29.969  26.632  23.412  1.00  0.00    -0.020 A 
ATOM     27  C   UNL A   1      28.955  25.839  23.928  1.00  0.00     0.087 A 
ATOM     28  C   UNL A   1      29.400  27.936  23.224  1.00  0.00     0.003 A 
ATOM     29  N   UNL A   1      27.783  26.542  23.876  1.00  0.00    -0.361 N 
ATOM     30  C   UNL A   1      28.023  27.821  23.437  1.00  0.00     0.046 A 
ATOM     31  C   UNL A   1      29.910  29.201  22.863  1.00  0.00     0.010 A 
ATOM     32  H   UNL A   1      26.898  26.183  24.117  1.00  0.00     0.166 HD
ATOM     33  C   UNL A   1      27.127  28.877  23.230  1.00  0.00     0.026 A 
ATOM     34  C   UNL A   1      29.031  30.282  22.703  1.00  0.00     0.001 A 
ATOM     35  C   UNL A   1      27.658  30.114  22.865  1.00  0.00     0.002 A 
ENDBRANCH  25  26
ENDBRANCH  13  25
ENDBRANCH  10  13
ENDBRANCH   8   9
BRANCH   8  36
ATOM     36  C   UNL A   1      32.854  20.804  24.441  1.00  0.00     0.101 C 
BRANCH  36  37
ATOM     37  S   UNL A   1      32.152  20.726  22.778  1.00  0.00    -0.177 SA
ATOM     38  H   UNL A   1      33.155  20.600  21.868  1.00  0.00     0.102 HD
ENDBRANCH  36  37
ENDBRANCH   8  36
ENDBRANCH   5   8
ENDBRANCH   3   4
BRANCH   3  39
ATOM     39  C   UNL A   1      37.405  22.806  25.117  1.00  0.00     0.193 C 
BRANCH  39  40
ATOM     40  O   UNL A   1      37.682  23.029  26.504  1.00  0.00    -0.394 OA
ATOM     41  H   UNL A   1      38.592  22.757  26.701  1.00  0.00     0.210 HD
ENDBRANCH  39  40
ENDBRANCH   3  39
ENDBRANCH   1   3
BRANCH   1  42
ATOM     42  O   UNL A   1      38.987  20.849  25.379  1.00  0.00    -0.460 OA
BRANCH  42  43
ATOM     43  C   UNL A   1      40.000  19.915  25.811  1.00  0.00     0.274 C 
BRANCH  43  44
ATOM     44  C   UNL A   1      41.290  20.671  26.125  1.00  0.00     0.275 C 
BRANCH  44  45
ATOM     45  O   UNL A   1      41.106  22.041  25.736  1.00  0.00    -0.458 OA
BRANCH  45  46
ATOM     46  C   UNL A   1      42.226  22.789  25.586  1.00  0.00     0.338 C 
ATOM     47  O   UNL A   1      43.083  22.645  24.734  1.00  0.00    -0.246 OA
BRANCH  46  48
ATOM     48  C   UNL A   1      42.223  23.886  26.592  1.00  0.00     0.060 A 
ATOM     49  C   UNL A   1      41.697  23.676  27.862  1.00  0.00     0.016 A 
ATOM     50  C   UNL A   1      42.649  25.172  26.244  1.00  0.00     0.016 A 
ATOM     51  C   UNL A   1      41.511  24.757  28.725  1.00  0.00     0.010 A 
ATOM     52  C   UNL A   1      42.545  26.235  27.165  1.00  0.00     0.010 A 
ATOM     53  C   UNL A   1      41.939  26.058  28.420  1.00  0.00    -0.014 A 
BRANCH  53  54
ATOM     54  C   UNL A   1      41.720  27.196  29.384  1.00  0.00     0.031 A 
ATOM     55  C   UNL A   1      42.660  27.440  30.547  1.00  0.00     0.074 A 
ATOM     56  C   UNL A   1      40.705  28.076  29.228  1.00  0.00     0.049 A 
ATOM     57  N   UNL A   1      42.455  28.125  31.649  1.00  0.00    -0.248 NA
ATOM     58  C   UNL A   1      43.996  26.833  30.466  1.00  0.00     0.031 C 
ATOM     59  C   UNL A   1      39.741  28.090  28.129  1.00  0.00     0.029 A 
ATOM     60  N   UNL A   1      40.326  29.158  29.996  1.00  0.00    -0.354 N 
ATOM     61  C   UNL A   1      43.596  27.951  32.428  1.00  0.00     0.074 A 
ATOM     62  C   UNL A   1      44.503  27.125  31.658  1.00  0.00     0.031 C 
ATOM     63  C   UNL A   1      38.964  29.175  28.227  1.00  0.00     0.029 A 
ATOM     64  C   UNL A   1      39.224  29.817  29.506  1.00  0.00     0.049 A 
ATOM     65  H   UNL A   1      40.799  29.431  30.816  1.00  0.00     0.167 HD
ATOM     66  C   UNL A   1      43.850  28.425  33.674  1.00  0.00     0.037 A 
ATOM     67  C   UNL A   1      38.420  30.752  30.048  1.00  0.00     0.037 A 
ATOM     68  C   UNL A   1      43.001  29.349  34.388  1.00  0.00     0.049 A 
ATOM     69  C   UNL A   1      38.645  31.187  31.461  1.00  0.00     0.074 A 
ATOM     70  C   UNL A   1      43.192  29.912  35.640  1.00  0.00     0.029 A 
ATOM     71  N   UNL A   1      41.815  29.872  33.898  1.00  0.00    -0.354 N 
ATOM     72  N   UNL A   1      39.620  30.870  32.274  1.00  0.00    -0.248 NA
ATOM     73  C   UNL A   1      37.620  32.056  32.053  1.00  0.00     0.031 C 
ATOM     74  C   UNL A   1      42.101  30.743  35.923  1.00  0.00     0.029 A 
ATOM     75  C   UNL A   1      41.251  30.729  34.831  1.00  0.00     0.049 A 
ATOM     76  H   UNL A   1      41.430  29.665  33.015  1.00  0.00     0.167 HD
ATOM     77  C   UNL A   1      39.322  31.484  33.479  1.00  0.00     0.074 A 
ATOM     78  C   UNL A   1      38.087  32.217  33.284  1.00  0.00     0.031 C 
ATOM     79  C   UNL A   1      40.009  31.432  34.646  1.00  0.00     0.037 A 
BRANCH  66  80
ATOM     80  C   UNL A   1      45.060  27.903  34.397  1.00  0.00     0.064 A 
ATOM     81  C   UNL A   1      46.335  28.465  34.256  1.00  0.00     0.173 A 
ATOM     82  C   UNL A   1      44.910  26.849  35.316  1.00  0.00     0.173 A 
ATOM     83  F   UNL A   1      46.536  29.485  33.409  1.00  0.00    -0.203 F 
ATOM     84  C   UNL A   1      47.419  27.973  34.981  1.00  0.00     0.198 A 
ATOM     85  C   UNL A   1      45.988  26.381  36.063  1.00  0.00     0.198 A 
ATOM     86  F   UNL A   1      43.707  26.286  35.509  1.00  0.00    -0.203 F 
ATOM     87  F   UNL A   1      48.639  28.502  34.804  1.00  0.00    -0.200 F 
ATOM     88  C   UNL A   1      47.244  26.938  35.888  1.00  0.00     0.200 A 
ATOM     89  F   UNL A   1      45.808  25.397  36.956  1.00  0.00    -0.200 F 
ATOM     90  F   UNL A   1      48.285  26.478  36.597  1.00  0.00    -0.200 F 
ENDBRANCH  66  80
BRANCH  67  91
ATOM     91  C   UNL A   1      37.239  31.218  29.275  1.00  0.00     0.064 A 
ATOM     92  C   UNL A   1      36.106  30.409  29.133  1.00  0.00     0.173 A 
ATOM     93  C   UNL A   1      37.191  32.515  28.738  1.00  0.00     0.173 A 
ATOM     94  F   UNL A   1      36.118  29.150  29.594  1.00  0.00    -0.203 F 
ATOM     95  C   UNL A   1      34.955  30.893  28.513  1.00  0.00     0.198 A 
ATOM     96  C   UNL A   1      36.030  33.011  28.155  1.00  0.00     0.198 A 
ATOM     97  F   UNL A   1      38.256  33.324  28.842  1.00  0.00    -0.203 F 
ATOM     98  F   UNL A   1      33.884  30.101  28.381  1.00  0.00    -0.200 F 
ATOM     99  C   UNL A   1      34.911  32.199  28.044  1.00  0.00     0.200 A 
ATOM    100  F   UNL A   1      35.986  34.280  27.728  1.00  0.00    -0.200 F 
ATOM    101  F   UNL A   1      33.789  32.678  27.491  1.00  0.00    -0.200 F 
ENDBRANCH  67  91
BRANCH  79 102
ATOM    102  C   UNL A   1      39.437  32.195  35.800  1.00  0.00     0.064 A 
ATOM    103  C   UNL A   1      38.507  31.609  36.671  1.00  0.00     0.173 A 
ATOM    104  C   UNL A   1      39.814  33.526  36.036  1.00  0.00     0.173 A 
ATOM    105  F   UNL A   1      38.098  30.347  36.471  1.00  0.00    -0.203 F 
ATOM    106  C   UNL A   1      37.956  32.336  37.723  1.00  0.00     0.198 A 
ATOM    107  C   UNL A   1      39.278  34.243  37.102  1.00  0.00     0.198 A 
ATOM    108  F   UNL A   1      40.699  34.131  35.230  1.00  0.00    -0.203 F 
ATOM    109  F   UNL A   1      37.032  31.772  38.513  1.00  0.00    -0.200 F 
ATOM    110  C   UNL A   1      38.344  33.650  37.939  1.00  0.00     0.200 A 
ATOM    111  F   UNL A   1      39.655  35.511  37.312  1.00  0.00    -0.200 F 
ATOM    112  F   UNL A   1      37.807  34.350  38.948  1.00  0.00    -0.200 F 
ENDBRANCH  79 102
ENDBRANCH  53  54
ENDBRANCH  46  48
ENDBRANCH  45  46
ENDBRANCH  44  45
ENDBRANCH  43  44
ENDBRANCH  42  43
ENDBRANCH   1  42
TORSDOF 23
ENDMDL
