MODEL 1
REMARK VINA RESULT:     -12.2      0.000      0.000
REMARK SMILES CC(=O)O[C@@H]1[C@H](O)C(C)=C(CC[C@@H](C)CC(=O)OCCOC(=O)c2ccc(-c3c4nc(c(-c5c(F)c(F)c(F)c(F)c5F)c5ccc([nH]5)c(-c5c(F)c(F)c(F)c(F)c5F)c5nc(c(-c6c(F)c(F)c(F)c(F)c6F)c6ccc3[nH]6)C=C5)C=C4)cc2)[C@@]2(C)CCCC(C)(C)[C@H]12
REMARK SMILES IDX 16 1 17 2 15 3 13 4 14 5 12 6 11 7 10 8 5 9 6 10 95 11 8 12
REMARK SMILES IDX 87 13 92 14 9 15 89 16 88 17 91 18 93 19 94 20 90 21 4 22
REMARK SMILES IDX 2 23 1 24 3 25 7 26 18 28 19 29 20 30 21 31 22 32 23 33
REMARK SMILES IDX 24 34 25 35 86 36 26 37 85 38 27 39 28 40 29 41 79 42 30 43
REMARK SMILES IDX 84 44 78 45 80 46 31 47 83 48 77 49 76 50 32 52 64 53 44 54
REMARK SMILES IDX 63 55 45 56 48 57 62 58 81 59 46 60 47 61 61 63 82 64 49 65
REMARK SMILES IDX 33 66 34 67 42 68 35 69 36 70 40 71 43 72 37 73 38 74 41 75
REMARK SMILES IDX 39 76 65 77 66 78 74 79 67 80 68 81 72 82 75 83 69 84 70 85
REMARK SMILES IDX 73 86 71 87 50 88 51 89 59 90 52 91 53 92 57 93 60 94 54 95
REMARK SMILES IDX 55 96 58 97 56 98
REMARK H PARENT 7 27 80 51 48 62
REMARK Flexibility Score: inf
ROOT
ATOM      1  C   UNL A   1      34.233  19.172  24.729  1.00  0.00     0.306 C 
ATOM      2  O   UNL A   1      33.589  18.152  24.493  1.00  0.00    -0.252 OA
ENDROOT
BRANCH   1   3
ATOM      3  C   UNL A   1      33.563  20.471  25.126  1.00  0.00     0.126 C 
BRANCH   3   4
ATOM      4  C   UNL A   1      32.127  20.853  24.655  1.00  0.00    -0.003 C 
ATOM      5  C   UNL A   1      32.264  21.109  23.139  1.00  0.00     0.008 C 
BRANCH   4   6
ATOM      6  C   UNL A   1      31.461  22.020  25.450  1.00  0.00     0.008 C 
BRANCH   6   7
ATOM      7  C   UNL A   1      32.400  23.034  26.201  1.00  0.00     0.032 C 
BRANCH   7   8
ATOM      8  C   UNL A   1      32.410  24.617  26.243  1.00  0.00    -0.062 C 
ATOM      9  C   UNL A   1      30.537  25.851  24.317  1.00  0.00     0.213 C 
ATOM     10  C   UNL A   1      30.158  25.203  25.719  1.00  0.00     0.181 C 
ATOM     11  C   UNL A   1      32.179  25.495  23.943  1.00  0.00     0.049 C 
ATOM     12  C   UNL A   1      31.344  25.391  26.623  1.00  0.00    -0.042 C 
ATOM     13  C   UNL A   1      33.295  25.318  25.135  1.00  0.00    -0.004 C 
ATOM     14  C   UNL A   1      32.790  25.580  22.494  1.00  0.00    -0.028 C 
ATOM     15  C   UNL A   1      31.424  26.869  27.015  1.00  0.00     0.042 C 
ATOM     16  C   UNL A   1      34.570  24.471  24.681  1.00  0.00     0.011 C 
ATOM     17  C   UNL A   1      34.043  26.573  25.704  1.00  0.00     0.016 C 
ATOM     18  C   UNL A   1      33.582  24.247  22.284  1.00  0.00     0.007 C 
ATOM     19  C   UNL A   1      33.750  26.749  22.227  1.00  0.00     0.011 C 
ATOM     20  C   UNL A   1      31.713  25.605  21.402  1.00  0.00     0.011 C 
ATOM     21  C   UNL A   1      34.747  24.039  23.231  1.00  0.00     0.001 C 
BRANCH   9  22
ATOM     22  O   UNL A   1      29.859  27.102  23.919  1.00  0.00    -0.459 OA
BRANCH  22  23
ATOM     23  C   UNL A   1      30.600  28.231  23.648  1.00  0.00     0.303 C 
ATOM     24  C   UNL A   1      30.308  29.016  22.378  1.00  0.00     0.139 C 
ATOM     25  O   UNL A   1      31.491  28.617  24.400  1.00  0.00    -0.253 OA
ENDBRANCH  22  23
ENDBRANCH   9  22
BRANCH  10  26
ATOM     26  O   UNL A   1      28.955  25.564  26.378  1.00  0.00    -0.385 OA
ATOM     27  H   UNL A   1      28.616  26.390  26.002  1.00  0.00     0.211 HD
ENDBRANCH  10  26
ENDBRANCH   7   8
ENDBRANCH   6   7
ENDBRANCH   4   6
ENDBRANCH   3   4
ENDBRANCH   1   3
BRANCH   1  28
ATOM     28  O   UNL A   1      35.579  19.258  24.643  1.00  0.00    -0.462 OA
BRANCH  28  29
ATOM     29  C   UNL A   1      36.141  20.505  25.085  1.00  0.00     0.274 C 
BRANCH  29  30
ATOM     30  C   UNL A   1      37.674  20.529  24.992  1.00  0.00     0.275 C 
BRANCH  30  31
ATOM     31  O   UNL A   1      38.375  21.758  25.321  1.00  0.00    -0.458 OA
BRANCH  31  32
ATOM     32  C   UNL A   1      39.398  21.633  26.181  1.00  0.00     0.338 C 
ATOM     33  O   UNL A   1      39.813  20.574  26.671  1.00  0.00    -0.246 OA
BRANCH  32  34
ATOM     34  C   UNL A   1      39.951  22.862  26.718  1.00  0.00     0.060 A 
ATOM     35  C   UNL A   1      40.906  22.841  27.724  1.00  0.00     0.016 A 
ATOM     36  C   UNL A   1      39.318  24.063  26.419  1.00  0.00     0.016 A 
ATOM     37  C   UNL A   1      41.321  24.053  28.284  1.00  0.00     0.010 A 
ATOM     38  C   UNL A   1      39.793  25.274  26.865  1.00  0.00     0.010 A 
ATOM     39  C   UNL A   1      40.830  25.279  27.781  1.00  0.00    -0.014 A 
BRANCH  39  40
ATOM     40  C   UNL A   1      41.542  26.551  27.991  1.00  0.00     0.031 A 
ATOM     41  C   UNL A   1      42.940  26.789  27.502  1.00  0.00     0.074 A 
ATOM     42  C   UNL A   1      40.944  27.408  28.841  1.00  0.00     0.049 A 
ATOM     43  N   UNL A   1      43.666  27.874  27.605  1.00  0.00    -0.248 NA
ATOM     44  C   UNL A   1      43.649  25.659  26.878  1.00  0.00     0.031 C 
ATOM     45  C   UNL A   1      39.692  27.138  29.565  1.00  0.00     0.029 A 
ATOM     46  N   UNL A   1      41.290  28.662  29.249  1.00  0.00    -0.354 N 
ATOM     47  C   UNL A   1      44.902  27.559  27.057  1.00  0.00     0.074 A 
ATOM     48  C   UNL A   1      44.868  26.155  26.713  1.00  0.00     0.031 C 
ATOM     49  C   UNL A   1      39.329  28.229  30.246  1.00  0.00     0.029 A 
ATOM     50  C   UNL A   1      40.337  29.256  30.039  1.00  0.00     0.049 A 
ATOM     51  H   UNL A   1      42.138  29.099  29.003  1.00  0.00     0.167 HD
ATOM     52  C   UNL A   1      45.947  28.390  26.826  1.00  0.00     0.037 A 
ATOM     53  C   UNL A   1      40.271  30.511  30.508  1.00  0.00     0.037 A 
ATOM     54  C   UNL A   1      45.925  29.786  27.179  1.00  0.00     0.049 A 
ATOM     55  C   UNL A   1      41.379  31.446  30.131  1.00  0.00     0.074 A 
ATOM     56  C   UNL A   1      46.861  30.768  26.908  1.00  0.00     0.029 A 
ATOM     57  N   UNL A   1      44.900  30.395  27.895  1.00  0.00    -0.354 N 
ATOM     58  N   UNL A   1      42.470  31.198  29.446  1.00  0.00    -0.248 NA
ATOM     59  C   UNL A   1      41.239  32.838  30.566  1.00  0.00     0.031 C 
ATOM     60  C   UNL A   1      46.419  31.960  27.495  1.00  0.00     0.029 A 
ATOM     61  C   UNL A   1      45.184  31.735  28.085  1.00  0.00     0.049 A 
ATOM     62  H   UNL A   1      44.091  29.938  28.219  1.00  0.00     0.167 HD
ATOM     63  C   UNL A   1      43.138  32.406  29.345  1.00  0.00     0.074 A 
ATOM     64  C   UNL A   1      42.310  33.391  30.017  1.00  0.00     0.031 C 
ATOM     65  C   UNL A   1      44.330  32.682  28.759  1.00  0.00     0.037 A 
BRANCH  52  66
ATOM     66  C   UNL A   1      47.155  27.833  26.121  1.00  0.00     0.064 A 
ATOM     67  C   UNL A   1      47.199  27.728  24.719  1.00  0.00     0.173 A 
ATOM     68  C   UNL A   1      48.300  27.444  26.834  1.00  0.00     0.173 A 
ATOM     69  F   UNL A   1      46.137  28.085  23.982  1.00  0.00    -0.203 F 
ATOM     70  C   UNL A   1      48.322  27.224  24.066  1.00  0.00     0.198 A 
ATOM     71  C   UNL A   1      49.434  26.971  26.174  1.00  0.00     0.198 A 
ATOM     72  F   UNL A   1      48.326  27.530  28.173  1.00  0.00    -0.203 F 
ATOM     73  F   UNL A   1      48.313  27.086  22.733  1.00  0.00    -0.200 F 
ATOM     74  C   UNL A   1      49.441  26.853  24.793  1.00  0.00     0.200 A 
ATOM     75  F   UNL A   1      50.523  26.629  26.877  1.00  0.00    -0.200 F 
ATOM     76  F   UNL A   1      50.524  26.376  24.163  1.00  0.00    -0.200 F 
ENDBRANCH  52  66
BRANCH  53  77
ATOM     77  C   UNL A   1      39.076  30.954  31.268  1.00  0.00     0.064 A 
ATOM     78  C   UNL A   1      37.955  31.468  30.601  1.00  0.00     0.173 A 
ATOM     79  C   UNL A   1      39.004  30.832  32.663  1.00  0.00     0.173 A 
ATOM     80  F   UNL A   1      37.970  31.592  29.266  1.00  0.00    -0.203 F 
ATOM     81  C   UNL A   1      36.826  31.881  31.302  1.00  0.00     0.198 A 
ATOM     82  C   UNL A   1      37.861  31.215  33.361  1.00  0.00     0.198 A 
ATOM     83  F   UNL A   1      40.035  30.311  33.346  1.00  0.00    -0.203 F 
ATOM     84  F   UNL A   1      35.788  32.414  30.642  1.00  0.00    -0.200 F 
ATOM     85  C   UNL A   1      36.778  31.752  32.682  1.00  0.00     0.200 A 
ATOM     86  F   UNL A   1      37.808  31.060  34.691  1.00  0.00    -0.200 F 
ATOM     87  F   UNL A   1      35.690  32.146  33.357  1.00  0.00    -0.200 F 
ENDBRANCH  53  77
BRANCH  65  88
ATOM     88  C   UNL A   1      44.782  34.109  28.806  1.00  0.00     0.064 A 
ATOM     89  C   UNL A   1      45.598  34.587  29.840  1.00  0.00     0.173 A 
ATOM     90  C   UNL A   1      44.413  35.000  27.786  1.00  0.00     0.173 A 
ATOM     91  F   UNL A   1      45.962  33.774  30.844  1.00  0.00    -0.203 F 
ATOM     92  C   UNL A   1      46.003  35.917  29.870  1.00  0.00     0.198 A 
ATOM     93  C   UNL A   1      44.851  36.319  27.802  1.00  0.00     0.198 A 
ATOM     94  F   UNL A   1      43.637  34.586  26.773  1.00  0.00    -0.203 F 
ATOM     95  F   UNL A   1      46.733  36.368  30.899  1.00  0.00    -0.200 F 
ATOM     96  C   UNL A   1      45.637  36.779  28.848  1.00  0.00     0.200 A 
ATOM     97  F   UNL A   1      44.509  37.147  26.805  1.00  0.00    -0.200 F 
ATOM     98  F   UNL A   1      46.034  38.058  28.875  1.00  0.00    -0.200 F 
ENDBRANCH  65  88
ENDBRANCH  39  40
ENDBRANCH  32  34
ENDBRANCH  31  32
ENDBRANCH  30  31
ENDBRANCH  29  30
ENDBRANCH  28  29
ENDBRANCH   1  28
TORSDOF 18
ENDMDL
MODEL 2
REMARK VINA RESULT:     -11.9      4.452      8.793
REMARK SMILES CC(=O)O[C@@H]1[C@H](O)C(C)=C(CC[C@@H](C)CC(=O)OCCOC(=O)c2ccc(-c3c4nc(c(-c5c(F)c(F)c(F)c(F)c5F)c5ccc([nH]5)c(-c5c(F)c(F)c(F)c(F)c5F)c5nc(c(-c6c(F)c(F)c(F)c(F)c6F)c6ccc3[nH]6)C=C5)C=C4)cc2)[C@@]2(C)CCCC(C)(C)[C@H]12
REMARK SMILES IDX 16 1 17 2 15 3 13 4 14 5 12 6 11 7 10 8 5 9 6 10 95 11 8 12
REMARK SMILES IDX 87 13 92 14 9 15 89 16 88 17 91 18 93 19 94 20 90 21 4 22
REMARK SMILES IDX 2 23 1 24 3 25 7 26 18 28 19 29 20 30 21 31 22 32 23 33
REMARK SMILES IDX 24 34 25 35 86 36 26 37 85 38 27 39 28 40 29 41 79 42 30 43
REMARK SMILES IDX 84 44 78 45 80 46 31 47 83 48 77 49 76 50 32 52 64 53 44 54
REMARK SMILES IDX 63 55 45 56 48 57 62 58 81 59 46 60 47 61 61 63 82 64 49 65
REMARK SMILES IDX 33 66 34 67 42 68 35 69 36 70 40 71 43 72 37 73 38 74 41 75
REMARK SMILES IDX 39 76 65 77 66 78 74 79 67 80 68 81 72 82 75 83 69 84 70 85
REMARK SMILES IDX 73 86 71 87 50 88 51 89 59 90 52 91 53 92 57 93 60 94 54 95
REMARK SMILES IDX 55 96 58 97 56 98
REMARK H PARENT 7 27 80 51 48 62
REMARK Flexibility Score: inf
ROOT
ATOM      1  C   UNL A   1      40.042  21.909  26.586  1.00  0.00     0.306 C 
ATOM      2  O   UNL A   1      40.313  21.363  27.653  1.00  0.00    -0.252 OA
ENDROOT
BRANCH   1   3
ATOM      3  C   UNL A   1      38.613  22.128  26.136  1.00  0.00     0.126 C 
BRANCH   3   4
ATOM      4  C   UNL A   1      38.055  23.538  25.772  1.00  0.00    -0.003 C 
ATOM      5  C   UNL A   1      38.450  24.438  26.962  1.00  0.00     0.008 C 
BRANCH   4   6
ATOM      6  C   UNL A   1      36.537  23.573  25.410  1.00  0.00     0.008 C 
BRANCH   6   7
ATOM      7  C   UNL A   1      36.056  22.750  24.159  1.00  0.00     0.032 C 
BRANCH   7   8
ATOM      8  C   UNL A   1      34.622  22.582  23.506  1.00  0.00    -0.062 C 
ATOM      9  C   UNL A   1      32.815  24.858  24.047  1.00  0.00     0.213 C 
ATOM     10  C   UNL A   1      33.985  24.818  22.973  1.00  0.00     0.181 C 
ATOM     11  C   UNL A   1      32.911  23.466  25.056  1.00  0.00     0.049 C 
ATOM     12  C   UNL A   1      34.117  23.390  22.521  1.00  0.00    -0.042 C 
ATOM     13  C   UNL A   1      33.496  22.044  24.477  1.00  0.00    -0.004 C 
ATOM     14  C   UNL A   1      32.225  23.354  26.470  1.00  0.00    -0.028 C 
ATOM     15  C   UNL A   1      32.917  23.052  21.632  1.00  0.00     0.042 C 
ATOM     16  C   UNL A   1      34.027  21.070  25.624  1.00  0.00     0.011 C 
ATOM     17  C   UNL A   1      32.537  21.040  23.747  1.00  0.00     0.016 C 
ATOM     18  C   UNL A   1      33.323  22.799  27.436  1.00  0.00     0.007 C 
ATOM     19  C   UNL A   1      31.001  22.430  26.561  1.00  0.00     0.011 C 
ATOM     20  C   UNL A   1      31.818  24.720  27.036  1.00  0.00     0.011 C 
ATOM     21  C   UNL A   1      33.835  21.414  27.095  1.00  0.00     0.001 C 
BRANCH   9  22
ATOM     22  O   UNL A   1      31.543  25.510  23.672  1.00  0.00    -0.459 OA
BRANCH  22  23
ATOM     23  C   UNL A   1      31.401  26.873  23.808  1.00  0.00     0.303 C 
ATOM     24  C   UNL A   1      30.014  27.485  23.676  1.00  0.00     0.139 C 
ATOM     25  O   UNL A   1      32.362  27.606  24.027  1.00  0.00    -0.253 OA
ENDBRANCH  22  23
ENDBRANCH   9  22
BRANCH  10  26
ATOM     26  O   UNL A   1      33.978  25.703  21.865  1.00  0.00    -0.385 OA
ATOM     27  H   UNL A   1      33.773  26.600  22.169  1.00  0.00     0.211 HD
ENDBRANCH  10  26
ENDBRANCH   7   8
ENDBRANCH   6   7
ENDBRANCH   4   6
ENDBRANCH   3   4
ENDBRANCH   1   3
BRANCH   1  28
ATOM     28  O   UNL A   1      40.964  22.349  25.702  1.00  0.00    -0.462 OA
BRANCH  28  29
ATOM     29  C   UNL A   1      42.314  21.932  25.968  1.00  0.00     0.274 C 
BRANCH  29  30
ATOM     30  C   UNL A   1      43.357  22.828  25.284  1.00  0.00     0.275 C 
BRANCH  30  31
ATOM     31  O   UNL A   1      42.980  24.179  24.910  1.00  0.00    -0.458 OA
BRANCH  31  32
ATOM     32  C   UNL A   1      43.652  25.164  25.527  1.00  0.00     0.338 C 
ATOM     33  O   UNL A   1      44.867  25.383  25.438  1.00  0.00    -0.246 OA
BRANCH  32  34
ATOM     34  C   UNL A   1      42.921  25.929  26.520  1.00  0.00     0.060 A 
ATOM     35  C   UNL A   1      42.114  25.302  27.458  1.00  0.00     0.016 A 
ATOM     36  C   UNL A   1      42.811  27.304  26.352  1.00  0.00     0.016 A 
ATOM     37  C   UNL A   1      41.344  26.092  28.318  1.00  0.00     0.010 A 
ATOM     38  C   UNL A   1      42.159  28.105  27.259  1.00  0.00     0.010 A 
ATOM     39  C   UNL A   1      41.445  27.500  28.279  1.00  0.00    -0.014 A 
BRANCH  39  40
ATOM     40  C   UNL A   1      41.041  28.345  29.416  1.00  0.00     0.031 A 
ATOM     41  C   UNL A   1      39.850  29.256  29.367  1.00  0.00     0.074 A 
ATOM     42  C   UNL A   1      41.934  28.417  30.421  1.00  0.00     0.049 A 
ATOM     43  N   UNL A   1      39.378  30.032  30.310  1.00  0.00    -0.248 NA
ATOM     44  C   UNL A   1      39.127  29.371  28.088  1.00  0.00     0.031 C 
ATOM     45  C   UNL A   1      43.247  27.754  30.428  1.00  0.00     0.029 A 
ATOM     46  N   UNL A   1      41.893  29.068  31.619  1.00  0.00    -0.354 N 
ATOM     47  C   UNL A   1      38.311  30.715  29.743  1.00  0.00     0.074 A 
ATOM     48  C   UNL A   1      38.261  30.341  28.347  1.00  0.00     0.031 C 
ATOM     49  C   UNL A   1      43.838  27.952  31.611  1.00  0.00     0.029 A 
ATOM     50  C   UNL A   1      42.967  28.783  32.426  1.00  0.00     0.049 A 
ATOM     51  H   UNL A   1      41.167  29.680  31.880  1.00  0.00     0.167 HD
ATOM     52  C   UNL A   1      37.430  31.542  30.357  1.00  0.00     0.037 A 
ATOM     53  C   UNL A   1      43.198  29.128  33.702  1.00  0.00     0.037 A 
ATOM     54  C   UNL A   1      37.519  31.875  31.756  1.00  0.00     0.049 A 
ATOM     55  C   UNL A   1      42.146  29.938  34.397  1.00  0.00     0.074 A 
ATOM     56  C   UNL A   1      36.641  32.606  32.535  1.00  0.00     0.029 A 
ATOM     57  N   UNL A   1      38.568  31.492  32.584  1.00  0.00    -0.354 N 
ATOM     58  N   UNL A   1      41.032  30.433  33.912  1.00  0.00    -0.248 NA
ATOM     59  C   UNL A   1      42.367  30.218  35.817  1.00  0.00     0.031 C 
ATOM     60  C   UNL A   1      37.179  32.698  33.824  1.00  0.00     0.029 A 
ATOM     61  C   UNL A   1      38.366  31.980  33.862  1.00  0.00     0.049 A 
ATOM     62  H   UNL A   1      39.341  30.952  32.302  1.00  0.00     0.167 HD
ATOM     63  C   UNL A   1      40.404  31.063  34.972  1.00  0.00     0.074 A 
ATOM     64  C   UNL A   1      41.252  30.860  36.132  1.00  0.00     0.031 C 
ATOM     65  C   UNL A   1      39.236  31.753  34.990  1.00  0.00     0.037 A 
BRANCH  52  66
ATOM     66  C   UNL A   1      36.285  32.087  29.547  1.00  0.00     0.064 A 
ATOM     67  C   UNL A   1      36.210  33.451  29.211  1.00  0.00     0.173 A 
ATOM     68  C   UNL A   1      35.274  31.246  29.055  1.00  0.00     0.173 A 
ATOM     69  F   UNL A   1      37.146  34.306  29.650  1.00  0.00    -0.203 F 
ATOM     70  C   UNL A   1      35.155  33.953  28.452  1.00  0.00     0.198 A 
ATOM     71  C   UNL A   1      34.238  31.746  28.267  1.00  0.00     0.198 A 
ATOM     72  F   UNL A   1      35.293  29.932  29.330  1.00  0.00    -0.203 F 
ATOM     73  F   UNL A   1      35.085  35.267  28.194  1.00  0.00    -0.200 F 
ATOM     74  C   UNL A   1      34.175  33.100  27.974  1.00  0.00     0.200 A 
ATOM     75  F   UNL A   1      33.299  30.917  27.791  1.00  0.00    -0.200 F 
ATOM     76  F   UNL A   1      33.165  33.583  27.236  1.00  0.00    -0.200 F 
ENDBRANCH  52  66
BRANCH  53  77
ATOM     77  C   UNL A   1      44.400  28.611  34.401  1.00  0.00     0.064 A 
ATOM     78  C   UNL A   1      44.409  27.320  34.947  1.00  0.00     0.173 A 
ATOM     79  C   UNL A   1      45.577  29.368  34.500  1.00  0.00     0.173 A 
ATOM     80  F   UNL A   1      43.312  26.551  34.866  1.00  0.00    -0.203 F 
ATOM     81  C   UNL A   1      45.533  26.821  35.599  1.00  0.00     0.198 A 
ATOM     82  C   UNL A   1      46.711  28.855  35.125  1.00  0.00     0.198 A 
ATOM     83  F   UNL A   1      45.633  30.595  33.961  1.00  0.00    -0.203 F 
ATOM     84  F   UNL A   1      45.495  25.601  36.154  1.00  0.00    -0.200 F 
ATOM     85  C   UNL A   1      46.684  27.588  35.686  1.00  0.00     0.200 A 
ATOM     86  F   UNL A   1      47.831  29.588  35.179  1.00  0.00    -0.200 F 
ATOM     87  F   UNL A   1      47.767  27.107  36.311  1.00  0.00    -0.200 F 
ENDBRANCH  53  77
BRANCH  65  88
ATOM     88  C   UNL A   1      38.811  32.310  36.314  1.00  0.00     0.064 A 
ATOM     89  C   UNL A   1      39.135  33.619  36.697  1.00  0.00     0.173 A 
ATOM     90  C   UNL A   1      38.049  31.530  37.197  1.00  0.00     0.173 A 
ATOM     91  F   UNL A   1      39.876  34.395  35.891  1.00  0.00    -0.203 F 
ATOM     92  C   UNL A   1      38.737  34.118  37.932  1.00  0.00     0.198 A 
ATOM     93  C   UNL A   1      37.623  32.046  38.415  1.00  0.00     0.198 A 
ATOM     94  F   UNL A   1      37.711  30.274  36.870  1.00  0.00    -0.203 F 
ATOM     95  F   UNL A   1      39.108  35.351  38.305  1.00  0.00    -0.200 F 
ATOM     96  C   UNL A   1      37.975  33.335  38.786  1.00  0.00     0.200 A 
ATOM     97  F   UNL A   1      36.873  31.294  39.232  1.00  0.00    -0.200 F 
ATOM     98  F   UNL A   1      37.587  33.819  39.973  1.00  0.00    -0.200 F 
ENDBRANCH  65  88
ENDBRANCH  39  40
ENDBRANCH  32  34
ENDBRANCH  31  32
ENDBRANCH  30  31
ENDBRANCH  29  30
ENDBRANCH  28  29
ENDBRANCH   1  28
TORSDOF 18
ENDMDL
MODEL 3
REMARK VINA RESULT:     -11.9      4.449      8.910
REMARK SMILES CC(=O)O[C@@H]1[C@H](O)C(C)=C(CC[C@@H](C)CC(=O)OCCOC(=O)c2ccc(-c3c4nc(c(-c5c(F)c(F)c(F)c(F)c5F)c5ccc([nH]5)c(-c5c(F)c(F)c(F)c(F)c5F)c5nc(c(-c6c(F)c(F)c(F)c(F)c6F)c6ccc3[nH]6)C=C5)C=C4)cc2)[C@@]2(C)CCCC(C)(C)[C@H]12
REMARK SMILES IDX 16 1 17 2 15 3 13 4 14 5 12 6 11 7 10 8 5 9 6 10 95 11 8 12
REMARK SMILES IDX 87 13 92 14 9 15 89 16 88 17 91 18 93 19 94 20 90 21 4 22
REMARK SMILES IDX 2 23 1 24 3 25 7 26 18 28 19 29 20 30 21 31 22 32 23 33
REMARK SMILES IDX 24 34 25 35 86 36 26 37 85 38 27 39 28 40 29 41 79 42 30 43
REMARK SMILES IDX 84 44 78 45 80 46 31 47 83 48 77 49 76 50 32 52 64 53 44 54
REMARK SMILES IDX 63 55 45 56 48 57 62 58 81 59 46 60 47 61 61 63 82 64 49 65
REMARK SMILES IDX 33 66 34 67 42 68 35 69 36 70 40 71 43 72 37 73 38 74 41 75
REMARK SMILES IDX 39 76 65 77 66 78 74 79 67 80 68 81 72 82 75 83 69 84 70 85
REMARK SMILES IDX 73 86 71 87 50 88 51 89 59 90 52 91 53 92 57 93 60 94 54 95
REMARK SMILES IDX 55 96 58 97 56 98
REMARK H PARENT 7 27 80 51 48 62
REMARK Flexibility Score: inf
ROOT
ATOM      1  C   UNL A   1      40.194  21.800  26.633  1.00  0.00     0.306 C 
ATOM      2  O   UNL A   1      40.397  21.242  27.709  1.00  0.00    -0.252 OA
ENDROOT
BRANCH   1   3
ATOM      3  C   UNL A   1      38.799  21.996  26.079  1.00  0.00     0.126 C 
BRANCH   3   4
ATOM      4  C   UNL A   1      38.245  23.398  25.677  1.00  0.00    -0.003 C 
ATOM      5  C   UNL A   1      38.569  24.309  26.881  1.00  0.00     0.008 C 
BRANCH   4   6
ATOM      6  C   UNL A   1      36.748  23.413  25.238  1.00  0.00     0.008 C 
BRANCH   6   7
ATOM      7  C   UNL A   1      35.719  24.184  26.145  1.00  0.00     0.032 C 
BRANCH   7   8
ATOM      8  C   UNL A   1      34.210  23.873  26.513  1.00  0.00    -0.062 C 
ATOM      9  C   UNL A   1      33.100  21.562  25.042  1.00  0.00     0.213 C 
ATOM     10  C   UNL A   1      34.062  21.502  26.306  1.00  0.00     0.181 C 
ATOM     11  C   UNL A   1      32.999  23.183  24.470  1.00  0.00     0.049 C 
ATOM     12  C   UNL A   1      33.781  22.727  27.130  1.00  0.00    -0.042 C 
ATOM     13  C   UNL A   1      33.136  24.451  25.505  1.00  0.00    -0.004 C 
ATOM     14  C   UNL A   1      32.514  23.577  23.025  1.00  0.00    -0.028 C 
ATOM     15  C   UNL A   1      32.421  22.550  27.811  1.00  0.00     0.042 C 
ATOM     16  C   UNL A   1      33.574  25.805  24.783  1.00  0.00     0.011 C 
ATOM     17  C   UNL A   1      31.871  24.989  26.259  1.00  0.00     0.016 C 
ATOM     18  C   UNL A   1      33.571  24.594  22.481  1.00  0.00     0.007 C 
ATOM     19  C   UNL A   1      31.129  24.235  22.929  1.00  0.00     0.011 C 
ATOM     20  C   UNL A   1      32.532  22.391  22.053  1.00  0.00     0.011 C 
ATOM     21  C   UNL A   1      33.681  25.886  23.266  1.00  0.00     0.001 C 
BRANCH   9  22
ATOM     22  O   UNL A   1      31.982  20.597  24.967  1.00  0.00    -0.459 OA
BRANCH  22  23
ATOM     23  C   UNL A   1      32.234  19.270  24.701  1.00  0.00     0.303 C 
ATOM     24  C   UNL A   1      32.355  18.820  23.253  1.00  0.00     0.139 C 
ATOM     25  O   UNL A   1      32.357  18.440  25.599  1.00  0.00    -0.253 OA
ENDBRANCH  22  23
ENDBRANCH   9  22
BRANCH  10  26
ATOM     26  O   UNL A   1      34.111  20.342  27.121  1.00  0.00    -0.385 OA
ATOM     27  H   UNL A   1      34.228  19.559  26.562  1.00  0.00     0.211 HD
ENDBRANCH  10  26
ENDBRANCH   7   8
ENDBRANCH   6   7
ENDBRANCH   4   6
ENDBRANCH   3   4
ENDBRANCH   1   3
BRANCH   1  28
ATOM     28  O   UNL A   1      41.171  22.274  25.828  1.00  0.00    -0.462 OA
BRANCH  28  29
ATOM     29  C   UNL A   1      42.510  21.934  26.225  1.00  0.00     0.274 C 
BRANCH  29  30
ATOM     30  C   UNL A   1      43.573  22.776  25.505  1.00  0.00     0.275 C 
BRANCH  30  31
ATOM     31  O   UNL A   1      43.217  24.106  25.044  1.00  0.00    -0.458 OA
BRANCH  31  32
ATOM     32  C   UNL A   1      43.859  25.122  25.641  1.00  0.00     0.338 C 
ATOM     33  O   UNL A   1      45.072  25.359  25.572  1.00  0.00    -0.246 OA
BRANCH  32  34
ATOM     34  C   UNL A   1      43.093  25.908  26.592  1.00  0.00     0.060 A 
ATOM     35  C   UNL A   1      42.094  25.330  27.362  1.00  0.00     0.016 A 
ATOM     36  C   UNL A   1      43.171  27.294  26.525  1.00  0.00     0.016 A 
ATOM     37  C   UNL A   1      41.312  26.154  28.177  1.00  0.00     0.010 A 
ATOM     38  C   UNL A   1      42.500  28.110  27.403  1.00  0.00     0.010 A 
ATOM     39  C   UNL A   1      41.584  27.537  28.268  1.00  0.00    -0.014 A 
BRANCH  39  40
ATOM     40  C   UNL A   1      41.129  28.350  29.409  1.00  0.00     0.031 A 
ATOM     41  C   UNL A   1      39.915  29.227  29.347  1.00  0.00     0.074 A 
ATOM     42  C   UNL A   1      41.997  28.429  30.437  1.00  0.00     0.049 A 
ATOM     43  N   UNL A   1      39.399  29.974  30.291  1.00  0.00    -0.248 NA
ATOM     44  C   UNL A   1      39.219  29.345  28.053  1.00  0.00     0.031 C 
ATOM     45  C   UNL A   1      43.327  27.803  30.465  1.00  0.00     0.029 A 
ATOM     46  N   UNL A   1      41.908  29.057  31.644  1.00  0.00    -0.354 N 
ATOM     47  C   UNL A   1      38.326  30.636  29.710  1.00  0.00     0.074 A 
ATOM     48  C   UNL A   1      38.320  30.285  28.308  1.00  0.00     0.031 C 
ATOM     49  C   UNL A   1      43.884  27.997  31.665  1.00  0.00     0.029 A 
ATOM     50  C   UNL A   1      42.971  28.789  32.472  1.00  0.00     0.049 A 
ATOM     51  H   UNL A   1      41.160  29.644  31.897  1.00  0.00     0.167 HD
ATOM     52  C   UNL A   1      37.408  31.427  30.316  1.00  0.00     0.037 A 
ATOM     53  C   UNL A   1      43.161  29.118  33.758  1.00  0.00     0.037 A 
ATOM     54  C   UNL A   1      37.454  31.737  31.723  1.00  0.00     0.049 A 
ATOM     55  C   UNL A   1      42.071  29.885  34.441  1.00  0.00     0.074 A 
ATOM     56  C   UNL A   1      36.537  32.430  32.493  1.00  0.00     0.029 A 
ATOM     57  N   UNL A   1      38.493  31.370  32.570  1.00  0.00    -0.354 N 
ATOM     58  N   UNL A   1      40.955  30.357  33.938  1.00  0.00    -0.248 NA
ATOM     59  C   UNL A   1      42.249  30.146  35.872  1.00  0.00     0.031 C 
ATOM     60  C   UNL A   1      37.042  32.515  33.795  1.00  0.00     0.029 A 
ATOM     61  C   UNL A   1      38.247  31.830  33.851  1.00  0.00     0.049 A 
ATOM     62  H   UNL A   1      39.288  30.857  32.297  1.00  0.00     0.167 HD
ATOM     63  C   UNL A   1      40.283  30.950  34.994  1.00  0.00     0.074 A 
ATOM     64  C   UNL A   1      41.109  30.751  36.170  1.00  0.00     0.031 C 
ATOM     65  C   UNL A   1      39.097  31.607  34.995  1.00  0.00     0.037 A 
BRANCH  52  66
ATOM     66  C   UNL A   1      36.267  31.954  29.488  1.00  0.00     0.064 A 
ATOM     67  C   UNL A   1      35.261  31.100  29.002  1.00  0.00     0.173 A 
ATOM     68  C   UNL A   1      36.138  33.325  29.214  1.00  0.00     0.173 A 
ATOM     69  F   UNL A   1      35.327  29.781  29.232  1.00  0.00    -0.203 F 
ATOM     70  C   UNL A   1      34.198  31.591  28.246  1.00  0.00     0.198 A 
ATOM     71  C   UNL A   1      35.056  33.816  28.484  1.00  0.00     0.198 A 
ATOM     72  F   UNL A   1      37.059  34.194  29.659  1.00  0.00    -0.203 F 
ATOM     73  F   UNL A   1      33.285  30.744  27.751  1.00  0.00    -0.200 F 
ATOM     74  C   UNL A   1      34.092  32.948  27.994  1.00  0.00     0.200 A 
ATOM     75  F   UNL A   1      34.945  35.132  28.256  1.00  0.00    -0.200 F 
ATOM     76  F   UNL A   1      33.064  33.420  27.274  1.00  0.00    -0.200 F 
ENDBRANCH  52  66
BRANCH  53  77
ATOM     77  C   UNL A   1      44.360  28.622  34.478  1.00  0.00     0.064 A 
ATOM     78  C   UNL A   1      44.283  27.489  35.300  1.00  0.00     0.173 A 
ATOM     79  C   UNL A   1      45.614  29.233  34.327  1.00  0.00     0.173 A 
ATOM     80  F   UNL A   1      43.110  26.861  35.466  1.00  0.00    -0.203 F 
ATOM     81  C   UNL A   1      45.403  27.011  35.975  1.00  0.00     0.198 A 
ATOM     82  C   UNL A   1      46.740  28.734  34.977  1.00  0.00     0.198 A 
ATOM     83  F   UNL A   1      45.750  30.297  33.522  1.00  0.00    -0.203 F 
ATOM     84  F   UNL A   1      45.288  25.955  36.793  1.00  0.00    -0.200 F 
ATOM     85  C   UNL A   1      46.631  27.632  35.812  1.00  0.00     0.200 A 
ATOM     86  F   UNL A   1      47.931  29.319  34.792  1.00  0.00    -0.200 F 
ATOM     87  F   UNL A   1      47.709  27.170  36.459  1.00  0.00    -0.200 F 
ENDBRANCH  53  77
BRANCH  65  88
ATOM     88  C   UNL A   1      38.625  32.129  36.318  1.00  0.00     0.064 A 
ATOM     89  C   UNL A   1      37.887  31.329  37.201  1.00  0.00     0.173 A 
ATOM     90  C   UNL A   1      38.940  33.438  36.713  1.00  0.00     0.173 A 
ATOM     91  F   UNL A   1      37.549  30.076  36.857  1.00  0.00    -0.203 F 
ATOM     92  C   UNL A   1      37.452  31.832  38.422  1.00  0.00     0.198 A 
ATOM     93  C   UNL A   1      38.534  33.924  37.950  1.00  0.00     0.198 A 
ATOM     94  F   UNL A   1      39.649  34.237  35.903  1.00  0.00    -0.203 F 
ATOM     95  F   UNL A   1      36.696  31.071  39.225  1.00  0.00    -0.200 F 
ATOM     96  C   UNL A   1      37.782  33.125  38.799  1.00  0.00     0.200 A 
ATOM     97  F   UNL A   1      38.867  35.168  38.320  1.00  0.00    -0.200 F 
ATOM     98  F   UNL A   1      37.368  33.606  39.979  1.00  0.00    -0.200 F 
ENDBRANCH  65  88
ENDBRANCH  39  40
ENDBRANCH  32  34
ENDBRANCH  31  32
ENDBRANCH  30  31
ENDBRANCH  29  30
ENDBRANCH  28  29
ENDBRANCH   1  28
TORSDOF 18
ENDMDL
