MODEL 1
REMARK VINA RESULT:     -10.9      0.000      0.000
REMARK SMILES C[C@@H]1CCCCN1C(=O)Cn1cc(C(=O)OCCOC(=O)c2ccc(-c3c4nc(c(-c5c(F)c(F)c(F)c(F)c5F)c5ccc([nH]5)c(-c5c(F)c(F)c(F)c(F)c5F)c5nc(c(-c6c(F)c(F)c(F)c(F)c6F)c6ccc3[nH]6)C=C5)C=C4)cc2)cn1
REMARK SMILES IDX 17 1 16 2 14 3 15 4 13 5 11 6 12 7 86 8 85 9 10 10 8 11 9 12
REMARK SMILES IDX 7 13 1 14 2 15 3 16 4 17 6 18 5 19 18 20 19 21 20 22 21 23
REMARK SMILES IDX 22 24 23 25 84 26 24 27 83 28 25 29 26 30 27 31 77 32 28 33
REMARK SMILES IDX 82 34 76 35 78 36 29 37 81 38 75 39 74 40 30 42 62 43 42 44
REMARK SMILES IDX 61 45 43 46 46 47 60 48 79 49 44 50 45 51 59 53 80 54 47 55
REMARK SMILES IDX 31 56 32 57 40 58 33 59 34 60 38 61 41 62 35 63 36 64 39 65
REMARK SMILES IDX 37 66 63 67 64 68 72 69 65 70 66 71 70 72 73 73 67 74 68 75
REMARK SMILES IDX 71 76 69 77 48 78 49 79 57 80 50 81 51 82 55 83 58 84 52 85
REMARK SMILES IDX 53 86 56 87 54 88
REMARK H PARENT 78 41 46 52
REMARK Flexibility Score: inf
ROOT
ATOM      1  C   UNL A   1      33.102  34.498  28.749  1.00  0.00     0.275 C 
ENDROOT
BRANCH   1   2
ATOM      2  O   UNL A   1      33.906  35.459  29.456  1.00  0.00    -0.458 OA
BRANCH   2   3
ATOM      3  C   UNL A   1      33.308  36.030  30.543  1.00  0.00     0.341 C 
ATOM      4  O   UNL A   1      32.328  36.770  30.484  1.00  0.00    -0.246 OA
BRANCH   3   5
ATOM      5  C   UNL A   1      33.886  35.628  31.807  1.00  0.00     0.098 A 
ATOM      6  N   UNL A   1      34.767  34.560  33.523  1.00  0.00    -0.262 N 
ATOM      7  C   UNL A   1      34.322  34.388  32.239  1.00  0.00     0.125 A 
ATOM      8  N   UNL A   1      34.689  35.846  33.932  1.00  0.00    -0.180 NA
ATOM      9  C   UNL A   1      34.088  36.468  32.921  1.00  0.00     0.150 A 
BRANCH   6  10
ATOM     10  C   UNL A   1      35.481  33.607  34.354  1.00  0.00     0.244 C 
BRANCH  10  11
ATOM     11  C   UNL A   1      36.641  32.906  33.675  1.00  0.00     0.244 C 
ATOM     12  O   UNL A   1      36.399  31.969  32.905  1.00  0.00    -0.273 OA
BRANCH  11  13
ATOM     13  N   UNL A   1      37.940  33.383  33.842  1.00  0.00    -0.338 N 
ATOM     14  C   UNL A   1      39.159  33.079  35.991  1.00  0.00     0.031 C 
ATOM     15  C   UNL A   1      39.032  32.666  34.527  1.00  0.00     0.082 C 
ATOM     16  C   UNL A   1      40.375  32.837  33.785  1.00  0.00     0.025 C 
ATOM     17  C   UNL A   1      40.147  32.988  32.283  1.00  0.00     0.004 C 
ATOM     18  C   UNL A   1      38.351  34.586  33.123  1.00  0.00     0.120 C 
ATOM     19  C   UNL A   1      39.308  34.235  31.983  1.00  0.00     0.022 C 
ENDBRANCH  11  13
ENDBRANCH  10  11
ENDBRANCH   6  10
ENDBRANCH   3   5
ENDBRANCH   2   3
ENDBRANCH   1   2
BRANCH   1  20
ATOM     20  C   UNL A   1      33.967  33.478  28.021  1.00  0.00     0.275 C 
BRANCH  20  21
ATOM     21  O   UNL A   1      34.431  32.465  28.913  1.00  0.00    -0.458 OA
BRANCH  21  22
ATOM     22  C   UNL A   1      35.038  31.410  28.322  1.00  0.00     0.338 C 
ATOM     23  O   UNL A   1      34.630  30.765  27.371  1.00  0.00    -0.246 OA
BRANCH  22  24
ATOM     24  C   UNL A   1      36.143  30.960  29.174  1.00  0.00     0.060 A 
ATOM     25  C   UNL A   1      37.196  31.865  29.347  1.00  0.00     0.016 A 
ATOM     26  C   UNL A   1      36.285  29.590  29.430  1.00  0.00     0.016 A 
ATOM     27  C   UNL A   1      38.459  31.361  29.543  1.00  0.00     0.010 A 
ATOM     28  C   UNL A   1      37.549  29.086  29.595  1.00  0.00     0.010 A 
ATOM     29  C   UNL A   1      38.623  29.973  29.561  1.00  0.00    -0.014 A 
BRANCH  29  30
ATOM     30  C   UNL A   1      39.966  29.447  29.634  1.00  0.00     0.031 A 
ATOM     31  C   UNL A   1      40.471  29.348  31.020  1.00  0.00     0.074 A 
ATOM     32  C   UNL A   1      40.591  28.967  28.543  1.00  0.00     0.049 A 
ATOM     33  N   UNL A   1      41.506  29.929  31.526  1.00  0.00    -0.248 NA
ATOM     34  C   UNL A   1      39.628  28.650  32.006  1.00  0.00     0.031 C 
ATOM     35  C   UNL A   1      40.049  28.776  27.196  1.00  0.00     0.029 A 
ATOM     36  N   UNL A   1      41.827  28.413  28.455  1.00  0.00    -0.354 N 
ATOM     37  C   UNL A   1      41.550  29.520  32.854  1.00  0.00     0.074 A 
ATOM     38  C   UNL A   1      40.286  28.897  33.138  1.00  0.00     0.031 C 
ATOM     39  C   UNL A   1      40.856  27.935  26.511  1.00  0.00     0.029 A 
ATOM     40  C   UNL A   1      42.009  27.617  27.333  1.00  0.00     0.049 A 
ATOM     41  H   UNL A   1      42.531  28.562  29.127  1.00  0.00     0.167 HD
ATOM     42  C   UNL A   1      42.723  29.496  33.540  1.00  0.00     0.037 A 
ATOM     43  C   UNL A   1      42.971  26.668  27.204  1.00  0.00     0.037 A 
ATOM     44  C   UNL A   1      43.710  30.338  32.917  1.00  0.00     0.049 A 
ATOM     45  C   UNL A   1      44.033  26.981  28.207  1.00  0.00     0.074 A 
ATOM     46  C   UNL A   1      43.751  31.683  32.595  1.00  0.00     0.029 A 
ATOM     47  N   UNL A   1      44.694  29.746  32.162  1.00  0.00    -0.354 N 
ATOM     48  N   UNL A   1      44.805  28.032  28.136  1.00  0.00    -0.248 NA
ATOM     49  C   UNL A   1      43.892  26.402  29.538  1.00  0.00     0.031 C 
ATOM     50  C   UNL A   1      44.382  31.735  31.319  1.00  0.00     0.029 A 
ATOM     51  C   UNL A   1      44.758  30.436  30.978  1.00  0.00     0.049 A 
ATOM     52  H   UNL A   1      45.248  28.974  32.422  1.00  0.00     0.167 HD
ATOM     53  C   UNL A   1      44.892  28.497  29.442  1.00  0.00     0.074 A 
ATOM     54  C   UNL A   1      44.362  27.416  30.271  1.00  0.00     0.031 C 
ATOM     55  C   UNL A   1      45.095  29.818  29.718  1.00  0.00     0.037 A 
BRANCH  42  56
ATOM     56  C   UNL A   1      43.073  28.424  34.537  1.00  0.00     0.064 A 
ATOM     57  C   UNL A   1      43.463  28.801  35.834  1.00  0.00     0.173 A 
ATOM     58  C   UNL A   1      43.329  27.077  34.189  1.00  0.00     0.173 A 
ATOM     59  F   UNL A   1      43.288  30.061  36.260  1.00  0.00    -0.203 F 
ATOM     60  C   UNL A   1      44.131  27.919  36.687  1.00  0.00     0.198 A 
ATOM     61  C   UNL A   1      43.941  26.185  35.063  1.00  0.00     0.198 A 
ATOM     62  F   UNL A   1      43.110  26.600  32.958  1.00  0.00    -0.203 F 
ATOM     63  F   UNL A   1      44.601  28.359  37.861  1.00  0.00    -0.200 F 
ATOM     64  C   UNL A   1      44.374  26.614  36.299  1.00  0.00     0.200 A 
ATOM     65  F   UNL A   1      44.184  24.930  34.658  1.00  0.00    -0.200 F 
ATOM     66  F   UNL A   1      45.068  25.786  37.088  1.00  0.00    -0.200 F 
ENDBRANCH  42  56
BRANCH  43  67
ATOM     67  C   UNL A   1      42.824  25.334  26.565  1.00  0.00     0.064 A 
ATOM     68  C   UNL A   1      43.601  24.970  25.454  1.00  0.00     0.173 A 
ATOM     69  C   UNL A   1      42.093  24.291  27.176  1.00  0.00     0.173 A 
ATOM     70  F   UNL A   1      44.371  25.882  24.843  1.00  0.00    -0.203 F 
ATOM     71  C   UNL A   1      43.650  23.648  24.989  1.00  0.00     0.198 A 
ATOM     72  C   UNL A   1      42.132  22.979  26.705  1.00  0.00     0.198 A 
ATOM     73  F   UNL A   1      41.397  24.497  28.301  1.00  0.00    -0.203 F 
ATOM     74  F   UNL A   1      44.448  23.330  23.960  1.00  0.00    -0.200 F 
ATOM     75  C   UNL A   1      42.919  22.653  25.618  1.00  0.00     0.200 A 
ATOM     76  F   UNL A   1      41.446  22.023  27.347  1.00  0.00    -0.200 F 
ATOM     77  F   UNL A   1      43.003  21.381  25.206  1.00  0.00    -0.200 F 
ENDBRANCH  43  67
BRANCH  55  78
ATOM     78  C   UNL A   1      45.450  30.745  28.590  1.00  0.00     0.064 A 
ATOM     79  C   UNL A   1      44.505  31.348  27.741  1.00  0.00     0.173 A 
ATOM     80  C   UNL A   1      46.780  31.176  28.477  1.00  0.00     0.173 A 
ATOM     81  F   UNL A   1      43.198  31.082  27.863  1.00  0.00    -0.203 F 
ATOM     82  C   UNL A   1      44.884  32.300  26.795  1.00  0.00     0.198 A 
ATOM     83  C   UNL A   1      47.148  32.157  27.561  1.00  0.00     0.198 A 
ATOM     84  F   UNL A   1      47.718  30.684  29.302  1.00  0.00    -0.203 F 
ATOM     85  F   UNL A   1      43.962  32.852  25.991  1.00  0.00    -0.200 F 
ATOM     86  C   UNL A   1      46.204  32.710  26.712  1.00  0.00     0.200 A 
ATOM     87  F   UNL A   1      48.416  32.591  27.525  1.00  0.00    -0.200 F 
ATOM     88  F   UNL A   1      46.560  33.659  25.836  1.00  0.00    -0.200 F 
ENDBRANCH  55  78
ENDBRANCH  29  30
ENDBRANCH  22  24
ENDBRANCH  21  22
ENDBRANCH  20  21
ENDBRANCH   1  20
TORSDOF 14
ENDMDL
MODEL 2
REMARK VINA RESULT:     -10.8      4.314     11.223
REMARK SMILES C[C@@H]1CCCCN1C(=O)Cn1cc(C(=O)OCCOC(=O)c2ccc(-c3c4nc(c(-c5c(F)c(F)c(F)c(F)c5F)c5ccc([nH]5)c(-c5c(F)c(F)c(F)c(F)c5F)c5nc(c(-c6c(F)c(F)c(F)c(F)c6F)c6ccc3[nH]6)C=C5)C=C4)cc2)cn1
REMARK SMILES IDX 17 1 16 2 14 3 15 4 13 5 11 6 12 7 86 8 85 9 10 10 8 11 9 12
REMARK SMILES IDX 7 13 1 14 2 15 3 16 4 17 6 18 5 19 18 20 19 21 20 22 21 23
REMARK SMILES IDX 22 24 23 25 84 26 24 27 83 28 25 29 26 30 27 31 77 32 28 33
REMARK SMILES IDX 82 34 76 35 78 36 29 37 81 38 75 39 74 40 30 42 62 43 42 44
REMARK SMILES IDX 61 45 43 46 46 47 60 48 79 49 44 50 45 51 59 53 80 54 47 55
REMARK SMILES IDX 31 56 32 57 40 58 33 59 34 60 38 61 41 62 35 63 36 64 39 65
REMARK SMILES IDX 37 66 63 67 64 68 72 69 65 70 66 71 70 72 73 73 67 74 68 75
REMARK SMILES IDX 71 76 69 77 48 78 49 79 57 80 50 81 51 82 55 83 58 84 52 85
REMARK SMILES IDX 53 86 56 87 54 88
REMARK H PARENT 78 41 46 52
REMARK Flexibility Score: inf
ROOT
ATOM      1  C   UNL A   1      41.226  19.454  26.149  1.00  0.00     0.275 C 
ENDROOT
BRANCH   1   2
ATOM      2  O   UNL A   1      42.537  20.009  26.355  1.00  0.00    -0.458 OA
BRANCH   2   3
ATOM      3  C   UNL A   1      43.505  19.539  25.514  1.00  0.00     0.341 C 
ATOM      4  O   UNL A   1      43.503  18.415  25.017  1.00  0.00    -0.246 OA
BRANCH   3   5
ATOM      5  C   UNL A   1      44.521  20.517  25.187  1.00  0.00     0.098 A 
ATOM      6  N   UNL A   1      45.691  22.332  24.748  1.00  0.00    -0.262 N 
ATOM      7  C   UNL A   1      44.446  21.897  25.115  1.00  0.00     0.125 A 
ATOM      8  N   UNL A   1      46.581  21.321  24.622  1.00  0.00    -0.180 NA
ATOM      9  C   UNL A   1      45.849  20.226  24.815  1.00  0.00     0.150 A 
BRANCH   6  10
ATOM     10  C   UNL A   1      46.181  23.699  24.706  1.00  0.00     0.244 C 
BRANCH  10  11
ATOM     11  C   UNL A   1      46.475  24.317  26.059  1.00  0.00     0.244 C 
ATOM     12  O   UNL A   1      47.169  23.682  26.863  1.00  0.00    -0.273 OA
BRANCH  11  13
ATOM     13  N   UNL A   1      46.054  25.615  26.340  1.00  0.00    -0.338 N 
ATOM     14  C   UNL A   1      45.459  26.304  28.657  1.00  0.00     0.031 C 
ATOM     15  C   UNL A   1      46.463  26.410  27.513  1.00  0.00     0.082 C 
ATOM     16  C   UNL A   1      46.717  27.886  27.135  1.00  0.00     0.025 C 
ATOM     17  C   UNL A   1      47.227  27.997  25.700  1.00  0.00     0.004 C 
ATOM     18  C   UNL A   1      45.316  26.357  25.322  1.00  0.00     0.120 C 
ATOM     19  C   UNL A   1      46.189  27.454  24.712  1.00  0.00     0.022 C 
ENDBRANCH  11  13
ENDBRANCH  10  11
ENDBRANCH   6  10
ENDBRANCH   3   5
ENDBRANCH   2   3
ENDBRANCH   1   2
BRANCH   1  20
ATOM     20  C   UNL A   1      40.161  20.542  26.129  1.00  0.00     0.275 C 
BRANCH  20  21
ATOM     21  O   UNL A   1      40.690  21.792  26.571  1.00  0.00    -0.458 OA
BRANCH  21  22
ATOM     22  C   UNL A   1      39.801  22.810  26.621  1.00  0.00     0.338 C 
ATOM     23  O   UNL A   1      38.615  22.765  26.342  1.00  0.00    -0.246 OA
BRANCH  22  24
ATOM     24  C   UNL A   1      40.531  24.070  26.789  1.00  0.00     0.060 A 
ATOM     25  C   UNL A   1      41.424  24.126  27.864  1.00  0.00     0.016 A 
ATOM     26  C   UNL A   1      40.043  25.224  26.161  1.00  0.00     0.016 A 
ATOM     27  C   UNL A   1      41.637  25.343  28.468  1.00  0.00     0.010 A 
ATOM     28  C   UNL A   1      40.232  26.432  26.781  1.00  0.00     0.010 A 
ATOM     29  C   UNL A   1      40.954  26.457  27.973  1.00  0.00    -0.014 A 
BRANCH  29  30
ATOM     30  C   UNL A   1      41.077  27.704  28.689  1.00  0.00     0.031 A 
ATOM     31  C   UNL A   1      42.177  28.553  28.181  1.00  0.00     0.074 A 
ATOM     32  C   UNL A   1      40.168  28.078  29.608  1.00  0.00     0.049 A 
ATOM     33  N   UNL A   1      43.208  28.978  28.829  1.00  0.00    -0.248 NA
ATOM     34  C   UNL A   1      42.218  28.824  26.734  1.00  0.00     0.031 C 
ATOM     35  C   UNL A   1      38.907  27.420  29.958  1.00  0.00     0.029 A 
ATOM     36  N   UNL A   1      40.125  29.224  30.334  1.00  0.00    -0.354 N 
ATOM     37  C   UNL A   1      43.939  29.728  27.915  1.00  0.00     0.074 A 
ATOM     38  C   UNL A   1      43.391  29.446  26.615  1.00  0.00     0.031 C 
ATOM     39  C   UNL A   1      38.125  28.294  30.630  1.00  0.00     0.029 A 
ATOM     40  C   UNL A   1      38.868  29.523  30.840  1.00  0.00     0.049 A 
ATOM     41  H   UNL A   1      40.914  29.792  30.488  1.00  0.00     0.167 HD
ATOM     42  C   UNL A   1      44.769  30.721  28.329  1.00  0.00     0.037 A 
ATOM     43  C   UNL A   1      38.471  30.755  31.250  1.00  0.00     0.037 A 
ATOM     44  C   UNL A   1      45.124  30.562  29.714  1.00  0.00     0.049 A 
ATOM     45  C   UNL A   1      39.708  31.547  31.520  1.00  0.00     0.074 A 
ATOM     46  C   UNL A   1      45.731  29.548  30.434  1.00  0.00     0.029 A 
ATOM     47  N   UNL A   1      44.497  31.353  30.647  1.00  0.00    -0.354 N 
ATOM     48  N   UNL A   1      40.532  31.287  32.500  1.00  0.00    -0.248 NA
ATOM     49  C   UNL A   1      40.282  32.298  30.409  1.00  0.00     0.031 C 
ATOM     50  C   UNL A   1      45.016  29.493  31.665  1.00  0.00     0.029 A 
ATOM     51  C   UNL A   1      44.076  30.524  31.655  1.00  0.00     0.049 A 
ATOM     52  H   UNL A   1      44.373  32.329  30.599  1.00  0.00     0.167 HD
ATOM     53  C   UNL A   1      41.798  31.451  31.953  1.00  0.00     0.074 A 
ATOM     54  C   UNL A   1      41.581  32.136  30.680  1.00  0.00     0.031 C 
ATOM     55  C   UNL A   1      42.874  30.754  32.421  1.00  0.00     0.037 A 
BRANCH  42  56
ATOM     56  C   UNL A   1      44.939  32.018  27.585  1.00  0.00     0.064 A 
ATOM     57  C   UNL A   1      46.137  32.252  26.887  1.00  0.00     0.173 A 
ATOM     58  C   UNL A   1      44.110  33.148  27.772  1.00  0.00     0.173 A 
ATOM     59  F   UNL A   1      47.008  31.255  26.673  1.00  0.00    -0.203 F 
ATOM     60  C   UNL A   1      46.514  33.535  26.482  1.00  0.00     0.198 A 
ATOM     61  C   UNL A   1      44.461  34.414  27.314  1.00  0.00     0.198 A 
ATOM     62  F   UNL A   1      42.991  33.104  28.505  1.00  0.00    -0.203 F 
ATOM     63  F   UNL A   1      47.722  33.732  25.941  1.00  0.00    -0.200 F 
ATOM     64  C   UNL A   1      45.678  34.615  26.700  1.00  0.00     0.200 A 
ATOM     65  F   UNL A   1      43.644  35.450  27.554  1.00  0.00    -0.200 F 
ATOM     66  F   UNL A   1      46.063  35.853  26.370  1.00  0.00    -0.200 F 
ENDBRANCH  42  56
BRANCH  43  67
ATOM     67  C   UNL A   1      37.138  31.378  31.034  1.00  0.00     0.064 A 
ATOM     68  C   UNL A   1      36.323  31.745  32.117  1.00  0.00     0.173 A 
ATOM     69  C   UNL A   1      36.733  31.851  29.767  1.00  0.00     0.173 A 
ATOM     70  F   UNL A   1      36.659  31.387  33.364  1.00  0.00    -0.203 F 
ATOM     71  C   UNL A   1      35.182  32.541  31.944  1.00  0.00     0.198 A 
ATOM     72  C   UNL A   1      35.590  32.632  29.594  1.00  0.00     0.198 A 
ATOM     73  F   UNL A   1      37.484  31.649  28.677  1.00  0.00    -0.203 F 
ATOM     74  F   UNL A   1      34.462  32.918  33.009  1.00  0.00    -0.200 F 
ATOM     75  C   UNL A   1      34.820  32.988  30.683  1.00  0.00     0.200 A 
ATOM     76  F   UNL A   1      35.275  33.084  28.372  1.00  0.00    -0.200 F 
ATOM     77  F   UNL A   1      33.758  33.789  30.523  1.00  0.00    -0.200 F 
ENDBRANCH  43  67
BRANCH  55  78
ATOM     78  C   UNL A   1      42.726  29.964  33.691  1.00  0.00     0.064 A 
ATOM     79  C   UNL A   1      42.841  30.518  34.978  1.00  0.00     0.173 A 
ATOM     80  C   UNL A   1      42.278  28.639  33.601  1.00  0.00     0.173 A 
ATOM     81  F   UNL A   1      43.147  31.810  35.149  1.00  0.00    -0.203 F 
ATOM     82  C   UNL A   1      42.565  29.764  36.119  1.00  0.00     0.198 A 
ATOM     83  C   UNL A   1      41.963  27.901  34.739  1.00  0.00     0.198 A 
ATOM     84  F   UNL A   1      42.087  28.074  32.398  1.00  0.00    -0.203 F 
ATOM     85  F   UNL A   1      42.692  30.315  37.335  1.00  0.00    -0.200 F 
ATOM     86  C   UNL A   1      42.118  28.460  35.997  1.00  0.00     0.200 A 
ATOM     87  F   UNL A   1      41.476  26.659  34.613  1.00  0.00    -0.200 F 
ATOM     88  F   UNL A   1      41.808  27.750  37.091  1.00  0.00    -0.200 F 
ENDBRANCH  55  78
ENDBRANCH  29  30
ENDBRANCH  22  24
ENDBRANCH  21  22
ENDBRANCH  20  21
ENDBRANCH   1  20
TORSDOF 14
ENDMDL
MODEL 3
REMARK VINA RESULT:     -10.8      3.628      6.520
REMARK SMILES C[C@@H]1CCCCN1C(=O)Cn1cc(C(=O)OCCOC(=O)c2ccc(-c3c4nc(c(-c5c(F)c(F)c(F)c(F)c5F)c5ccc([nH]5)c(-c5c(F)c(F)c(F)c(F)c5F)c5nc(c(-c6c(F)c(F)c(F)c(F)c6F)c6ccc3[nH]6)C=C5)C=C4)cc2)cn1
REMARK SMILES IDX 17 1 16 2 14 3 15 4 13 5 11 6 12 7 86 8 85 9 10 10 8 11 9 12
REMARK SMILES IDX 7 13 1 14 2 15 3 16 4 17 6 18 5 19 18 20 19 21 20 22 21 23
REMARK SMILES IDX 22 24 23 25 84 26 24 27 83 28 25 29 26 30 27 31 77 32 28 33
REMARK SMILES IDX 82 34 76 35 78 36 29 37 81 38 75 39 74 40 30 42 62 43 42 44
REMARK SMILES IDX 61 45 43 46 46 47 60 48 79 49 44 50 45 51 59 53 80 54 47 55
REMARK SMILES IDX 31 56 32 57 40 58 33 59 34 60 38 61 41 62 35 63 36 64 39 65
REMARK SMILES IDX 37 66 63 67 64 68 72 69 65 70 66 71 70 72 73 73 67 74 68 75
REMARK SMILES IDX 71 76 69 77 48 78 49 79 57 80 50 81 51 82 55 83 58 84 52 85
REMARK SMILES IDX 53 86 56 87 54 88
REMARK H PARENT 78 41 46 52
REMARK Flexibility Score: inf
ROOT
ATOM      1  C   UNL A   1      34.180  34.983  29.136  1.00  0.00     0.275 C 
ENDROOT
BRANCH   1   2
ATOM      2  O   UNL A   1      33.980  33.562  29.038  1.00  0.00    -0.458 OA
BRANCH   2   3
ATOM      3  C   UNL A   1      34.679  32.944  28.041  1.00  0.00     0.341 C 
ATOM      4  O   UNL A   1      35.721  33.378  27.555  1.00  0.00    -0.246 OA
BRANCH   3   5
ATOM      5  C   UNL A   1      34.125  31.667  27.644  1.00  0.00     0.098 A 
ATOM      6  N   UNL A   1      32.863  29.988  26.975  1.00  0.00    -0.262 N 
ATOM      7  C   UNL A   1      32.856  31.339  27.199  1.00  0.00     0.125 A 
ATOM      8  N   UNL A   1      34.072  29.428  27.204  1.00  0.00    -0.180 NA
ATOM      9  C   UNL A   1      34.805  30.433  27.679  1.00  0.00     0.150 A 
BRANCH   6  10
ATOM     10  C   UNL A   1      31.833  29.186  26.338  1.00  0.00     0.244 C 
BRANCH  10  11
ATOM     11  C   UNL A   1      31.643  27.802  26.926  1.00  0.00     0.244 C 
ATOM     12  O   UNL A   1      31.221  27.703  28.085  1.00  0.00    -0.273 OA
BRANCH  11  13
ATOM     13  N   UNL A   1      31.843  26.673  26.134  1.00  0.00    -0.338 N 
ATOM     14  C   UNL A   1      33.891  26.422  24.741  1.00  0.00     0.031 C 
ATOM     15  C   UNL A   1      33.123  25.957  25.975  1.00  0.00     0.082 C 
ATOM     16  C   UNL A   1      32.918  24.427  25.955  1.00  0.00     0.025 C 
ATOM     17  C   UNL A   1      31.721  24.031  26.815  1.00  0.00     0.004 C 
ATOM     18  C   UNL A   1      30.684  25.992  25.565  1.00  0.00     0.120 C 
ATOM     19  C   UNL A   1      30.432  24.662  26.278  1.00  0.00     0.022 C 
ENDBRANCH  11  13
ENDBRANCH  10  11
ENDBRANCH   6  10
ENDBRANCH   3   5
ENDBRANCH   2   3
ENDBRANCH   1   2
BRANCH   1  20
ATOM     20  C   UNL A   1      33.042  35.653  29.895  1.00  0.00     0.275 C 
BRANCH  20  21
ATOM     21  O   UNL A   1      33.425  35.958  31.236  1.00  0.00    -0.458 OA
BRANCH  21  22
ATOM     22  C   UNL A   1      33.047  35.049  32.164  1.00  0.00     0.338 C 
ATOM     23  O   UNL A   1      31.932  34.898  32.634  1.00  0.00    -0.246 OA
BRANCH  22  24
ATOM     24  C   UNL A   1      34.245  34.442  32.749  1.00  0.00     0.060 A 
ATOM     25  C   UNL A   1      35.293  35.316  33.055  1.00  0.00     0.016 A 
ATOM     26  C   UNL A   1      34.441  33.061  32.611  1.00  0.00     0.016 A 
ATOM     27  C   UNL A   1      36.580  34.839  32.982  1.00  0.00     0.010 A 
ATOM     28  C   UNL A   1      35.724  32.592  32.508  1.00  0.00     0.010 A 
ATOM     29  C   UNL A   1      36.772  33.505  32.608  1.00  0.00    -0.014 A 
BRANCH  29  30
ATOM     30  C   UNL A   1      38.124  33.043  32.403  1.00  0.00     0.031 A 
ATOM     31  C   UNL A   1      38.941  33.090  33.635  1.00  0.00     0.074 A 
ATOM     32  C   UNL A   1      38.508  32.494  31.237  1.00  0.00     0.049 A 
ATOM     33  N   UNL A   1      40.028  33.756  33.836  1.00  0.00    -0.248 NA
ATOM     34  C   UNL A   1      38.393  32.449  34.843  1.00  0.00     0.031 C 
ATOM     35  C   UNL A   1      37.682  32.161  30.074  1.00  0.00     0.029 A 
ATOM     36  N   UNL A   1      39.721  31.985  30.903  1.00  0.00    -0.354 N 
ATOM     37  C   UNL A   1      40.402  33.470  35.144  1.00  0.00     0.074 A 
ATOM     38  C   UNL A   1      39.278  32.824  35.766  1.00  0.00     0.031 C 
ATOM     39  C   UNL A   1      38.358  31.296  29.286  1.00  0.00     0.029 A 
ATOM     40  C   UNL A   1      39.687  31.100  29.835  1.00  0.00     0.049 A 
ATOM     41  H   UNL A   1      40.551  32.223  31.376  1.00  0.00     0.167 HD
ATOM     42  C   UNL A   1      41.701  33.555  35.534  1.00  0.00     0.037 A 
ATOM     43  C   UNL A   1      40.649  30.184  29.557  1.00  0.00     0.037 A 
ATOM     44  C   UNL A   1      42.465  34.378  34.634  1.00  0.00     0.049 A 
ATOM     45  C   UNL A   1      41.893  30.628  30.254  1.00  0.00     0.074 A 
ATOM     46  C   UNL A   1      42.349  35.689  34.208  1.00  0.00     0.029 A 
ATOM     47  N   UNL A   1      43.282  33.761  33.716  1.00  0.00    -0.354 N 
ATOM     48  N   UNL A   1      42.563  31.700  29.922  1.00  0.00    -0.248 NA
ATOM     49  C   UNL A   1      42.099  30.166  31.622  1.00  0.00     0.031 C 
ATOM     50  C   UNL A   1      42.663  35.652  32.819  1.00  0.00     0.029 A 
ATOM     51  C   UNL A   1      43.028  34.344  32.501  1.00  0.00     0.049 A 
ATOM     52  H   UNL A   1      43.927  33.039  33.897  1.00  0.00     0.167 HD
ATOM     53  C   UNL A   1      42.921  32.282  31.131  1.00  0.00     0.074 A 
ATOM     54  C   UNL A   1      42.664  31.259  32.143  1.00  0.00     0.031 C 
ATOM     55  C   UNL A   1      43.102  33.630  31.248  1.00  0.00     0.037 A 
BRANCH  42  56
ATOM     56  C   UNL A   1      42.337  32.591  36.501  1.00  0.00     0.064 A 
ATOM     57  C   UNL A   1      43.074  33.101  37.585  1.00  0.00     0.173 A 
ATOM     58  C   UNL A   1      42.504  31.211  36.242  1.00  0.00     0.173 A 
ATOM     59  F   UNL A   1      43.008  34.402  37.904  1.00  0.00    -0.203 F 
ATOM     60  C   UNL A   1      43.970  32.306  38.303  1.00  0.00     0.198 A 
ATOM     61  C   UNL A   1      43.353  30.409  36.998  1.00  0.00     0.198 A 
ATOM     62  F   UNL A   1      41.951  30.607  35.184  1.00  0.00    -0.203 F 
ATOM     63  F   UNL A   1      44.747  32.862  39.240  1.00  0.00    -0.200 F 
ATOM     64  C   UNL A   1      44.112  30.962  38.006  1.00  0.00     0.200 A 
ATOM     65  F   UNL A   1      43.490  29.114  36.680  1.00  0.00    -0.200 F 
ATOM     66  F   UNL A   1      45.015  30.213  38.650  1.00  0.00    -0.200 F 
ENDBRANCH  42  56
BRANCH  43  67
ATOM     67  C   UNL A   1      40.440  28.793  29.076  1.00  0.00     0.064 A 
ATOM     68  C   UNL A   1      39.714  27.861  29.836  1.00  0.00     0.173 A 
ATOM     69  C   UNL A   1      40.737  28.410  27.750  1.00  0.00     0.173 A 
ATOM     70  F   UNL A   1      39.339  28.161  31.088  1.00  0.00    -0.203 F 
ATOM     71  C   UNL A   1      39.305  26.632  29.302  1.00  0.00     0.198 A 
ATOM     72  C   UNL A   1      40.342  27.180  27.223  1.00  0.00     0.198 A 
ATOM     73  F   UNL A   1      41.336  29.254  26.900  1.00  0.00    -0.203 F 
ATOM     74  F   UNL A   1      38.565  25.794  30.041  1.00  0.00    -0.200 F 
ATOM     75  C   UNL A   1      39.615  26.295  27.994  1.00  0.00     0.200 A 
ATOM     76  F   UNL A   1      40.620  26.887  25.945  1.00  0.00    -0.200 F 
ATOM     77  F   UNL A   1      39.182  25.142  27.466  1.00  0.00    -0.200 F 
ENDBRANCH  43  67
BRANCH  55  78
ATOM     78  C   UNL A   1      43.129  34.466  30.000  1.00  0.00     0.064 A 
ATOM     79  C   UNL A   1      44.293  34.734  29.258  1.00  0.00     0.173 A 
ATOM     80  C   UNL A   1      41.906  34.862  29.438  1.00  0.00     0.173 A 
ATOM     81  F   UNL A   1      45.488  34.287  29.664  1.00  0.00    -0.203 F 
ATOM     82  C   UNL A   1      44.236  35.408  28.039  1.00  0.00     0.198 A 
ATOM     83  C   UNL A   1      41.849  35.496  28.200  1.00  0.00     0.198 A 
ATOM     84  F   UNL A   1      40.755  34.579  30.068  1.00  0.00    -0.203 F 
ATOM     85  F   UNL A   1      45.365  35.658  27.357  1.00  0.00    -0.200 F 
ATOM     86  C   UNL A   1      43.014  35.780  27.507  1.00  0.00     0.200 A 
ATOM     87  F   UNL A   1      40.659  35.803  27.665  1.00  0.00    -0.200 F 
ATOM     88  F   UNL A   1      42.955  36.384  26.312  1.00  0.00    -0.200 F 
ENDBRANCH  55  78
ENDBRANCH  29  30
ENDBRANCH  22  24
ENDBRANCH  21  22
ENDBRANCH  20  21
ENDBRANCH   1  20
TORSDOF 14
ENDMDL
