MODEL 1
REMARK VINA RESULT:     -13.2      0.000      0.000
REMARK SMILES O=C(OCCOC(=O)c1ccc(-c2c3nc(c(-c4c(F)c(F)c(F)c(F)c4F)c4ccc([nH]4)c(-c4c(F)c(F)c(F)c(F)c4F)c4nc(c(-c5c(F)c(F)c(F)c(F)c5F)c5ccc2[nH]5)C=C4)C=C3)cc1)c1ccc(/C=C/c2ccnc(-c3cccc([N+](=O)[O-])c3)[n+]2[O-])cc1
REMARK SMILES IDX 4 1 3 2 2 3 1 4 72 5 73 6 95 7 74 8 94 9 75 10 76 11 77 12
REMARK SMILES IDX 78 13 79 14 92 15 80 16 82 17 93 18 81 19 83 20 84 21 91 22
REMARK SMILES IDX 85 23 87 24 86 25 88 26 89 27 90 28 5 29 6 30 7 31 8 32 9 33
REMARK SMILES IDX 10 34 71 35 11 36 70 37 12 38 13 39 14 40 64 41 15 42 69 43
REMARK SMILES IDX 63 44 65 45 16 46 68 47 62 48 61 49 17 51 49 52 29 53 48 54
REMARK SMILES IDX 30 55 33 56 47 57 66 58 31 59 32 60 46 62 67 63 34 64 18 65
REMARK SMILES IDX 19 66 27 67 20 68 21 69 25 70 28 71 22 72 23 73 26 74 24 75
REMARK SMILES IDX 50 76 51 77 59 78 52 79 53 80 57 81 60 82 54 83 55 84 58 85
REMARK SMILES IDX 56 86 35 87 36 88 44 89 37 90 38 91 42 92 45 93 39 94 40 95
REMARK SMILES IDX 43 96 41 97
REMARK H PARENT 65 50 33 61
REMARK Flexibility Score: inf
ROOT
ATOM      1  C   UNL A   1      43.597  21.579  25.807  1.00  0.00     0.275 C 
ENDROOT
BRANCH   1   2
ATOM      2  O   UNL A   1      42.210  21.439  25.449  1.00  0.00    -0.458 OA
BRANCH   2   3
ATOM      3  C   UNL A   1      41.125  21.157  26.210  1.00  0.00     0.338 C 
ATOM      4  O   UNL A   1      41.244  20.325  27.109  1.00  0.00    -0.246 OA
BRANCH   3   5
ATOM      5  C   UNL A   1      39.746  21.683  25.938  1.00  0.00     0.060 A 
ATOM      6  C   UNL A   1      38.689  20.970  25.375  1.00  0.00     0.016 A 
ATOM      7  C   UNL A   1      39.496  23.016  26.314  1.00  0.00     0.016 A 
ATOM      8  C   UNL A   1      37.403  21.512  25.309  1.00  0.00     0.009 A 
ATOM      9  C   UNL A   1      38.214  23.574  26.216  1.00  0.00     0.009 A 
ATOM     10  C   UNL A   1      37.143  22.803  25.765  1.00  0.00    -0.025 A 
BRANCH  10  11
ATOM     11  C   UNL A   1      35.809  23.395  25.649  1.00  0.00     0.012 C 
ATOM     12  C   UNL A   1      34.946  23.533  26.671  1.00  0.00     0.053 C 
BRANCH  12  13
ATOM     13  C   UNL A   1      33.532  23.892  26.464  1.00  0.00     0.134 A 
ATOM     14  C   UNL A   1      32.537  22.929  26.628  1.00  0.00     0.100 A 
ATOM     15  N   UNL A   1      33.195  25.189  26.040  1.00  0.00    -0.228 N 
ATOM     16  C   UNL A   1      31.230  23.313  26.424  1.00  0.00     0.259 A 
ATOM     17  C   UNL A   1      31.846  25.490  25.866  1.00  0.00     0.333 A 
ATOM     18  O   UNL A   1      34.099  26.070  25.805  1.00  0.00    -0.710 OA
ATOM     19  N   UNL A   1      30.866  24.561  26.072  1.00  0.00    -0.049 NA
BRANCH  17  20
ATOM     20  C   UNL A   1      31.462  26.849  25.485  1.00  0.00     0.076 A 
ATOM     21  C   UNL A   1      31.952  27.954  26.202  1.00  0.00     0.017 A 
ATOM     22  C   UNL A   1      30.674  27.082  24.345  1.00  0.00     0.102 A 
ATOM     23  C   UNL A   1      31.696  29.259  25.774  1.00  0.00     0.008 A 
ATOM     24  C   UNL A   1      30.417  28.391  23.921  1.00  0.00     0.270 A 
ATOM     25  C   UNL A   1      30.931  29.483  24.629  1.00  0.00     0.085 A 
BRANCH  24  26
ATOM     26  N   UNL A   1      29.614  28.616  22.712  1.00  0.00     0.062 N 
ATOM     27  O   UNL A   1      28.385  28.704  22.845  1.00  0.00    -0.258 OA
ATOM     28  O   UNL A   1      30.210  28.689  21.627  1.00  0.00    -0.258 OA
ENDBRANCH  24  26
ENDBRANCH  17  20
ENDBRANCH  12  13
ENDBRANCH  10  11
ENDBRANCH   3   5
ENDBRANCH   2   3
ENDBRANCH   1   2
BRANCH   1  29
ATOM     29  C   UNL A   1      44.422  22.426  24.830  1.00  0.00     0.275 C 
BRANCH  29  30
ATOM     30  O   UNL A   1      43.799  23.679  24.501  1.00  0.00    -0.458 OA
BRANCH  30  31
ATOM     31  C   UNL A   1      44.447  24.774  24.977  1.00  0.00     0.338 C 
ATOM     32  O   UNL A   1      45.558  25.153  24.642  1.00  0.00    -0.246 OA
BRANCH  31  33
ATOM     33  C   UNL A   1      43.585  25.549  25.902  1.00  0.00     0.060 A 
ATOM     34  C   UNL A   1      44.070  26.785  26.348  1.00  0.00     0.016 A 
ATOM     35  C   UNL A   1      42.350  25.082  26.367  1.00  0.00     0.016 A 
ATOM     36  C   UNL A   1      43.364  27.520  27.302  1.00  0.00     0.010 A 
ATOM     37  C   UNL A   1      41.633  25.831  27.314  1.00  0.00     0.010 A 
ATOM     38  C   UNL A   1      42.159  27.032  27.827  1.00  0.00    -0.014 A 
BRANCH  38  39
ATOM     39  C   UNL A   1      41.570  27.696  29.026  1.00  0.00     0.031 A 
ATOM     40  C   UNL A   1      42.260  27.548  30.359  1.00  0.00     0.074 A 
ATOM     41  C   UNL A   1      40.484  28.488  28.940  1.00  0.00     0.049 A 
ATOM     42  N   UNL A   1      42.002  28.138  31.501  1.00  0.00    -0.248 NA
ATOM     43  C   UNL A   1      43.390  26.609  30.413  1.00  0.00     0.031 C 
ATOM     44  C   UNL A   1      39.715  28.742  27.727  1.00  0.00     0.029 A 
ATOM     45  N   UNL A   1      39.849  29.240  29.902  1.00  0.00    -0.354 N 
ATOM     46  C   UNL A   1      42.945  27.654  32.398  1.00  0.00     0.074 A 
ATOM     47  C   UNL A   1      43.738  26.674  31.688  1.00  0.00     0.031 C 
ATOM     48  C   UNL A   1      38.715  29.595  28.011  1.00  0.00     0.029 A 
ATOM     49  C   UNL A   1      38.773  29.951  29.429  1.00  0.00     0.049 A 
ATOM     50  H   UNL A   1      40.140  29.265  30.844  1.00  0.00     0.167 HD
ATOM     51  C   UNL A   1      43.157  28.009  33.688  1.00  0.00     0.037 A 
ATOM     52  C   UNL A   1      37.942  30.806  30.060  1.00  0.00     0.037 A 
ATOM     53  C   UNL A   1      42.384  28.985  34.411  1.00  0.00     0.049 A 
ATOM     54  C   UNL A   1      38.166  31.146  31.514  1.00  0.00     0.074 A 
ATOM     55  C   UNL A   1      42.556  29.429  35.711  1.00  0.00     0.029 A 
ATOM     56  N   UNL A   1      41.286  29.659  33.902  1.00  0.00    -0.354 N 
ATOM     57  N   UNL A   1      39.110  30.743  32.328  1.00  0.00    -0.248 NA
ATOM     58  C   UNL A   1      37.212  32.082  32.130  1.00  0.00     0.031 C 
ATOM     59  C   UNL A   1      41.527  30.329  36.009  1.00  0.00     0.029 A 
ATOM     60  C   UNL A   1      40.753  30.495  34.873  1.00  0.00     0.049 A 
ATOM     61  H   UNL A   1      40.936  29.561  32.987  1.00  0.00     0.167 HD
ATOM     62  C   UNL A   1      38.898  31.417  33.526  1.00  0.00     0.074 A 
ATOM     63  C   UNL A   1      37.735  32.254  33.334  1.00  0.00     0.031 C 
ATOM     64  C   UNL A   1      39.611  31.351  34.678  1.00  0.00     0.037 A 
BRANCH  51  65
ATOM     65  C   UNL A   1      44.277  27.322  34.414  1.00  0.00     0.064 A 
ATOM     66  C   UNL A   1      44.084  26.102  35.080  1.00  0.00     0.173 A 
ATOM     67  C   UNL A   1      45.565  27.878  34.422  1.00  0.00     0.173 A 
ATOM     68  F   UNL A   1      42.868  25.536  35.114  1.00  0.00    -0.203 F 
ATOM     69  C   UNL A   1      45.131  25.480  35.754  1.00  0.00     0.198 A 
ATOM     70  C   UNL A   1      46.618  27.237  35.069  1.00  0.00     0.198 A 
ATOM     71  F   UNL A   1      45.804  29.041  33.797  1.00  0.00    -0.203 F 
ATOM     72  F   UNL A   1      44.912  24.344  36.429  1.00  0.00    -0.200 F 
ATOM     73  C   UNL A   1      46.398  26.045  35.742  1.00  0.00     0.200 A 
ATOM     74  F   UNL A   1      47.844  27.778  35.045  1.00  0.00    -0.200 F 
ATOM     75  F   UNL A   1      47.407  25.444  36.388  1.00  0.00    -0.200 F 
ENDBRANCH  51  65
BRANCH  52  76
ATOM     76  C   UNL A   1      36.824  31.447  29.317  1.00  0.00     0.064 A 
ATOM     77  C   UNL A   1      36.851  32.815  29.010  1.00  0.00     0.173 A 
ATOM     78  C   UNL A   1      35.680  30.720  28.959  1.00  0.00     0.173 A 
ATOM     79  F   UNL A   1      37.909  33.560  29.361  1.00  0.00    -0.203 F 
ATOM     80  C   UNL A   1      35.762  33.438  28.403  1.00  0.00     0.198 A 
ATOM     81  C   UNL A   1      34.604  31.338  28.325  1.00  0.00     0.198 A 
ATOM     82  F   UNL A   1      35.602  29.411  29.238  1.00  0.00    -0.203 F 
ATOM     83  F   UNL A   1      35.787  34.760  28.181  1.00  0.00    -0.200 F 
ATOM     84  C   UNL A   1      34.641  32.698  28.058  1.00  0.00     0.200 A 
ATOM     85  F   UNL A   1      33.524  30.620  27.992  1.00  0.00    -0.200 F 
ATOM     86  F   UNL A   1      33.589  33.300  27.486  1.00  0.00    -0.200 F 
ENDBRANCH  52  76
BRANCH  64  87
ATOM     87  C   UNL A   1      39.206  32.256  35.809  1.00  0.00     0.064 A 
ATOM     88  C   UNL A   1      38.324  31.842  36.819  1.00  0.00     0.173 A 
ATOM     89  C   UNL A   1      39.740  33.551  35.902  1.00  0.00     0.173 A 
ATOM     90  F   UNL A   1      37.775  30.618  36.776  1.00  0.00    -0.203 F 
ATOM     91  C   UNL A   1      37.965  32.701  37.856  1.00  0.00     0.198 A 
ATOM     92  C   UNL A   1      39.407  34.395  36.960  1.00  0.00     0.198 A 
ATOM     93  F   UNL A   1      40.598  33.999  34.973  1.00  0.00    -0.203 F 
ATOM     94  F   UNL A   1      37.077  32.301  38.776  1.00  0.00    -0.200 F 
ATOM     95  C   UNL A   1      38.511  33.973  37.930  1.00  0.00     0.200 A 
ATOM     96  F   UNL A   1      39.951  35.617  37.038  1.00  0.00    -0.200 F 
ATOM     97  F   UNL A   1      38.169  34.794  38.931  1.00  0.00    -0.200 F 
ENDBRANCH  64  87
ENDBRANCH  38  39
ENDBRANCH  31  33
ENDBRANCH  30  31
ENDBRANCH  29  30
ENDBRANCH   1  29
TORSDOF 15
ENDMDL
MODEL 2
REMARK VINA RESULT:     -13.1      4.405      6.965
REMARK SMILES O=C(OCCOC(=O)c1ccc(-c2c3nc(c(-c4c(F)c(F)c(F)c(F)c4F)c4ccc([nH]4)c(-c4c(F)c(F)c(F)c(F)c4F)c4nc(c(-c5c(F)c(F)c(F)c(F)c5F)c5ccc2[nH]5)C=C4)C=C3)cc1)c1ccc(/C=C/c2ccnc(-c3cccc([N+](=O)[O-])c3)[n+]2[O-])cc1
REMARK SMILES IDX 4 1 3 2 2 3 1 4 72 5 73 6 95 7 74 8 94 9 75 10 76 11 77 12
REMARK SMILES IDX 78 13 79 14 92 15 80 16 82 17 93 18 81 19 83 20 84 21 91 22
REMARK SMILES IDX 85 23 87 24 86 25 88 26 89 27 90 28 5 29 6 30 7 31 8 32 9 33
REMARK SMILES IDX 10 34 71 35 11 36 70 37 12 38 13 39 14 40 64 41 15 42 69 43
REMARK SMILES IDX 63 44 65 45 16 46 68 47 62 48 61 49 17 51 49 52 29 53 48 54
REMARK SMILES IDX 30 55 33 56 47 57 66 58 31 59 32 60 46 62 67 63 34 64 18 65
REMARK SMILES IDX 19 66 27 67 20 68 21 69 25 70 28 71 22 72 23 73 26 74 24 75
REMARK SMILES IDX 50 76 51 77 59 78 52 79 53 80 57 81 60 82 54 83 55 84 58 85
REMARK SMILES IDX 56 86 35 87 36 88 44 89 37 90 38 91 42 92 45 93 39 94 40 95
REMARK SMILES IDX 43 96 41 97
REMARK H PARENT 65 50 33 61
REMARK Flexibility Score: inf
ROOT
ATOM      1  C   UNL A   1      37.614  20.465  24.674  1.00  0.00     0.275 C 
ENDROOT
BRANCH   1   2
ATOM      2  O   UNL A   1      36.302  19.894  24.836  1.00  0.00    -0.458 OA
BRANCH   2   3
ATOM      3  C   UNL A   1      35.095  20.486  25.002  1.00  0.00     0.338 C 
ATOM      4  O   UNL A   1      34.094  19.770  25.032  1.00  0.00    -0.246 OA
BRANCH   3   5
ATOM      5  C   UNL A   1      34.879  21.971  25.005  1.00  0.00     0.060 A 
ATOM      6  C   UNL A   1      35.104  22.838  23.938  1.00  0.00     0.016 A 
ATOM      7  C   UNL A   1      34.376  22.531  26.195  1.00  0.00     0.016 A 
ATOM      8  C   UNL A   1      34.722  24.181  24.002  1.00  0.00     0.009 A 
ATOM      9  C   UNL A   1      34.026  23.886  26.273  1.00  0.00     0.009 A 
ATOM     10  C   UNL A   1      34.143  24.709  25.154  1.00  0.00    -0.025 A 
BRANCH  10  11
ATOM     11  C   UNL A   1      33.791  26.127  25.245  1.00  0.00     0.012 C 
ATOM     12  C   UNL A   1      32.776  26.614  25.981  1.00  0.00     0.053 C 
BRANCH  12  13
ATOM     13  C   UNL A   1      32.299  28.001  25.843  1.00  0.00     0.134 A 
ATOM     14  C   UNL A   1      32.781  28.993  26.696  1.00  0.00     0.100 A 
ATOM     15  N   UNL A   1      31.311  28.309  24.891  1.00  0.00    -0.228 N 
ATOM     16  C   UNL A   1      32.306  30.274  26.526  1.00  0.00     0.259 A 
ATOM     17  C   UNL A   1      30.895  29.634  24.786  1.00  0.00     0.333 A 
ATOM     18  O   UNL A   1      30.792  27.398  24.149  1.00  0.00    -0.710 OA
ATOM     19  N   UNL A   1      31.401  30.617  25.589  1.00  0.00    -0.049 NA
BRANCH  17  20
ATOM     20  C   UNL A   1      29.913  29.994  23.764  1.00  0.00     0.076 A 
ATOM     21  C   UNL A   1      29.167  28.998  23.112  1.00  0.00     0.017 A 
ATOM     22  C   UNL A   1      29.631  31.341  23.479  1.00  0.00     0.102 A 
ATOM     23  C   UNL A   1      28.139  29.333  22.227  1.00  0.00     0.008 A 
ATOM     24  C   UNL A   1      28.602  31.674  22.589  1.00  0.00     0.270 A 
ATOM     25  C   UNL A   1      27.850  30.673  21.965  1.00  0.00     0.085 A 
BRANCH  24  26
ATOM     26  N   UNL A   1      28.303  33.086  22.324  1.00  0.00     0.062 N 
ATOM     27  O   UNL A   1      27.653  33.356  21.304  1.00  0.00    -0.258 OA
ATOM     28  O   UNL A   1      28.731  33.929  23.126  1.00  0.00    -0.258 OA
ENDBRANCH  24  26
ENDBRANCH  17  20
ENDBRANCH  12  13
ENDBRANCH  10  11
ENDBRANCH   3   5
ENDBRANCH   2   3
ENDBRANCH   1   2
BRANCH   1  29
ATOM     29  C   UNL A   1      38.760  19.575  25.174  1.00  0.00     0.275 C 
BRANCH  29  30
ATOM     30  O   UNL A   1      39.314  20.015  26.425  1.00  0.00    -0.458 OA
BRANCH  30  31
ATOM     31  C   UNL A   1      40.630  20.349  26.372  1.00  0.00     0.338 C 
ATOM     32  O   UNL A   1      41.514  19.701  25.834  1.00  0.00    -0.246 OA
BRANCH  31  33
ATOM     33  C   UNL A   1      40.869  21.686  26.967  1.00  0.00     0.060 A 
ATOM     34  C   UNL A   1      40.314  22.790  26.309  1.00  0.00     0.016 A 
ATOM     35  C   UNL A   1      41.645  21.884  28.115  1.00  0.00     0.016 A 
ATOM     36  C   UNL A   1      40.586  24.087  26.748  1.00  0.00     0.010 A 
ATOM     37  C   UNL A   1      41.904  23.188  28.566  1.00  0.00     0.010 A 
ATOM     38  C   UNL A   1      41.419  24.302  27.856  1.00  0.00    -0.014 A 
BRANCH  38  39
ATOM     39  C   UNL A   1      41.907  25.684  28.137  1.00  0.00     0.031 A 
ATOM     40  C   UNL A   1      43.253  26.107  27.608  1.00  0.00     0.074 A 
ATOM     41  C   UNL A   1      41.147  26.590  28.783  1.00  0.00     0.049 A 
ATOM     42  N   UNL A   1      43.819  27.290  27.619  1.00  0.00    -0.248 NA
ATOM     43  C   UNL A   1      44.073  25.059  26.984  1.00  0.00     0.031 C 
ATOM     44  C   UNL A   1      39.823  26.340  29.343  1.00  0.00     0.029 A 
ATOM     45  N   UNL A   1      41.384  27.916  29.063  1.00  0.00    -0.354 N 
ATOM     46  C   UNL A   1      45.047  27.128  26.993  1.00  0.00     0.074 A 
ATOM     47  C   UNL A   1      45.175  25.723  26.672  1.00  0.00     0.031 C 
ATOM     48  C   UNL A   1      39.358  27.475  29.894  1.00  0.00     0.029 A 
ATOM     49  C   UNL A   1      40.352  28.536  29.724  1.00  0.00     0.049 A 
ATOM     50  H   UNL A   1      42.217  28.378  28.813  1.00  0.00     0.167 HD
ATOM     51  C   UNL A   1      45.977  28.063  26.682  1.00  0.00     0.037 A 
ATOM     52  C   UNL A   1      40.214  29.815  30.131  1.00  0.00     0.037 A 
ATOM     53  C   UNL A   1      45.868  29.466  26.987  1.00  0.00     0.049 A 
ATOM     54  C   UNL A   1      41.288  30.828  29.820  1.00  0.00     0.074 A 
ATOM     55  C   UNL A   1      46.750  30.486  26.674  1.00  0.00     0.029 A 
ATOM     56  N   UNL A   1      44.819  30.044  27.682  1.00  0.00    -0.354 N 
ATOM     57  N   UNL A   1      42.408  30.679  29.155  1.00  0.00    -0.248 NA
ATOM     58  C   UNL A   1      41.064  32.201  30.302  1.00  0.00     0.031 C 
ATOM     59  C   UNL A   1      46.264  31.674  27.232  1.00  0.00     0.029 A 
ATOM     60  C   UNL A   1      45.047  31.405  27.835  1.00  0.00     0.049 A 
ATOM     61  H   UNL A   1      44.029  29.563  28.019  1.00  0.00     0.167 HD
ATOM     62  C   UNL A   1      42.988  31.941  29.092  1.00  0.00     0.074 A 
ATOM     63  C   UNL A   1      42.099  32.846  29.785  1.00  0.00     0.031 C 
ATOM     64  C   UNL A   1      44.151  32.314  28.502  1.00  0.00     0.037 A 
BRANCH  51  65
ATOM     65  C   UNL A   1      47.215  27.592  25.977  1.00  0.00     0.064 A 
ATOM     66  C   UNL A   1      47.289  27.538  24.576  1.00  0.00     0.173 A 
ATOM     67  C   UNL A   1      48.351  27.215  26.709  1.00  0.00     0.173 A 
ATOM     68  F   UNL A   1      46.227  27.874  23.830  1.00  0.00    -0.203 F 
ATOM     69  C   UNL A   1      48.443  27.092  23.937  1.00  0.00     0.198 A 
ATOM     70  C   UNL A   1      49.514  26.802  26.066  1.00  0.00     0.198 A 
ATOM     71  F   UNL A   1      48.334  27.253  28.050  1.00  0.00    -0.203 F 
ATOM     72  F   UNL A   1      48.472  26.995  22.600  1.00  0.00    -0.200 F 
ATOM     73  C   UNL A   1      49.556  26.731  24.682  1.00  0.00     0.200 A 
ATOM     74  F   UNL A   1      50.592  26.465  26.787  1.00  0.00    -0.200 F 
ATOM     75  F   UNL A   1      50.667  26.306  24.066  1.00  0.00    -0.200 F 
ENDBRANCH  51  65
BRANCH  52  76
ATOM     76  C   UNL A   1      38.985  30.242  30.854  1.00  0.00     0.064 A 
ATOM     77  C   UNL A   1      37.871  30.733  30.158  1.00  0.00     0.173 A 
ATOM     78  C   UNL A   1      38.926  30.228  32.254  1.00  0.00     0.173 A 
ATOM     79  F   UNL A   1      37.893  30.797  28.819  1.00  0.00    -0.203 F 
ATOM     80  C   UNL A   1      36.758  31.226  30.837  1.00  0.00     0.198 A 
ATOM     81  C   UNL A   1      37.801  30.693  32.931  1.00  0.00     0.198 A 
ATOM     82  F   UNL A   1      39.969  29.774  32.966  1.00  0.00    -0.203 F 
ATOM     83  F   UNL A   1      35.736  31.752  30.149  1.00  0.00    -0.200 F 
ATOM     84  C   UNL A   1      36.723  31.202  32.223  1.00  0.00     0.200 A 
ATOM     85  F   UNL A   1      37.770  30.666  34.270  1.00  0.00    -0.200 F 
ATOM     86  F   UNL A   1      35.658  31.688  32.876  1.00  0.00    -0.200 F 
ENDBRANCH  52  76
BRANCH  64  87
ATOM     87  C   UNL A   1      44.508  33.776  28.513  1.00  0.00     0.064 A 
ATOM     88  C   UNL A   1      44.099  34.653  27.497  1.00  0.00     0.173 A 
ATOM     89  C   UNL A   1      45.243  34.315  29.581  1.00  0.00     0.173 A 
ATOM     90  F   UNL A   1      43.401  34.192  26.447  1.00  0.00    -0.203 F 
ATOM     91  C   UNL A   1      44.443  36.003  27.531  1.00  0.00     0.198 A 
ATOM     92  C   UNL A   1      45.555  35.672  29.630  1.00  0.00     0.198 A 
ATOM     93  F   UNL A   1      45.652  33.527  30.587  1.00  0.00    -0.203 F 
ATOM     94  F   UNL A   1      44.089  36.808  26.520  1.00  0.00    -0.200 F 
ATOM     95  C   UNL A   1      45.165  36.512  28.599  1.00  0.00     0.200 A 
ATOM     96  F   UNL A   1      46.237  36.164  30.674  1.00  0.00    -0.200 F 
ATOM     97  F   UNL A   1      45.489  37.812  28.634  1.00  0.00    -0.200 F 
ENDBRANCH  64  87
ENDBRANCH  38  39
ENDBRANCH  31  33
ENDBRANCH  30  31
ENDBRANCH  29  30
ENDBRANCH   1  29
TORSDOF 15
ENDMDL
MODEL 3
REMARK VINA RESULT:     -13.0      4.361      7.280
REMARK SMILES O=C(OCCOC(=O)c1ccc(-c2c3nc(c(-c4c(F)c(F)c(F)c(F)c4F)c4ccc([nH]4)c(-c4c(F)c(F)c(F)c(F)c4F)c4nc(c(-c5c(F)c(F)c(F)c(F)c5F)c5ccc2[nH]5)C=C4)C=C3)cc1)c1ccc(/C=C/c2ccnc(-c3cccc([N+](=O)[O-])c3)[n+]2[O-])cc1
REMARK SMILES IDX 4 1 3 2 2 3 1 4 72 5 73 6 95 7 74 8 94 9 75 10 76 11 77 12
REMARK SMILES IDX 78 13 79 14 92 15 80 16 82 17 93 18 81 19 83 20 84 21 91 22
REMARK SMILES IDX 85 23 87 24 86 25 88 26 89 27 90 28 5 29 6 30 7 31 8 32 9 33
REMARK SMILES IDX 10 34 71 35 11 36 70 37 12 38 13 39 14 40 64 41 15 42 69 43
REMARK SMILES IDX 63 44 65 45 16 46 68 47 62 48 61 49 17 51 49 52 29 53 48 54
REMARK SMILES IDX 30 55 33 56 47 57 66 58 31 59 32 60 46 62 67 63 34 64 18 65
REMARK SMILES IDX 19 66 27 67 20 68 21 69 25 70 28 71 22 72 23 73 26 74 24 75
REMARK SMILES IDX 50 76 51 77 59 78 52 79 53 80 57 81 60 82 54 83 55 84 58 85
REMARK SMILES IDX 56 86 35 87 36 88 44 89 37 90 38 91 42 92 45 93 39 94 40 95
REMARK SMILES IDX 43 96 41 97
REMARK H PARENT 65 50 33 61
REMARK Flexibility Score: inf
ROOT
ATOM      1  C   UNL A   1      39.295  19.972  25.595  1.00  0.00     0.275 C 
ENDROOT
BRANCH   1   2
ATOM      2  O   UNL A   1      40.417  20.061  26.493  1.00  0.00    -0.458 OA
BRANCH   2   3
ATOM      3  C   UNL A   1      41.702  20.424  26.269  1.00  0.00     0.338 C 
ATOM      4  O   UNL A   1      42.511  19.548  25.962  1.00  0.00    -0.246 OA
BRANCH   3   5
ATOM      5  C   UNL A   1      42.242  21.803  26.511  1.00  0.00     0.060 A 
ATOM      6  C   UNL A   1      42.385  22.426  27.749  1.00  0.00     0.016 A 
ATOM      7  C   UNL A   1      42.667  22.521  25.376  1.00  0.00     0.016 A 
ATOM      8  C   UNL A   1      43.043  23.653  27.872  1.00  0.00     0.009 A 
ATOM      9  C   UNL A   1      43.295  23.768  25.495  1.00  0.00     0.009 A 
ATOM     10  C   UNL A   1      43.540  24.317  26.753  1.00  0.00    -0.025 A 
BRANCH  10  11
ATOM     11  C   UNL A   1      44.182  25.628  26.871  1.00  0.00     0.012 C 
ATOM     12  C   UNL A   1      44.086  26.607  25.954  1.00  0.00     0.053 C 
BRANCH  12  13
ATOM     13  C   UNL A   1      44.948  27.802  25.987  1.00  0.00     0.134 A 
ATOM     14  C   UNL A   1      46.267  27.723  25.542  1.00  0.00     0.100 A 
ATOM     15  N   UNL A   1      44.456  29.004  26.525  1.00  0.00    -0.228 N 
ATOM     16  C   UNL A   1      47.031  28.867  25.591  1.00  0.00     0.259 A 
ATOM     17  C   UNL A   1      45.299  30.113  26.527  1.00  0.00     0.333 A 
ATOM     18  O   UNL A   1      43.271  29.080  27.015  1.00  0.00    -0.710 OA
ATOM     19  N   UNL A   1      46.577  30.050  26.047  1.00  0.00    -0.049 NA
BRANCH  17  20
ATOM     20  C   UNL A   1      44.794  31.392  27.024  1.00  0.00     0.076 A 
ATOM     21  C   UNL A   1      44.901  31.718  28.387  1.00  0.00     0.017 A 
ATOM     22  C   UNL A   1      44.278  32.355  26.140  1.00  0.00     0.102 A 
ATOM     23  C   UNL A   1      44.539  32.984  28.854  1.00  0.00     0.008 A 
ATOM     24  C   UNL A   1      43.914  33.622  26.612  1.00  0.00     0.270 A 
ATOM     25  C   UNL A   1      44.047  33.943  27.968  1.00  0.00     0.085 A 
BRANCH  24  26
ATOM     26  N   UNL A   1      43.402  34.626  25.671  1.00  0.00     0.062 N 
ATOM     27  O   UNL A   1      42.654  35.506  26.118  1.00  0.00    -0.258 OA
ATOM     28  O   UNL A   1      43.735  34.525  24.480  1.00  0.00    -0.258 OA
ENDBRANCH  24  26
ENDBRANCH  17  20
ENDBRANCH  12  13
ENDBRANCH  10  11
ENDBRANCH   3   5
ENDBRANCH   2   3
ENDBRANCH   1   2
BRANCH   1  29
ATOM     29  C   UNL A   1      38.481  21.266  25.468  1.00  0.00     0.275 C 
BRANCH  29  30
ATOM     30  O   UNL A   1      38.927  22.306  26.354  1.00  0.00    -0.458 OA
BRANCH  30  31
ATOM     31  C   UNL A   1      38.500  23.552  26.022  1.00  0.00     0.338 C 
ATOM     32  O   UNL A   1      37.618  23.819  25.222  1.00  0.00    -0.246 OA
BRANCH  31  33
ATOM     33  C   UNL A   1      39.169  24.587  26.847  1.00  0.00     0.060 A 
ATOM     34  C   UNL A   1      38.889  24.595  28.219  1.00  0.00     0.016 A 
ATOM     35  C   UNL A   1      40.021  25.558  26.310  1.00  0.00     0.016 A 
ATOM     36  C   UNL A   1      39.397  25.604  29.040  1.00  0.00     0.010 A 
ATOM     37  C   UNL A   1      40.545  26.563  27.140  1.00  0.00     0.010 A 
ATOM     38  C   UNL A   1      40.195  26.623  28.502  1.00  0.00    -0.014 A 
BRANCH  38  39
ATOM     39  C   UNL A   1      40.498  27.823  29.336  1.00  0.00     0.031 A 
ATOM     40  C   UNL A   1      41.884  27.988  29.906  1.00  0.00     0.074 A 
ATOM     41  C   UNL A   1      39.593  28.802  29.531  1.00  0.00     0.049 A 
ATOM     42  N   UNL A   1      42.406  29.006  30.547  1.00  0.00    -0.248 NA
ATOM     43  C   UNL A   1      42.804  26.855  29.734  1.00  0.00     0.031 C 
ATOM     44  C   UNL A   1      38.220  28.797  29.037  1.00  0.00     0.029 A 
ATOM     45  N   UNL A   1      39.707  30.004  30.191  1.00  0.00    -0.354 N 
ATOM     46  C   UNL A   1      43.713  28.641  30.836  1.00  0.00     0.074 A 
ATOM     47  C   UNL A   1      43.888  27.285  30.362  1.00  0.00     0.031 C 
ATOM     48  C   UNL A   1      37.618  29.942  29.403  1.00  0.00     0.029 A 
ATOM     49  C   UNL A   1      38.564  30.765  30.157  1.00  0.00     0.049 A 
ATOM     50  H   UNL A   1      40.532  30.292  30.646  1.00  0.00     0.167 HD
ATOM     51  C   UNL A   1      44.696  29.372  31.417  1.00  0.00     0.037 A 
ATOM     52  C   UNL A   1      38.313  31.992  30.659  1.00  0.00     0.037 A 
ATOM     53  C   UNL A   1      44.545  30.722  31.890  1.00  0.00     0.049 A 
ATOM     54  C   UNL A   1      39.409  32.766  31.350  1.00  0.00     0.074 A 
ATOM     55  C   UNL A   1      45.502  31.547  32.459  1.00  0.00     0.029 A 
ATOM     56  N   UNL A   1      43.363  31.444  31.862  1.00  0.00    -0.354 N 
ATOM     57  N   UNL A   1      40.663  32.441  31.544  1.00  0.00    -0.248 NA
ATOM     58  C   UNL A   1      39.053  34.095  31.874  1.00  0.00     0.031 C 
ATOM     59  C   UNL A   1      44.885  32.747  32.829  1.00  0.00     0.029 A 
ATOM     60  C   UNL A   1      43.560  32.694  32.431  1.00  0.00     0.049 A 
ATOM     61  H   UNL A   1      42.511  31.118  31.494  1.00  0.00     0.167 HD
ATOM     62  C   UNL A   1      41.254  33.541  32.157  1.00  0.00     0.074 A 
ATOM     63  C   UNL A   1      40.222  34.543  32.303  1.00  0.00     0.031 C 
ATOM     64  C   UNL A   1      42.541  33.705  32.554  1.00  0.00     0.037 A 
BRANCH  51  65
ATOM     65  C   UNL A   1      46.034  28.713  31.584  1.00  0.00     0.064 A 
ATOM     66  C   UNL A   1      46.991  28.719  30.557  1.00  0.00     0.173 A 
ATOM     67  C   UNL A   1      46.374  28.091  32.795  1.00  0.00     0.173 A 
ATOM     68  F   UNL A   1      46.710  29.288  29.376  1.00  0.00    -0.203 F 
ATOM     69  C   UNL A   1      48.225  28.097  30.726  1.00  0.00     0.198 A 
ATOM     70  C   UNL A   1      47.621  27.500  32.971  1.00  0.00     0.198 A 
ATOM     71  F   UNL A   1      45.496  28.061  33.810  1.00  0.00    -0.203 F 
ATOM     72  F   UNL A   1      49.103  28.067  29.713  1.00  0.00    -0.200 F 
ATOM     73  C   UNL A   1      48.542  27.495  31.934  1.00  0.00     0.200 A 
ATOM     74  F   UNL A   1      47.929  26.929  34.144  1.00  0.00    -0.200 F 
ATOM     75  F   UNL A   1      49.732  26.900  32.097  1.00  0.00    -0.200 F 
ENDBRANCH  51  65
BRANCH  52  76
ATOM     76  C   UNL A   1      36.966  32.603  30.500  1.00  0.00     0.064 A 
ATOM     77  C   UNL A   1      36.639  33.347  29.356  1.00  0.00     0.173 A 
ATOM     78  C   UNL A   1      36.004  32.512  31.516  1.00  0.00     0.173 A 
ATOM     79  F   UNL A   1      37.538  33.491  28.372  1.00  0.00    -0.203 F 
ATOM     80  C   UNL A   1      35.414  34.003  29.250  1.00  0.00     0.198 A 
ATOM     81  C   UNL A   1      34.768  33.143  31.395  1.00  0.00     0.198 A 
ATOM     82  F   UNL A   1      36.270  31.818  32.632  1.00  0.00    -0.203 F 
ATOM     83  F   UNL A   1      35.155  34.762  28.176  1.00  0.00    -0.200 F 
ATOM     84  C   UNL A   1      34.479  33.898  30.268  1.00  0.00     0.200 A 
ATOM     85  F   UNL A   1      33.866  33.038  32.379  1.00  0.00    -0.200 F 
ATOM     86  F   UNL A   1      33.306  34.539  30.171  1.00  0.00    -0.200 F 
ENDBRANCH  52  76
BRANCH  64  87
ATOM     87  C   UNL A   1      42.936  35.040  33.124  1.00  0.00     0.064 A 
ATOM     88  C   UNL A   1      43.418  36.084  32.320  1.00  0.00     0.173 A 
ATOM     89  C   UNL A   1      42.795  35.290  34.499  1.00  0.00     0.173 A 
ATOM     90  F   UNL A   1      43.583  35.899  31.000  1.00  0.00    -0.203 F 
ATOM     91  C   UNL A   1      43.778  37.311  32.873  1.00  0.00     0.198 A 
ATOM     92  C   UNL A   1      43.121  36.530  35.044  1.00  0.00     0.198 A 
ATOM     93  F   UNL A   1      42.327  34.335  35.316  1.00  0.00    -0.203 F 
ATOM     94  F   UNL A   1      44.290  38.272  32.092  1.00  0.00    -0.200 F 
ATOM     95  C   UNL A   1      43.623  37.536  34.232  1.00  0.00     0.200 A 
ATOM     96  F   UNL A   1      42.953  36.750  36.356  1.00  0.00    -0.200 F 
ATOM     97  F   UNL A   1      43.963  38.719  34.761  1.00  0.00    -0.200 F 
ENDBRANCH  64  87
ENDBRANCH  38  39
ENDBRANCH  31  33
ENDBRANCH  30  31
ENDBRANCH  29  30
ENDBRANCH   1  29
TORSDOF 15
ENDMDL
