MODEL 1
REMARK VINA RESULT:     -13.2      0.000      0.000
REMARK SMILES Cc1nn(C)c(=O)c(C(=O)N[C@H]2C=C[C@H](C(=O)OCCOC(=O)c3ccc(-c4c5nc(c(-c6c(F)c(F)c(F)c(F)c6F)c6ccc([nH]6)c(-c6c(F)c(F)c(F)c(F)c6F)c6nc(c(-c7c(F)c(F)c(F)c(F)c7F)c7ccc4[nH]7)C=C6)C=C5)cc3)C2)c1C
REMARK SMILES IDX 19 1 18 2 16 3 17 4 15 5 12 6 13 7 87 8 14 9 11 10 9 11
REMARK SMILES IDX 10 12 8 14 1 15 2 16 3 17 88 18 4 19 89 20 5 21 6 22 7 23
REMARK SMILES IDX 20 24 21 25 22 26 23 27 24 28 25 29 86 30 26 31 85 32 27 33
REMARK SMILES IDX 28 34 29 35 79 36 30 37 84 38 78 39 80 40 31 41 83 42 77 43
REMARK SMILES IDX 76 44 32 46 64 47 44 48 63 49 45 50 48 51 62 52 81 53 46 54
REMARK SMILES IDX 47 55 61 57 82 58 49 59 33 60 34 61 42 62 35 63 36 64 40 65
REMARK SMILES IDX 43 66 37 67 38 68 41 69 39 70 65 71 66 72 74 73 67 74 68 75
REMARK SMILES IDX 72 76 75 77 69 78 70 79 73 80 71 81 50 82 51 83 59 84 52 85
REMARK SMILES IDX 53 86 57 87 60 88 54 89 55 90 58 91 56 92
REMARK H PARENT 11 13 80 45 48 56
REMARK Flexibility Score: inf
ROOT
ATOM      1  C   UNL A   1      40.133  19.922  26.124  1.00  0.00     0.274 C 
ENDROOT
BRANCH   1   2
ATOM      2  O   UNL A   1      39.282  21.007  25.684  1.00  0.00    -0.462 OA
BRANCH   2   3
ATOM      3  C   UNL A   1      37.973  20.737  25.392  1.00  0.00     0.312 C 
ATOM      4  O   UNL A   1      37.572  19.695  24.893  1.00  0.00    -0.252 OA
BRANCH   3   5
ATOM      5  C   UNL A   1      37.108  21.967  25.751  1.00  0.00     0.124 C 
ATOM      6  C   UNL A   1      35.260  22.251  24.289  1.00  0.00     0.106 C 
ATOM      7  C   UNL A   1      36.143  23.440  24.142  1.00  0.00    -0.006 C 
ATOM      8  C   UNL A   1      35.593  21.666  25.638  1.00  0.00     0.048 C 
ATOM      9  C   UNL A   1      37.258  23.189  24.854  1.00  0.00    -0.014 C 
BRANCH   6  10
ATOM     10  N   UNL A   1      33.956  22.230  23.726  1.00  0.00    -0.346 N 
ATOM     11  C   UNL A   1      32.959  23.182  23.736  1.00  0.00     0.257 C 
ATOM     12  O   UNL A   1      31.943  22.847  23.115  1.00  0.00    -0.269 OA
ATOM     13  H   UNL A   1      33.726  21.399  23.252  1.00  0.00     0.164 HD
BRANCH  11  14
ATOM     14  C   UNL A   1      32.929  24.567  24.455  1.00  0.00     0.111 A 
ATOM     15  C   UNL A   1      31.775  28.114  27.579  1.00  0.00     0.069 C 
ATOM     16  C   UNL A   1      32.232  27.169  26.284  1.00  0.00     0.062 A 
ATOM     17  N   UNL A   1      32.819  28.180  25.282  1.00  0.00    -0.175 NA
ATOM     18  C   UNL A   1      32.237  25.040  25.835  1.00  0.00    -0.010 A 
ATOM     19  N   UNL A   1      33.499  27.597  23.758  1.00  0.00    -0.232 N 
ATOM     20  C   UNL A   1      31.556  23.805  26.568  1.00  0.00     0.047 C 
ATOM     21  C   UNL A   1      33.559  28.628  22.741  1.00  0.00     0.178 C 
ATOM     22  C   UNL A   1      33.588  25.928  23.278  1.00  0.00     0.279 A 
ATOM     23  O   UNL A   1      34.020  25.658  22.156  1.00  0.00    -0.267 OA
ENDBRANCH  11  14
ENDBRANCH   6  10
ENDBRANCH   3   5
ENDBRANCH   2   3
ENDBRANCH   1   2
BRANCH   1  24
ATOM     24  C   UNL A   1      41.606  20.327  26.141  1.00  0.00     0.275 C 
BRANCH  24  25
ATOM     25  O   UNL A   1      41.789  21.437  25.246  1.00  0.00    -0.458 OA
BRANCH  25  26
ATOM     26  C   UNL A   1      42.824  22.224  25.580  1.00  0.00     0.338 C 
ATOM     27  O   UNL A   1      44.015  21.997  25.436  1.00  0.00    -0.246 OA
BRANCH  26  28
ATOM     28  C   UNL A   1      42.363  23.516  26.078  1.00  0.00     0.060 A 
ATOM     29  C   UNL A   1      43.247  24.979  25.988  1.00  0.00     0.016 A 
ATOM     30  C   UNL A   1      41.057  23.439  27.219  1.00  0.00     0.016 A 
ATOM     31  C   UNL A   1      42.877  26.405  27.001  1.00  0.00     0.010 A 
ATOM     32  C   UNL A   1      40.673  25.029  28.379  1.00  0.00     0.010 A 
ATOM     33  C   UNL A   1      41.631  26.473  28.232  1.00  0.00    -0.014 A 
BRANCH  33  34
ATOM     34  C   UNL A   1      41.395  27.549  29.268  1.00  0.00     0.031 A 
ATOM     35  C   UNL A   1      42.243  27.671  30.546  1.00  0.00     0.074 A 
ATOM     36  C   UNL A   1      40.415  28.454  29.125  1.00  0.00     0.049 A 
ATOM     37  N   UNL A   1      41.914  28.070  31.754  1.00  0.00    -0.248 NA
ATOM     38  C   UNL A   1      43.635  27.230  30.480  1.00  0.00     0.031 C 
ATOM     39  C   UNL A   1      39.505  28.560  27.999  1.00  0.00     0.029 A 
ATOM     40  N   UNL A   1      40.023  29.474  29.957  1.00  0.00    -0.354 N 
ATOM     41  C   UNL A   1      42.996  27.736  32.586  1.00  0.00     0.074 A 
ATOM     42  C   UNL A   1      43.969  27.077  31.753  1.00  0.00     0.031 C 
ATOM     43  C   UNL A   1      38.742  29.645  28.136  1.00  0.00     0.029 A 
ATOM     44  C   UNL A   1      38.953  30.178  29.470  1.00  0.00     0.049 A 
ATOM     45  H   UNL A   1      40.465  29.678  30.812  1.00  0.00     0.167 HD
ATOM     46  C   UNL A   1      43.188  28.011  33.902  1.00  0.00     0.037 A 
ATOM     47  C   UNL A   1      38.138  31.070  30.056  1.00  0.00     0.037 A 
ATOM     48  C   UNL A   1      42.356  28.941  34.623  1.00  0.00     0.049 A 
ATOM     49  C   UNL A   1      38.365  31.413  31.491  1.00  0.00     0.074 A 
ATOM     50  C   UNL A   1      42.482  29.398  35.923  1.00  0.00     0.029 A 
ATOM     51  N   UNL A   1      41.293  29.630  34.055  1.00  0.00    -0.354 N 
ATOM     52  N   UNL A   1      39.268  30.945  32.318  1.00  0.00    -0.248 NA
ATOM     53  C   UNL A   1      37.446  32.389  32.080  1.00  0.00     0.031 C 
ATOM     54  C   UNL A   1      41.484  30.353  36.146  1.00  0.00     0.029 A 
ATOM     55  C   UNL A   1      40.762  30.516  34.974  1.00  0.00     0.049 A 
ATOM     56  H   UNL A   1      40.966  29.507  33.135  1.00  0.00     0.167 HD
ATOM     57  C   UNL A   1      39.031  31.573  33.530  1.00  0.00     0.074 A 
ATOM     58  C   UNL A   1      37.918  32.478  33.315  1.00  0.00     0.031 C 
ATOM     59  C   UNL A   1      39.663  31.410  34.717  1.00  0.00     0.037 A 
BRANCH  46  60
ATOM     60  C   UNL A   1      44.340  27.374  34.655  1.00  0.00     0.064 A 
ATOM     61  C   UNL A   1      44.261  26.109  35.257  1.00  0.00     0.173 A 
ATOM     62  C   UNL A   1      45.597  28.010  34.675  1.00  0.00     0.173 A 
ATOM     63  F   UNL A   1      43.106  25.428  35.249  1.00  0.00    -0.203 F 
ATOM     64  C   UNL A   1      45.371  25.527  35.877  1.00  0.00     0.198 A 
ATOM     65  C   UNL A   1      46.715  27.409  35.257  1.00  0.00     0.198 A 
ATOM     66  F   UNL A   1      45.759  29.206  34.087  1.00  0.00    -0.203 F 
ATOM     67  F   UNL A   1      45.256  24.332  36.472  1.00  0.00    -0.200 F 
ATOM     68  C   UNL A   1      46.599  26.171  35.866  1.00  0.00     0.200 A 
ATOM     69  F   UNL A   1      47.909  28.018  35.205  1.00  0.00    -0.200 F 
ATOM     70  F   UNL A   1      47.670  25.594  36.429  1.00  0.00    -0.200 F 
ENDBRANCH  46  60
BRANCH  47  71
ATOM     71  C   UNL A   1      37.027  31.639  29.251  1.00  0.00     0.064 A 
ATOM     72  C   UNL A   1      35.903  30.860  28.960  1.00  0.00     0.173 A 
ATOM     73  C   UNL A   1      36.986  33.004  28.918  1.00  0.00     0.173 A 
ATOM     74  F   UNL A   1      35.902  29.551  29.252  1.00  0.00    -0.203 F 
ATOM     75  C   UNL A   1      34.765  31.429  28.393  1.00  0.00     0.198 A 
ATOM     76  C   UNL A   1      35.832  33.580  28.393  1.00  0.00     0.198 A 
ATOM     77  F   UNL A   1      38.027  33.799  29.208  1.00  0.00    -0.203 F 
ATOM     78  F   UNL A   1      33.698  30.664  28.131  1.00  0.00    -0.200 F 
ATOM     79  C   UNL A   1      34.723  32.792  28.132  1.00  0.00     0.200 A 
ATOM     80  F   UNL A   1      35.779  34.904  28.192  1.00  0.00    -0.200 F 
ATOM     81  F   UNL A   1      33.604  33.348  27.649  1.00  0.00    -0.200 F 
ENDBRANCH  47  71
BRANCH  59  82
ATOM     82  C   UNL A   1      39.179  32.246  35.859  1.00  0.00     0.064 A 
ATOM     83  C   UNL A   1      39.622  33.565  36.028  1.00  0.00     0.173 A 
ATOM     84  C   UNL A   1      38.235  31.739  36.763  1.00  0.00     0.173 A 
ATOM     85  F   UNL A   1      40.537  34.083  35.194  1.00  0.00    -0.203 F 
ATOM     86  C   UNL A   1      39.154  34.342  37.082  1.00  0.00     0.198 A 
ATOM     87  C   UNL A   1      37.746  32.529  37.796  1.00  0.00     0.198 A 
ATOM     88  F   UNL A   1      37.778  30.484  36.633  1.00  0.00    -0.203 F 
ATOM     89  F   UNL A   1      39.626  35.583  37.256  1.00  0.00    -0.200 F 
ATOM     90  C   UNL A   1      38.211  33.826  37.959  1.00  0.00     0.200 A 
ATOM     91  F   UNL A   1      36.825  32.037  38.635  1.00  0.00    -0.200 F 
ATOM     92  F   UNL A   1      37.756  34.579  38.970  1.00  0.00    -0.200 F 
ENDBRANCH  59  82
ENDBRANCH  33  34
ENDBRANCH  26  28
ENDBRANCH  25  26
ENDBRANCH  24  25
ENDBRANCH   1  24
TORSDOF 13
ENDMDL
MODEL 2
REMARK VINA RESULT:     -12.5      4.406      8.551
REMARK SMILES Cc1nn(C)c(=O)c(C(=O)N[C@H]2C=C[C@H](C(=O)OCCOC(=O)c3ccc(-c4c5nc(c(-c6c(F)c(F)c(F)c(F)c6F)c6ccc([nH]6)c(-c6c(F)c(F)c(F)c(F)c6F)c6nc(c(-c7c(F)c(F)c(F)c(F)c7F)c7ccc4[nH]7)C=C6)C=C5)cc3)C2)c1C
REMARK SMILES IDX 19 1 18 2 16 3 17 4 15 5 12 6 13 7 87 8 14 9 11 10 9 11
REMARK SMILES IDX 10 12 8 14 1 15 2 16 3 17 88 18 4 19 89 20 5 21 6 22 7 23
REMARK SMILES IDX 20 24 21 25 22 26 23 27 24 28 25 29 86 30 26 31 85 32 27 33
REMARK SMILES IDX 28 34 29 35 79 36 30 37 84 38 78 39 80 40 31 41 83 42 77 43
REMARK SMILES IDX 76 44 32 46 64 47 44 48 63 49 45 50 48 51 62 52 81 53 46 54
REMARK SMILES IDX 47 55 61 57 82 58 49 59 33 60 34 61 42 62 35 63 36 64 40 65
REMARK SMILES IDX 43 66 37 67 38 68 41 69 39 70 65 71 66 72 74 73 67 74 68 75
REMARK SMILES IDX 72 76 75 77 69 78 70 79 73 80 71 81 50 82 51 83 59 84 52 85
REMARK SMILES IDX 53 86 57 87 60 88 54 89 55 90 58 91 56 92
REMARK H PARENT 11 13 80 45 48 56
REMARK Flexibility Score: inf
ROOT
ATOM      1  C   UNL A   1      35.003  19.347  24.803  1.00  0.00     0.274 C 
ENDROOT
BRANCH   1   2
ATOM      2  O   UNL A   1      33.829  19.777  24.074  1.00  0.00    -0.462 OA
BRANCH   2   3
ATOM      3  C   UNL A   1      32.655  19.939  24.758  1.00  0.00     0.312 C 
ATOM      4  O   UNL A   1      32.151  19.094  25.484  1.00  0.00    -0.252 OA
BRANCH   3   5
ATOM      5  C   UNL A   1      32.062  21.328  24.429  1.00  0.00     0.124 C 
ATOM      6  C   UNL A   1      33.119  23.087  25.623  1.00  0.00     0.106 C 
ATOM      7  C   UNL A   1      31.694  23.043  26.046  1.00  0.00    -0.006 C 
ATOM      8  C   UNL A   1      33.160  22.409  24.276  1.00  0.00     0.048 C 
ATOM      9  C   UNL A   1      31.152  21.946  25.484  1.00  0.00    -0.014 C 
BRANCH   6  10
ATOM     10  N   UNL A   1      33.959  24.178  25.976  1.00  0.00    -0.346 N 
ATOM     11  C   UNL A   1      33.886  25.512  25.638  1.00  0.00     0.257 C 
ATOM     12  O   UNL A   1      34.773  26.206  26.151  1.00  0.00    -0.269 OA
ATOM     13  H   UNL A   1      34.717  23.942  26.557  1.00  0.00     0.164 HD
BRANCH  11  14
ATOM     14  C   UNL A   1      32.888  26.229  24.676  1.00  0.00     0.111 A 
ATOM     15  C   UNL A   1      28.911  28.476  23.000  1.00  0.00     0.069 C 
ATOM     16  C   UNL A   1      30.304  27.591  23.238  1.00  0.00     0.062 A 
ATOM     17  N   UNL A   1      30.760  27.236  21.811  1.00  0.00    -0.175 NA
ATOM     18  C   UNL A   1      31.495  26.994  24.959  1.00  0.00    -0.010 A 
ATOM     19  N   UNL A   1      32.264  26.335  21.580  1.00  0.00    -0.232 N 
ATOM     20  C   UNL A   1      31.199  27.053  26.519  1.00  0.00     0.047 C 
ATOM     21  C   UNL A   1      32.323  25.665  20.295  1.00  0.00     0.178 C 
ATOM     22  C   UNL A   1      33.322  25.814  22.857  1.00  0.00     0.279 A 
ATOM     23  O   UNL A   1      34.305  25.129  22.567  1.00  0.00    -0.267 OA
ENDBRANCH  11  14
ENDBRANCH   6  10
ENDBRANCH   3   5
ENDBRANCH   2   3
ENDBRANCH   1   2
BRANCH   1  24
ATOM     24  C   UNL A   1      35.794  20.532  25.354  1.00  0.00     0.275 C 
BRANCH  24  25
ATOM     25  O   UNL A   1      36.927  20.767  24.501  1.00  0.00    -0.458 OA
BRANCH  25  26
ATOM     26  C   UNL A   1      38.104  20.541  25.106  1.00  0.00     0.338 C 
ATOM     27  O   UNL A   1      38.855  19.591  24.951  1.00  0.00    -0.246 OA
BRANCH  26  28
ATOM     28  C   UNL A   1      38.482  21.664  25.956  1.00  0.00     0.060 A 
ATOM     29  C   UNL A   1      37.879  23.260  25.808  1.00  0.00     0.016 A 
ATOM     30  C   UNL A   1      39.956  21.446  26.848  1.00  0.00     0.016 A 
ATOM     31  C   UNL A   1      38.691  24.680  26.530  1.00  0.00     0.010 A 
ATOM     32  C   UNL A   1      40.882  23.048  27.620  1.00  0.00     0.010 A 
ATOM     33  C   UNL A   1      40.207  24.637  27.410  1.00  0.00    -0.014 A 
BRANCH  33  34
ATOM     34  C   UNL A   1      41.062  25.800  27.861  1.00  0.00     0.031 A 
ATOM     35  C   UNL A   1      40.532  26.912  28.783  1.00  0.00     0.074 A 
ATOM     36  C   UNL A   1      42.338  25.924  27.464  1.00  0.00     0.049 A 
ATOM     37  N   UNL A   1      40.822  28.193  28.830  1.00  0.00    -0.248 NA
ATOM     38  C   UNL A   1      39.491  26.555  29.745  1.00  0.00     0.031 C 
ATOM     39  C   UNL A   1      43.066  24.995  26.621  1.00  0.00     0.029 A 
ATOM     40  N   UNL A   1      43.256  26.910  27.732  1.00  0.00    -0.354 N 
ATOM     41  C   UNL A   1      39.866  28.780  29.675  1.00  0.00     0.074 A 
ATOM     42  C   UNL A   1      38.975  27.727  30.087  1.00  0.00     0.031 C 
ATOM     43  C   UNL A   1      44.342  25.372  26.530  1.00  0.00     0.029 A 
ATOM     44  C   UNL A   1      44.463  26.693  27.120  1.00  0.00     0.049 A 
ATOM     45  H   UNL A   1      43.067  27.688  28.303  1.00  0.00     0.167 HD
ATOM     46  C   UNL A   1      39.778  30.062  30.116  1.00  0.00     0.037 A 
ATOM     47  C   UNL A   1      45.520  27.500  26.935  1.00  0.00     0.037 A 
ATOM     48  C   UNL A   1      40.852  31.009  29.950  1.00  0.00     0.049 A 
ATOM     49  C   UNL A   1      45.453  28.898  27.454  1.00  0.00     0.074 A 
ATOM     50  C   UNL A   1      40.956  32.304  30.425  1.00  0.00     0.029 A 
ATOM     51  N   UNL A   1      42.057  30.710  29.328  1.00  0.00    -0.354 N 
ATOM     52  N   UNL A   1      44.470  29.501  28.077  1.00  0.00    -0.248 NA
ATOM     53  C   UNL A   1      46.632  29.735  27.222  1.00  0.00     0.031 C 
ATOM     54  C   UNL A   1      42.218  32.794  30.077  1.00  0.00     0.029 A 
ATOM     55  C   UNL A   1      42.913  31.793  29.418  1.00  0.00     0.049 A 
ATOM     56  H   UNL A   1      42.271  29.856  28.889  1.00  0.00     0.167 HD
ATOM     57  C   UNL A   1      44.911  30.792  28.319  1.00  0.00     0.074 A 
ATOM     58  C   UNL A   1      46.263  30.870  27.801  1.00  0.00     0.031 C 
ATOM     59  C   UNL A   1      44.257  31.825  28.902  1.00  0.00     0.037 A 
BRANCH  46  60
ATOM     60  C   UNL A   1      38.543  30.531  30.860  1.00  0.00     0.064 A 
ATOM     61  C   UNL A   1      38.461  30.588  32.259  1.00  0.00     0.173 A 
ATOM     62  C   UNL A   1      37.447  31.045  30.137  1.00  0.00     0.173 A 
ATOM     63  F   UNL A   1      39.479  30.148  33.014  1.00  0.00    -0.203 F 
ATOM     64  C   UNL A   1      37.329  31.099  32.902  1.00  0.00     0.198 A 
ATOM     65  C   UNL A   1      36.336  31.593  30.782  1.00  0.00     0.198 A 
ATOM     66  F   UNL A   1      37.468  31.059  28.796  1.00  0.00    -0.203 F 
ATOM     67  F   UNL A   1      37.268  31.109  34.241  1.00  0.00    -0.200 F 
ATOM     68  C   UNL A   1      36.274  31.611  32.164  1.00  0.00     0.200 A 
ATOM     69  F   UNL A   1      35.338  32.127  30.062  1.00  0.00    -0.200 F 
ATOM     70  F   UNL A   1      35.206  32.135  32.784  1.00  0.00    -0.200 F 
ENDBRANCH  46  60
BRANCH  47  71
ATOM     71  C   UNL A   1      46.687  26.967  26.187  1.00  0.00     0.064 A 
ATOM     72  C   UNL A   1      46.869  27.302  24.842  1.00  0.00     0.173 A 
ATOM     73  C   UNL A   1      47.722  26.273  26.839  1.00  0.00     0.173 A 
ATOM     74  F   UNL A   1      45.904  27.956  24.178  1.00  0.00    -0.203 F 
ATOM     75  C   UNL A   1      48.055  26.991  24.181  1.00  0.00     0.198 A 
ATOM     76  C   UNL A   1      48.924  26.003  26.190  1.00  0.00     0.198 A 
ATOM     77  F   UNL A   1      47.608  25.960  28.138  1.00  0.00    -0.203 F 
ATOM     78  F   UNL A   1      48.209  27.329  22.895  1.00  0.00    -0.200 F 
ATOM     79  C   UNL A   1      49.089  26.362  24.861  1.00  0.00     0.200 A 
ATOM     80  F   UNL A   1      49.936  25.444  26.865  1.00  0.00    -0.200 F 
ATOM     81  F   UNL A   1      50.253  26.124  24.242  1.00  0.00    -0.200 F 
ENDBRANCH  47  71
BRANCH  59  82
ATOM     82  C   UNL A   1      45.008  33.112  29.030  1.00  0.00     0.064 A 
ATOM     83  C   UNL A   1      44.905  34.110  28.051  1.00  0.00     0.173 A 
ATOM     84  C   UNL A   1      45.802  33.365  30.158  1.00  0.00     0.173 A 
ATOM     85  F   UNL A   1      44.170  33.902  26.949  1.00  0.00    -0.203 F 
ATOM     86  C   UNL A   1      45.593  35.311  28.186  1.00  0.00     0.198 A 
ATOM     87  C   UNL A   1      46.462  34.579  30.305  1.00  0.00     0.198 A 
ATOM     88  F   UNL A   1      45.921  32.440  31.123  1.00  0.00    -0.203 F 
ATOM     89  F   UNL A   1      45.522  36.232  27.217  1.00  0.00    -0.200 F 
ATOM     90  C   UNL A   1      46.364  35.546  29.315  1.00  0.00     0.200 A 
ATOM     91  F   UNL A   1      47.195  34.813  31.402  1.00  0.00    -0.200 F 
ATOM     92  F   UNL A   1      47.020  36.707  29.447  1.00  0.00    -0.200 F 
ENDBRANCH  59  82
ENDBRANCH  33  34
ENDBRANCH  26  28
ENDBRANCH  25  26
ENDBRANCH  24  25
ENDBRANCH   1  24
TORSDOF 13
ENDMDL
MODEL 3
REMARK VINA RESULT:     -12.2      4.445      8.453
REMARK SMILES Cc1nn(C)c(=O)c(C(=O)N[C@H]2C=C[C@H](C(=O)OCCOC(=O)c3ccc(-c4c5nc(c(-c6c(F)c(F)c(F)c(F)c6F)c6ccc([nH]6)c(-c6c(F)c(F)c(F)c(F)c6F)c6nc(c(-c7c(F)c(F)c(F)c(F)c7F)c7ccc4[nH]7)C=C6)C=C5)cc3)C2)c1C
REMARK SMILES IDX 19 1 18 2 16 3 17 4 15 5 12 6 13 7 87 8 14 9 11 10 9 11
REMARK SMILES IDX 10 12 8 14 1 15 2 16 3 17 88 18 4 19 89 20 5 21 6 22 7 23
REMARK SMILES IDX 20 24 21 25 22 26 23 27 24 28 25 29 86 30 26 31 85 32 27 33
REMARK SMILES IDX 28 34 29 35 79 36 30 37 84 38 78 39 80 40 31 41 83 42 77 43
REMARK SMILES IDX 76 44 32 46 64 47 44 48 63 49 45 50 48 51 62 52 81 53 46 54
REMARK SMILES IDX 47 55 61 57 82 58 49 59 33 60 34 61 42 62 35 63 36 64 40 65
REMARK SMILES IDX 43 66 37 67 38 68 41 69 39 70 65 71 66 72 74 73 67 74 68 75
REMARK SMILES IDX 72 76 75 77 69 78 70 79 73 80 71 81 50 82 51 83 59 84 52 85
REMARK SMILES IDX 53 86 57 87 60 88 54 89 55 90 58 91 56 92
REMARK H PARENT 11 13 80 45 48 56
REMARK Flexibility Score: inf
ROOT
ATOM      1  C   UNL A   1      35.674  21.395  25.206  1.00  0.00     0.274 C 
ENDROOT
BRANCH   1   2
ATOM      2  O   UNL A   1      35.075  21.778  23.945  1.00  0.00    -0.462 OA
BRANCH   2   3
ATOM      3  C   UNL A   1      35.403  22.993  23.406  1.00  0.00     0.312 C 
ATOM      4  O   UNL A   1      36.545  23.406  23.263  1.00  0.00    -0.252 OA
BRANCH   3   5
ATOM      5  C   UNL A   1      34.107  23.759  23.055  1.00  0.00     0.124 C 
ATOM      6  C   UNL A   1      32.359  23.375  24.614  1.00  0.00     0.106 C 
ATOM      7  C   UNL A   1      31.912  22.857  23.294  1.00  0.00    -0.006 C 
ATOM      8  C   UNL A   1      33.440  24.380  24.308  1.00  0.00     0.048 C 
ATOM      9  C   UNL A   1      32.969  22.937  22.463  1.00  0.00    -0.014 C 
BRANCH   6  10
ATOM     10  N   UNL A   1      31.450  23.509  25.698  1.00  0.00    -0.346 N 
ATOM     11  C   UNL A   1      30.650  24.567  26.072  1.00  0.00     0.257 C 
ATOM     12  O   UNL A   1      29.945  24.334  27.062  1.00  0.00    -0.269 OA
ATOM     13  H   UNL A   1      31.381  22.716  26.277  1.00  0.00     0.164 HD
BRANCH  11  14
ATOM     14  C   UNL A   1      30.560  25.998  25.456  1.00  0.00     0.111 A 
ATOM     15  C   UNL A   1      30.039  29.600  22.227  1.00  0.00     0.069 C 
ATOM     16  C   UNL A   1      30.427  28.599  23.502  1.00  0.00     0.062 A 
ATOM     17  N   UNL A   1      31.118  29.539  24.508  1.00  0.00    -0.175 NA
ATOM     18  C   UNL A   1      30.107  26.503  23.991  1.00  0.00    -0.010 A 
ATOM     19  N   UNL A   1      31.651  28.900  26.067  1.00  0.00    -0.232 N 
ATOM     20  C   UNL A   1      29.603  25.280  23.111  1.00  0.00     0.047 C 
ATOM     21  C   UNL A   1      32.677  29.717  26.686  1.00  0.00     0.178 C 
ATOM     22  C   UNL A   1      31.442  27.258  26.598  1.00  0.00     0.279 A 
ATOM     23  O   UNL A   1      31.924  26.921  27.681  1.00  0.00    -0.267 OA
ENDBRANCH  11  14
ENDBRANCH   6  10
ENDBRANCH   3   5
ENDBRANCH   2   3
ENDBRANCH   1   2
BRANCH   1  24
ATOM     24  C   UNL A   1      36.772  20.350  25.017  1.00  0.00     0.275 C 
BRANCH  24  25
ATOM     25  O   UNL A   1      38.012  21.027  24.750  1.00  0.00    -0.458 OA
BRANCH  25  26
ATOM     26  C   UNL A   1      38.954  20.797  25.678  1.00  0.00     0.338 C 
ATOM     27  O   UNL A   1      39.626  19.790  25.830  1.00  0.00    -0.246 OA
BRANCH  26  28
ATOM     28  C   UNL A   1      39.193  21.986  26.490  1.00  0.00     0.060 A 
ATOM     29  C   UNL A   1      38.482  23.521  26.223  1.00  0.00     0.016 A 
ATOM     30  C   UNL A   1      40.619  21.925  27.478  1.00  0.00     0.016 A 
ATOM     31  C   UNL A   1      39.139  25.032  26.917  1.00  0.00     0.010 A 
ATOM     32  C   UNL A   1      41.372  23.629  28.220  1.00  0.00     0.010 A 
ATOM     33  C   UNL A   1      40.594  25.149  27.888  1.00  0.00    -0.014 A 
BRANCH  33  34
ATOM     34  C   UNL A   1      41.330  26.395  28.328  1.00  0.00     0.031 A 
ATOM     35  C   UNL A   1      40.663  27.501  29.164  1.00  0.00     0.074 A 
ATOM     36  C   UNL A   1      42.614  26.601  27.997  1.00  0.00     0.049 A 
ATOM     37  N   UNL A   1      40.851  28.802  29.164  1.00  0.00    -0.248 NA
ATOM     38  C   UNL A   1      39.597  27.106  30.083  1.00  0.00     0.031 C 
ATOM     39  C   UNL A   1      43.460  25.696  27.242  1.00  0.00     0.029 A 
ATOM     40  N   UNL A   1      43.436  27.668  28.267  1.00  0.00    -0.354 N 
ATOM     41  C   UNL A   1      39.805  29.349  29.925  1.00  0.00     0.074 A 
ATOM     42  C   UNL A   1      38.974  28.248  30.338  1.00  0.00     0.031 C 
ATOM     43  C   UNL A   1      44.707  26.169  27.205  1.00  0.00     0.029 A 
ATOM     44  C   UNL A   1      44.691  27.520  27.735  1.00  0.00     0.049 A 
ATOM     45  H   UNL A   1      43.155  28.453  28.789  1.00  0.00     0.167 HD
ATOM     46  C   UNL A   1      39.593  30.638  30.297  1.00  0.00     0.037 A 
ATOM     47  C   UNL A   1      45.692  28.400  27.570  1.00  0.00     0.037 A 
ATOM     48  C   UNL A   1      40.600  31.658  30.145  1.00  0.00     0.049 A 
ATOM     49  C   UNL A   1      45.487  29.810  28.015  1.00  0.00     0.074 A 
ATOM     50  C   UNL A   1      40.575  32.977  30.561  1.00  0.00     0.029 A 
ATOM     51  N   UNL A   1      41.858  31.429  29.607  1.00  0.00    -0.354 N 
ATOM     52  N   UNL A   1      44.426  30.360  28.553  1.00  0.00    -0.248 NA
ATOM     53  C   UNL A   1      46.611  30.726  27.808  1.00  0.00     0.031 C 
ATOM     54  C   UNL A   1      41.815  33.550  30.260  1.00  0.00     0.029 A 
ATOM     55  C   UNL A   1      42.623  32.578  29.691  1.00  0.00     0.049 A 
ATOM     56  H   UNL A   1      42.163  30.575  29.223  1.00  0.00     0.167 HD
ATOM     57  C   UNL A   1      44.752  31.691  28.755  1.00  0.00     0.074 A 
ATOM     58  C   UNL A   1      46.123  31.852  28.310  1.00  0.00     0.031 C 
ATOM     59  C   UNL A   1      43.988  32.694  29.250  1.00  0.00     0.037 A 
BRANCH  46  60
ATOM     60  C   UNL A   1      38.283  31.040  30.947  1.00  0.00     0.064 A 
ATOM     61  C   UNL A   1      38.116  31.157  32.335  1.00  0.00     0.173 A 
ATOM     62  C   UNL A   1      37.195  31.429  30.141  1.00  0.00     0.173 A 
ATOM     63  F   UNL A   1      39.119  30.837  33.166  1.00  0.00    -0.203 F 
ATOM     64  C   UNL A   1      36.912  31.604  32.888  1.00  0.00     0.198 A 
ATOM     65  C   UNL A   1      36.009  31.916  30.694  1.00  0.00     0.198 A 
ATOM     66  F   UNL A   1      37.293  31.380  28.803  1.00  0.00    -0.203 F 
ATOM     67  F   UNL A   1      36.772  31.674  34.220  1.00  0.00    -0.200 F 
ATOM     68  C   UNL A   1      35.865  31.994  32.069  1.00  0.00     0.200 A 
ATOM     69  F   UNL A   1      35.016  32.331  29.894  1.00  0.00    -0.200 F 
ATOM     70  F   UNL A   1      34.725  32.459  32.601  1.00  0.00    -0.200 F 
ENDBRANCH  46  60
BRANCH  47  71
ATOM     71  C   UNL A   1      46.938  27.927  26.915  1.00  0.00     0.064 A 
ATOM     72  C   UNL A   1      47.949  27.334  27.678  1.00  0.00     0.173 A 
ATOM     73  C   UNL A   1      47.065  27.893  25.515  1.00  0.00     0.173 A 
ATOM     74  F   UNL A   1      47.874  27.352  29.017  1.00  0.00    -0.203 F 
ATOM     75  C   UNL A   1      49.027  26.698  27.068  1.00  0.00     0.198 A 
ATOM     76  C   UNL A   1      48.120  27.218  24.906  1.00  0.00     0.198 A 
ATOM     77  F   UNL A   1      46.105  28.418  24.740  1.00  0.00    -0.203 F 
ATOM     78  F   UNL A   1      49.979  26.131  27.820  1.00  0.00    -0.200 F 
ATOM     79  C   UNL A   1      49.099  26.621  25.684  1.00  0.00     0.200 A 
ATOM     80  F   UNL A   1      48.156  27.101  23.572  1.00  0.00    -0.200 F 
ATOM     81  F   UNL A   1      50.102  25.950  25.100  1.00  0.00    -0.200 F 
ENDBRANCH  47  71
BRANCH  59  82
ATOM     82  C   UNL A   1      44.630  34.040  29.356  1.00  0.00     0.064 A 
ATOM     83  C   UNL A   1      45.353  34.408  30.499  1.00  0.00     0.173 A 
ATOM     84  C   UNL A   1      44.557  34.951  28.292  1.00  0.00     0.173 A 
ATOM     85  F   UNL A   1      45.434  33.573  31.545  1.00  0.00    -0.203 F 
ATOM     86  C   UNL A   1      45.962  35.656  30.583  1.00  0.00     0.198 A 
ATOM     87  C   UNL A   1      45.194  36.184  28.367  1.00  0.00     0.198 A 
ATOM     88  F   UNL A   1      43.882  34.636  27.177  1.00  0.00    -0.203 F 
ATOM     89  F   UNL A   1      46.607  36.008  31.703  1.00  0.00    -0.200 F 
ATOM     90  C   UNL A   1      45.889  36.538  29.515  1.00  0.00     0.200 A 
ATOM     91  F   UNL A   1      45.135  37.030  27.331  1.00  0.00    -0.200 F 
ATOM     92  F   UNL A   1      46.482  37.736  29.596  1.00  0.00    -0.200 F 
ENDBRANCH  59  82
ENDBRANCH  33  34
ENDBRANCH  26  28
ENDBRANCH  25  26
ENDBRANCH  24  25
ENDBRANCH   1  24
TORSDOF 13
ENDMDL
