MODEL 1
REMARK VINA RESULT:     -13.0      0.000      0.000
REMARK SMILES CCCn1nc(C(=O)OCCOC(=O)c2ccc(-c3c4nc(c(-c5c(F)c(F)c(F)c(F)c5F)c5ccc([nH]5)c(-c5c(F)c(F)c(F)c(F)c5F)c5nc(c(-c6c(F)c(F)c(F)c(F)c6F)c6ccc3[nH]6)C=C5)C=C4)cc2)c2c1CC[C@@H]([NH+]1CC[NH+](Cc3ccccn3)CC1)C2
REMARK SMILES IDX 10 1 9 2 7 3 8 4 6 5 4 6 5 7 79 8 78 9 80 10 96 11 81 12
REMARK SMILES IDX 82 13 3 14 2 15 1 16 83 17 84 18 95 19 85 21 94 22 86 23
REMARK SMILES IDX 87 25 88 26 89 27 93 28 90 29 92 30 91 31 11 32 12 33 13 34
REMARK SMILES IDX 14 35 15 36 16 37 77 38 17 39 76 40 18 41 19 42 20 43 70 44
REMARK SMILES IDX 21 45 75 46 69 47 71 48 22 49 74 50 68 51 67 52 23 54 55 55
REMARK SMILES IDX 35 56 54 57 36 58 39 59 53 60 72 61 37 62 38 63 52 65 73 66
REMARK SMILES IDX 40 67 24 68 25 69 33 70 26 71 27 72 31 73 34 74 28 75 29 76
REMARK SMILES IDX 32 77 30 78 56 79 57 80 65 81 58 82 59 83 63 84 66 85 60 86
REMARK SMILES IDX 61 87 64 88 62 89 41 90 42 91 50 92 43 93 44 94 48 95 51 96
REMARK SMILES IDX 45 97 46 98 49 99 47 100
REMARK H PARENT 83 20 86 24 71 53 39 64
REMARK Flexibility Score: inf
ROOT
ATOM      1  C   UNL A   1      38.645  21.730  25.321  1.00  0.00     0.275 C 
ENDROOT
BRANCH   1   2
ATOM      2  O   UNL A   1      37.285  21.379  25.603  1.00  0.00    -0.457 OA
BRANCH   2   3
ATOM      3  C   UNL A   1      36.376  22.392  25.810  1.00  0.00     0.359 C 
ATOM      4  O   UNL A   1      36.648  23.452  26.335  1.00  0.00    -0.244 OA
BRANCH   3   5
ATOM      5  C   UNL A   1      35.062  22.016  25.243  1.00  0.00     0.174 A 
ATOM      6  N   UNL A   1      33.385  20.852  24.611  1.00  0.00    -0.268 N 
ATOM      7  N   UNL A   1      34.492  20.795  25.389  1.00  0.00    -0.165 NA
ATOM      8  C   UNL A   1      33.351  21.994  23.868  1.00  0.00     0.043 A 
ATOM      9  C   UNL A   1      34.218  22.863  24.476  1.00  0.00     0.014 A 
ATOM     10  C   UNL A   1      32.536  22.297  22.677  1.00  0.00     0.062 C 
ATOM     11  C   UNL A   1      34.290  24.323  24.167  1.00  0.00     0.105 C 
ATOM     12  C   UNL A   1      32.874  23.715  22.164  1.00  0.00     0.072 C 
ATOM     13  C   UNL A   1      33.138  24.804  23.246  1.00  0.00     0.189 C 
BRANCH   6  14
ATOM     14  C   UNL A   1      32.460  19.735  24.555  1.00  0.00     0.144 C 
BRANCH  14  15
ATOM     15  C   UNL A   1      32.986  18.468  23.866  1.00  0.00     0.020 C 
ATOM     16  C   UNL A   1      32.416  18.211  22.478  1.00  0.00     0.006 C 
ENDBRANCH  14  15
ENDBRANCH   6  14
BRANCH  13  17
ATOM     17  N   UNL A   1      31.959  25.386  23.947  1.00  0.00    -0.323 N 
ATOM     18  C   UNL A   1      30.773  25.637  23.124  1.00  0.00     0.324 C 
ATOM     19  C   UNL A   1      32.350  26.496  24.834  1.00  0.00     0.324 C 
ATOM     20  H   UNL A   1      31.613  24.639  24.550  1.00  0.00     0.348 HD
ATOM     21  C   UNL A   1      29.736  26.658  23.636  1.00  0.00     0.324 C 
ATOM     22  C   UNL A   1      31.237  27.455  25.312  1.00  0.00     0.324 C 
ATOM     23  N   UNL A   1      30.274  27.851  24.285  1.00  0.00    -0.321 N 
ATOM     24  H   UNL A   1      29.487  28.307  24.751  1.00  0.00     0.348 HD
BRANCH  23  25
ATOM     25  C   UNL A   1      30.663  28.981  23.423  1.00  0.00     0.319 C 
BRANCH  25  26
ATOM     26  C   UNL A   1      29.627  29.968  22.897  1.00  0.00     0.095 A 
ATOM     27  C   UNL A   1      29.171  31.016  23.695  1.00  0.00     0.030 A 
ATOM     28  N   UNL A   1      29.218  29.835  21.606  1.00  0.00    -0.255 NA
ATOM     29  C   UNL A   1      28.220  31.904  23.183  1.00  0.00     0.004 A 
ATOM     30  C   UNL A   1      28.297  30.709  21.135  1.00  0.00     0.111 A 
ATOM     31  C   UNL A   1      27.761  31.740  21.883  1.00  0.00     0.020 A 
ENDBRANCH  25  26
ENDBRANCH  23  25
ENDBRANCH  13  17
ENDBRANCH   3   5
ENDBRANCH   2   3
ENDBRANCH   1   2
BRANCH   1  32
ATOM     32  C   UNL A   1      39.494  21.528  26.568  1.00  0.00     0.275 C 
BRANCH  32  33
ATOM     33  O   UNL A   1      40.162  22.749  26.859  1.00  0.00    -0.458 OA
BRANCH  33  34
ATOM     34  C   UNL A   1      41.454  22.859  26.489  1.00  0.00     0.338 C 
ATOM     35  O   UNL A   1      42.212  21.964  26.155  1.00  0.00    -0.246 OA
BRANCH  34  36
ATOM     36  C   UNL A   1      41.867  24.247  26.684  1.00  0.00     0.060 A 
ATOM     37  C   UNL A   1      42.889  24.507  27.603  1.00  0.00     0.016 A 
ATOM     38  C   UNL A   1      41.034  25.254  26.180  1.00  0.00     0.016 A 
ATOM     39  C   UNL A   1      42.919  25.748  28.197  1.00  0.00     0.010 A 
ATOM     40  C   UNL A   1      41.042  26.471  26.794  1.00  0.00     0.010 A 
ATOM     41  C   UNL A   1      41.924  26.666  27.853  1.00  0.00    -0.014 A 
BRANCH  41  42
ATOM     42  C   UNL A   1      41.813  27.899  28.593  1.00  0.00     0.031 A 
ATOM     43  C   UNL A   1      42.916  28.845  28.318  1.00  0.00     0.074 A 
ATOM     44  C   UNL A   1      40.694  28.178  29.287  1.00  0.00     0.049 A 
ATOM     45  N   UNL A   1      43.769  29.334  29.153  1.00  0.00    -0.248 NA
ATOM     46  C   UNL A   1      43.195  29.174  26.909  1.00  0.00     0.031 C 
ATOM     47  C   UNL A   1      39.438  27.419  29.335  1.00  0.00     0.029 A 
ATOM     48  N   UNL A   1      40.405  29.282  30.018  1.00  0.00    -0.354 N 
ATOM     49  C   UNL A   1      44.583  30.175  28.402  1.00  0.00     0.074 A 
ATOM     50  C   UNL A   1      44.309  29.894  27.020  1.00  0.00     0.031 C 
ATOM     51  C   UNL A   1      38.466  28.198  29.864  1.00  0.00     0.029 A 
ATOM     52  C   UNL A   1      39.057  29.449  30.301  1.00  0.00     0.049 A 
ATOM     53  H   UNL A   1      41.095  29.915  30.323  1.00  0.00     0.167 HD
ATOM     54  C   UNL A   1      45.229  31.220  28.981  1.00  0.00     0.037 A 
ATOM     55  C   UNL A   1      38.489  30.587  30.773  1.00  0.00     0.037 A 
ATOM     56  C   UNL A   1      45.336  31.040  30.406  1.00  0.00     0.049 A 
ATOM     57  C   UNL A   1      39.584  31.428  31.329  1.00  0.00     0.074 A 
ATOM     58  C   UNL A   1      45.936  30.092  31.211  1.00  0.00     0.029 A 
ATOM     59  N   UNL A   1      44.439  31.699  31.211  1.00  0.00    -0.354 N 
ATOM     60  N   UNL A   1      40.268  31.115  32.395  1.00  0.00    -0.248 NA
ATOM     61  C   UNL A   1      40.236  32.365  30.423  1.00  0.00     0.031 C 
ATOM     62  C   UNL A   1      45.036  29.908  32.301  1.00  0.00     0.029 A 
ATOM     63  C   UNL A   1      43.973  30.796  32.133  1.00  0.00     0.049 A 
ATOM     64  H   UNL A   1      44.178  32.645  31.139  1.00  0.00     0.167 HD
ATOM     65  C   UNL A   1      41.576  31.470  32.095  1.00  0.00     0.074 A 
ATOM     66  C   UNL A   1      41.483  32.300  30.897  1.00  0.00     0.031 C 
ATOM     67  C   UNL A   1      42.633  30.819  32.669  1.00  0.00     0.037 A 
BRANCH  54  68
ATOM     68  C   UNL A   1      45.418  32.555  28.309  1.00  0.00     0.064 A 
ATOM     69  C   UNL A   1      44.281  33.310  27.963  1.00  0.00     0.173 A 
ATOM     70  C   UNL A   1      46.633  32.984  27.728  1.00  0.00     0.173 A 
ATOM     71  F   UNL A   1      43.072  32.981  28.442  1.00  0.00    -0.203 F 
ATOM     72  C   UNL A   1      44.346  34.362  27.046  1.00  0.00     0.198 A 
ATOM     73  C   UNL A   1      46.703  34.070  26.858  1.00  0.00     0.198 A 
ATOM     74  F   UNL A   1      47.779  32.311  27.879  1.00  0.00    -0.203 F 
ATOM     75  F   UNL A   1      43.218  34.966  26.649  1.00  0.00    -0.200 F 
ATOM     76  C   UNL A   1      45.556  34.736  26.490  1.00  0.00     0.200 A 
ATOM     77  F   UNL A   1      47.883  34.404  26.317  1.00  0.00    -0.200 F 
ATOM     78  F   UNL A   1      45.610  35.701  25.563  1.00  0.00    -0.200 F 
ENDBRANCH  54  68
BRANCH  55  79
ATOM     79  C   UNL A   1      37.153  31.139  30.441  1.00  0.00     0.064 A 
ATOM     80  C   UNL A   1      36.246  31.497  31.450  1.00  0.00     0.173 A 
ATOM     81  C   UNL A   1      36.844  31.580  29.138  1.00  0.00     0.173 A 
ATOM     82  F   UNL A   1      36.490  31.159  32.725  1.00  0.00    -0.203 F 
ATOM     83  C   UNL A   1      35.108  32.265  31.176  1.00  0.00     0.198 A 
ATOM     84  C   UNL A   1      35.706  32.340  28.865  1.00  0.00     0.198 A 
ATOM     85  F   UNL A   1      37.689  31.365  28.119  1.00  0.00    -0.203 F 
ATOM     86  F   UNL A   1      34.296  32.638  32.176  1.00  0.00    -0.200 F 
ATOM     87  C   UNL A   1      34.845  32.694  29.886  1.00  0.00     0.200 A 
ATOM     88  F   UNL A   1      35.485  32.780  27.617  1.00  0.00    -0.200 F 
ATOM     89  F   UNL A   1      33.789  33.479  29.632  1.00  0.00    -0.200 F 
ENDBRANCH  55  79
BRANCH  67  90
ATOM     90  C   UNL A   1      42.337  29.870  33.799  1.00  0.00     0.064 A 
ATOM     91  C   UNL A   1      41.976  28.523  33.619  1.00  0.00     0.173 A 
ATOM     92  C   UNL A   1      42.576  30.301  35.109  1.00  0.00     0.173 A 
ATOM     93  F   UNL A   1      41.834  28.005  32.394  1.00  0.00    -0.203 F 
ATOM     94  C   UNL A   1      41.817  27.664  34.705  1.00  0.00     0.198 A 
ATOM     95  C   UNL A   1      42.453  29.432  36.190  1.00  0.00     0.198 A 
ATOM     96  F   UNL A   1      42.981  31.560  35.339  1.00  0.00    -0.203 F 
ATOM     97  F   UNL A   1      41.460  26.385  34.505  1.00  0.00    -0.200 F 
ATOM     98  C   UNL A   1      42.063  28.117  35.989  1.00  0.00     0.200 A 
ATOM     99  F   UNL A   1      42.743  29.861  37.426  1.00  0.00    -0.200 F 
ATOM    100  F   UNL A   1      41.952  27.281  37.032  1.00  0.00    -0.200 F 
ENDBRANCH  67  90
ENDBRANCH  41  42
ENDBRANCH  34  36
ENDBRANCH  33  34
ENDBRANCH  32  33
ENDBRANCH   1  32
TORSDOF 16
ENDMDL
MODEL 2
REMARK VINA RESULT:     -12.9      3.262      9.257
REMARK SMILES CCCn1nc(C(=O)OCCOC(=O)c2ccc(-c3c4nc(c(-c5c(F)c(F)c(F)c(F)c5F)c5ccc([nH]5)c(-c5c(F)c(F)c(F)c(F)c5F)c5nc(c(-c6c(F)c(F)c(F)c(F)c6F)c6ccc3[nH]6)C=C5)C=C4)cc2)c2c1CC[C@@H]([NH+]1CC[NH+](Cc3ccccn3)CC1)C2
REMARK SMILES IDX 10 1 9 2 7 3 8 4 6 5 4 6 5 7 79 8 78 9 80 10 96 11 81 12
REMARK SMILES IDX 82 13 3 14 2 15 1 16 83 17 84 18 95 19 85 21 94 22 86 23
REMARK SMILES IDX 87 25 88 26 89 27 93 28 90 29 92 30 91 31 11 32 12 33 13 34
REMARK SMILES IDX 14 35 15 36 16 37 77 38 17 39 76 40 18 41 19 42 20 43 70 44
REMARK SMILES IDX 21 45 75 46 69 47 71 48 22 49 74 50 68 51 67 52 23 54 55 55
REMARK SMILES IDX 35 56 54 57 36 58 39 59 53 60 72 61 37 62 38 63 52 65 73 66
REMARK SMILES IDX 40 67 24 68 25 69 33 70 26 71 27 72 31 73 34 74 28 75 29 76
REMARK SMILES IDX 32 77 30 78 56 79 57 80 65 81 58 82 59 83 63 84 66 85 60 86
REMARK SMILES IDX 61 87 64 88 62 89 41 90 42 91 50 92 43 93 44 94 48 95 51 96
REMARK SMILES IDX 45 97 46 98 49 99 47 100
REMARK H PARENT 83 20 86 24 71 53 39 64
REMARK Flexibility Score: inf
ROOT
ATOM      1  C   UNL A   1      34.376  29.995  27.337  1.00  0.00     0.275 C 
ENDROOT
BRANCH   1   2
ATOM      2  O   UNL A   1      33.547  29.878  26.175  1.00  0.00    -0.457 OA
BRANCH   2   3
ATOM      3  C   UNL A   1      32.181  29.964  26.333  1.00  0.00     0.359 C 
ATOM      4  O   UNL A   1      31.634  30.731  27.096  1.00  0.00    -0.244 OA
BRANCH   3   5
ATOM      5  C   UNL A   1      31.505  29.040  25.396  1.00  0.00     0.174 A 
ATOM      6  N   UNL A   1      30.275  28.299  23.813  1.00  0.00    -0.268 N 
ATOM      7  N   UNL A   1      30.839  29.437  24.284  1.00  0.00    -0.165 NA
ATOM      8  C   UNL A   1      30.430  27.263  24.684  1.00  0.00     0.043 A 
ATOM      9  C   UNL A   1      31.453  27.626  25.520  1.00  0.00     0.014 A 
ATOM     10  C   UNL A   1      29.706  25.980  24.731  1.00  0.00     0.062 C 
ATOM     11  C   UNL A   1      32.145  26.683  26.450  1.00  0.00     0.105 C 
ATOM     12  C   UNL A   1      30.213  25.140  25.924  1.00  0.00     0.072 C 
ATOM     13  C   UNL A   1      31.741  25.202  26.221  1.00  0.00     0.189 C 
BRANCH   6  14
ATOM     14  C   UNL A   1      29.521  28.305  22.573  1.00  0.00     0.144 C 
BRANCH  14  15
ATOM     15  C   UNL A   1      28.944  29.664  22.151  1.00  0.00     0.020 C 
ATOM     16  C   UNL A   1      27.571  29.983  22.728  1.00  0.00     0.006 C 
ENDBRANCH  14  15
ENDBRANCH   6  14
BRANCH  13  17
ATOM     17  N   UNL A   1      32.652  24.420  25.339  1.00  0.00    -0.323 N 
ATOM     18  C   UNL A   1      32.011  23.492  24.405  1.00  0.00     0.324 C 
ATOM     19  C   UNL A   1      33.789  23.862  26.094  1.00  0.00     0.324 C 
ATOM     20  H   UNL A   1      33.041  25.102  24.687  1.00  0.00     0.348 HD
ATOM     21  C   UNL A   1      32.855  22.330  23.840  1.00  0.00     0.324 C 
ATOM     22  C   UNL A   1      34.587  22.714  25.436  1.00  0.00     0.324 C 
ATOM     23  N   UNL A   1      33.778  21.691  24.775  1.00  0.00    -0.321 N 
ATOM     24  H   UNL A   1      34.403  21.110  24.214  1.00  0.00     0.348 HD
BRANCH  23  25
ATOM     25  C   UNL A   1      33.246  20.620  25.636  1.00  0.00     0.319 C 
BRANCH  25  26
ATOM     26  C   UNL A   1      33.338  19.155  25.224  1.00  0.00     0.095 A 
ATOM     27  C   UNL A   1      34.353  18.716  24.375  1.00  0.00     0.030 A 
ATOM     28  N   UNL A   1      32.446  18.283  25.767  1.00  0.00    -0.255 NA
ATOM     29  C   UNL A   1      34.410  17.366  24.015  1.00  0.00     0.004 A 
ATOM     30  C   UNL A   1      32.524  16.981  25.403  1.00  0.00     0.111 A 
ATOM     31  C   UNL A   1      33.469  16.482  24.526  1.00  0.00     0.020 A 
ENDBRANCH  25  26
ENDBRANCH  23  25
ENDBRANCH  13  17
ENDBRANCH   3   5
ENDBRANCH   2   3
ENDBRANCH   1   2
BRANCH   1  32
ATOM     32  C   UNL A   1      34.603  31.465  27.657  1.00  0.00     0.275 C 
BRANCH  32  33
ATOM     33  O   UNL A   1      35.777  31.577  28.451  1.00  0.00    -0.458 OA
BRANCH  33  34
ATOM     34  C   UNL A   1      35.621  31.691  29.785  1.00  0.00     0.338 C 
ATOM     35  O   UNL A   1      34.767  32.323  30.385  1.00  0.00    -0.246 OA
BRANCH  34  36
ATOM     36  C   UNL A   1      36.750  31.028  30.434  1.00  0.00     0.060 A 
ATOM     37  C   UNL A   1      37.871  31.800  30.756  1.00  0.00     0.016 A 
ATOM     38  C   UNL A   1      36.779  29.627  30.426  1.00  0.00     0.016 A 
ATOM     39  C   UNL A   1      39.088  31.164  30.840  1.00  0.00     0.010 A 
ATOM     40  C   UNL A   1      37.990  29.002  30.474  1.00  0.00     0.010 A 
ATOM     41  C   UNL A   1      39.131  29.791  30.590  1.00  0.00    -0.014 A 
BRANCH  41  42
ATOM     42  C   UNL A   1      40.408  29.131  30.480  1.00  0.00     0.031 A 
ATOM     43  C   UNL A   1      41.093  28.969  31.781  1.00  0.00     0.074 A 
ATOM     44  C   UNL A   1      40.786  28.567  29.318  1.00  0.00     0.049 A 
ATOM     45  N   UNL A   1      42.244  29.432  32.135  1.00  0.00    -0.248 NA
ATOM     46  C   UNL A   1      40.336  28.334  32.874  1.00  0.00     0.031 C 
ATOM     47  C   UNL A   1      40.009  28.417  28.082  1.00  0.00     0.029 A 
ATOM     48  N   UNL A   1      41.929  27.895  29.036  1.00  0.00    -0.354 N 
ATOM     49  C   UNL A   1      42.434  28.993  33.441  1.00  0.00     0.074 A 
ATOM     50  C   UNL A   1      41.168  28.493  33.901  1.00  0.00     0.031 C 
ATOM     51  C   UNL A   1      40.615  27.511  27.281  1.00  0.00     0.029 A 
ATOM     52  C   UNL A   1      41.873  27.118  27.888  1.00  0.00     0.049 A 
ATOM     53  H   UNL A   1      42.734  27.953  29.601  1.00  0.00     0.167 HD
ATOM     54  C   UNL A   1      43.684  28.836  33.949  1.00  0.00     0.037 A 
ATOM     55  C   UNL A   1      42.770  26.161  27.542  1.00  0.00     0.037 A 
ATOM     56  C   UNL A   1      44.651  29.589  33.193  1.00  0.00     0.049 A 
ATOM     57  C   UNL A   1      43.999  26.399  28.348  1.00  0.00     0.074 A 
ATOM     58  C   UNL A   1      44.821  30.933  32.920  1.00  0.00     0.029 A 
ATOM     59  N   UNL A   1      45.407  28.922  32.260  1.00  0.00    -0.354 N 
ATOM     60  N   UNL A   1      44.777  27.435  28.194  1.00  0.00    -0.248 NA
ATOM     61  C   UNL A   1      44.091  25.737  29.643  1.00  0.00     0.031 C 
ATOM     62  C   UNL A   1      45.263  30.984  31.566  1.00  0.00     0.029 A 
ATOM     63  C   UNL A   1      45.399  29.672  31.111  1.00  0.00     0.049 A 
ATOM     64  H   UNL A   1      45.868  28.063  32.392  1.00  0.00     0.167 HD
ATOM     65  C   UNL A   1      45.134  27.806  29.484  1.00  0.00     0.074 A 
ATOM     66  C   UNL A   1      44.740  26.681  30.329  1.00  0.00     0.031 C 
ATOM     67  C   UNL A   1      45.441  29.103  29.785  1.00  0.00     0.037 A 
BRANCH  54  68
ATOM     68  C   UNL A   1      44.068  27.716  34.881  1.00  0.00     0.064 A 
ATOM     69  C   UNL A   1      43.869  26.386  34.464  1.00  0.00     0.173 A 
ATOM     70  C   UNL A   1      44.338  27.889  36.257  1.00  0.00     0.173 A 
ATOM     71  F   UNL A   1      43.588  26.108  33.183  1.00  0.00    -0.203 F 
ATOM     72  C   UNL A   1      43.864  25.324  35.370  1.00  0.00     0.198 A 
ATOM     73  C   UNL A   1      44.388  26.820  37.149  1.00  0.00     0.198 A 
ATOM     74  F   UNL A   1      44.449  29.096  36.822  1.00  0.00    -0.203 F 
ATOM     75  F   UNL A   1      43.541  24.094  34.949  1.00  0.00    -0.200 F 
ATOM     76  C   UNL A   1      44.117  25.543  36.712  1.00  0.00     0.200 A 
ATOM     77  F   UNL A   1      44.618  27.057  38.448  1.00  0.00    -0.200 F 
ATOM     78  F   UNL A   1      44.048  24.535  37.592  1.00  0.00    -0.200 F 
ENDBRANCH  54  68
BRANCH  55  79
ATOM     79  C   UNL A   1      42.502  24.871  26.861  1.00  0.00     0.064 A 
ATOM     80  C   UNL A   1      43.172  24.524  25.678  1.00  0.00     0.173 A 
ATOM     81  C   UNL A   1      41.789  23.837  27.501  1.00  0.00     0.173 A 
ATOM     82  F   UNL A   1      43.914  25.437  25.033  1.00  0.00    -0.203 F 
ATOM     83  C   UNL A   1      43.145  23.219  25.174  1.00  0.00     0.198 A 
ATOM     84  C   UNL A   1      41.756  22.538  26.995  1.00  0.00     0.198 A 
ATOM     85  F   UNL A   1      41.187  24.043  28.682  1.00  0.00    -0.203 F 
ATOM     86  F   UNL A   1      43.845  22.912  24.073  1.00  0.00    -0.200 F 
ATOM     87  C   UNL A   1      42.445  22.225  25.838  1.00  0.00     0.200 A 
ATOM     88  F   UNL A   1      41.106  21.578  27.669  1.00  0.00    -0.200 F 
ATOM     89  F   UNL A   1      42.467  20.963  25.390  1.00  0.00    -0.200 F 
ENDBRANCH  55  79
BRANCH  67  90
ATOM     90  C   UNL A   1      45.604  30.065  28.639  1.00  0.00     0.064 A 
ATOM     91  C   UNL A   1      44.544  30.784  28.060  1.00  0.00     0.173 A 
ATOM     92  C   UNL A   1      46.901  30.382  28.215  1.00  0.00     0.173 A 
ATOM     93  F   UNL A   1      43.286  30.618  28.484  1.00  0.00    -0.203 F 
ATOM     94  C   UNL A   1      44.770  31.740  27.070  1.00  0.00     0.198 A 
ATOM     95  C   UNL A   1      47.128  31.363  27.254  1.00  0.00     0.198 A 
ATOM     96  F   UNL A   1      47.957  29.772  28.774  1.00  0.00    -0.203 F 
ATOM     97  F   UNL A   1      43.738  32.403  26.526  1.00  0.00    -0.200 F 
ATOM     98  C   UNL A   1      46.063  32.033  26.674  1.00  0.00     0.200 A 
ATOM     99  F   UNL A   1      48.384  31.681  26.912  1.00  0.00    -0.200 F 
ATOM    100  F   UNL A   1      46.286  32.983  25.754  1.00  0.00    -0.200 F 
ENDBRANCH  67  90
ENDBRANCH  41  42
ENDBRANCH  34  36
ENDBRANCH  33  34
ENDBRANCH  32  33
ENDBRANCH   1  32
TORSDOF 16
ENDMDL
MODEL 3
REMARK VINA RESULT:     -12.8      3.148      9.156
REMARK SMILES CCCn1nc(C(=O)OCCOC(=O)c2ccc(-c3c4nc(c(-c5c(F)c(F)c(F)c(F)c5F)c5ccc([nH]5)c(-c5c(F)c(F)c(F)c(F)c5F)c5nc(c(-c6c(F)c(F)c(F)c(F)c6F)c6ccc3[nH]6)C=C5)C=C4)cc2)c2c1CC[C@@H]([NH+]1CC[NH+](Cc3ccccn3)CC1)C2
REMARK SMILES IDX 10 1 9 2 7 3 8 4 6 5 4 6 5 7 79 8 78 9 80 10 96 11 81 12
REMARK SMILES IDX 82 13 3 14 2 15 1 16 83 17 84 18 95 19 85 21 94 22 86 23
REMARK SMILES IDX 87 25 88 26 89 27 93 28 90 29 92 30 91 31 11 32 12 33 13 34
REMARK SMILES IDX 14 35 15 36 16 37 77 38 17 39 76 40 18 41 19 42 20 43 70 44
REMARK SMILES IDX 21 45 75 46 69 47 71 48 22 49 74 50 68 51 67 52 23 54 55 55
REMARK SMILES IDX 35 56 54 57 36 58 39 59 53 60 72 61 37 62 38 63 52 65 73 66
REMARK SMILES IDX 40 67 24 68 25 69 33 70 26 71 27 72 31 73 34 74 28 75 29 76
REMARK SMILES IDX 32 77 30 78 56 79 57 80 65 81 58 82 59 83 63 84 66 85 60 86
REMARK SMILES IDX 61 87 64 88 62 89 41 90 42 91 50 92 43 93 44 94 48 95 51 96
REMARK SMILES IDX 45 97 46 98 49 99 47 100
REMARK H PARENT 83 20 86 24 71 53 39 64
REMARK Flexibility Score: inf
ROOT
ATOM      1  C   UNL A   1      33.233  30.842  27.443  1.00  0.00     0.275 C 
ENDROOT
BRANCH   1   2
ATOM      2  O   UNL A   1      33.145  30.338  26.105  1.00  0.00    -0.457 OA
BRANCH   2   3
ATOM      3  C   UNL A   1      33.389  29.000  25.892  1.00  0.00     0.359 C 
ATOM      4  O   UNL A   1      34.312  28.390  26.390  1.00  0.00    -0.244 OA
BRANCH   3   5
ATOM      5  C   UNL A   1      32.333  28.424  25.031  1.00  0.00     0.174 A 
ATOM      6  N   UNL A   1      30.794  28.236  23.559  1.00  0.00    -0.268 N 
ATOM      7  N   UNL A   1      31.797  29.055  23.957  1.00  0.00    -0.165 NA
ATOM      8  C   UNL A   1      30.590  27.223  24.447  1.00  0.00     0.043 A 
ATOM      9  C   UNL A   1      31.732  27.147  25.199  1.00  0.00     0.014 A 
ATOM     10  C   UNL A   1      29.421  26.334  24.581  1.00  0.00     0.062 C 
ATOM     11  C   UNL A   1      32.061  26.005  26.105  1.00  0.00     0.105 C 
ATOM     12  C   UNL A   1      29.642  25.360  25.759  1.00  0.00     0.072 C 
ATOM     13  C   UNL A   1      31.086  24.808  25.947  1.00  0.00     0.189 C 
BRANCH   6  14
ATOM     14  C   UNL A   1      30.013  28.544  22.376  1.00  0.00     0.144 C 
BRANCH  14  15
ATOM     15  C   UNL A   1      29.192  29.841  22.438  1.00  0.00     0.020 C 
ATOM     16  C   UNL A   1      27.840  29.710  23.126  1.00  0.00     0.006 C 
ENDBRANCH  14  15
ENDBRANCH   6  14
BRANCH  13  17
ATOM     17  N   UNL A   1      31.542  23.729  25.026  1.00  0.00    -0.323 N 
ATOM     18  C   UNL A   1      31.283  22.354  25.459  1.00  0.00     0.324 C 
ATOM     19  C   UNL A   1      32.907  23.982  24.530  1.00  0.00     0.324 C 
ATOM     20  H   UNL A   1      30.922  23.790  24.218  1.00  0.00     0.348 HD
ATOM     21  C   UNL A   1      32.133  21.224  24.840  1.00  0.00     0.324 C 
ATOM     22  C   UNL A   1      33.671  22.792  23.907  1.00  0.00     0.324 C 
ATOM     23  N   UNL A   1      33.546  21.526  24.627  1.00  0.00    -0.321 N 
ATOM     24  H   UNL A   1      33.913  20.785  24.027  1.00  0.00     0.348 HD
BRANCH  23  25
ATOM     25  C   UNL A   1      34.466  21.323  25.761  1.00  0.00     0.319 C 
BRANCH  25  26
ATOM     26  C   UNL A   1      35.878  21.897  25.746  1.00  0.00     0.095 A 
ATOM     27  C   UNL A   1      36.120  23.209  26.153  1.00  0.00     0.030 A 
ATOM     28  N   UNL A   1      36.898  21.070  25.392  1.00  0.00    -0.255 NA
ATOM     29  C   UNL A   1      37.426  23.705  26.126  1.00  0.00     0.004 A 
ATOM     30  C   UNL A   1      38.155  21.575  25.376  1.00  0.00     0.111 A 
ATOM     31  C   UNL A   1      38.464  22.879  25.715  1.00  0.00     0.020 A 
ENDBRANCH  25  26
ENDBRANCH  23  25
ENDBRANCH  13  17
ENDBRANCH   3   5
ENDBRANCH   2   3
ENDBRANCH   1   2
BRANCH   1  32
ATOM     32  C   UNL A   1      34.552  31.579  27.626  1.00  0.00     0.275 C 
BRANCH  32  33
ATOM     33  O   UNL A   1      34.516  32.265  28.871  1.00  0.00    -0.458 OA
BRANCH  33  34
ATOM     34  C   UNL A   1      35.270  31.777  29.876  1.00  0.00     0.338 C 
ATOM     35  O   UNL A   1      35.120  31.954  31.073  1.00  0.00    -0.246 OA
BRANCH  34  36
ATOM     36  C   UNL A   1      36.417  31.087  29.291  1.00  0.00     0.060 A 
ATOM     37  C   UNL A   1      36.370  29.692  29.199  1.00  0.00     0.016 A 
ATOM     38  C   UNL A   1      37.606  31.811  29.135  1.00  0.00     0.016 A 
ATOM     39  C   UNL A   1      37.564  29.007  29.184  1.00  0.00     0.010 A 
ATOM     40  C   UNL A   1      38.788  31.131  29.156  1.00  0.00     0.010 A 
ATOM     41  C   UNL A   1      38.746  29.745  29.272  1.00  0.00    -0.014 A 
BRANCH  41  42
ATOM     42  C   UNL A   1      40.000  29.055  29.452  1.00  0.00     0.031 A 
ATOM     43  C   UNL A   1      40.373  28.888  30.873  1.00  0.00     0.074 A 
ATOM     44  C   UNL A   1      40.613  28.472  28.405  1.00  0.00     0.049 A 
ATOM     45  N   UNL A   1      41.427  29.328  31.474  1.00  0.00    -0.248 NA
ATOM     46  C   UNL A   1      39.376  28.280  31.772  1.00  0.00     0.031 C 
ATOM     47  C   UNL A   1      40.127  28.331  27.028  1.00  0.00     0.029 A 
ATOM     48  N   UNL A   1      41.773  27.772  28.387  1.00  0.00    -0.354 N 
ATOM     49  C   UNL A   1      41.310  28.895  32.791  1.00  0.00     0.074 A 
ATOM     50  C   UNL A   1      39.962  28.428  32.958  1.00  0.00     0.031 C 
ATOM     51  C   UNL A   1      40.874  27.404  26.384  1.00  0.00     0.029 A 
ATOM     52  C   UNL A   1      41.956  26.988  27.257  1.00  0.00     0.049 A 
ATOM     53  H   UNL A   1      42.433  27.816  29.117  1.00  0.00     0.167 HD
ATOM     54  C   UNL A   1      42.411  28.713  33.565  1.00  0.00     0.037 A 
ATOM     55  C   UNL A   1      42.883  26.007  27.124  1.00  0.00     0.037 A 
ATOM     56  C   UNL A   1      43.541  29.438  33.041  1.00  0.00     0.049 A 
ATOM     57  C   UNL A   1      43.908  26.223  28.183  1.00  0.00     0.074 A 
ATOM     58  C   UNL A   1      43.799  30.775  32.809  1.00  0.00     0.029 A 
ATOM     59  N   UNL A   1      44.468  28.745  32.303  1.00  0.00    -0.354 N 
ATOM     60  N   UNL A   1      44.725  27.239  28.203  1.00  0.00    -0.248 NA
ATOM     61  C   UNL A   1      43.692  25.570  29.467  1.00  0.00     0.031 C 
ATOM     62  C   UNL A   1      44.533  30.804  31.588  1.00  0.00     0.029 A 
ATOM     63  C   UNL A   1      44.735  29.485  31.179  1.00  0.00     0.049 A 
ATOM     64  H   UNL A   1      44.868  27.877  32.537  1.00  0.00     0.167 HD
ATOM     65  C   UNL A   1      44.794  27.613  29.539  1.00  0.00     0.074 A 
ATOM     66  C   UNL A   1      44.195  26.505  30.278  1.00  0.00     0.031 C 
ATOM     67  C   UNL A   1      45.059  28.905  29.897  1.00  0.00     0.037 A 
BRANCH  54  68
ATOM     68  C   UNL A   1      42.550  27.592  34.562  1.00  0.00     0.064 A 
ATOM     69  C   UNL A   1      43.099  26.368  34.138  1.00  0.00     0.173 A 
ATOM     70  C   UNL A   1      41.903  27.566  35.819  1.00  0.00     0.173 A 
ATOM     71  F   UNL A   1      43.720  26.273  32.952  1.00  0.00    -0.203 F 
ATOM     72  C   UNL A   1      42.943  25.194  34.879  1.00  0.00     0.198 A 
ATOM     73  C   UNL A   1      41.799  26.405  36.582  1.00  0.00     0.198 A 
ATOM     74  F   UNL A   1      41.246  28.621  36.311  1.00  0.00    -0.203 F 
ATOM     75  F   UNL A   1      43.369  24.029  34.373  1.00  0.00    -0.200 F 
ATOM     76  C   UNL A   1      42.288  25.213  36.096  1.00  0.00     0.200 A 
ATOM     77  F   UNL A   1      41.145  26.443  37.751  1.00  0.00    -0.200 F 
ATOM     78  F   UNL A   1      42.081  24.078  36.777  1.00  0.00    -0.200 F 
ENDBRANCH  54  68
BRANCH  55  79
ATOM     79  C   UNL A   1      42.743  24.718  26.404  1.00  0.00     0.064 A 
ATOM     80  C   UNL A   1      43.600  24.383  25.344  1.00  0.00     0.173 A 
ATOM     81  C   UNL A   1      41.945  23.674  26.915  1.00  0.00     0.173 A 
ATOM     82  F   UNL A   1      44.429  25.305  24.832  1.00  0.00    -0.203 F 
ATOM     83  C   UNL A   1      43.668  23.080  24.839  1.00  0.00     0.198 A 
ATOM     84  C   UNL A   1      42.008  22.377  26.406  1.00  0.00     0.198 A 
ATOM     85  F   UNL A   1      41.157  23.869  27.983  1.00  0.00    -0.203 F 
ATOM     86  F   UNL A   1      44.541  22.785  23.865  1.00  0.00    -0.200 F 
ATOM     87  C   UNL A   1      42.879  22.076  25.376  1.00  0.00     0.200 A 
ATOM     88  F   UNL A   1      41.266  21.408  26.962  1.00  0.00    -0.200 F 
ATOM     89  F   UNL A   1      42.986  20.816  24.933  1.00  0.00    -0.200 F 
ENDBRANCH  55  79
BRANCH  67  90
ATOM     90  C   UNL A   1      45.497  29.853  28.814  1.00  0.00     0.064 A 
ATOM     91  C   UNL A   1      44.610  30.596  28.015  1.00  0.00     0.173 A 
ATOM     92  C   UNL A   1      46.863  30.131  28.685  1.00  0.00     0.173 A 
ATOM     93  F   UNL A   1      43.285  30.468  28.153  1.00  0.00    -0.203 F 
ATOM     94  C   UNL A   1      45.075  31.539  27.098  1.00  0.00     0.198 A 
ATOM     95  C   UNL A   1      47.323  31.099  27.796  1.00  0.00     0.198 A 
ATOM     96  F   UNL A   1      47.753  29.496  29.463  1.00  0.00    -0.203 F 
ATOM     97  F   UNL A   1      44.207  32.225  26.340  1.00  0.00    -0.200 F 
ATOM     98  C   UNL A   1      46.431  31.793  26.995  1.00  0.00     0.200 A 
ATOM     99  F   UNL A   1      48.632  31.379  27.737  1.00  0.00    -0.200 F 
ATOM    100  F   UNL A   1      46.878  32.729  26.145  1.00  0.00    -0.200 F 
ENDBRANCH  67  90
ENDBRANCH  41  42
ENDBRANCH  34  36
ENDBRANCH  33  34
ENDBRANCH  32  33
ENDBRANCH   1  32
TORSDOF 16
ENDMDL
