MODEL 1
REMARK VINA RESULT:     -14.1      0.000      0.000
REMARK SMILES COc1ccccc1C(=O)N/C(=C/c1ccc2c(c1)OCO2)C(=O)Nc1ccc(C(=O)OCCOC(=O)c2ccc(-c3c4nc(c(-c5c(F)c(F)c(F)c(F)c5F)c5ccc([nH]5)c(-c5c(F)c(F)c(F)c(F)c5F)c5nc(c(-c6c(F)c(F)c(F)c(F)c6F)c6ccc3[nH]6)C=C5)C=C4)cc2)cc1
REMARK SMILES IDX 32 1 30 2 31 3 29 4 26 5 27 6 102 7 28 8 101 9 25 10 23 11
REMARK SMILES IDX 24 12 12 14 13 15 11 16 9 17 10 18 8 20 3 21 4 22 5 23 7 24
REMARK SMILES IDX 6 25 2 26 1 27 14 28 15 29 19 30 16 31 18 32 17 33 20 34
REMARK SMILES IDX 22 35 21 36 33 37 34 38 35 39 36 40 37 41 38 42 39 43 100 44
REMARK SMILES IDX 40 45 99 46 41 47 42 48 43 49 93 50 44 51 98 52 92 53 94 54
REMARK SMILES IDX 45 55 97 56 91 57 90 58 46 60 78 61 58 62 77 63 59 64 62 65
REMARK SMILES IDX 76 66 95 67 60 68 61 69 75 71 96 72 63 73 47 74 48 75 56 76
REMARK SMILES IDX 49 77 50 78 54 79 57 80 51 81 52 82 55 83 53 84 79 85 80 86
REMARK SMILES IDX 88 87 81 88 82 89 86 90 89 91 83 92 84 93 87 94 85 95 64 96
REMARK SMILES IDX 65 97 73 98 66 99 67 100 71 101 74 102 68 103 69 104 72 105
REMARK SMILES IDX 70 106
REMARK H PARENT 25 13 11 19 94 59 62 70
REMARK Flexibility Score: inf
ROOT
ATOM      1  O   UNL A   1      43.055  19.512  25.014  1.00  0.00    -0.458 OA
ENDROOT
BRANCH   1   2
ATOM      2  C   UNL A   1      42.322  19.212  26.110  1.00  0.00     0.338 C 
ATOM      3  O   UNL A   1      42.610  18.470  27.029  1.00  0.00    -0.246 OA
BRANCH   2   4
ATOM      4  C   UNL A   1      41.069  19.944  25.992  1.00  0.00     0.060 A 
ATOM      5  C   UNL A   1      37.981  22.275  25.818  1.00  0.00     0.041 A 
ATOM      6  C   UNL A   1      37.968  20.779  25.339  1.00  0.00     0.027 A 
ATOM      7  C   UNL A   1      39.295  22.525  26.494  1.00  0.00     0.027 A 
ATOM      8  C   UNL A   1      39.569  19.493  25.386  1.00  0.00     0.018 A 
ATOM      9  C   UNL A   1      40.962  21.441  26.550  1.00  0.00     0.018 A 
BRANCH   5  10
ATOM     10  N   UNL A   1      37.537  23.448  25.142  1.00  0.00    -0.321 N 
ATOM     11  C   UNL A   1      36.407  23.228  24.362  1.00  0.00     0.272 C 
ATOM     12  O   UNL A   1      36.619  22.455  23.422  1.00  0.00    -0.267 OA
ATOM     13  H   UNL A   1      37.983  24.322  25.218  1.00  0.00     0.170 HD
BRANCH  11  14
ATOM     14  C   UNL A   1      34.912  23.394  24.895  1.00  0.00     0.108 C 
ATOM     15  C   UNL A   1      34.006  24.401  24.602  1.00  0.00     0.040 C 
BRANCH  14  16
ATOM     16  N   UNL A   1      34.466  22.550  25.911  1.00  0.00    -0.317 N 
ATOM     17  C   UNL A   1      33.955  21.279  26.051  1.00  0.00     0.259 C 
ATOM     18  O   UNL A   1      33.562  20.971  27.181  1.00  0.00    -0.269 OA
ATOM     19  H   UNL A   1      34.537  22.993  26.787  1.00  0.00     0.170 HD
BRANCH  17  20
ATOM     20  C   UNL A   1      33.763  20.302  24.963  1.00  0.00     0.082 A 
ATOM     21  C   UNL A   1      32.800  20.322  23.966  1.00  0.00     0.131 A 
ATOM     22  C   UNL A   1      32.429  19.086  23.405  1.00  0.00     0.047 A 
ATOM     23  C   UNL A   1      33.206  17.945  23.576  1.00  0.00     0.004 A 
ATOM     24  C   UNL A   1      34.660  19.213  24.990  1.00  0.00     0.018 A 
ATOM     25  C   UNL A   1      34.404  18.051  24.264  1.00  0.00     0.001 A 
BRANCH  21  26
ATOM     26  O   UNL A   1      32.143  21.364  23.379  1.00  0.00    -0.496 OA
ATOM     27  C   UNL A   1      31.784  21.386  22.007  1.00  0.00     0.278 C 
ENDBRANCH  21  26
ENDBRANCH  17  20
ENDBRANCH  14  16
BRANCH  15  28
ATOM     28  C   UNL A   1      34.050  25.479  23.504  1.00  0.00    -0.019 A 
ATOM     29  C   UNL A   1      33.274  25.050  21.861  1.00  0.00     0.012 A 
ATOM     30  C   UNL A   1      33.649  26.962  24.466  1.00  0.00     0.058 A 
ATOM     31  C   UNL A   1      31.837  25.983  21.181  1.00  0.00     0.051 A 
ATOM     32  C   UNL A   1      32.316  27.895  23.874  1.00  0.00     0.166 A 
ATOM     33  C   UNL A   1      31.292  27.378  22.164  1.00  0.00     0.165 A 
ATOM     34  O   UNL A   1      31.388  29.262  24.673  1.00  0.00    -0.454 OA
ATOM     35  O   UNL A   1      29.819  28.465  22.089  1.00  0.00    -0.454 OA
ATOM     36  C   UNL A   1      29.836  29.659  23.608  1.00  0.00     0.468 C 
ENDBRANCH  15  28
ENDBRANCH  11  14
ENDBRANCH   5  10
ENDBRANCH   2   4
ENDBRANCH   1   2
BRANCH   1  37
ATOM     37  C   UNL A   1      44.382  20.008  25.244  1.00  0.00     0.275 C 
BRANCH  37  38
ATOM     38  C   UNL A   1      44.494  21.441  24.724  1.00  0.00     0.275 C 
BRANCH  38  39
ATOM     39  O   UNL A   1      44.028  22.380  25.715  1.00  0.00    -0.458 OA
BRANCH  39  40
ATOM     40  C   UNL A   1      44.076  23.678  25.339  1.00  0.00     0.338 C 
ATOM     41  O   UNL A   1      44.770  24.168  24.463  1.00  0.00    -0.246 OA
BRANCH  40  42
ATOM     42  C   UNL A   1      43.062  24.482  26.046  1.00  0.00     0.060 A 
ATOM     43  C   UNL A   1      42.918  25.801  25.678  1.00  0.00     0.016 A 
ATOM     44  C   UNL A   1      42.528  24.067  27.261  1.00  0.00     0.016 A 
ATOM     45  C   UNL A   1      42.516  26.732  26.630  1.00  0.00     0.010 A 
ATOM     46  C   UNL A   1      41.934  25.005  28.132  1.00  0.00     0.010 A 
ATOM     47  C   UNL A   1      42.024  26.387  27.894  1.00  0.00    -0.014 A 
BRANCH  47  48
ATOM     48  C   UNL A   1      41.719  27.445  28.943  1.00  0.00     0.031 A 
ATOM     49  C   UNL A   1      42.629  27.638  30.155  1.00  0.00     0.074 A 
ATOM     50  C   UNL A   1      40.679  28.309  28.829  1.00  0.00     0.049 A 
ATOM     51  N   UNL A   1      42.373  28.224  31.302  1.00  0.00    -0.248 NA
ATOM     52  C   UNL A   1      43.995  27.089  30.081  1.00  0.00     0.031 C 
ATOM     53  C   UNL A   1      39.729  28.388  27.716  1.00  0.00     0.029 A 
ATOM     54  N   UNL A   1      40.241  29.319  29.667  1.00  0.00    -0.354 N 
ATOM     55  C   UNL A   1      43.483  28.001  32.115  1.00  0.00     0.074 A 
ATOM     56  C   UNL A   1      44.430  27.247  31.324  1.00  0.00     0.031 C 
ATOM     57  C   UNL A   1      38.924  29.442  27.868  1.00  0.00     0.029 A 
ATOM     58  C   UNL A   1      39.102  29.950  29.213  1.00  0.00     0.049 A 
ATOM     59  H   UNL A   1      40.698  29.564  30.505  1.00  0.00     0.167 HD
ATOM     60  C   UNL A   1      43.683  28.375  33.405  1.00  0.00     0.037 A 
ATOM     61  C   UNL A   1      38.191  30.731  29.822  1.00  0.00     0.037 A 
ATOM     62  C   UNL A   1      42.778  29.215  34.154  1.00  0.00     0.049 A 
ATOM     63  C   UNL A   1      38.371  31.053  31.272  1.00  0.00     0.074 A 
ATOM     64  C   UNL A   1      42.896  29.665  35.459  1.00  0.00     0.029 A 
ATOM     65  N   UNL A   1      41.598  29.750  33.658  1.00  0.00    -0.354 N 
ATOM     66  N   UNL A   1      39.351  30.720  32.074  1.00  0.00    -0.248 NA
ATOM     67  C   UNL A   1      37.306  31.836  31.908  1.00  0.00     0.031 C 
ATOM     68  C   UNL A   1      41.750  30.401  35.777  1.00  0.00     0.029 A 
ATOM     69  C   UNL A   1      40.964  30.494  34.642  1.00  0.00     0.049 A 
ATOM     70  H   UNL A   1      41.260  29.619  32.743  1.00  0.00     0.167 HD
ATOM     71  C   UNL A   1      39.037  31.280  33.303  1.00  0.00     0.074 A 
ATOM     72  C   UNL A   1      37.787  31.991  33.132  1.00  0.00     0.031 C 
ATOM     73  C   UNL A   1      39.726  31.210  34.467  1.00  0.00     0.037 A 
BRANCH  60  74
ATOM     74  C   UNL A   1      44.887  27.831  34.137  1.00  0.00     0.064 A 
ATOM     75  C   UNL A   1      44.888  26.596  34.799  1.00  0.00     0.173 A 
ATOM     76  C   UNL A   1      46.095  28.552  34.110  1.00  0.00     0.173 A 
ATOM     77  F   UNL A   1      43.766  25.861  34.861  1.00  0.00    -0.203 F 
ATOM     78  C   UNL A   1      46.037  26.119  35.430  1.00  0.00     0.198 A 
ATOM     79  C   UNL A   1      47.251  28.054  34.706  1.00  0.00     0.198 A 
ATOM     80  F   UNL A   1      46.164  29.734  33.479  1.00  0.00    -0.203 F 
ATOM     81  F   UNL A   1      45.998  24.958  36.100  1.00  0.00    -0.200 F 
ATOM     82  C   UNL A   1      47.219  26.842  35.376  1.00  0.00     0.200 A 
ATOM     83  F   UNL A   1      48.396  28.747  34.628  1.00  0.00    -0.200 F 
ATOM     84  F   UNL A   1      48.325  26.373  35.970  1.00  0.00    -0.200 F 
ENDBRANCH  60  74
BRANCH  61  85
ATOM     85  C   UNL A   1      36.953  31.145  29.095  1.00  0.00     0.064 A 
ATOM     86  C   UNL A   1      36.774  32.464  28.658  1.00  0.00     0.173 A 
ATOM     87  C   UNL A   1      35.918  30.230  28.830  1.00  0.00     0.173 A 
ATOM     88  F   UNL A   1      37.714  33.386  28.910  1.00  0.00    -0.203 F 
ATOM     89  C   UNL A   1      35.606  32.853  28.002  1.00  0.00     0.198 A 
ATOM     90  C   UNL A   1      34.778  30.607  28.126  1.00  0.00     0.198 A 
ATOM     91  F   UNL A   1      36.029  28.953  29.225  1.00  0.00    -0.203 F 
ATOM     92  F   UNL A   1      35.436  34.136  27.653  1.00  0.00    -0.200 F 
ATOM     93  C   UNL A   1      34.616  31.923  27.725  1.00  0.00     0.200 A 
ATOM     94  F   UNL A   1      33.839  29.696  27.837  1.00  0.00    -0.200 F 
ATOM     95  F   UNL A   1      33.502  32.296  27.081  1.00  0.00    -0.200 F 
ENDBRANCH  61  85
BRANCH  73  96
ATOM     96  C   UNL A   1      39.183  31.994  35.626  1.00  0.00     0.064 A 
ATOM     97  C   UNL A   1      39.494  33.347  35.825  1.00  0.00     0.173 A 
ATOM     98  C   UNL A   1      38.342  31.369  36.562  1.00  0.00     0.173 A 
ATOM     99  F   UNL A   1      40.308  33.986  34.972  1.00  0.00    -0.203 F 
ATOM    100  C   UNL A   1      39.025  34.031  36.945  1.00  0.00     0.198 A 
ATOM    101  C   UNL A   1      37.838  32.069  37.652  1.00  0.00     0.198 A 
ATOM    102  F   UNL A   1      38.010  30.078  36.417  1.00  0.00    -0.203 F 
ATOM    103  F   UNL A   1      39.404  35.299  37.158  1.00  0.00    -0.200 F 
ATOM    104  C   UNL A   1      38.192  33.394  37.852  1.00  0.00     0.200 A 
ATOM    105  F   UNL A   1      37.019  31.456  38.517  1.00  0.00    -0.200 F 
ATOM    106  F   UNL A   1      37.742  34.054  38.927  1.00  0.00    -0.200 F 
ENDBRANCH  73  96
ENDBRANCH  47  48
ENDBRANCH  40  42
ENDBRANCH  39  40
ENDBRANCH  38  39
ENDBRANCH  37  38
ENDBRANCH   1  37
TORSDOF 17
ENDMDL
MODEL 2
REMARK VINA RESULT:     -13.5      4.302      7.795
REMARK SMILES COc1ccccc1C(=O)N/C(=C/c1ccc2c(c1)OCO2)C(=O)Nc1ccc(C(=O)OCCOC(=O)c2ccc(-c3c4nc(c(-c5c(F)c(F)c(F)c(F)c5F)c5ccc([nH]5)c(-c5c(F)c(F)c(F)c(F)c5F)c5nc(c(-c6c(F)c(F)c(F)c(F)c6F)c6ccc3[nH]6)C=C5)C=C4)cc2)cc1
REMARK SMILES IDX 32 1 30 2 31 3 29 4 26 5 27 6 102 7 28 8 101 9 25 10 23 11
REMARK SMILES IDX 24 12 12 14 13 15 11 16 9 17 10 18 8 20 3 21 4 22 5 23 7 24
REMARK SMILES IDX 6 25 2 26 1 27 14 28 15 29 19 30 16 31 18 32 17 33 20 34
REMARK SMILES IDX 22 35 21 36 33 37 34 38 35 39 36 40 37 41 38 42 39 43 100 44
REMARK SMILES IDX 40 45 99 46 41 47 42 48 43 49 93 50 44 51 98 52 92 53 94 54
REMARK SMILES IDX 45 55 97 56 91 57 90 58 46 60 78 61 58 62 77 63 59 64 62 65
REMARK SMILES IDX 76 66 95 67 60 68 61 69 75 71 96 72 63 73 47 74 48 75 56 76
REMARK SMILES IDX 49 77 50 78 54 79 57 80 51 81 52 82 55 83 53 84 79 85 80 86
REMARK SMILES IDX 88 87 81 88 82 89 86 90 89 91 83 92 84 93 87 94 85 95 64 96
REMARK SMILES IDX 65 97 73 98 66 99 67 100 71 101 74 102 68 103 69 104 72 105
REMARK SMILES IDX 70 106
REMARK H PARENT 25 13 11 19 94 59 62 70
REMARK Flexibility Score: inf
ROOT
ATOM      1  O   UNL A   1      35.437  20.814  25.557  1.00  0.00    -0.458 OA
ENDROOT
BRANCH   1   2
ATOM      2  C   UNL A   1      34.319  20.356  24.948  1.00  0.00     0.338 C 
ATOM      3  O   UNL A   1      34.067  19.222  24.594  1.00  0.00    -0.246 OA
BRANCH   2   4
ATOM      4  C   UNL A   1      33.441  21.502  24.763  1.00  0.00     0.060 A 
ATOM      5  C   UNL A   1      30.863  24.390  24.649  1.00  0.00     0.041 A 
ATOM      6  C   UNL A   1      32.125  24.315  23.717  1.00  0.00     0.027 A 
ATOM      7  C   UNL A   1      30.772  23.094  25.396  1.00  0.00     0.027 A 
ATOM      8  C   UNL A   1      33.540  22.826  23.734  1.00  0.00     0.018 A 
ATOM      9  C   UNL A   1      32.079  21.608  25.597  1.00  0.00     0.018 A 
BRANCH   5  10
ATOM     10  N   UNL A   1      30.394  25.466  25.457  1.00  0.00    -0.321 N 
ATOM     11  C   UNL A   1      31.409  26.334  25.844  1.00  0.00     0.272 C 
ATOM     12  O   UNL A   1      32.238  25.798  26.586  1.00  0.00    -0.267 OA
ATOM     13  H   UNL A   1      29.451  25.582  25.714  1.00  0.00     0.170 HD
BRANCH  11  14
ATOM     14  C   UNL A   1      31.849  27.619  25.005  1.00  0.00     0.108 C 
ATOM     15  C   UNL A   1      32.365  28.815  25.479  1.00  0.00     0.040 C 
BRANCH  14  16
ATOM     16  N   UNL A   1      31.543  27.668  23.645  1.00  0.00    -0.317 N 
ATOM     17  C   UNL A   1      30.613  28.252  22.814  1.00  0.00     0.259 C 
ATOM     18  O   UNL A   1      30.648  27.906  21.629  1.00  0.00    -0.269 OA
ATOM     19  H   UNL A   1      32.180  27.126  23.126  1.00  0.00     0.170 HD
BRANCH  17  20
ATOM     20  C   UNL A   1      29.543  29.177  23.233  1.00  0.00     0.082 A 
ATOM     21  C   UNL A   1      28.173  28.988  23.134  1.00  0.00     0.131 A 
ATOM     22  C   UNL A   1      27.370  30.140  23.048  1.00  0.00     0.047 A 
ATOM     23  C   UNL A   1      27.859  31.398  23.383  1.00  0.00     0.004 A 
ATOM     24  C   UNL A   1      30.002  30.404  23.758  1.00  0.00     0.018 A 
ATOM     25  C   UNL A   1      29.151  31.502  23.872  1.00  0.00     0.001 A 
BRANCH  21  26
ATOM     26  O   UNL A   1      27.426  27.846  23.141  1.00  0.00    -0.496 OA
ATOM     27  C   UNL A   1      27.777  26.689  23.883  1.00  0.00     0.278 C 
ENDBRANCH  21  26
ENDBRANCH  17  20
ENDBRANCH  14  16
BRANCH  15  28
ATOM     28  C   UNL A   1      32.915  29.167  26.872  1.00  0.00    -0.019 A 
ATOM     29  C   UNL A   1      34.745  28.922  27.150  1.00  0.00     0.012 A 
ATOM     30  C   UNL A   1      32.031  30.714  27.205  1.00  0.00     0.058 A 
ATOM     31  C   UNL A   1      35.871  30.321  27.563  1.00  0.00     0.051 A 
ATOM     32  C   UNL A   1      33.030  32.069  27.614  1.00  0.00     0.166 A 
ATOM     33  C   UNL A   1      35.078  31.915  27.759  1.00  0.00     0.165 A 
ATOM     34  O   UNL A   1      32.607  33.851  27.727  1.00  0.00    -0.454 OA
ATOM     35  O   UNL A   1      35.718  33.623  27.926  1.00  0.00    -0.454 OA
ATOM     36  C   UNL A   1      34.234  34.859  27.927  1.00  0.00     0.468 C 
ENDBRANCH  15  28
ENDBRANCH  11  14
ENDBRANCH   5  10
ENDBRANCH   2   4
ENDBRANCH   1   2
BRANCH   1  37
ATOM     37  C   UNL A   1      36.584  21.026  24.722  1.00  0.00     0.275 C 
BRANCH  37  38
ATOM     38  C   UNL A   1      37.804  20.341  25.338  1.00  0.00     0.275 C 
BRANCH  38  39
ATOM     39  O   UNL A   1      38.947  21.221  25.317  1.00  0.00    -0.458 OA
BRANCH  39  40
ATOM     40  C   UNL A   1      39.840  21.022  26.313  1.00  0.00     0.338 C 
ATOM     41  O   UNL A   1      40.509  20.021  26.516  1.00  0.00    -0.246 OA
BRANCH  40  42
ATOM     42  C   UNL A   1      40.036  22.244  27.114  1.00  0.00     0.060 A 
ATOM     43  C   UNL A   1      39.226  23.324  26.846  1.00  0.00     0.016 A 
ATOM     44  C   UNL A   1      41.200  22.449  27.846  1.00  0.00     0.016 A 
ATOM     45  C   UNL A   1      39.717  24.609  27.048  1.00  0.00     0.010 A 
ATOM     46  C   UNL A   1      41.580  23.755  28.224  1.00  0.00     0.010 A 
ATOM     47  C   UNL A   1      40.911  24.886  27.725  1.00  0.00    -0.014 A 
BRANCH  47  48
ATOM     48  C   UNL A   1      41.468  26.299  27.807  1.00  0.00     0.031 A 
ATOM     49  C   UNL A   1      42.779  26.670  27.116  1.00  0.00     0.074 A 
ATOM     50  C   UNL A   1      40.808  27.311  28.427  1.00  0.00     0.049 A 
ATOM     51  N   UNL A   1      43.578  27.689  27.341  1.00  0.00    -0.248 NA
ATOM     52  C   UNL A   1      43.269  25.778  26.051  1.00  0.00     0.031 C 
ATOM     53  C   UNL A   1      39.495  27.228  29.072  1.00  0.00     0.029 A 
ATOM     54  N   UNL A   1      41.148  28.639  28.610  1.00  0.00    -0.354 N 
ATOM     55  C   UNL A   1      44.706  27.487  26.548  1.00  0.00     0.074 A 
ATOM     56  C   UNL A   1      44.481  26.262  25.814  1.00  0.00     0.031 C 
ATOM     57  C   UNL A   1      39.090  28.441  29.456  1.00  0.00     0.029 A 
ATOM     58  C   UNL A   1      40.219  29.343  29.346  1.00  0.00     0.049 A 
ATOM     59  H   UNL A   1      41.972  29.042  28.251  1.00  0.00     0.167 HD
ATOM     60  C   UNL A   1      45.829  28.245  26.456  1.00  0.00     0.037 A 
ATOM     61  C   UNL A   1      40.279  30.515  30.005  1.00  0.00     0.037 A 
ATOM     62  C   UNL A   1      46.002  29.519  27.113  1.00  0.00     0.049 A 
ATOM     63  C   UNL A   1      41.558  31.291  29.978  1.00  0.00     0.074 A 
ATOM     64  C   UNL A   1      47.093  30.372  27.072  1.00  0.00     0.029 A 
ATOM     65  N   UNL A   1      45.051  30.134  27.914  1.00  0.00    -0.354 N 
ATOM     66  N   UNL A   1      42.671  31.025  29.343  1.00  0.00    -0.248 NA
ATOM     67  C   UNL A   1      41.599  32.518  30.783  1.00  0.00     0.031 C 
ATOM     68  C   UNL A   1      46.834  31.460  27.911  1.00  0.00     0.029 A 
ATOM     69  C   UNL A   1      45.545  31.336  28.398  1.00  0.00     0.049 A 
ATOM     70  H   UNL A   1      44.158  29.770  28.109  1.00  0.00     0.167 HD
ATOM     71  C   UNL A   1      43.535  32.067  29.644  1.00  0.00     0.074 A 
ATOM     72  C   UNL A   1      42.807  32.979  30.502  1.00  0.00     0.031 C 
ATOM     73  C   UNL A   1      44.816  32.248  29.243  1.00  0.00     0.037 A 
BRANCH  60  74
ATOM     74  C   UNL A   1      47.005  27.703  25.678  1.00  0.00     0.064 A 
ATOM     75  C   UNL A   1      47.136  27.843  24.290  1.00  0.00     0.173 A 
ATOM     76  C   UNL A   1      48.063  27.083  26.369  1.00  0.00     0.173 A 
ATOM     77  F   UNL A   1      46.162  28.425  23.574  1.00  0.00    -0.203 F 
ATOM     78  C   UNL A   1      48.261  27.358  23.621  1.00  0.00     0.198 A 
ATOM     79  C   UNL A   1      49.202  26.636  25.703  1.00  0.00     0.198 A 
ATOM     80  F   UNL A   1      48.005  26.932  27.701  1.00  0.00    -0.203 F 
ATOM     81  F   UNL A   1      48.339  27.459  22.286  1.00  0.00    -0.200 F 
ATOM     82  C   UNL A   1      49.296  26.764  24.327  1.00  0.00     0.200 A 
ATOM     83  F   UNL A   1      50.209  26.086  26.396  1.00  0.00    -0.200 F 
ATOM     84  F   UNL A   1      50.381  26.312  23.684  1.00  0.00    -0.200 F 
ENDBRANCH  60  74
BRANCH  61  85
ATOM     85  C   UNL A   1      39.137  30.954  30.862  1.00  0.00     0.064 A 
ATOM     86  C   UNL A   1      39.032  30.544  32.198  1.00  0.00     0.173 A 
ATOM     87  C   UNL A   1      38.121  31.787  30.360  1.00  0.00     0.173 A 
ATOM     88  F   UNL A   1      39.955  29.724  32.721  1.00  0.00    -0.203 F 
ATOM     89  C   UNL A   1      37.951  30.934  32.988  1.00  0.00     0.198 A 
ATOM     90  C   UNL A   1      37.073  32.221  31.166  1.00  0.00     0.198 A 
ATOM     91  F   UNL A   1      38.165  32.212  29.088  1.00  0.00    -0.203 F 
ATOM     92  F   UNL A   1      37.844  30.474  34.242  1.00  0.00    -0.200 F 
ATOM     93  C   UNL A   1      36.981  31.782  32.477  1.00  0.00     0.200 A 
ATOM     94  F   UNL A   1      36.156  33.064  30.673  1.00  0.00    -0.200 F 
ATOM     95  F   UNL A   1      35.952  32.168  33.243  1.00  0.00    -0.200 F 
ENDBRANCH  61  85
BRANCH  73  96
ATOM     96  C   UNL A   1      45.484  33.525  29.661  1.00  0.00     0.064 A 
ATOM     97  C   UNL A   1      45.407  34.697  28.892  1.00  0.00     0.173 A 
ATOM     98  C   UNL A   1      46.226  33.571  30.852  1.00  0.00     0.173 A 
ATOM     99  F   UNL A   1      44.727  34.702  27.736  1.00  0.00    -0.203 F 
ATOM    100  C   UNL A   1      46.090  35.849  29.274  1.00  0.00     0.198 A 
ATOM    101  C   UNL A   1      46.867  34.737  31.254  1.00  0.00     0.198 A 
ATOM    102  F   UNL A   1      46.330  32.481  31.626  1.00  0.00    -0.203 F 
ATOM    103  F   UNL A   1      46.070  36.929  28.481  1.00  0.00    -0.200 F 
ATOM    104  C   UNL A   1      46.812  35.870  30.458  1.00  0.00     0.200 A 
ATOM    105  F   UNL A   1      47.549  34.760  32.407  1.00  0.00    -0.200 F 
ATOM    106  F   UNL A   1      47.467  36.980  30.824  1.00  0.00    -0.200 F 
ENDBRANCH  73  96
ENDBRANCH  47  48
ENDBRANCH  40  42
ENDBRANCH  39  40
ENDBRANCH  38  39
ENDBRANCH  37  38
ENDBRANCH   1  37
TORSDOF 17
ENDMDL
MODEL 3
REMARK VINA RESULT:     -13.5      1.219      2.256
REMARK SMILES COc1ccccc1C(=O)N/C(=C/c1ccc2c(c1)OCO2)C(=O)Nc1ccc(C(=O)OCCOC(=O)c2ccc(-c3c4nc(c(-c5c(F)c(F)c(F)c(F)c5F)c5ccc([nH]5)c(-c5c(F)c(F)c(F)c(F)c5F)c5nc(c(-c6c(F)c(F)c(F)c(F)c6F)c6ccc3[nH]6)C=C5)C=C4)cc2)cc1
REMARK SMILES IDX 32 1 30 2 31 3 29 4 26 5 27 6 102 7 28 8 101 9 25 10 23 11
REMARK SMILES IDX 24 12 12 14 13 15 11 16 9 17 10 18 8 20 3 21 4 22 5 23 7 24
REMARK SMILES IDX 6 25 2 26 1 27 14 28 15 29 19 30 16 31 18 32 17 33 20 34
REMARK SMILES IDX 22 35 21 36 33 37 34 38 35 39 36 40 37 41 38 42 39 43 100 44
REMARK SMILES IDX 40 45 99 46 41 47 42 48 43 49 93 50 44 51 98 52 92 53 94 54
REMARK SMILES IDX 45 55 97 56 91 57 90 58 46 60 78 61 58 62 77 63 59 64 62 65
REMARK SMILES IDX 76 66 95 67 60 68 61 69 75 71 96 72 63 73 47 74 48 75 56 76
REMARK SMILES IDX 49 77 50 78 54 79 57 80 51 81 52 82 55 83 53 84 79 85 80 86
REMARK SMILES IDX 88 87 81 88 82 89 86 90 89 91 83 92 84 93 87 94 85 95 64 96
REMARK SMILES IDX 65 97 73 98 66 99 67 100 71 101 74 102 68 103 69 104 72 105
REMARK SMILES IDX 70 106
REMARK H PARENT 25 13 11 19 94 59 62 70
REMARK Flexibility Score: inf
ROOT
ATOM      1  O   UNL A   1      42.033  20.277  25.664  1.00  0.00    -0.458 OA
ENDROOT
BRANCH   1   2
ATOM      2  C   UNL A   1      41.127  20.099  26.652  1.00  0.00     0.338 C 
ATOM      3  O   UNL A   1      41.283  19.549  27.725  1.00  0.00    -0.246 OA
BRANCH   2   4
ATOM      4  C   UNL A   1      39.877  20.683  26.189  1.00  0.00     0.060 A 
ATOM      5  C   UNL A   1      36.715  22.651  25.127  1.00  0.00     0.041 A 
ATOM      6  C   UNL A   1      36.964  21.144  24.761  1.00  0.00     0.027 A 
ATOM      7  C   UNL A   1      37.794  23.072  26.078  1.00  0.00     0.027 A 
ATOM      8  C   UNL A   1      38.621  20.045  25.276  1.00  0.00     0.018 A 
ATOM      9  C   UNL A   1      39.493  22.181  26.603  1.00  0.00     0.018 A 
BRANCH   5  10
ATOM     10  N   UNL A   1      36.339  23.738  24.287  1.00  0.00    -0.321 N 
ATOM     11  C   UNL A   1      35.758  23.325  23.093  1.00  0.00     0.272 C 
ATOM     12  O   UNL A   1      36.543  22.702  22.371  1.00  0.00    -0.267 OA
ATOM     13  H   UNL A   1      36.476  24.683  24.526  1.00  0.00     0.170 HD
BRANCH  11  14
ATOM     14  C   UNL A   1      34.191  23.091  22.900  1.00  0.00     0.108 C 
ATOM     15  C   UNL A   1      33.204  24.041  22.689  1.00  0.00     0.040 C 
BRANCH  14  16
ATOM     16  N   UNL A   1      33.670  21.818  23.130  1.00  0.00    -0.317 N 
ATOM     17  C   UNL A   1      33.149  21.086  24.173  1.00  0.00     0.259 C 
ATOM     18  O   UNL A   1      32.913  19.896  23.940  1.00  0.00    -0.269 OA
ATOM     19  H   UNL A   1      33.676  21.286  22.303  1.00  0.00     0.170 HD
BRANCH  17  20
ATOM     20  C   UNL A   1      32.930  21.578  25.547  1.00  0.00     0.082 A 
ATOM     21  C   UNL A   1      32.085  22.597  25.959  1.00  0.00     0.131 A 
ATOM     22  C   UNL A   1      32.422  23.272  27.146  1.00  0.00     0.047 A 
ATOM     23  C   UNL A   1      33.342  22.747  28.048  1.00  0.00     0.004 A 
ATOM     24  C   UNL A   1      33.716  20.938  26.529  1.00  0.00     0.018 A 
ATOM     25  C   UNL A   1      33.888  21.500  27.793  1.00  0.00     0.001 A 
BRANCH  21  26
ATOM     26  O   UNL A   1      30.920  23.063  25.422  1.00  0.00    -0.496 OA
ATOM     27  C   UNL A   1      30.650  24.440  25.222  1.00  0.00     0.278 C 
ENDBRANCH  21  26
ENDBRANCH  17  20
ENDBRANCH  14  16
BRANCH  15  28
ATOM     28  C   UNL A   1      33.330  25.528  22.312  1.00  0.00    -0.019 A 
ATOM     29  C   UNL A   1      31.925  26.281  21.342  1.00  0.00     0.012 A 
ATOM     30  C   UNL A   1      33.989  26.215  23.855  1.00  0.00     0.058 A 
ATOM     31  C   UNL A   1      30.910  27.671  22.002  1.00  0.00     0.051 A 
ATOM     32  C   UNL A   1      33.090  27.535  24.524  1.00  0.00     0.166 A 
ATOM     33  C   UNL A   1      31.417  28.301  23.600  1.00  0.00     0.165 A 
ATOM     34  O   UNL A   1      33.205  28.318  26.180  1.00  0.00    -0.454 OA
ATOM     35  O   UNL A   1      30.653  29.467  24.789  1.00  0.00    -0.454 OA
ATOM     36  C   UNL A   1      31.724  29.527  26.394  1.00  0.00     0.468 C 
ENDBRANCH  15  28
ENDBRANCH  11  14
ENDBRANCH   5  10
ENDBRANCH   2   4
ENDBRANCH   1   2
BRANCH   1  37
ATOM     37  C   UNL A   1      43.289  20.860  26.040  1.00  0.00     0.275 C 
BRANCH  37  38
ATOM     38  C   UNL A   1      43.730  21.866  24.977  1.00  0.00     0.275 C 
BRANCH  38  39
ATOM     39  O   UNL A   1      42.754  22.920  24.839  1.00  0.00    -0.458 OA
BRANCH  39  40
ATOM     40  C   UNL A   1      43.221  24.166  25.085  1.00  0.00     0.338 C 
ATOM     41  O   UNL A   1      44.235  24.676  24.638  1.00  0.00    -0.246 OA
BRANCH  40  42
ATOM     42  C   UNL A   1      42.271  24.946  25.900  1.00  0.00     0.060 A 
ATOM     43  C   UNL A   1      42.139  26.288  25.622  1.00  0.00     0.016 A 
ATOM     44  C   UNL A   1      41.801  24.468  27.118  1.00  0.00     0.016 A 
ATOM     45  C   UNL A   1      41.818  27.167  26.651  1.00  0.00     0.010 A 
ATOM     46  C   UNL A   1      41.283  25.362  28.079  1.00  0.00     0.010 A 
ATOM     47  C   UNL A   1      41.394  26.754  27.920  1.00  0.00    -0.014 A 
BRANCH  47  48
ATOM     48  C   UNL A   1      41.179  27.751  29.048  1.00  0.00     0.031 A 
ATOM     49  C   UNL A   1      42.092  27.763  30.273  1.00  0.00     0.074 A 
ATOM     50  C   UNL A   1      40.225  28.716  29.000  1.00  0.00     0.049 A 
ATOM     51  N   UNL A   1      41.880  28.280  31.462  1.00  0.00    -0.248 NA
ATOM     52  C   UNL A   1      43.400  27.096  30.160  1.00  0.00     0.031 C 
ATOM     53  C   UNL A   1      39.298  28.970  27.894  1.00  0.00     0.029 A 
ATOM     54  N   UNL A   1      39.876  29.695  29.913  1.00  0.00    -0.354 N 
ATOM     55  C   UNL A   1      42.956  27.891  32.258  1.00  0.00     0.074 A 
ATOM     56  C   UNL A   1      43.836  27.115  31.413  1.00  0.00     0.031 C 
ATOM     57  C   UNL A   1      38.593  30.080  28.126  1.00  0.00     0.029 A 
ATOM     58  C   UNL A   1      38.805  30.463  29.507  1.00  0.00     0.049 A 
ATOM     59  H   UNL A   1      40.345  29.829  30.769  1.00  0.00     0.167 HD
ATOM     60  C   UNL A   1      43.178  28.144  33.574  1.00  0.00     0.037 A 
ATOM     61  C   UNL A   1      37.965  31.277  30.173  1.00  0.00     0.037 A 
ATOM     62  C   UNL A   1      42.348  29.004  34.384  1.00  0.00     0.049 A 
ATOM     63  C   UNL A   1      38.161  31.466  31.644  1.00  0.00     0.074 A 
ATOM     64  C   UNL A   1      42.495  29.338  35.721  1.00  0.00     0.029 A 
ATOM     65  N   UNL A   1      41.228  29.684  33.929  1.00  0.00    -0.354 N 
ATOM     66  N   UNL A   1      39.097  30.982  32.420  1.00  0.00    -0.248 NA
ATOM     67  C   UNL A   1      37.167  32.294  32.337  1.00  0.00     0.031 C 
ATOM     68  C   UNL A   1      41.420  30.152  36.092  1.00  0.00     0.029 A 
ATOM     69  C   UNL A   1      40.657  30.406  34.966  1.00  0.00     0.049 A 
ATOM     70  H   UNL A   1      40.888  29.657  33.005  1.00  0.00     0.167 HD
ATOM     71  C   UNL A   1      38.825  31.472  33.688  1.00  0.00     0.074 A 
ATOM     72  C   UNL A   1      37.648  32.308  33.570  1.00  0.00     0.031 C 
ATOM     73  C   UNL A   1      39.493  31.246  34.845  1.00  0.00     0.037 A 
BRANCH  60  74
ATOM     74  C   UNL A   1      44.318  27.434  34.264  1.00  0.00     0.064 A 
ATOM     75  C   UNL A   1      45.602  27.983  34.385  1.00  0.00     0.173 A 
ATOM     76  C   UNL A   1      44.086  26.190  34.881  1.00  0.00     0.173 A 
ATOM     77  F   UNL A   1      45.888  29.166  33.818  1.00  0.00    -0.203 F 
ATOM     78  C   UNL A   1      46.614  27.304  35.065  1.00  0.00     0.198 A 
ATOM     79  C   UNL A   1      45.087  25.535  35.593  1.00  0.00     0.198 A 
ATOM     80  F   UNL A   1      42.874  25.619  34.815  1.00  0.00    -0.203 F 
ATOM     81  F   UNL A   1      47.848  27.827  35.122  1.00  0.00    -0.200 F 
ATOM     82  C   UNL A   1      46.355  26.087  35.676  1.00  0.00     0.200 A 
ATOM     83  F   UNL A   1      44.821  24.371  36.203  1.00  0.00    -0.200 F 
ATOM     84  F   UNL A   1      47.325  25.445  36.341  1.00  0.00    -0.200 F 
ENDBRANCH  60  74
BRANCH  61  85
ATOM     85  C   UNL A   1      36.778  31.860  29.478  1.00  0.00     0.064 A 
ATOM     86  C   UNL A   1      35.697  31.058  29.090  1.00  0.00     0.173 A 
ATOM     87  C   UNL A   1      36.704  33.233  29.182  1.00  0.00     0.173 A 
ATOM     88  F   UNL A   1      35.727  29.737  29.320  1.00  0.00    -0.203 F 
ATOM     89  C   UNL A   1      34.601  31.601  28.420  1.00  0.00     0.198 A 
ATOM     90  C   UNL A   1      35.585  33.783  28.562  1.00  0.00     0.198 A 
ATOM     91  F   UNL A   1      37.708  34.053  29.526  1.00  0.00    -0.203 F 
ATOM     92  F   UNL A   1      33.612  30.799  28.003  1.00  0.00    -0.200 F 
ATOM     93  C   UNL A   1      34.540  32.963  28.168  1.00  0.00     0.200 A 
ATOM     94  F   UNL A   1      35.520  35.104  28.350  1.00  0.00    -0.200 F 
ATOM     95  F   UNL A   1      33.479  33.485  27.538  1.00  0.00    -0.200 F 
ENDBRANCH  61  85
BRANCH  73  96
ATOM     96  C   UNL A   1      39.014  31.985  36.060  1.00  0.00     0.064 A 
ATOM     97  C   UNL A   1      39.391  33.310  36.327  1.00  0.00     0.173 A 
ATOM     98  C   UNL A   1      38.169  31.346  36.982  1.00  0.00     0.173 A 
ATOM     99  F   UNL A   1      40.213  33.961  35.491  1.00  0.00    -0.203 F 
ATOM    100  C   UNL A   1      38.982  33.948  37.496  1.00  0.00     0.198 A 
ATOM    101  C   UNL A   1      37.723  32.003  38.123  1.00  0.00     0.198 A 
ATOM    102  F   UNL A   1      37.775  30.081  36.773  1.00  0.00    -0.203 F 
ATOM    103  F   UNL A   1      39.423  35.184  37.770  1.00  0.00    -0.200 F 
ATOM    104  C   UNL A   1      38.143  33.297  38.387  1.00  0.00     0.200 A 
ATOM    105  F   UNL A   1      36.898  31.378  38.974  1.00  0.00    -0.200 F 
ATOM    106  F   UNL A   1      37.749  33.913  39.510  1.00  0.00    -0.200 F 
ENDBRANCH  73  96
ENDBRANCH  47  48
ENDBRANCH  40  42
ENDBRANCH  39  40
ENDBRANCH  38  39
ENDBRANCH  37  38
ENDBRANCH   1  37
TORSDOF 17
ENDMDL
