MODEL 1
REMARK VINA RESULT:     -10.8      0.000      0.000
REMARK SMILES O=C(CCC(=O)OCCOC(=O)c1ccc(-c2c3nc(c(-c4c(F)c(F)c(F)c(F)c4F)c4ccc([nH]4)c(-c4c(F)c(F)c(F)c(F)c4F)c4nc(c(-c5c(F)c(F)c(F)c(F)c5F)c5ccc2[nH]5)C=C4)C=C3)cc1)Nc1ccc(C(=O)N2CCOCC2)cc1
REMARK SMILES IDX 8 1 7 2 5 3 6 4 4 5 3 6 2 7 1 8 76 9 77 11 78 12 90 13 79 14
REMARK SMILES IDX 89 15 80 16 81 17 82 18 83 19 84 20 88 21 85 22 87 23 86 24
REMARK SMILES IDX 9 25 10 26 11 27 12 28 13 29 14 30 75 31 15 32 74 33 16 34
REMARK SMILES IDX 17 35 18 36 68 37 19 38 73 39 67 40 69 41 20 42 72 43 66 44
REMARK SMILES IDX 65 45 21 47 53 48 33 49 52 50 34 51 37 52 51 53 70 54 35 55
REMARK SMILES IDX 36 56 50 58 71 59 38 60 22 61 23 62 31 63 24 64 25 65 29 66
REMARK SMILES IDX 32 67 26 68 27 69 30 70 28 71 54 72 55 73 63 74 56 75 57 76
REMARK SMILES IDX 61 77 64 78 58 79 59 80 62 81 60 82 39 83 40 84 48 85 41 86
REMARK SMILES IDX 42 87 46 88 49 89 43 90 44 91 47 92 45 93
REMARK H PARENT 76 10 69 46 37 57
REMARK Flexibility Score: inf
ROOT
ATOM      1  C   UNL A   1      33.919  33.983  28.732  1.00  0.00     0.274 C 
ENDROOT
BRANCH   1   2
ATOM      2  O   UNL A   1      33.261  34.467  29.927  1.00  0.00    -0.462 OA
BRANCH   2   3
ATOM      3  C   UNL A   1      32.829  35.755  29.954  1.00  0.00     0.306 C 
ATOM      4  O   UNL A   1      32.602  36.430  28.959  1.00  0.00    -0.252 OA
BRANCH   3   5
ATOM      5  C   UNL A   1      32.710  36.290  31.372  1.00  0.00     0.132 C 
BRANCH   5   6
ATOM      6  C   UNL A   1      34.006  36.758  32.033  1.00  0.00     0.112 C 
BRANCH   6   7
ATOM      7  C   UNL A   1      34.716  35.667  32.813  1.00  0.00     0.224 C 
ATOM      8  O   UNL A   1      34.723  35.675  34.041  1.00  0.00    -0.275 OA
ATOM      9  N   UNL A   1      35.351  34.753  32.002  1.00  0.00    -0.326 N 
ATOM     10  H   UNL A   1      35.207  34.856  31.033  1.00  0.00     0.169 HD
BRANCH   9  11
ATOM     11  C   UNL A   1      36.178  33.697  32.395  1.00  0.00     0.041 A 
ATOM     12  C   UNL A   1      37.482  34.008  32.802  1.00  0.00     0.027 A 
ATOM     13  C   UNL A   1      35.742  32.383  32.434  1.00  0.00     0.027 A 
ATOM     14  C   UNL A   1      38.327  33.014  33.301  1.00  0.00     0.016 A 
ATOM     15  C   UNL A   1      36.585  31.392  32.929  1.00  0.00     0.016 A 
ATOM     16  C   UNL A   1      37.881  31.692  33.366  1.00  0.00     0.040 A 
BRANCH  16  17
ATOM     17  C   UNL A   1      38.704  30.694  34.105  1.00  0.00     0.254 C 
ATOM     18  O   UNL A   1      39.225  29.776  33.477  1.00  0.00    -0.269 OA
ATOM     19  N   UNL A   1      39.013  30.954  35.426  1.00  0.00    -0.334 N 
ATOM     20  C   UNL A   1      38.063  31.287  36.490  1.00  0.00     0.148 C 
ATOM     21  C   UNL A   1      40.392  30.806  35.866  1.00  0.00     0.148 C 
ATOM     22  C   UNL A   1      38.568  32.461  37.347  1.00  0.00     0.181 C 
ATOM     23  C   UNL A   1      40.792  32.092  36.592  1.00  0.00     0.181 C 
ATOM     24  O   UNL A   1      39.943  32.301  37.736  1.00  0.00    -0.378 OA
ENDBRANCH  16  17
ENDBRANCH   9  11
ENDBRANCH   6   7
ENDBRANCH   5   6
ENDBRANCH   3   5
ENDBRANCH   2   3
ENDBRANCH   1   2
BRANCH   1  25
ATOM     25  C   UNL A   1      34.593  32.635  28.997  1.00  0.00     0.275 C 
BRANCH  25  26
ATOM     26  O   UNL A   1      34.750  31.916  27.763  1.00  0.00    -0.458 OA
BRANCH  26  27
ATOM     27  C   UNL A   1      34.727  30.567  27.880  1.00  0.00     0.338 C 
ATOM     28  O   UNL A   1      33.819  29.819  27.581  1.00  0.00    -0.246 OA
BRANCH  27  29
ATOM     29  C   UNL A   1      36.075  30.120  28.262  1.00  0.00     0.060 A 
ATOM     30  C   UNL A   1      37.093  30.157  27.303  1.00  0.00     0.016 A 
ATOM     31  C   UNL A   1      36.330  29.680  29.558  1.00  0.00     0.016 A 
ATOM     32  C   UNL A   1      38.385  29.775  27.646  1.00  0.00     0.010 A 
ATOM     33  C   UNL A   1      37.627  29.300  29.902  1.00  0.00     0.010 A 
ATOM     34  C   UNL A   1      38.661  29.351  28.951  1.00  0.00    -0.014 A 
BRANCH  34  35
ATOM     35  C   UNL A   1      40.032  28.940  29.327  1.00  0.00     0.031 A 
ATOM     36  C   UNL A   1      40.897  29.879  30.109  1.00  0.00     0.074 A 
ATOM     37  C   UNL A   1      40.499  27.742  28.934  1.00  0.00     0.049 A 
ATOM     38  N   UNL A   1      42.163  29.775  30.422  1.00  0.00    -0.248 NA
ATOM     39  C   UNL A   1      40.253  31.109  30.595  1.00  0.00     0.031 C 
ATOM     40  C   UNL A   1      39.731  26.739  28.196  1.00  0.00     0.029 A 
ATOM     41  N   UNL A   1      41.738  27.173  29.082  1.00  0.00    -0.354 N 
ATOM     42  C   UNL A   1      42.472  30.932  31.124  1.00  0.00     0.074 A 
ATOM     43  C   UNL A   1      41.270  31.737  31.168  1.00  0.00     0.031 C 
ATOM     44  C   UNL A   1      40.520  25.682  27.944  1.00  0.00     0.029 A 
ATOM     45  C   UNL A   1      41.860  25.958  28.454  1.00  0.00     0.049 A 
ATOM     46  H   UNL A   1      42.470  27.596  29.589  1.00  0.00     0.167 HD
ATOM     47  C   UNL A   1      43.656  31.283  31.681  1.00  0.00     0.037 A 
ATOM     48  C   UNL A   1      42.942  25.178  28.275  1.00  0.00     0.037 A 
ATOM     49  C   UNL A   1      44.842  30.467  31.627  1.00  0.00     0.049 A 
ATOM     50  C   UNL A   1      44.264  25.623  28.844  1.00  0.00     0.074 A 
ATOM     51  C   UNL A   1      46.085  30.715  32.183  1.00  0.00     0.029 A 
ATOM     52  N   UNL A   1      44.934  29.248  30.970  1.00  0.00    -0.354 N 
ATOM     53  N   UNL A   1      44.548  26.706  29.528  1.00  0.00    -0.248 NA
ATOM     54  C   UNL A   1      45.415  24.741  28.614  1.00  0.00     0.031 C 
ATOM     55  C   UNL A   1      46.945  29.679  31.808  1.00  0.00     0.029 A 
ATOM     56  C   UNL A   1      46.223  28.749  31.075  1.00  0.00     0.049 A 
ATOM     57  H   UNL A   1      44.193  28.803  30.498  1.00  0.00     0.167 HD
ATOM     58  C   UNL A   1      45.900  26.624  29.831  1.00  0.00     0.074 A 
ATOM     59  C   UNL A   1      46.375  25.376  29.271  1.00  0.00     0.031 C 
ATOM     60  C   UNL A   1      46.677  27.502  30.512  1.00  0.00     0.037 A 
BRANCH  47  61
ATOM     61  C   UNL A   1      43.735  32.620  32.360  1.00  0.00     0.064 A 
ATOM     62  C   UNL A   1      43.563  32.762  33.744  1.00  0.00     0.173 A 
ATOM     63  C   UNL A   1      44.011  33.776  31.613  1.00  0.00     0.173 A 
ATOM     64  F   UNL A   1      43.285  31.692  34.505  1.00  0.00    -0.203 F 
ATOM     65  C   UNL A   1      43.634  34.014  34.351  1.00  0.00     0.198 A 
ATOM     66  C   UNL A   1      44.114  35.021  32.227  1.00  0.00     0.198 A 
ATOM     67  F   UNL A   1      44.188  33.698  30.284  1.00  0.00    -0.203 F 
ATOM     68  F   UNL A   1      43.411  34.131  35.667  1.00  0.00    -0.200 F 
ATOM     69  C   UNL A   1      43.915  35.141  33.594  1.00  0.00     0.200 A 
ATOM     70  F   UNL A   1      44.400  36.106  31.495  1.00  0.00    -0.200 F 
ATOM     71  F   UNL A   1      43.987  36.343  34.180  1.00  0.00    -0.200 F 
ENDBRANCH  47  61
BRANCH  48  72
ATOM     72  C   UNL A   1      42.826  23.913  27.503  1.00  0.00     0.064 A 
ATOM     73  C   UNL A   1      42.382  22.732  28.111  1.00  0.00     0.173 A 
ATOM     74  C   UNL A   1      43.159  23.859  26.141  1.00  0.00     0.173 A 
ATOM     75  F   UNL A   1      42.073  22.725  29.416  1.00  0.00    -0.203 F 
ATOM     76  C   UNL A   1      42.292  21.541  27.391  1.00  0.00     0.198 A 
ATOM     77  C   UNL A   1      43.037  22.676  25.414  1.00  0.00     0.198 A 
ATOM     78  F   UNL A   1      43.589  24.962  25.509  1.00  0.00    -0.203 F 
ATOM     79  F   UNL A   1      41.910  20.415  28.009  1.00  0.00    -0.200 F 
ATOM     80  C   UNL A   1      42.612  21.516  26.042  1.00  0.00     0.200 A 
ATOM     81  F   UNL A   1      43.333  22.662  24.107  1.00  0.00    -0.200 F 
ATOM     82  F   UNL A   1      42.519  20.373  25.349  1.00  0.00    -0.200 F 
ENDBRANCH  48  72
BRANCH  60  83
ATOM     83  C   UNL A   1      48.118  27.130  30.719  1.00  0.00     0.064 A 
ATOM     84  C   UNL A   1      48.518  26.277  31.757  1.00  0.00     0.173 A 
ATOM     85  C   UNL A   1      49.104  27.597  29.836  1.00  0.00     0.173 A 
ATOM     86  F   UNL A   1      47.619  25.815  32.638  1.00  0.00    -0.203 F 
ATOM     87  C   UNL A   1      49.856  25.923  31.917  1.00  0.00     0.198 A 
ATOM     88  C   UNL A   1      50.435  27.213  29.978  1.00  0.00     0.198 A 
ATOM     89  F   UNL A   1      48.774  28.411  28.822  1.00  0.00    -0.203 F 
ATOM     90  F   UNL A   1      50.224  25.145  32.945  1.00  0.00    -0.200 F 
ATOM     91  C   UNL A   1      50.810  26.383  31.022  1.00  0.00     0.200 A 
ATOM     92  F   UNL A   1      51.352  27.647  29.102  1.00  0.00    -0.200 F 
ATOM     93  F   UNL A   1      52.096  26.032  31.171  1.00  0.00    -0.200 F 
ENDBRANCH  60  83
ENDBRANCH  34  35
ENDBRANCH  27  29
ENDBRANCH  26  27
ENDBRANCH  25  26
ENDBRANCH   1  25
TORSDOF 15
ENDMDL
MODEL 2
REMARK VINA RESULT:     -10.8      4.147      8.311
REMARK SMILES O=C(CCC(=O)OCCOC(=O)c1ccc(-c2c3nc(c(-c4c(F)c(F)c(F)c(F)c4F)c4ccc([nH]4)c(-c4c(F)c(F)c(F)c(F)c4F)c4nc(c(-c5c(F)c(F)c(F)c(F)c5F)c5ccc2[nH]5)C=C4)C=C3)cc1)Nc1ccc(C(=O)N2CCOCC2)cc1
REMARK SMILES IDX 8 1 7 2 5 3 6 4 4 5 3 6 2 7 1 8 76 9 77 11 78 12 90 13 79 14
REMARK SMILES IDX 89 15 80 16 81 17 82 18 83 19 84 20 88 21 85 22 87 23 86 24
REMARK SMILES IDX 9 25 10 26 11 27 12 28 13 29 14 30 75 31 15 32 74 33 16 34
REMARK SMILES IDX 17 35 18 36 68 37 19 38 73 39 67 40 69 41 20 42 72 43 66 44
REMARK SMILES IDX 65 45 21 47 53 48 33 49 52 50 34 51 37 52 51 53 70 54 35 55
REMARK SMILES IDX 36 56 50 58 71 59 38 60 22 61 23 62 31 63 24 64 25 65 29 66
REMARK SMILES IDX 32 67 26 68 27 69 30 70 28 71 54 72 55 73 63 74 56 75 57 76
REMARK SMILES IDX 61 77 64 78 58 79 59 80 62 81 60 82 39 83 40 84 48 85 41 86
REMARK SMILES IDX 42 87 46 88 49 89 43 90 44 91 47 92 45 93
REMARK H PARENT 76 10 69 46 37 57
REMARK Flexibility Score: inf
ROOT
ATOM      1  C   UNL A   1      33.611  35.855  28.891  1.00  0.00     0.274 C 
ENDROOT
BRANCH   1   2
ATOM      2  O   UNL A   1      33.534  34.416  29.029  1.00  0.00    -0.462 OA
BRANCH   2   3
ATOM      3  C   UNL A   1      34.685  33.720  29.218  1.00  0.00     0.306 C 
ATOM      4  O   UNL A   1      35.780  34.232  29.409  1.00  0.00    -0.252 OA
BRANCH   3   5
ATOM      5  C   UNL A   1      34.473  32.219  29.111  1.00  0.00     0.132 C 
BRANCH   5   6
ATOM      6  C   UNL A   1      35.526  31.438  28.326  1.00  0.00     0.112 C 
BRANCH   6   7
ATOM      7  C   UNL A   1      34.972  30.211  27.624  1.00  0.00     0.224 C 
ATOM      8  O   UNL A   1      35.724  29.359  27.159  1.00  0.00    -0.275 OA
ATOM      9  N   UNL A   1      33.597  30.214  27.544  1.00  0.00    -0.326 N 
ATOM     10  H   UNL A   1      33.134  30.945  28.013  1.00  0.00     0.169 HD
BRANCH   9  11
ATOM     11  C   UNL A   1      32.782  29.297  26.873  1.00  0.00     0.041 A 
ATOM     12  C   UNL A   1      32.686  29.410  25.480  1.00  0.00     0.027 A 
ATOM     13  C   UNL A   1      32.115  28.274  27.527  1.00  0.00     0.027 A 
ATOM     14  C   UNL A   1      31.970  28.468  24.738  1.00  0.00     0.016 A 
ATOM     15  C   UNL A   1      31.399  27.337  26.787  1.00  0.00     0.016 A 
ATOM     16  C   UNL A   1      31.317  27.421  25.392  1.00  0.00     0.040 A 
BRANCH  16  17
ATOM     17  C   UNL A   1      30.755  26.307  24.576  1.00  0.00     0.254 C 
ATOM     18  O   UNL A   1      29.535  26.212  24.467  1.00  0.00    -0.269 OA
ATOM     19  N   UNL A   1      31.625  25.552  23.815  1.00  0.00    -0.334 N 
ATOM     20  C   UNL A   1      32.839  24.885  24.292  1.00  0.00     0.148 C 
ATOM     21  C   UNL A   1      31.296  25.295  22.422  1.00  0.00     0.148 C 
ATOM     22  C   UNL A   1      34.018  25.106  23.327  1.00  0.00     0.181 C 
ATOM     23  C   UNL A   1      32.514  25.674  21.576  1.00  0.00     0.181 C 
ATOM     24  O   UNL A   1      33.651  24.877  21.955  1.00  0.00    -0.378 OA
ENDBRANCH  16  17
ENDBRANCH   9  11
ENDBRANCH   6   7
ENDBRANCH   5   6
ENDBRANCH   3   5
ENDBRANCH   2   3
ENDBRANCH   1   2
BRANCH   1  25
ATOM     25  C   UNL A   1      32.674  36.542  29.887  1.00  0.00     0.275 C 
BRANCH  25  26
ATOM     26  O   UNL A   1      32.299  35.618  30.922  1.00  0.00    -0.458 OA
BRANCH  26  27
ATOM     27  C   UNL A   1      32.687  35.969  32.170  1.00  0.00     0.338 C 
ATOM     28  O   UNL A   1      32.112  36.713  32.936  1.00  0.00    -0.246 OA
BRANCH  27  29
ATOM     29  C   UNL A   1      33.848  35.142  32.536  1.00  0.00     0.060 A 
ATOM     30  C   UNL A   1      35.123  35.714  32.487  1.00  0.00     0.016 A 
ATOM     31  C   UNL A   1      33.672  33.819  32.935  1.00  0.00     0.016 A 
ATOM     32  C   UNL A   1      36.234  34.967  32.863  1.00  0.00     0.010 A 
ATOM     33  C   UNL A   1      34.787  33.072  33.314  1.00  0.00     0.010 A 
ATOM     34  C   UNL A   1      36.072  33.643  33.286  1.00  0.00    -0.014 A 
BRANCH  34  35
ATOM     35  C   UNL A   1      37.246  32.838  33.686  1.00  0.00     0.031 A 
ATOM     36  C   UNL A   1      37.936  33.129  34.983  1.00  0.00     0.074 A 
ATOM     37  C   UNL A   1      37.704  31.876  32.865  1.00  0.00     0.049 A 
ATOM     38  N   UNL A   1      39.053  32.640  35.456  1.00  0.00    -0.248 NA
ATOM     39  C   UNL A   1      37.285  34.113  35.862  1.00  0.00     0.031 C 
ATOM     40  C   UNL A   1      37.091  31.489  31.594  1.00  0.00     0.029 A 
ATOM     41  N   UNL A   1      38.804  31.062  32.968  1.00  0.00    -0.354 N 
ATOM     42  C   UNL A   1      39.250  33.270  36.678  1.00  0.00     0.074 A 
ATOM     43  C   UNL A   1      38.152  34.196  36.861  1.00  0.00     0.031 C 
ATOM     44  C   UNL A   1      37.830  30.522  31.029  1.00  0.00     0.029 A 
ATOM     45  C   UNL A   1      38.995  30.261  31.870  1.00  0.00     0.049 A 
ATOM     46  H   UNL A   1      39.399  31.054  33.753  1.00  0.00     0.167 HD
ATOM     47  C   UNL A   1      40.258  33.085  37.563  1.00  0.00     0.037 A 
ATOM     48  C   UNL A   1      40.017  29.441  31.559  1.00  0.00     0.037 A 
ATOM     49  C   UNL A   1      41.342  32.158  37.364  1.00  0.00     0.049 A 
ATOM     50  C   UNL A   1      41.161  29.305  32.529  1.00  0.00     0.074 A 
ATOM     51  C   UNL A   1      42.398  31.871  38.210  1.00  0.00     0.029 A 
ATOM     52  N   UNL A   1      41.512  31.372  36.232  1.00  0.00    -0.354 N 
ATOM     53  N   UNL A   1      41.333  29.883  33.694  1.00  0.00    -0.248 NA
ATOM     54  C   UNL A   1      42.255  28.406  32.140  1.00  0.00     0.031 C 
ATOM     55  C   UNL A   1      43.241  30.963  37.564  1.00  0.00     0.029 A 
ATOM     56  C   UNL A   1      42.676  30.628  36.343  1.00  0.00     0.049 A 
ATOM     57  H   UNL A   1      40.897  31.347  35.464  1.00  0.00     0.167 HD
ATOM     58  C   UNL A   1      42.537  29.402  34.188  1.00  0.00     0.074 A 
ATOM     59  C   UNL A   1      43.045  28.469  33.202  1.00  0.00     0.031 C 
ATOM     60  C   UNL A   1      43.165  29.702  35.351  1.00  0.00     0.037 A 
BRANCH  47  61
ATOM     61  C   UNL A   1      40.255  33.929  38.805  1.00  0.00     0.064 A 
ATOM     62  C   UNL A   1      40.913  35.166  38.864  1.00  0.00     0.173 A 
ATOM     63  C   UNL A   1      39.561  33.502  39.948  1.00  0.00     0.173 A 
ATOM     64  F   UNL A   1      41.602  35.617  37.805  1.00  0.00    -0.203 F 
ATOM     65  C   UNL A   1      40.903  35.929  40.030  1.00  0.00     0.198 A 
ATOM     66  C   UNL A   1      39.525  34.282  41.100  1.00  0.00     0.198 A 
ATOM     67  F   UNL A   1      38.911  32.328  39.946  1.00  0.00    -0.203 F 
ATOM     68  F   UNL A   1      41.585  37.081  40.080  1.00  0.00    -0.200 F 
ATOM     69  C   UNL A   1      40.204  35.490  41.144  1.00  0.00     0.200 A 
ATOM     70  F   UNL A   1      38.837  33.862  42.171  1.00  0.00    -0.200 F 
ATOM     71  F   UNL A   1      40.191  36.227  42.263  1.00  0.00    -0.200 F 
ENDBRANCH  47  61
BRANCH  48  72
ATOM     72  C   UNL A   1      40.015  28.709  30.266  1.00  0.00     0.064 A 
ATOM     73  C   UNL A   1      39.420  27.447  30.148  1.00  0.00     0.173 A 
ATOM     74  C   UNL A   1      40.611  29.258  29.119  1.00  0.00     0.173 A 
ATOM     75  F   UNL A   1      38.858  26.869  31.220  1.00  0.00    -0.203 F 
ATOM     76  C   UNL A   1      39.437  26.752  28.939  1.00  0.00     0.198 A 
ATOM     77  C   UNL A   1      40.598  28.578  27.903  1.00  0.00     0.198 A 
ATOM     78  F   UNL A   1      41.195  30.465  29.176  1.00  0.00    -0.203 F 
ATOM     79  F   UNL A   1      38.903  25.526  28.867  1.00  0.00    -0.200 F 
ATOM     80  C   UNL A   1      40.019  27.322  27.816  1.00  0.00     0.200 A 
ATOM     81  F   UNL A   1      41.148  29.140  26.818  1.00  0.00    -0.200 F 
ATOM     82  F   UNL A   1      40.029  26.656  26.653  1.00  0.00    -0.200 F 
ENDBRANCH  48  72
BRANCH  60  83
ATOM     83  C   UNL A   1      44.457  28.992  35.641  1.00  0.00     0.064 A 
ATOM     84  C   UNL A   1      45.696  29.531  35.267  1.00  0.00     0.173 A 
ATOM     85  C   UNL A   1      44.455  27.777  36.343  1.00  0.00     0.173 A 
ATOM     86  F   UNL A   1      45.753  30.681  34.580  1.00  0.00    -0.203 F 
ATOM     87  C   UNL A   1      46.884  28.869  35.567  1.00  0.00     0.198 A 
ATOM     88  C   UNL A   1      45.645  27.135  36.673  1.00  0.00     0.198 A 
ATOM     89  F   UNL A   1      43.296  27.220  36.730  1.00  0.00    -0.203 F 
ATOM     90  F   UNL A   1      48.055  29.378  35.159  1.00  0.00    -0.200 F 
ATOM     91  C   UNL A   1      46.858  27.678  36.277  1.00  0.00     0.200 A 
ATOM     92  F   UNL A   1      45.618  25.993  37.373  1.00  0.00    -0.200 F 
ATOM     93  F   UNL A   1      48.004  27.048  36.576  1.00  0.00    -0.200 F 
ENDBRANCH  60  83
ENDBRANCH  34  35
ENDBRANCH  27  29
ENDBRANCH  26  27
ENDBRANCH  25  26
ENDBRANCH   1  25
TORSDOF 15
ENDMDL
MODEL 3
REMARK VINA RESULT:     -10.7      5.496     11.424
REMARK SMILES O=C(CCC(=O)OCCOC(=O)c1ccc(-c2c3nc(c(-c4c(F)c(F)c(F)c(F)c4F)c4ccc([nH]4)c(-c4c(F)c(F)c(F)c(F)c4F)c4nc(c(-c5c(F)c(F)c(F)c(F)c5F)c5ccc2[nH]5)C=C4)C=C3)cc1)Nc1ccc(C(=O)N2CCOCC2)cc1
REMARK SMILES IDX 8 1 7 2 5 3 6 4 4 5 3 6 2 7 1 8 76 9 77 11 78 12 90 13 79 14
REMARK SMILES IDX 89 15 80 16 81 17 82 18 83 19 84 20 88 21 85 22 87 23 86 24
REMARK SMILES IDX 9 25 10 26 11 27 12 28 13 29 14 30 75 31 15 32 74 33 16 34
REMARK SMILES IDX 17 35 18 36 68 37 19 38 73 39 67 40 69 41 20 42 72 43 66 44
REMARK SMILES IDX 65 45 21 47 53 48 33 49 52 50 34 51 37 52 51 53 70 54 35 55
REMARK SMILES IDX 36 56 50 58 71 59 38 60 22 61 23 62 31 63 24 64 25 65 29 66
REMARK SMILES IDX 32 67 26 68 27 69 30 70 28 71 54 72 55 73 63 74 56 75 57 76
REMARK SMILES IDX 61 77 64 78 58 79 59 80 62 81 60 82 39 83 40 84 48 85 41 86
REMARK SMILES IDX 42 87 46 88 49 89 43 90 44 91 47 92 45 93
REMARK H PARENT 76 10 69 46 37 57
REMARK Flexibility Score: inf
ROOT
ATOM      1  C   UNL A   1      42.375  19.208  26.656  1.00  0.00     0.274 C 
ENDROOT
BRANCH   1   2
ATOM      2  O   UNL A   1      41.362  19.913  25.898  1.00  0.00    -0.462 OA
BRANCH   2   3
ATOM      3  C   UNL A   1      41.256  21.259  26.053  1.00  0.00     0.306 C 
ATOM      4  O   UNL A   1      41.954  22.079  25.472  1.00  0.00    -0.252 OA
BRANCH   3   5
ATOM      5  C   UNL A   1      40.201  21.637  27.079  1.00  0.00     0.132 C 
BRANCH   5   6
ATOM      6  C   UNL A   1      40.096  23.121  27.430  1.00  0.00     0.112 C 
BRANCH   6   7
ATOM      7  C   UNL A   1      38.980  23.840  26.694  1.00  0.00     0.224 C 
ATOM      8  O   UNL A   1      38.772  25.036  26.881  1.00  0.00    -0.275 OA
ATOM      9  N   UNL A   1      38.250  23.005  25.878  1.00  0.00    -0.326 N 
ATOM     10  H   UNL A   1      38.576  22.080  25.797  1.00  0.00     0.169 HD
BRANCH   9  11
ATOM     11  C   UNL A   1      37.098  23.320  25.152  1.00  0.00     0.041 A 
ATOM     12  C   UNL A   1      37.009  22.848  23.835  1.00  0.00     0.027 A 
ATOM     13  C   UNL A   1      36.043  24.033  25.697  1.00  0.00     0.027 A 
ATOM     14  C   UNL A   1      35.846  23.041  23.088  1.00  0.00     0.016 A 
ATOM     15  C   UNL A   1      34.885  24.228  24.950  1.00  0.00     0.016 A 
ATOM     16  C   UNL A   1      34.771  23.738  23.644  1.00  0.00     0.040 A 
BRANCH  16  17
ATOM     17  C   UNL A   1      33.466  23.736  22.923  1.00  0.00     0.254 C 
ATOM     18  O   UNL A   1      32.917  22.661  22.697  1.00  0.00    -0.269 OA
ATOM     19  N   UNL A   1      32.833  24.947  22.718  1.00  0.00    -0.334 N 
ATOM     20  C   UNL A   1      33.421  26.141  22.107  1.00  0.00     0.148 C 
ATOM     21  C   UNL A   1      31.420  25.063  23.044  1.00  0.00     0.148 C 
ATOM     22  C   UNL A   1      33.072  27.410  22.904  1.00  0.00     0.181 C 
ATOM     23  C   UNL A   1      31.245  26.293  23.936  1.00  0.00     0.181 C 
ATOM     24  O   UNL A   1      31.675  27.477  23.240  1.00  0.00    -0.378 OA
ENDBRANCH  16  17
ENDBRANCH   9  11
ENDBRANCH   6   7
ENDBRANCH   5   6
ENDBRANCH   3   5
ENDBRANCH   2   3
ENDBRANCH   1   2
BRANCH   1  25
ATOM     25  C   UNL A   1      43.347  18.491  25.716  1.00  0.00     0.275 C 
BRANCH  25  26
ATOM     26  O   UNL A   1      43.595  19.304  24.557  1.00  0.00    -0.458 OA
BRANCH  26  27
ATOM     27  C   UNL A   1      44.892  19.638  24.360  1.00  0.00     0.338 C 
ATOM     28  O   UNL A   1      45.745  18.978  23.806  1.00  0.00    -0.246 OA
BRANCH  27  29
ATOM     29  C   UNL A   1      45.067  21.041  24.767  1.00  0.00     0.060 A 
ATOM     30  C   UNL A   1      44.891  22.046  23.811  1.00  0.00     0.016 A 
ATOM     31  C   UNL A   1      45.391  21.356  26.085  1.00  0.00     0.016 A 
ATOM     32  C   UNL A   1      45.014  23.382  24.177  1.00  0.00     0.010 A 
ATOM     33  C   UNL A   1      45.512  22.696  26.451  1.00  0.00     0.010 A 
ATOM     34  C   UNL A   1      45.318  23.715  25.502  1.00  0.00    -0.014 A 
BRANCH  34  35
ATOM     35  C   UNL A   1      45.454  25.133  25.902  1.00  0.00     0.031 A 
ATOM     36  C   UNL A   1      46.794  25.797  25.832  1.00  0.00     0.074 A 
ATOM     37  C   UNL A   1      44.379  25.801  26.357  1.00  0.00     0.049 A 
ATOM     38  N   UNL A   1      47.158  26.978  26.260  1.00  0.00    -0.248 NA
ATOM     39  C   UNL A   1      47.875  25.020  25.206  1.00  0.00     0.031 C 
ATOM     40  C   UNL A   1      43.022  25.261  26.438  1.00  0.00     0.029 A 
ATOM     41  N   UNL A   1      44.264  27.073  26.857  1.00  0.00    -0.354 N 
ATOM     42  C   UNL A   1      48.512  27.080  25.973  1.00  0.00     0.074 A 
ATOM     43  C   UNL A   1      48.912  25.831  25.359  1.00  0.00     0.031 C 
ATOM     44  C   UNL A   1      42.212  26.191  26.968  1.00  0.00     0.029 A 
ATOM     45  C   UNL A   1      43.003  27.368  27.314  1.00  0.00     0.049 A 
ATOM     46  H   UNL A   1      45.012  27.713  26.886  1.00  0.00     0.167 HD
ATOM     47  C   UNL A   1      49.341  28.127  26.202  1.00  0.00     0.037 A 
ATOM     48  C   UNL A   1      42.549  28.449  27.976  1.00  0.00     0.037 A 
ATOM     49  C   UNL A   1      48.924  29.362  26.813  1.00  0.00     0.049 A 
ATOM     50  C   UNL A   1      43.507  29.571  28.281  1.00  0.00     0.074 A 
ATOM     51  C   UNL A   1      49.676  30.497  27.064  1.00  0.00     0.029 A 
ATOM     52  N   UNL A   1      47.642  29.621  27.277  1.00  0.00    -0.354 N 
ATOM     53  N   UNL A   1      44.781  29.675  27.987  1.00  0.00    -0.248 NA
ATOM     54  C   UNL A   1      42.965  30.724  29.011  1.00  0.00     0.031 C 
ATOM     55  C   UNL A   1      48.867  31.415  27.739  1.00  0.00     0.029 A 
ATOM     56  C   UNL A   1      47.591  30.884  27.848  1.00  0.00     0.049 A 
ATOM     57  H   UNL A   1      46.881  29.000  27.212  1.00  0.00     0.167 HD
ATOM     58  C   UNL A   1      45.187  30.910  28.473  1.00  0.00     0.074 A 
ATOM     59  C   UNL A   1      44.018  31.527  29.066  1.00  0.00     0.031 C 
ATOM     60  C   UNL A   1      46.416  31.482  28.431  1.00  0.00     0.037 A 
BRANCH  47  61
ATOM     61  C   UNL A   1      50.786  27.964  25.826  1.00  0.00     0.064 A 
ATOM     62  C   UNL A   1      51.233  28.125  24.507  1.00  0.00     0.173 A 
ATOM     63  C   UNL A   1      51.742  27.664  26.809  1.00  0.00     0.173 A 
ATOM     64  F   UNL A   1      50.361  28.400  23.525  1.00  0.00    -0.203 F 
ATOM     65  C   UNL A   1      52.578  27.962  24.181  1.00  0.00     0.198 A 
ATOM     66  C   UNL A   1      53.089  27.534  26.486  1.00  0.00     0.198 A 
ATOM     67  F   UNL A   1      51.369  27.502  28.089  1.00  0.00    -0.203 F 
ATOM     68  F   UNL A   1      52.973  28.067  22.904  1.00  0.00    -0.200 F 
ATOM     69  C   UNL A   1      53.506  27.674  25.170  1.00  0.00     0.200 A 
ATOM     70  F   UNL A   1      53.985  27.269  27.446  1.00  0.00    -0.200 F 
ATOM     71  F   UNL A   1      54.799  27.521  24.856  1.00  0.00    -0.200 F 
ENDBRANCH  47  61
BRANCH  48  72
ATOM     72  C   UNL A   1      41.131  28.510  28.415  1.00  0.00     0.064 A 
ATOM     73  C   UNL A   1      40.131  29.010  27.571  1.00  0.00     0.173 A 
ATOM     74  C   UNL A   1      40.745  28.069  29.691  1.00  0.00     0.173 A 
ATOM     75  F   UNL A   1      40.451  29.465  26.351  1.00  0.00    -0.203 F 
ATOM     76  C   UNL A   1      38.804  29.086  27.992  1.00  0.00     0.198 A 
ATOM     77  C   UNL A   1      39.413  28.114  30.098  1.00  0.00     0.198 A 
ATOM     78  F   UNL A   1      41.662  27.580  30.540  1.00  0.00    -0.203 F 
ATOM     79  F   UNL A   1      37.876  29.613  27.182  1.00  0.00    -0.200 F 
ATOM     80  C   UNL A   1      38.445  28.630  29.252  1.00  0.00     0.200 A 
ATOM     81  F   UNL A   1      39.070  27.658  31.311  1.00  0.00    -0.200 F 
ATOM     82  F   UNL A   1      37.168  28.696  29.653  1.00  0.00    -0.200 F 
ENDBRANCH  48  72
BRANCH  60  83
ATOM     83  C   UNL A   1      46.554  32.860  29.014  1.00  0.00     0.064 A 
ATOM     84  C   UNL A   1      46.318  34.012  28.251  1.00  0.00     0.173 A 
ATOM     85  C   UNL A   1      46.882  33.026  30.369  1.00  0.00     0.173 A 
ATOM     86  F   UNL A   1      46.018  33.910  26.948  1.00  0.00    -0.203 F 
ATOM     87  C   UNL A   1      46.426  35.280  28.818  1.00  0.00     0.198 A 
ATOM     88  C   UNL A   1      46.955  34.293  30.940  1.00  0.00     0.198 A 
ATOM     89  F   UNL A   1      47.112  31.956  31.146  1.00  0.00    -0.203 F 
ATOM     90  F   UNL A   1      46.243  36.369  28.058  1.00  0.00    -0.200 F 
ATOM     91  C   UNL A   1      46.735  35.419  30.162  1.00  0.00     0.200 A 
ATOM     92  F   UNL A   1      47.237  34.423  32.244  1.00  0.00    -0.200 F 
ATOM     93  F   UNL A   1      46.827  36.640  30.708  1.00  0.00    -0.200 F 
ENDBRANCH  60  83
ENDBRANCH  34  35
ENDBRANCH  27  29
ENDBRANCH  26  27
ENDBRANCH  25  26
ENDBRANCH   1  25
TORSDOF 15
ENDMDL
