MODEL 1
REMARK VINA RESULT:     -12.9      0.000      0.000
REMARK SMILES Cc1cc(OC(F)(F)F)cc2c1O[C@H](C(F)(F)F)C(C(=O)OCCOC(=O)c1ccc(-c3c4nc(c(-c5c(F)c(F)c(F)c(F)c5F)c5ccc([nH]5)c(-c5c(F)c(F)c(F)c(F)c5F)c5nc(c(-c6c(F)c(F)c(F)c(F)c6F)c6ccc3[nH]6)C=C5)C=C4)cc1)=C2
REMARK SMILES IDX 23 1 22 2 20 3 21 4 19 5 1 6 2 7 3 8 12 9 4 10 11 11 13 12
REMARK SMILES IDX 10 13 91 14 14 15 5 16 6 17 7 18 8 19 9 20 15 21 16 22 17 23
REMARK SMILES IDX 18 24 24 25 25 26 26 27 27 28 28 29 29 30 90 31 30 32 89 33
REMARK SMILES IDX 31 34 32 35 33 36 83 37 34 38 88 39 82 40 84 41 35 42 87 43
REMARK SMILES IDX 81 44 80 45 36 47 68 48 48 49 67 50 49 51 52 52 66 53 85 54
REMARK SMILES IDX 50 55 51 56 65 58 86 59 53 60 37 61 38 62 46 63 39 64 40 65
REMARK SMILES IDX 44 66 47 67 41 68 42 69 45 70 43 71 69 72 70 73 78 74 71 75
REMARK SMILES IDX 72 76 76 77 79 78 73 79 74 80 77 81 75 82 54 83 55 84 63 85
REMARK SMILES IDX 56 86 57 87 61 88 64 89 58 90 59 91 62 92 60 93
REMARK H PARENT 84 46 52 57
REMARK Flexibility Score: inf
ROOT
ATOM      1  C   UNL A   1      31.542  29.247  25.100  1.00  0.00     0.275 C 
ENDROOT
BRANCH   1   2
ATOM      2  O   UNL A   1      32.430  28.306  25.739  1.00  0.00    -0.459 OA
BRANCH   2   3
ATOM      3  C   UNL A   1      31.825  27.301  26.419  1.00  0.00     0.338 C 
ATOM      4  O   UNL A   1      31.031  27.414  27.333  1.00  0.00    -0.246 OA
BRANCH   3   5
ATOM      5  C   UNL A   1      32.236  25.997  25.862  1.00  0.00     0.087 C 
ATOM      6  C   UNL A   1      32.461  21.513  23.374  1.00  0.00     0.048 C 
ATOM      7  C   UNL A   1      33.451  22.442  24.020  1.00  0.00    -0.005 A 
ATOM      8  C   UNL A   1      34.828  22.170  23.905  1.00  0.00     0.054 A 
ATOM      9  C   UNL A   1      33.028  23.612  24.667  1.00  0.00     0.131 A 
ATOM     10  C   UNL A   1      35.775  23.036  24.453  1.00  0.00     0.130 A 
ATOM     11  C   UNL A   1      33.974  24.489  25.196  1.00  0.00     0.021 A 
ATOM     12  O   UNL A   1      31.681  23.829  24.757  1.00  0.00    -0.475 OA
ATOM     13  C   UNL A   1      35.338  24.191  25.103  1.00  0.00     0.058 A 
ATOM     14  C   UNL A   1      33.545  25.728  25.816  1.00  0.00     0.027 C 
ATOM     15  C   UNL A   1      31.187  25.091  25.284  1.00  0.00     0.316 C 
BRANCH  10  16
ATOM     16  O   UNL A   1      37.132  22.888  24.425  1.00  0.00    -0.406 OA
BRANCH  16  17
ATOM     17  C   UNL A   1      37.697  21.799  25.135  1.00  0.00     0.573 C 
ATOM     18  F   UNL A   1      36.945  21.475  26.207  1.00  0.00    -0.132 F 
ATOM     19  F   UNL A   1      37.835  20.718  24.337  1.00  0.00    -0.132 F 
ATOM     20  F   UNL A   1      38.924  22.157  25.573  1.00  0.00    -0.132 F 
ENDBRANCH  16  17
ENDBRANCH  10  16
BRANCH  15  21
ATOM     21  C   UNL A   1      30.387  25.799  24.179  1.00  0.00     0.430 C 
ATOM     22  F   UNL A   1      29.456  26.633  24.698  1.00  0.00    -0.167 F 
ATOM     23  F   UNL A   1      31.186  26.555  23.388  1.00  0.00    -0.167 F 
ATOM     24  F   UNL A   1      29.743  24.919  23.377  1.00  0.00    -0.167 F 
ENDBRANCH  15  21
ENDBRANCH   3   5
ENDBRANCH   2   3
ENDBRANCH   1   2
BRANCH   1  25
ATOM     25  C   UNL A   1      31.610  30.614  25.780  1.00  0.00     0.275 C 
BRANCH  25  26
ATOM     26  O   UNL A   1      32.410  30.532  26.975  1.00  0.00    -0.458 OA
BRANCH  26  27
ATOM     27  C   UNL A   1      33.113  31.647  27.275  1.00  0.00     0.338 C 
ATOM     28  O   UNL A   1      32.715  32.801  27.276  1.00  0.00    -0.246 OA
BRANCH  27  29
ATOM     29  C   UNL A   1      34.484  31.292  27.669  1.00  0.00     0.060 A 
ATOM     30  C   UNL A   1      34.802  29.958  27.911  1.00  0.00     0.016 A 
ATOM     31  C   UNL A   1      35.393  32.298  27.986  1.00  0.00     0.016 A 
ATOM     32  C   UNL A   1      35.961  29.636  28.612  1.00  0.00     0.010 A 
ATOM     33  C   UNL A   1      36.614  31.961  28.576  1.00  0.00     0.010 A 
ATOM     34  C   UNL A   1      36.886  30.633  28.951  1.00  0.00    -0.014 A 
BRANCH  34  35
ATOM     35  C   UNL A   1      38.104  30.305  29.743  1.00  0.00     0.031 A 
ATOM     36  C   UNL A   1      39.172  29.420  29.151  1.00  0.00     0.074 A 
ATOM     37  C   UNL A   1      38.270  30.805  30.984  1.00  0.00     0.049 A 
ATOM     38  N   UNL A   1      40.200  28.856  29.732  1.00  0.00    -0.248 NA
ATOM     39  C   UNL A   1      39.062  29.122  27.713  1.00  0.00     0.031 C 
ATOM     40  C   UNL A   1      37.354  31.726  31.657  1.00  0.00     0.029 A 
ATOM     41  N   UNL A   1      39.273  30.608  31.902  1.00  0.00    -0.354 N 
ATOM     42  C   UNL A   1      40.828  28.102  28.746  1.00  0.00     0.074 A 
ATOM     43  C   UNL A   1      40.060  28.268  27.533  1.00  0.00     0.031 C 
ATOM     44  C   UNL A   1      37.850  32.042  32.862  1.00  0.00     0.029 A 
ATOM     45  C   UNL A   1      39.067  31.271  33.088  1.00  0.00     0.049 A 
ATOM     46  H   UNL A   1      40.062  30.045  31.728  1.00  0.00     0.167 HD
ATOM     47  C   UNL A   1      41.947  27.345  28.848  1.00  0.00     0.037 A 
ATOM     48  C   UNL A   1      39.752  31.227  34.247  1.00  0.00     0.037 A 
ATOM     49  C   UNL A   1      42.736  27.226  30.047  1.00  0.00     0.049 A 
ATOM     50  C   UNL A   1      40.948  30.324  34.357  1.00  0.00     0.074 A 
ATOM     51  C   UNL A   1      43.891  26.491  30.249  1.00  0.00     0.029 A 
ATOM     52  N   UNL A   1      42.460  27.873  31.242  1.00  0.00    -0.354 N 
ATOM     53  N   UNL A   1      41.498  29.564  33.441  1.00  0.00    -0.248 NA
ATOM     54  C   UNL A   1      41.605  30.253  35.671  1.00  0.00     0.031 C 
ATOM     55  C   UNL A   1      44.291  26.661  31.578  1.00  0.00     0.029 A 
ATOM     56  C   UNL A   1      43.412  27.539  32.192  1.00  0.00     0.049 A 
ATOM     57  H   UNL A   1      41.700  28.481  31.394  1.00  0.00     0.167 HD
ATOM     58  C   UNL A   1      42.568  28.934  34.060  1.00  0.00     0.074 A 
ATOM     59  C   UNL A   1      42.606  29.419  35.425  1.00  0.00     0.031 C 
ATOM     60  C   UNL A   1      43.436  28.030  33.545  1.00  0.00     0.037 A 
BRANCH  47  61
ATOM     61  C   UNL A   1      42.385  26.566  27.642  1.00  0.00     0.064 A 
ATOM     62  C   UNL A   1      43.376  27.044  26.772  1.00  0.00     0.173 A 
ATOM     63  C   UNL A   1      41.854  25.290  27.394  1.00  0.00     0.173 A 
ATOM     64  F   UNL A   1      43.906  28.262  26.957  1.00  0.00    -0.203 F 
ATOM     65  C   UNL A   1      43.810  26.278  25.693  1.00  0.00     0.198 A 
ATOM     66  C   UNL A   1      42.310  24.516  26.330  1.00  0.00     0.198 A 
ATOM     67  F   UNL A   1      40.908  24.784  28.198  1.00  0.00    -0.203 F 
ATOM     68  F   UNL A   1      44.735  26.768  24.855  1.00  0.00    -0.200 F 
ATOM     69  C   UNL A   1      43.285  25.012  25.478  1.00  0.00     0.200 A 
ATOM     70  F   UNL A   1      41.811  23.288  26.134  1.00  0.00    -0.200 F 
ATOM     71  F   UNL A   1      43.717  24.271  24.449  1.00  0.00    -0.200 F 
ENDBRANCH  47  61
BRANCH  48  72
ATOM     72  C   UNL A   1      39.293  32.038  35.407  1.00  0.00     0.064 A 
ATOM     73  C   UNL A   1      38.455  31.485  36.382  1.00  0.00     0.173 A 
ATOM     74  C   UNL A   1      39.698  33.372  35.573  1.00  0.00     0.173 A 
ATOM     75  F   UNL A   1      38.019  30.223  36.254  1.00  0.00    -0.203 F 
ATOM     76  C   UNL A   1      38.033  32.236  37.479  1.00  0.00     0.198 A 
ATOM     77  C   UNL A   1      39.302  34.111  36.685  1.00  0.00     0.198 A 
ATOM     78  F   UNL A   1      40.500  33.950  34.666  1.00  0.00    -0.203 F 
ATOM     79  F   UNL A   1      37.202  31.694  38.379  1.00  0.00    -0.200 F 
ATOM     80  C   UNL A   1      38.465  33.544  37.635  1.00  0.00     0.200 A 
ATOM     81  F   UNL A   1      39.737  35.369  36.840  1.00  0.00    -0.200 F 
ATOM     82  F   UNL A   1      38.073  34.261  38.697  1.00  0.00    -0.200 F 
ENDBRANCH  48  72
BRANCH  60  83
ATOM     83  C   UNL A   1      44.510  27.510  34.455  1.00  0.00     0.064 A 
ATOM     84  C   UNL A   1      45.723  28.192  34.616  1.00  0.00     0.173 A 
ATOM     85  C   UNL A   1      44.298  26.352  35.218  1.00  0.00     0.173 A 
ATOM     86  F   UNL A   1      45.979  29.296  33.897  1.00  0.00    -0.203 F 
ATOM     87  C   UNL A   1      46.693  27.726  35.498  1.00  0.00     0.198 A 
ATOM     88  C   UNL A   1      45.257  25.904  36.121  1.00  0.00     0.198 A 
ATOM     89  F   UNL A   1      43.149  25.668  35.105  1.00  0.00    -0.203 F 
ATOM     90  F   UNL A   1      47.862  28.372  35.610  1.00  0.00    -0.200 F 
ATOM     91  C   UNL A   1      46.456  26.589  36.257  1.00  0.00     0.200 A 
ATOM     92  F   UNL A   1      45.021  24.815  36.863  1.00  0.00    -0.200 F 
ATOM     93  F   UNL A   1      47.386  26.149  37.116  1.00  0.00    -0.200 F 
ENDBRANCH  60  83
ENDBRANCH  34  35
ENDBRANCH  27  29
ENDBRANCH  26  27
ENDBRANCH  25  26
ENDBRANCH   1  25
TORSDOF 14
ENDMDL
MODEL 2
REMARK VINA RESULT:     -12.9      0.813      1.883
REMARK SMILES Cc1cc(OC(F)(F)F)cc2c1O[C@H](C(F)(F)F)C(C(=O)OCCOC(=O)c1ccc(-c3c4nc(c(-c5c(F)c(F)c(F)c(F)c5F)c5ccc([nH]5)c(-c5c(F)c(F)c(F)c(F)c5F)c5nc(c(-c6c(F)c(F)c(F)c(F)c6F)c6ccc3[nH]6)C=C5)C=C4)cc1)=C2
REMARK SMILES IDX 23 1 22 2 20 3 21 4 19 5 1 6 2 7 3 8 12 9 4 10 11 11 13 12
REMARK SMILES IDX 10 13 91 14 14 15 5 16 6 17 7 18 8 19 9 20 15 21 16 22 17 23
REMARK SMILES IDX 18 24 24 25 25 26 26 27 27 28 28 29 29 30 90 31 30 32 89 33
REMARK SMILES IDX 31 34 32 35 33 36 83 37 34 38 88 39 82 40 84 41 35 42 87 43
REMARK SMILES IDX 81 44 80 45 36 47 68 48 48 49 67 50 49 51 52 52 66 53 85 54
REMARK SMILES IDX 50 55 51 56 65 58 86 59 53 60 37 61 38 62 46 63 39 64 40 65
REMARK SMILES IDX 44 66 47 67 41 68 42 69 45 70 43 71 69 72 70 73 78 74 71 75
REMARK SMILES IDX 72 76 76 77 79 78 73 79 74 80 77 81 75 82 54 83 55 84 63 85
REMARK SMILES IDX 56 86 57 87 61 88 64 89 58 90 59 91 62 92 60 93
REMARK H PARENT 84 46 52 57
REMARK Flexibility Score: inf
ROOT
ATOM      1  C   UNL A   1      31.422  29.575  24.923  1.00  0.00     0.275 C 
ENDROOT
BRANCH   1   2
ATOM      2  O   UNL A   1      32.061  28.401  25.467  1.00  0.00    -0.459 OA
BRANCH   2   3
ATOM      3  C   UNL A   1      33.163  27.975  24.802  1.00  0.00     0.338 C 
ATOM      4  O   UNL A   1      34.094  28.658  24.419  1.00  0.00    -0.246 OA
BRANCH   3   5
ATOM      5  C   UNL A   1      33.113  26.509  24.630  1.00  0.00     0.087 C 
ATOM      6  C   UNL A   1      32.182  21.734  22.994  1.00  0.00     0.048 C 
ATOM      7  C   UNL A   1      33.172  22.387  23.919  1.00  0.00    -0.005 A 
ATOM      8  C   UNL A   1      34.214  21.615  24.469  1.00  0.00     0.054 A 
ATOM      9  C   UNL A   1      33.119  23.763  24.179  1.00  0.00     0.131 A 
ATOM     10  C   UNL A   1      35.177  22.199  25.294  1.00  0.00     0.130 A 
ATOM     11  C   UNL A   1      34.093  24.352  24.985  1.00  0.00     0.021 A 
ATOM     12  O   UNL A   1      32.087  24.469  23.625  1.00  0.00    -0.475 OA
ATOM     13  C   UNL A   1      35.104  23.568  25.551  1.00  0.00     0.058 A 
ATOM     14  C   UNL A   1      34.075  25.785  25.211  1.00  0.00     0.027 C 
ATOM     15  C   UNL A   1      32.061  25.918  23.737  1.00  0.00     0.316 C 
BRANCH  10  16
ATOM     16  O   UNL A   1      36.225  21.569  25.900  1.00  0.00    -0.406 OA
BRANCH  16  17
ATOM     17  C   UNL A   1      37.315  21.163  25.090  1.00  0.00     0.573 C 
ATOM     18  F   UNL A   1      37.271  19.836  24.845  1.00  0.00    -0.132 F 
ATOM     19  F   UNL A   1      37.329  21.838  23.921  1.00  0.00    -0.132 F 
ATOM     20  F   UNL A   1      38.466  21.432  25.745  1.00  0.00    -0.132 F 
ENDBRANCH  16  17
ENDBRANCH  10  16
BRANCH  15  21
ATOM     21  C   UNL A   1      32.131  26.515  22.323  1.00  0.00     0.430 C 
ATOM     22  F   UNL A   1      31.658  25.649  21.396  1.00  0.00    -0.167 F 
ATOM     23  F   UNL A   1      31.383  27.641  22.217  1.00  0.00    -0.167 F 
ATOM     24  F   UNL A   1      33.397  26.838  21.969  1.00  0.00    -0.167 F 
ENDBRANCH  15  21
ENDBRANCH   3   5
ENDBRANCH   2   3
ENDBRANCH   1   2
BRANCH   1  25
ATOM     25  C   UNL A   1      31.438  30.724  25.932  1.00  0.00     0.275 C 
BRANCH  25  26
ATOM     26  O   UNL A   1      32.485  30.519  26.899  1.00  0.00    -0.458 OA
BRANCH  26  27
ATOM     27  C   UNL A   1      33.175  31.628  27.243  1.00  0.00     0.338 C 
ATOM     28  O   UNL A   1      32.767  32.777  27.285  1.00  0.00    -0.246 OA
BRANCH  27  29
ATOM     29  C   UNL A   1      34.548  31.271  27.632  1.00  0.00     0.060 A 
ATOM     30  C   UNL A   1      34.867  29.935  27.865  1.00  0.00     0.016 A 
ATOM     31  C   UNL A   1      35.457  32.275  27.954  1.00  0.00     0.016 A 
ATOM     32  C   UNL A   1      36.027  29.610  28.561  1.00  0.00     0.010 A 
ATOM     33  C   UNL A   1      36.680  31.935  28.539  1.00  0.00     0.010 A 
ATOM     34  C   UNL A   1      36.953  30.604  28.904  1.00  0.00    -0.014 A 
BRANCH  34  35
ATOM     35  C   UNL A   1      38.173  30.272  29.692  1.00  0.00     0.031 A 
ATOM     36  C   UNL A   1      39.230  29.375  29.099  1.00  0.00     0.074 A 
ATOM     37  C   UNL A   1      38.350  30.779  30.928  1.00  0.00     0.049 A 
ATOM     38  N   UNL A   1      40.258  28.807  29.677  1.00  0.00    -0.248 NA
ATOM     39  C   UNL A   1      39.109  29.069  27.663  1.00  0.00     0.031 C 
ATOM     40  C   UNL A   1      37.445  31.711  31.601  1.00  0.00     0.029 A 
ATOM     41  N   UNL A   1      39.356  30.579  31.842  1.00  0.00    -0.354 N 
ATOM     42  C   UNL A   1      40.873  28.041  28.693  1.00  0.00     0.074 A 
ATOM     43  C   UNL A   1      40.099  28.206  27.483  1.00  0.00     0.031 C 
ATOM     44  C   UNL A   1      37.951  32.030  32.801  1.00  0.00     0.029 A 
ATOM     45  C   UNL A   1      39.163  31.251  33.025  1.00  0.00     0.049 A 
ATOM     46  H   UNL A   1      40.140  30.009  31.667  1.00  0.00     0.167 HD
ATOM     47  C   UNL A   1      41.987  27.277  28.794  1.00  0.00     0.037 A 
ATOM     48  C   UNL A   1      39.855  31.210  34.180  1.00  0.00     0.037 A 
ATOM     49  C   UNL A   1      42.783  27.159  29.989  1.00  0.00     0.049 A 
ATOM     50  C   UNL A   1      41.044  30.297  34.289  1.00  0.00     0.074 A 
ATOM     51  C   UNL A   1      43.933  26.416  30.188  1.00  0.00     0.029 A 
ATOM     52  N   UNL A   1      42.518  27.815  31.181  1.00  0.00    -0.354 N 
ATOM     53  N   UNL A   1      41.582  29.528  33.375  1.00  0.00    -0.248 NA
ATOM     54  C   UNL A   1      41.708  30.230  35.599  1.00  0.00     0.031 C 
ATOM     55  C   UNL A   1      44.342  26.591  31.514  1.00  0.00     0.029 A 
ATOM     56  C   UNL A   1      43.473  27.480  32.127  1.00  0.00     0.049 A 
ATOM     57  H   UNL A   1      41.764  28.430  31.333  1.00  0.00     0.167 HD
ATOM     58  C   UNL A   1      42.651  28.894  33.991  1.00  0.00     0.074 A 
ATOM     59  C   UNL A   1      42.701  29.386  35.353  1.00  0.00     0.031 C 
ATOM     60  C   UNL A   1      43.508  27.979  33.477  1.00  0.00     0.037 A 
BRANCH  47  61
ATOM     61  C   UNL A   1      42.412  26.486  27.590  1.00  0.00     0.064 A 
ATOM     62  C   UNL A   1      43.419  26.939  26.725  1.00  0.00     0.173 A 
ATOM     63  C   UNL A   1      41.851  25.224  27.339  1.00  0.00     0.173 A 
ATOM     64  F   UNL A   1      43.977  28.144  26.912  1.00  0.00    -0.203 F 
ATOM     65  C   UNL A   1      43.839  26.163  25.648  1.00  0.00     0.198 A 
ATOM     66  C   UNL A   1      42.293  24.438  26.278  1.00  0.00     0.198 A 
ATOM     67  F   UNL A   1      40.889  24.741  28.139  1.00  0.00    -0.203 F 
ATOM     68  F   UNL A   1      44.781  26.629  24.815  1.00  0.00    -0.200 F 
ATOM     69  C   UNL A   1      43.285  24.910  25.431  1.00  0.00     0.200 A 
ATOM     70  F   UNL A   1      41.765  23.223  26.080  1.00  0.00    -0.200 F 
ATOM     71  F   UNL A   1      43.703  24.157  24.404  1.00  0.00    -0.200 F 
ENDBRANCH  47  61
BRANCH  48  72
ATOM     72  C   UNL A   1      39.409  32.032  35.337  1.00  0.00     0.064 A 
ATOM     73  C   UNL A   1      39.823  33.362  35.474  1.00  0.00     0.173 A 
ATOM     74  C   UNL A   1      38.547  31.512  36.315  1.00  0.00     0.173 A 
ATOM     75  F   UNL A   1      40.669  33.896  34.580  1.00  0.00    -0.203 F 
ATOM     76  C   UNL A   1      39.397  34.141  36.549  1.00  0.00     0.198 A 
ATOM     77  C   UNL A   1      38.096  32.301  37.371  1.00  0.00     0.198 A 
ATOM     78  F   UNL A   1      38.121  30.242  36.232  1.00  0.00    -0.203 F 
ATOM     79  F   UNL A   1      39.836  35.401  36.676  1.00  0.00    -0.200 F 
ATOM     80  C   UNL A   1      38.525  33.614  37.490  1.00  0.00     0.200 A 
ATOM     81  F   UNL A   1      37.241  31.792  38.267  1.00  0.00    -0.200 F 
ATOM     82  F   UNL A   1      38.103  34.368  38.514  1.00  0.00    -0.200 F 
ENDBRANCH  48  72
BRANCH  60  83
ATOM     83  C   UNL A   1      44.584  27.456  34.384  1.00  0.00     0.064 A 
ATOM     84  C   UNL A   1      44.405  26.281  35.126  1.00  0.00     0.173 A 
ATOM     85  C   UNL A   1      45.826  28.103  34.463  1.00  0.00     0.173 A 
ATOM     86  F   UNL A   1      43.229  25.634  35.096  1.00  0.00    -0.203 F 
ATOM     87  C   UNL A   1      45.426  25.780  35.928  1.00  0.00     0.198 A 
ATOM     88  C   UNL A   1      46.855  27.584  35.242  1.00  0.00     0.198 A 
ATOM     89  F   UNL A   1      46.049  29.227  33.766  1.00  0.00    -0.203 F 
ATOM     90  F   UNL A   1      45.222  24.676  36.659  1.00  0.00    -0.200 F 
ATOM     91  C   UNL A   1      46.653  26.426  35.977  1.00  0.00     0.200 A 
ATOM     92  F   UNL A   1      48.044  28.200  35.277  1.00  0.00    -0.200 F 
ATOM     93  F   UNL A   1      47.640  25.934  36.739  1.00  0.00    -0.200 F 
ENDBRANCH  60  83
ENDBRANCH  34  35
ENDBRANCH  27  29
ENDBRANCH  26  27
ENDBRANCH  25  26
ENDBRANCH   1  25
TORSDOF 14
ENDMDL
MODEL 3
REMARK VINA RESULT:     -12.8      4.060      9.652
REMARK SMILES Cc1cc(OC(F)(F)F)cc2c1O[C@H](C(F)(F)F)C(C(=O)OCCOC(=O)c1ccc(-c3c4nc(c(-c5c(F)c(F)c(F)c(F)c5F)c5ccc([nH]5)c(-c5c(F)c(F)c(F)c(F)c5F)c5nc(c(-c6c(F)c(F)c(F)c(F)c6F)c6ccc3[nH]6)C=C5)C=C4)cc1)=C2
REMARK SMILES IDX 23 1 22 2 20 3 21 4 19 5 1 6 2 7 3 8 12 9 4 10 11 11 13 12
REMARK SMILES IDX 10 13 91 14 14 15 5 16 6 17 7 18 8 19 9 20 15 21 16 22 17 23
REMARK SMILES IDX 18 24 24 25 25 26 26 27 27 28 28 29 29 30 90 31 30 32 89 33
REMARK SMILES IDX 31 34 32 35 33 36 83 37 34 38 88 39 82 40 84 41 35 42 87 43
REMARK SMILES IDX 81 44 80 45 36 47 68 48 48 49 67 50 49 51 52 52 66 53 85 54
REMARK SMILES IDX 50 55 51 56 65 58 86 59 53 60 37 61 38 62 46 63 39 64 40 65
REMARK SMILES IDX 44 66 47 67 41 68 42 69 45 70 43 71 69 72 70 73 78 74 71 75
REMARK SMILES IDX 72 76 76 77 79 78 73 79 74 80 77 81 75 82 54 83 55 84 63 85
REMARK SMILES IDX 56 86 57 87 61 88 64 89 58 90 59 91 62 92 60 93
REMARK H PARENT 84 46 52 57
REMARK Flexibility Score: inf
ROOT
ATOM      1  C   UNL A   1      35.328  21.058  24.714  1.00  0.00     0.275 C 
ENDROOT
BRANCH   1   2
ATOM      2  O   UNL A   1      35.335  22.490  24.894  1.00  0.00    -0.459 OA
BRANCH   2   3
ATOM      3  C   UNL A   1      35.221  23.223  23.759  1.00  0.00     0.338 C 
ATOM      4  O   UNL A   1      35.799  23.031  22.707  1.00  0.00    -0.246 OA
BRANCH   3   5
ATOM      5  C   UNL A   1      34.236  24.304  23.954  1.00  0.00     0.087 C 
ATOM      6  C   UNL A   1      30.012  27.221  23.995  1.00  0.00     0.048 C 
ATOM      7  C   UNL A   1      31.322  27.205  24.732  1.00  0.00    -0.005 A 
ATOM      8  C   UNL A   1      31.531  28.115  25.787  1.00  0.00     0.054 A 
ATOM      9  C   UNL A   1      32.306  26.251  24.437  1.00  0.00     0.131 A 
ATOM     10  C   UNL A   1      32.717  28.097  26.522  1.00  0.00     0.130 A 
ATOM     11  C   UNL A   1      33.482  26.217  25.184  1.00  0.00     0.021 A 
ATOM     12  O   UNL A   1      32.059  25.393  23.401  1.00  0.00    -0.475 OA
ATOM     13  C   UNL A   1      33.690  27.147  26.209  1.00  0.00     0.058 A 
ATOM     14  C   UNL A   1      34.478  25.196  24.920  1.00  0.00     0.027 C 
ATOM     15  C   UNL A   1      32.973  24.291  23.143  1.00  0.00     0.316 C 
BRANCH  10  16
ATOM     16  O   UNL A   1      33.052  28.924  27.555  1.00  0.00    -0.406 OA
BRANCH  16  17
ATOM     17  C   UNL A   1      33.809  30.085  27.259  1.00  0.00     0.573 C 
ATOM     18  F   UNL A   1      33.498  31.095  28.098  1.00  0.00    -0.132 F 
ATOM     19  F   UNL A   1      35.133  29.832  27.328  1.00  0.00    -0.132 F 
ATOM     20  F   UNL A   1      33.522  30.480  25.999  1.00  0.00    -0.132 F 
ENDBRANCH  16  17
ENDBRANCH  10  16
BRANCH  15  21
ATOM     21  C   UNL A   1      32.206  22.972  23.326  1.00  0.00     0.430 C 
ATOM     22  F   UNL A   1      30.899  23.110  22.999  1.00  0.00    -0.167 F 
ATOM     23  F   UNL A   1      32.701  21.991  22.534  1.00  0.00    -0.167 F 
ATOM     24  F   UNL A   1      32.261  22.525  24.602  1.00  0.00    -0.167 F 
ENDBRANCH  15  21
ENDBRANCH   3   5
ENDBRANCH   2   3
ENDBRANCH   1   2
BRANCH   1  25
ATOM     25  C   UNL A   1      36.693  20.457  25.048  1.00  0.00     0.275 C 
BRANCH  25  26
ATOM     26  O   UNL A   1      37.690  21.495  25.103  1.00  0.00    -0.458 OA
BRANCH  26  27
ATOM     27  C   UNL A   1      38.791  21.197  25.827  1.00  0.00     0.338 C 
ATOM     28  O   UNL A   1      39.367  20.122  25.901  1.00  0.00    -0.246 OA
BRANCH  27  29
ATOM     29  C   UNL A   1      39.281  22.395  26.523  1.00  0.00     0.060 A 
ATOM     30  C   UNL A   1      38.740  23.639  26.206  1.00  0.00     0.016 A 
ATOM     31  C   UNL A   1      40.405  22.308  27.341  1.00  0.00     0.016 A 
ATOM     32  C   UNL A   1      39.408  24.802  26.576  1.00  0.00     0.010 A 
ATOM     33  C   UNL A   1      41.002  23.478  27.817  1.00  0.00     0.010 A 
ATOM     34  C   UNL A   1      40.547  24.739  27.391  1.00  0.00    -0.014 A 
BRANCH  34  35
ATOM     35  C   UNL A   1      41.297  25.974  27.751  1.00  0.00     0.031 A 
ATOM     36  C   UNL A   1      40.633  27.044  28.581  1.00  0.00     0.074 A 
ATOM     37  C   UNL A   1      42.575  26.141  27.353  1.00  0.00     0.049 A 
ATOM     38  N   UNL A   1      41.029  28.265  28.835  1.00  0.00    -0.248 NA
ATOM     39  C   UNL A   1      39.343  26.694  29.200  1.00  0.00     0.031 C 
ATOM     40  C   UNL A   1      43.365  25.164  26.605  1.00  0.00     0.029 A 
ATOM     41  N   UNL A   1      43.435  27.198  27.526  1.00  0.00    -0.354 N 
ATOM     42  C   UNL A   1      40.020  28.842  29.598  1.00  0.00     0.074 A 
ATOM     43  C   UNL A   1      38.987  27.843  29.757  1.00  0.00     0.031 C 
ATOM     44  C   UNL A   1      44.600  25.648  26.413  1.00  0.00     0.029 A 
ATOM     45  C   UNL A   1      44.662  27.008  26.936  1.00  0.00     0.049 A 
ATOM     46  H   UNL A   1      43.196  28.014  28.023  1.00  0.00     0.167 HD
ATOM     47  C   UNL A   1      39.968  30.090  30.122  1.00  0.00     0.037 A 
ATOM     48  C   UNL A   1      45.704  27.849  26.787  1.00  0.00     0.037 A 
ATOM     49  C   UNL A   1      41.025  31.062  30.003  1.00  0.00     0.049 A 
ATOM     50  C   UNL A   1      45.592  29.252  27.314  1.00  0.00     0.074 A 
ATOM     51  C   UNL A   1      41.071  32.350  30.506  1.00  0.00     0.029 A 
ATOM     52  N   UNL A   1      42.228  30.844  29.350  1.00  0.00    -0.354 N 
ATOM     53  N   UNL A   1      44.610  29.810  27.978  1.00  0.00    -0.248 NA
ATOM     54  C   UNL A   1      46.726  30.150  27.048  1.00  0.00     0.031 C 
ATOM     55  C   UNL A   1      42.286  32.926  30.121  1.00  0.00     0.029 A 
ATOM     56  C   UNL A   1      43.017  31.981  29.419  1.00  0.00     0.049 A 
ATOM     57  H   UNL A   1      42.486  30.005  28.903  1.00  0.00     0.167 HD
ATOM     58  C   UNL A   1      45.008  31.117  28.219  1.00  0.00     0.074 A 
ATOM     59  C   UNL A   1      46.333  31.263  27.650  1.00  0.00     0.031 C 
ATOM     60  C   UNL A   1      44.332  32.109  28.848  1.00  0.00     0.037 A 
BRANCH  47  61
ATOM     61  C   UNL A   1      38.725  30.496  30.858  1.00  0.00     0.064 A 
ATOM     62  C   UNL A   1      38.652  30.471  32.258  1.00  0.00     0.173 A 
ATOM     63  C   UNL A   1      37.613  30.983  30.152  1.00  0.00     0.173 A 
ATOM     64  F   UNL A   1      39.681  30.003  32.979  1.00  0.00    -0.203 F 
ATOM     65  C   UNL A   1      37.509  30.909  32.923  1.00  0.00     0.198 A 
ATOM     66  C   UNL A   1      36.482  31.446  30.821  1.00  0.00     0.198 A 
ATOM     67  F   UNL A   1      37.632  31.033  28.812  1.00  0.00    -0.203 F 
ATOM     68  F   UNL A   1      37.449  30.847  34.262  1.00  0.00    -0.200 F 
ATOM     69  C   UNL A   1      36.430  31.405  32.206  1.00  0.00     0.200 A 
ATOM     70  F   UNL A   1      35.448  31.937  30.126  1.00  0.00    -0.200 F 
ATOM     71  F   UNL A   1      35.338  31.841  32.849  1.00  0.00    -0.200 F 
ENDBRANCH  47  61
BRANCH  48  72
ATOM     72  C   UNL A   1      46.925  27.391  26.072  1.00  0.00     0.064 A 
ATOM     73  C   UNL A   1      47.063  27.582  24.692  1.00  0.00     0.173 A 
ATOM     74  C   UNL A   1      47.984  26.773  26.755  1.00  0.00     0.173 A 
ATOM     75  F   UNL A   1      46.066  28.143  23.990  1.00  0.00    -0.203 F 
ATOM     76  C   UNL A   1      48.212  27.168  24.019  1.00  0.00     0.198 A 
ATOM     77  C   UNL A   1      49.145  26.390  26.088  1.00  0.00     0.198 A 
ATOM     78  F   UNL A   1      47.902  26.565  28.078  1.00  0.00    -0.203 F 
ATOM     79  F   UNL A   1      48.303  27.330  22.693  1.00  0.00    -0.200 F 
ATOM     80  C   UNL A   1      49.256  26.582  24.719  1.00  0.00     0.200 A 
ATOM     81  F   UNL A   1      50.158  25.840  26.771  1.00  0.00    -0.200 F 
ATOM     82  F   UNL A   1      50.366  26.199  24.075  1.00  0.00    -0.200 F 
ENDBRANCH  48  72
BRANCH  60  83
ATOM     83  C   UNL A   1      45.015  33.440  28.968  1.00  0.00     0.064 A 
ATOM     84  C   UNL A   1      45.889  33.720  30.027  1.00  0.00     0.173 A 
ATOM     85  C   UNL A   1      44.841  34.421  27.980  1.00  0.00     0.173 A 
ATOM     86  F   UNL A   1      46.077  32.819  31.004  1.00  0.00    -0.203 F 
ATOM     87  C   UNL A   1      46.553  34.941  30.102  1.00  0.00     0.198 A 
ATOM     88  C   UNL A   1      45.529  35.629  28.042  1.00  0.00     0.198 A 
ATOM     89  F   UNL A   1      44.021  34.199  26.942  1.00  0.00    -0.203 F 
ATOM     90  F   UNL A   1      47.355  35.202  31.143  1.00  0.00    -0.200 F 
ATOM     91  C   UNL A   1      46.380  35.890  29.105  1.00  0.00     0.200 A 
ATOM     92  F   UNL A   1      45.373  36.539  27.071  1.00  0.00    -0.200 F 
ATOM     93  F   UNL A   1      47.032  37.059  29.172  1.00  0.00    -0.200 F 
ENDBRANCH  60  83
ENDBRANCH  34  35
ENDBRANCH  27  29
ENDBRANCH  26  27
ENDBRANCH  25  26
ENDBRANCH   1  25
TORSDOF 14
ENDMDL
