MODEL 1
REMARK VINA RESULT:      -9.7      0.000      0.000
REMARK SMILES CNC(=O)c1ccc(N(CCC(=O)OCCOC(=O)c2ccc(-c3c4nc(c(-c5c(F)c(F)c(F)c(F)c5F)c5ccc([nH]5)c(-c5c(F)c(F)c(F)c(F)c5F)c5nc(c(-c6c(F)c(F)c(F)c(F)c6F)c6ccc3[nH]6)C=C5)C=C4)cc2)C2CC2)nn1
REMARK SMILES IDX 15 1 14 2 12 3 13 4 11 5 10 6 9 7 8 8 5 9 6 10 87 11 7 12
REMARK SMILES IDX 86 13 3 14 1 15 2 16 4 18 83 19 84 20 85 21 16 22 17 23
REMARK SMILES IDX 18 24 19 25 20 26 21 27 82 28 22 29 81 30 23 31 24 32 25 33
REMARK SMILES IDX 75 34 26 35 80 36 74 37 76 38 27 39 79 40 73 41 72 42 28 44
REMARK SMILES IDX 60 45 40 46 59 47 41 48 44 49 58 50 77 51 42 52 43 53 57 55
REMARK SMILES IDX 78 56 45 57 29 58 30 59 38 60 31 61 32 62 36 63 39 64 33 65
REMARK SMILES IDX 34 66 37 67 35 68 61 69 62 70 70 71 63 72 64 73 68 74 71 75
REMARK SMILES IDX 65 76 66 77 69 78 67 79 46 80 47 81 55 82 48 83 49 84 53 85
REMARK SMILES IDX 56 86 50 87 51 88 54 89 52 90
REMARK H PARENT 2 17 76 43 44 54
REMARK Flexibility Score: inf
ROOT
ATOM      1  C   UNL A   1      33.455  33.679  28.040  1.00  0.00     0.274 C 
ENDROOT
BRANCH   1   2
ATOM      2  O   UNL A   1      33.363  33.762  29.476  1.00  0.00    -0.462 OA
BRANCH   2   3
ATOM      3  C   UNL A   1      33.602  34.965  30.055  1.00  0.00     0.307 C 
ATOM      4  O   UNL A   1      33.228  36.041  29.609  1.00  0.00    -0.252 OA
BRANCH   3   5
ATOM      5  C   UNL A   1      34.404  34.824  31.325  1.00  0.00     0.144 C 
BRANCH   5   6
ATOM      6  C   UNL A   1      34.758  33.370  31.627  1.00  0.00     0.130 C 
BRANCH   6   7
ATOM      7  N   UNL A   1      36.216  33.120  31.550  1.00  0.00    -0.352 N 
BRANCH   7   8
ATOM      8  C   UNL A   1      36.792  32.557  32.708  1.00  0.00     0.151 A 
ATOM      9  C   UNL A   1      37.834  31.509  35.056  1.00  0.00     0.150 A 
ATOM     10  C   UNL A   1      38.076  30.852  33.872  1.00  0.00     0.040 A 
ATOM     11  N   UNL A   1      37.109  32.637  35.098  1.00  0.00    -0.143 NA
ATOM     12  C   UNL A   1      37.558  31.397  32.695  1.00  0.00     0.051 A 
ATOM     13  N   UNL A   1      36.598  33.152  33.912  1.00  0.00    -0.132 NA
BRANCH   9  14
ATOM     14  C   UNL A   1      38.389  31.002  36.332  1.00  0.00     0.271 C 
ATOM     15  C   UNL A   1      40.558  32.279  36.029  1.00  0.00     0.143 C 
ATOM     16  N   UNL A   1      39.682  31.330  36.678  1.00  0.00    -0.354 N 
ATOM     17  H   UNL A   1      40.054  30.863  37.460  1.00  0.00     0.163 HD
ATOM     18  O   UNL A   1      37.725  30.268  37.059  1.00  0.00    -0.267 OA
ENDBRANCH   9  14
ENDBRANCH   7   8
BRANCH   7  19
ATOM     19  C   UNL A   1      36.869  33.568  30.304  1.00  0.00     0.084 C 
ATOM     20  C   UNL A   1      38.176  34.310  30.296  1.00  0.00     0.027 C 
ATOM     21  C   UNL A   1      38.040  32.993  29.576  1.00  0.00     0.027 C 
ENDBRANCH   7  19
ENDBRANCH   6   7
ENDBRANCH   5   6
ENDBRANCH   3   5
ENDBRANCH   2   3
ENDBRANCH   1   2
BRANCH   1  22
ATOM     22  C   UNL A   1      33.617  32.232  27.565  1.00  0.00     0.275 C 
BRANCH  22  23
ATOM     23  O   UNL A   1      34.695  31.592  28.270  1.00  0.00    -0.458 OA
BRANCH  23  24
ATOM     24  C   UNL A   1      34.878  30.278  28.021  1.00  0.00     0.338 C 
ATOM     25  O   UNL A   1      34.097  29.489  27.523  1.00  0.00    -0.246 OA
BRANCH  24  26
ATOM     26  C   UNL A   1      36.260  29.927  28.372  1.00  0.00     0.060 A 
ATOM     27  C   UNL A   1      37.253  30.055  27.397  1.00  0.00     0.016 A 
ATOM     28  C   UNL A   1      36.557  29.440  29.644  1.00  0.00     0.016 A 
ATOM     29  C   UNL A   1      38.565  29.704  27.700  1.00  0.00     0.010 A 
ATOM     30  C   UNL A   1      37.873  29.090  29.947  1.00  0.00     0.010 A 
ATOM     31  C   UNL A   1      38.880  29.216  28.976  1.00  0.00    -0.014 A 
BRANCH  31  32
ATOM     32  C   UNL A   1      40.268  28.812  29.290  1.00  0.00     0.031 A 
ATOM     33  C   UNL A   1      41.145  29.725  30.092  1.00  0.00     0.074 A 
ATOM     34  C   UNL A   1      40.732  27.631  28.844  1.00  0.00     0.049 A 
ATOM     35  N   UNL A   1      42.401  29.581  30.428  1.00  0.00    -0.248 NA
ATOM     36  C   UNL A   1      40.529  30.970  30.572  1.00  0.00     0.031 C 
ATOM     37  C   UNL A   1      39.960  26.662  28.068  1.00  0.00     0.029 A 
ATOM     38  N   UNL A   1      41.968  27.052  28.974  1.00  0.00    -0.354 N 
ATOM     39  C   UNL A   1      42.730  30.718  31.151  1.00  0.00     0.074 A 
ATOM     40  C   UNL A   1      41.549  31.555  31.184  1.00  0.00     0.031 C 
ATOM     41  C   UNL A   1      40.742  25.608  27.785  1.00  0.00     0.029 A 
ATOM     42  C   UNL A   1      42.075  25.841  28.335  1.00  0.00     0.049 A 
ATOM     43  H   UNL A   1      42.708  27.464  29.474  1.00  0.00     0.167 HD
ATOM     44  C   UNL A   1      43.909  31.028  31.739  1.00  0.00     0.037 A 
ATOM     45  C   UNL A   1      43.135  25.024  28.198  1.00  0.00     0.037 A 
ATOM     46  C   UNL A   1      45.076  30.187  31.706  1.00  0.00     0.049 A 
ATOM     47  C   UNL A   1      44.443  25.407  28.836  1.00  0.00     0.074 A 
ATOM     48  C   UNL A   1      46.313  30.401  32.289  1.00  0.00     0.029 A 
ATOM     49  N   UNL A   1      45.149  28.967  31.049  1.00  0.00    -0.354 N 
ATOM     50  N   UNL A   1      44.738  26.472  29.542  1.00  0.00    -0.248 NA
ATOM     51  C   UNL A   1      45.563  24.473  28.662  1.00  0.00     0.031 C 
ATOM     52  C   UNL A   1      47.146  29.327  31.952  1.00  0.00     0.029 A 
ATOM     53  C   UNL A   1      46.416  28.425  31.197  1.00  0.00     0.049 A 
ATOM     54  H   UNL A   1      44.410  28.547  30.551  1.00  0.00     0.167 HD
ATOM     55  C   UNL A   1      46.066  26.326  29.917  1.00  0.00     0.074 A 
ATOM     56  C   UNL A   1      46.517  25.063  29.369  1.00  0.00     0.031 C 
ATOM     57  C   UNL A   1      46.841  27.162  30.650  1.00  0.00     0.037 A 
BRANCH  44  58
ATOM     58  C   UNL A   1      44.000  32.345  32.450  1.00  0.00     0.064 A 
ATOM     59  C   UNL A   1      43.752  32.457  33.826  1.00  0.00     0.173 A 
ATOM     60  C   UNL A   1      44.366  33.505  31.751  1.00  0.00     0.173 A 
ATOM     61  F   UNL A   1      43.384  31.380  34.535  1.00  0.00    -0.203 F 
ATOM     62  C   UNL A   1      43.845  33.687  34.472  1.00  0.00     0.198 A 
ATOM     63  C   UNL A   1      44.482  34.729  32.405  1.00  0.00     0.198 A 
ATOM     64  F   UNL A   1      44.617  33.451  30.434  1.00  0.00    -0.203 F 
ATOM     65  F   UNL A   1      43.563  33.779  35.779  1.00  0.00    -0.200 F 
ATOM     66  C   UNL A   1      44.215  34.820  33.762  1.00  0.00     0.200 A 
ATOM     67  F   UNL A   1      44.849  35.820  31.721  1.00  0.00    -0.200 F 
ATOM     68  F   UNL A   1      44.308  36.003  34.387  1.00  0.00    -0.200 F 
ENDBRANCH  44  58
BRANCH  45  69
ATOM     69  C   UNL A   1      42.997  23.761  27.432  1.00  0.00     0.064 A 
ATOM     70  C   UNL A   1      42.522  22.594  28.045  1.00  0.00     0.173 A 
ATOM     71  C   UNL A   1      43.332  23.696  26.072  1.00  0.00     0.173 A 
ATOM     72  F   UNL A   1      42.211  22.602  29.350  1.00  0.00    -0.203 F 
ATOM     73  C   UNL A   1      42.396  21.406  27.329  1.00  0.00     0.198 A 
ATOM     74  C   UNL A   1      43.183  22.514  25.350  1.00  0.00     0.198 A 
ATOM     75  F   UNL A   1      43.792  24.786  25.440  1.00  0.00    -0.203 F 
ATOM     76  F   UNL A   1      41.975  20.294  27.947  1.00  0.00    -0.200 F 
ATOM     77  C   UNL A   1      42.720  21.368  25.980  1.00  0.00     0.200 A 
ATOM     78  F   UNL A   1      43.488  22.484  24.046  1.00  0.00    -0.200 F 
ATOM     79  F   UNL A   1      42.595  20.226  25.291  1.00  0.00    -0.200 F 
ENDBRANCH  45  69
BRANCH  57  80
ATOM     80  C   UNL A   1      48.248  26.722  30.928  1.00  0.00     0.064 A 
ATOM     81  C   UNL A   1      48.553  25.873  32.002  1.00  0.00     0.173 A 
ATOM     82  C   UNL A   1      49.296  27.125  30.087  1.00  0.00     0.173 A 
ATOM     83  F   UNL A   1      47.586  25.475  32.843  1.00  0.00    -0.203 F 
ATOM     84  C   UNL A   1      49.861  25.459  32.235  1.00  0.00     0.198 A 
ATOM     85  C   UNL A   1      50.598  26.689  30.308  1.00  0.00     0.198 A 
ATOM     86  F   UNL A   1      49.054  27.933  29.044  1.00  0.00    -0.203 F 
ATOM     87  F   UNL A   1      50.138  24.681  33.290  1.00  0.00    -0.200 F 
ATOM     88  C   UNL A   1      50.881  25.861  31.385  1.00  0.00     0.200 A 
ATOM     89  F   UNL A   1      51.582  27.070  29.481  1.00  0.00    -0.200 F 
ATOM     90  F   UNL A   1      52.139  25.457  31.609  1.00  0.00    -0.200 F 
ENDBRANCH  57  80
ENDBRANCH  31  32
ENDBRANCH  24  26
ENDBRANCH  23  24
ENDBRANCH  22  23
ENDBRANCH   1  22
TORSDOF 16
ENDMDL
MODEL 2
REMARK VINA RESULT:      -9.6      5.856     11.312
REMARK SMILES CNC(=O)c1ccc(N(CCC(=O)OCCOC(=O)c2ccc(-c3c4nc(c(-c5c(F)c(F)c(F)c(F)c5F)c5ccc([nH]5)c(-c5c(F)c(F)c(F)c(F)c5F)c5nc(c(-c6c(F)c(F)c(F)c(F)c6F)c6ccc3[nH]6)C=C5)C=C4)cc2)C2CC2)nn1
REMARK SMILES IDX 15 1 14 2 12 3 13 4 11 5 10 6 9 7 8 8 5 9 6 10 87 11 7 12
REMARK SMILES IDX 86 13 3 14 1 15 2 16 4 18 83 19 84 20 85 21 16 22 17 23
REMARK SMILES IDX 18 24 19 25 20 26 21 27 82 28 22 29 81 30 23 31 24 32 25 33
REMARK SMILES IDX 75 34 26 35 80 36 74 37 76 38 27 39 79 40 73 41 72 42 28 44
REMARK SMILES IDX 60 45 40 46 59 47 41 48 44 49 58 50 77 51 42 52 43 53 57 55
REMARK SMILES IDX 78 56 45 57 29 58 30 59 38 60 31 61 32 62 36 63 39 64 33 65
REMARK SMILES IDX 34 66 37 67 35 68 61 69 62 70 70 71 63 72 64 73 68 74 71 75
REMARK SMILES IDX 65 76 66 77 69 78 67 79 46 80 47 81 55 82 48 83 49 84 53 85
REMARK SMILES IDX 56 86 50 87 51 88 54 89 52 90
REMARK H PARENT 2 17 76 43 44 54
REMARK Flexibility Score: inf
ROOT
ATOM      1  C   UNL A   1      37.765  20.438  24.997  1.00  0.00     0.274 C 
ENDROOT
BRANCH   1   2
ATOM      2  O   UNL A   1      37.974  21.864  24.944  1.00  0.00    -0.462 OA
BRANCH   2   3
ATOM      3  C   UNL A   1      37.016  22.620  24.353  1.00  0.00     0.307 C 
ATOM      4  O   UNL A   1      36.832  22.695  23.145  1.00  0.00    -0.252 OA
BRANCH   3   5
ATOM      5  C   UNL A   1      36.197  23.378  25.368  1.00  0.00     0.144 C 
BRANCH   5   6
ATOM      6  C   UNL A   1      35.188  22.483  26.083  1.00  0.00     0.130 C 
BRANCH   6   7
ATOM      7  N   UNL A   1      33.983  22.227  25.260  1.00  0.00    -0.352 N 
BRANCH   7   8
ATOM      8  C   UNL A   1      33.832  20.899  24.811  1.00  0.00     0.151 A 
ATOM      9  C   UNL A   1      33.619  18.249  24.019  1.00  0.00     0.150 A 
ATOM     10  C   UNL A   1      32.587  19.112  23.729  1.00  0.00     0.040 A 
ATOM     11  N   UNL A   1      34.716  18.659  24.671  1.00  0.00    -0.143 NA
ATOM     12  C   UNL A   1      32.713  20.447  24.121  1.00  0.00     0.051 A 
ATOM     13  N   UNL A   1      34.811  19.992  25.057  1.00  0.00    -0.132 NA
BRANCH   9  14
ATOM     14  C   UNL A   1      33.562  16.831  23.595  1.00  0.00     0.271 C 
ATOM     15  C   UNL A   1      32.304  16.138  25.685  1.00  0.00     0.143 C 
ATOM     16  N   UNL A   1      33.016  15.898  24.450  1.00  0.00    -0.354 N 
ATOM     17  H   UNL A   1      33.123  14.955  24.189  1.00  0.00     0.163 HD
ATOM     18  O   UNL A   1      34.027  16.478  22.515  1.00  0.00    -0.267 OA
ENDBRANCH   9  14
ENDBRANCH   7   8
BRANCH   7  19
ATOM     19  C   UNL A   1      33.156  23.415  24.965  1.00  0.00     0.084 C 
ATOM     20  C   UNL A   1      31.746  23.564  25.463  1.00  0.00     0.027 C 
ATOM     21  C   UNL A   1      32.800  24.575  25.836  1.00  0.00     0.027 C 
ENDBRANCH   7  19
ENDBRANCH   6   7
ENDBRANCH   5   6
ENDBRANCH   3   5
ENDBRANCH   2   3
ENDBRANCH   1   2
BRANCH   1  22
ATOM     22  C   UNL A   1      38.902  19.726  25.735  1.00  0.00     0.275 C 
BRANCH  22  23
ATOM     23  O   UNL A   1      40.030  20.605  25.882  1.00  0.00    -0.458 OA
BRANCH  23  24
ATOM     24  C   UNL A   1      40.556  20.707  27.122  1.00  0.00     0.338 C 
ATOM     25  O   UNL A   1      40.743  19.822  27.935  1.00  0.00    -0.246 OA
BRANCH  24  26
ATOM     26  C   UNL A   1      40.977  22.096  27.335  1.00  0.00     0.060 A 
ATOM     27  C   UNL A   1      40.502  23.082  26.465  1.00  0.00     0.016 A 
ATOM     28  C   UNL A   1      41.865  22.410  28.364  1.00  0.00     0.016 A 
ATOM     29  C   UNL A   1      40.909  24.403  26.633  1.00  0.00     0.010 A 
ATOM     30  C   UNL A   1      42.270  23.733  28.532  1.00  0.00     0.010 A 
ATOM     31  C   UNL A   1      41.798  24.733  27.665  1.00  0.00    -0.014 A 
BRANCH  31  32
ATOM     32  C   UNL A   1      42.257  26.130  27.825  1.00  0.00     0.031 A 
ATOM     33  C   UNL A   1      43.580  26.549  27.259  1.00  0.00     0.074 A 
ATOM     34  C   UNL A   1      41.485  27.010  28.488  1.00  0.00     0.049 A 
ATOM     35  N   UNL A   1      44.185  27.706  27.338  1.00  0.00    -0.248 NA
ATOM     36  C   UNL A   1      44.326  25.526  26.513  1.00  0.00     0.031 C 
ATOM     37  C   UNL A   1      40.175  26.712  29.067  1.00  0.00     0.029 A 
ATOM     38  N   UNL A   1      41.696  28.330  28.792  1.00  0.00    -0.354 N 
ATOM     39  C   UNL A   1      45.384  27.550  26.659  1.00  0.00     0.074 A 
ATOM     40  C   UNL A   1      45.435  26.179  26.197  1.00  0.00     0.031 C 
ATOM     41  C   UNL A   1      39.700  27.818  29.662  1.00  0.00     0.029 A 
ATOM     42  C   UNL A   1      40.683  28.890  29.530  1.00  0.00     0.049 A 
ATOM     43  H   UNL A   1      42.496  28.828  28.510  1.00  0.00     0.167 HD
ATOM     44  C   UNL A   1      46.350  28.473  26.438  1.00  0.00     0.037 A 
ATOM     45  C   UNL A   1      40.572  30.126  30.052  1.00  0.00     0.037 A 
ATOM     46  C   UNL A   1      46.289  29.835  26.896  1.00  0.00     0.049 A 
ATOM     47  C   UNL A   1      41.674  31.123  29.817  1.00  0.00     0.074 A 
ATOM     48  C   UNL A   1      47.206  30.854  26.705  1.00  0.00     0.029 A 
ATOM     49  N   UNL A   1      45.247  30.369  27.642  1.00  0.00    -0.354 N 
ATOM     50  N   UNL A   1      42.794  30.975  29.150  1.00  0.00    -0.248 NA
ATOM     51  C   UNL A   1      41.495  32.458  30.402  1.00  0.00     0.031 C 
ATOM     52  C   UNL A   1      46.737  31.994  27.368  1.00  0.00     0.029 A 
ATOM     53  C   UNL A   1      45.509  31.698  27.935  1.00  0.00     0.049 A 
ATOM     54  H   UNL A   1      44.442  29.877  27.922  1.00  0.00     0.167 HD
ATOM     55  C   UNL A   1      43.441  32.201  29.214  1.00  0.00     0.074 A 
ATOM     56  C   UNL A   1      42.583  33.086  29.976  1.00  0.00     0.031 C 
ATOM     57  C   UNL A   1      44.636  32.563  28.688  1.00  0.00     0.037 A 
BRANCH  44  58
ATOM     58  C   UNL A   1      47.568  28.029  25.683  1.00  0.00     0.064 A 
ATOM     59  C   UNL A   1      47.558  27.892  24.287  1.00  0.00     0.173 A 
ATOM     60  C   UNL A   1      48.766  27.763  26.362  1.00  0.00     0.173 A 
ATOM     61  F   UNL A   1      46.433  28.120  23.595  1.00  0.00    -0.203 F 
ATOM     62  C   UNL A   1      48.699  27.483  23.601  1.00  0.00     0.198 A 
ATOM     63  C   UNL A   1      49.911  27.379  25.670  1.00  0.00     0.198 A 
ATOM     64  F   UNL A   1      48.828  27.882  27.697  1.00  0.00    -0.203 F 
ATOM     65  F   UNL A   1      48.656  27.318  22.272  1.00  0.00    -0.200 F 
ATOM     66  C   UNL A   1      49.875  27.233  24.292  1.00  0.00     0.200 A 
ATOM     67  F   UNL A   1      51.049  27.146  26.338  1.00  0.00    -0.200 F 
ATOM     68  F   UNL A   1      50.973  26.843  23.629  1.00  0.00    -0.200 F 
ENDBRANCH  44  58
BRANCH  45  69
ATOM     69  C   UNL A   1      39.368  30.487  30.840  1.00  0.00     0.064 A 
ATOM     70  C   UNL A   1      38.253  31.071  30.226  1.00  0.00     0.173 A 
ATOM     71  C   UNL A   1      39.306  30.249  32.221  1.00  0.00     0.173 A 
ATOM     72  F   UNL A   1      38.275  31.338  28.912  1.00  0.00    -0.203 F 
ATOM     73  C   UNL A   1      37.123  31.415  30.965  1.00  0.00     0.198 A 
ATOM     74  C   UNL A   1      38.166  30.571  32.955  1.00  0.00     0.198 A 
ATOM     75  F   UNL A   1      40.348  29.692  32.856  1.00  0.00    -0.203 F 
ATOM     76  F   UNL A   1      36.084  32.007  30.361  1.00  0.00    -0.200 F 
ATOM     77  C   UNL A   1      37.078  31.159  32.328  1.00  0.00     0.200 A 
ATOM     78  F   UNL A   1      38.123  30.314  34.270  1.00  0.00    -0.200 F 
ATOM     79  F   UNL A   1      35.989  31.486  33.037  1.00  0.00    -0.200 F 
ENDBRANCH  45  69
BRANCH  57  80
ATOM     80  C   UNL A   1      45.072  33.984  28.892  1.00  0.00     0.064 A 
ATOM     81  C   UNL A   1      44.707  34.999  27.996  1.00  0.00     0.173 A 
ATOM     82  C   UNL A   1      45.832  34.337  30.017  1.00  0.00     0.173 A 
ATOM     83  F   UNL A   1      43.995  34.706  26.897  1.00  0.00    -0.203 F 
ATOM     84  C   UNL A   1      45.104  36.316  28.210  1.00  0.00     0.198 A 
ATOM     85  C   UNL A   1      46.205  35.659  30.241  1.00  0.00     0.198 A 
ATOM     86  F   UNL A   1      46.201  33.402  30.905  1.00  0.00    -0.203 F 
ATOM     87  F   UNL A   1      44.779  37.265  27.321  1.00  0.00    -0.200 F 
ATOM     88  C   UNL A   1      45.846  36.646  29.334  1.00  0.00     0.200 A 
ATOM     89  F   UNL A   1      46.914  35.978  31.332  1.00  0.00    -0.200 F 
ATOM     90  F   UNL A   1      46.223  37.915  29.541  1.00  0.00    -0.200 F 
ENDBRANCH  57  80
ENDBRANCH  31  32
ENDBRANCH  24  26
ENDBRANCH  23  24
ENDBRANCH  22  23
ENDBRANCH   1  22
TORSDOF 16
ENDMDL
MODEL 3
REMARK VINA RESULT:      -9.6      5.468     10.179
REMARK SMILES CNC(=O)c1ccc(N(CCC(=O)OCCOC(=O)c2ccc(-c3c4nc(c(-c5c(F)c(F)c(F)c(F)c5F)c5ccc([nH]5)c(-c5c(F)c(F)c(F)c(F)c5F)c5nc(c(-c6c(F)c(F)c(F)c(F)c6F)c6ccc3[nH]6)C=C5)C=C4)cc2)C2CC2)nn1
REMARK SMILES IDX 15 1 14 2 12 3 13 4 11 5 10 6 9 7 8 8 5 9 6 10 87 11 7 12
REMARK SMILES IDX 86 13 3 14 1 15 2 16 4 18 83 19 84 20 85 21 16 22 17 23
REMARK SMILES IDX 18 24 19 25 20 26 21 27 82 28 22 29 81 30 23 31 24 32 25 33
REMARK SMILES IDX 75 34 26 35 80 36 74 37 76 38 27 39 79 40 73 41 72 42 28 44
REMARK SMILES IDX 60 45 40 46 59 47 41 48 44 49 58 50 77 51 42 52 43 53 57 55
REMARK SMILES IDX 78 56 45 57 29 58 30 59 38 60 31 61 32 62 36 63 39 64 33 65
REMARK SMILES IDX 34 66 37 67 35 68 61 69 62 70 70 71 63 72 64 73 68 74 71 75
REMARK SMILES IDX 65 76 66 77 69 78 67 79 46 80 47 81 55 82 48 83 49 84 53 85
REMARK SMILES IDX 56 86 50 87 51 88 54 89 52 90
REMARK H PARENT 2 17 76 43 44 54
REMARK Flexibility Score: inf
ROOT
ATOM      1  C   UNL A   1      38.757  20.457  25.301  1.00  0.00     0.274 C 
ENDROOT
BRANCH   1   2
ATOM      2  O   UNL A   1      38.839  21.824  25.752  1.00  0.00    -0.462 OA
BRANCH   2   3
ATOM      3  C   UNL A   1      37.766  22.624  25.536  1.00  0.00     0.307 C 
ATOM      4  O   UNL A   1      37.646  23.764  25.966  1.00  0.00    -0.252 OA
BRANCH   3   5
ATOM      5  C   UNL A   1      36.714  21.936  24.703  1.00  0.00     0.144 C 
BRANCH   5   6
ATOM      6  C   UNL A   1      35.343  21.950  25.374  1.00  0.00     0.130 C 
BRANCH   6   7
ATOM      7  N   UNL A   1      34.240  22.090  24.395  1.00  0.00    -0.352 N 
BRANCH   7   8
ATOM      8  C   UNL A   1      34.050  23.391  23.884  1.00  0.00     0.151 A 
ATOM      9  C   UNL A   1      33.610  25.899  22.781  1.00  0.00     0.150 A 
ATOM     10  C   UNL A   1      33.890  25.805  24.126  1.00  0.00     0.040 A 
ATOM     11  N   UNL A   1      33.546  24.810  22.000  1.00  0.00    -0.143 NA
ATOM     12  C   UNL A   1      34.123  24.538  24.665  1.00  0.00     0.051 A 
ATOM     13  N   UNL A   1      33.775  23.561  22.566  1.00  0.00    -0.132 NA
BRANCH   9  14
ATOM     14  C   UNL A   1      33.391  27.216  22.142  1.00  0.00     0.271 C 
ATOM     15  C   UNL A   1      30.892  27.131  22.558  1.00  0.00     0.143 C 
ATOM     16  N   UNL A   1      32.103  27.685  21.999  1.00  0.00    -0.354 N 
ATOM     17  H   UNL A   1      31.995  28.494  21.449  1.00  0.00     0.163 HD
ATOM     18  O   UNL A   1      34.336  27.870  21.710  1.00  0.00    -0.267 OA
ENDBRANCH   9  14
ENDBRANCH   7   8
BRANCH   7  19
ATOM     19  C   UNL A   1      33.449  20.866  24.155  1.00  0.00     0.084 C 
ATOM     20  C   UNL A   1      33.889  19.511  24.632  1.00  0.00     0.027 C 
ATOM     21  C   UNL A   1      32.575  20.092  25.086  1.00  0.00     0.027 C 
ENDBRANCH   7  19
ENDBRANCH   6   7
ENDBRANCH   5   6
ENDBRANCH   3   5
ENDBRANCH   2   3
ENDBRANCH   1   2
BRANCH   1  22
ATOM     22  C   UNL A   1      39.652  19.532  26.131  1.00  0.00     0.275 C 
BRANCH  22  23
ATOM     23  O   UNL A   1      40.853  19.218  25.407  1.00  0.00    -0.458 OA
BRANCH  23  24
ATOM     24  C   UNL A   1      41.991  19.148  26.131  1.00  0.00     0.338 C 
ATOM     25  O   UNL A   1      42.597  18.155  26.488  1.00  0.00    -0.246 OA
BRANCH  24  26
ATOM     26  C   UNL A   1      42.475  20.513  26.369  1.00  0.00     0.060 A 
ATOM     27  C   UNL A   1      42.515  20.992  27.681  1.00  0.00     0.016 A 
ATOM     28  C   UNL A   1      42.847  21.321  25.295  1.00  0.00     0.016 A 
ATOM     29  C   UNL A   1      42.945  22.293  27.926  1.00  0.00     0.010 A 
ATOM     30  C   UNL A   1      43.280  22.623  25.542  1.00  0.00     0.010 A 
ATOM     31  C   UNL A   1      43.326  23.116  26.857  1.00  0.00    -0.014 A 
BRANCH  31  32
ATOM     32  C   UNL A   1      43.753  24.509  27.113  1.00  0.00     0.031 A 
ATOM     33  C   UNL A   1      42.759  25.513  27.610  1.00  0.00     0.074 A 
ATOM     34  C   UNL A   1      45.031  24.863  26.886  1.00  0.00     0.049 A 
ATOM     35  N   UNL A   1      42.918  26.790  27.843  1.00  0.00    -0.248 NA
ATOM     36  C   UNL A   1      41.401  25.015  27.871  1.00  0.00     0.031 C 
ATOM     37  C   UNL A   1      46.083  23.962  26.415  1.00  0.00     0.029 A 
ATOM     38  N   UNL A   1      45.657  26.075  27.014  1.00  0.00    -0.354 N 
ATOM     39  C   UNL A   1      41.682  27.252  28.270  1.00  0.00     0.074 A 
ATOM     40  C   UNL A   1      40.775  26.124  28.240  1.00  0.00     0.031 C 
ATOM     41  C   UNL A   1      47.226  24.656  26.289  1.00  0.00     0.029 A 
ATOM     42  C   UNL A   1      46.978  26.052  26.642  1.00  0.00     0.049 A 
ATOM     43  H   UNL A   1      45.203  26.886  27.339  1.00  0.00     0.167 HD
ATOM     44  C   UNL A   1      41.342  28.503  28.659  1.00  0.00     0.037 A 
ATOM     45  C   UNL A   1      47.879  27.049  26.579  1.00  0.00     0.037 A 
ATOM     46  C   UNL A   1      42.251  29.617  28.692  1.00  0.00     0.049 A 
ATOM     47  C   UNL A   1      47.466  28.437  26.988  1.00  0.00     0.074 A 
ATOM     48  C   UNL A   1      42.010  30.921  29.091  1.00  0.00     0.029 A 
ATOM     49  N   UNL A   1      43.584  29.557  28.307  1.00  0.00    -0.354 N 
ATOM     50  N   UNL A   1      46.301  28.860  27.417  1.00  0.00    -0.248 NA
ATOM     51  C   UNL A   1      48.493  29.484  26.909  1.00  0.00     0.031 C 
ATOM     52  C   UNL A   1      43.186  31.658  28.911  1.00  0.00     0.029 A 
ATOM     53  C   UNL A   1      44.171  30.805  28.442  1.00  0.00     0.049 A 
ATOM     54  H   UNL A   1      44.043  28.748  27.986  1.00  0.00     0.167 HD
ATOM     55  C   UNL A   1      46.460  30.213  27.681  1.00  0.00     0.074 A 
ATOM     56  C   UNL A   1      47.838  30.539  27.374  1.00  0.00     0.031 C 
ATOM     57  C   UNL A   1      45.547  31.105  28.138  1.00  0.00     0.037 A 
BRANCH  44  58
ATOM     58  C   UNL A   1      39.915  28.736  29.060  1.00  0.00     0.064 A 
ATOM     59  C   UNL A   1      38.945  29.133  28.128  1.00  0.00     0.173 A 
ATOM     60  C   UNL A   1      39.509  28.534  30.387  1.00  0.00     0.173 A 
ATOM     61  F   UNL A   1      39.287  29.354  26.850  1.00  0.00    -0.203 F 
ATOM     62  C   UNL A   1      37.623  29.340  28.516  1.00  0.00     0.198 A 
ATOM     63  C   UNL A   1      38.182  28.718  30.766  1.00  0.00     0.198 A 
ATOM     64  F   UNL A   1      40.398  28.152  31.316  1.00  0.00    -0.203 F 
ATOM     65  F   UNL A   1      36.721  29.759  27.618  1.00  0.00    -0.200 F 
ATOM     66  C   UNL A   1      37.242  29.127  29.833  1.00  0.00     0.200 A 
ATOM     67  F   UNL A   1      37.813  28.503  32.036  1.00  0.00    -0.200 F 
ATOM     68  F   UNL A   1      35.969  29.324  30.203  1.00  0.00    -0.200 F 
ENDBRANCH  44  58
BRANCH  45  69
ATOM     69  C   UNL A   1      49.261  26.766  26.118  1.00  0.00     0.064 A 
ATOM     70  C   UNL A   1      50.225  26.260  26.999  1.00  0.00     0.173 A 
ATOM     71  C   UNL A   1      49.643  26.989  24.787  1.00  0.00     0.173 A 
ATOM     72  F   UNL A   1      49.912  26.052  28.287  1.00  0.00    -0.203 F 
ATOM     73  C   UNL A   1      51.524  25.997  26.570  1.00  0.00     0.198 A 
ATOM     74  C   UNL A   1      50.935  26.704  24.353  1.00  0.00     0.198 A 
ATOM     75  F   UNL A   1      48.756  27.473  23.905  1.00  0.00    -0.203 F 
ATOM     76  F   UNL A   1      52.438  25.549  27.441  1.00  0.00    -0.200 F 
ATOM     77  C   UNL A   1      51.876  26.213  25.246  1.00  0.00     0.200 A 
ATOM     78  F   UNL A   1      51.269  26.905  23.071  1.00  0.00    -0.200 F 
ATOM     79  F   UNL A   1      53.125  25.957  24.832  1.00  0.00    -0.200 F 
ENDBRANCH  45  69
BRANCH  57  80
ATOM     80  C   UNL A   1      46.019  32.511  28.365  1.00  0.00     0.064 A 
ATOM     81  C   UNL A   1      46.566  32.913  29.591  1.00  0.00     0.173 A 
ATOM     82  C   UNL A   1      45.956  33.454  27.328  1.00  0.00     0.173 A 
ATOM     83  F   UNL A   1      46.632  32.050  30.617  1.00  0.00    -0.203 F 
ATOM     84  C   UNL A   1      47.016  34.218  29.779  1.00  0.00     0.198 A 
ATOM     85  C   UNL A   1      46.430  34.749  27.511  1.00  0.00     0.198 A 
ATOM     86  F   UNL A   1      45.445  33.116  26.135  1.00  0.00    -0.203 F 
ATOM     87  F   UNL A   1      47.499  34.593  30.970  1.00  0.00    -0.200 F 
ATOM     88  C   UNL A   1      46.954  35.132  28.737  1.00  0.00     0.200 A 
ATOM     89  F   UNL A   1      46.379  35.630  26.502  1.00  0.00    -0.200 F 
ATOM     90  F   UNL A   1      47.393  36.385  28.918  1.00  0.00    -0.200 F 
ENDBRANCH  57  80
ENDBRANCH  31  32
ENDBRANCH  24  26
ENDBRANCH  23  24
ENDBRANCH  22  23
ENDBRANCH   1  22
TORSDOF 16
ENDMDL
