MODEL 1
REMARK VINA RESULT:     -12.9      0.000      0.000
REMARK SMILES Cc1c(CC(=O)N[C@@H](CCO)C(=O)OCCOC(=O)c2ccc(-c3c4nc(c(-c5c(F)c(F)c(F)c(F)c5F)c5ccc([nH]5)c(-c5c(F)c(F)c(F)c(F)c5F)c5nc(c(-c6c(F)c(F)c(F)c(F)c6F)c6ccc3[nH]6)C=C5)C=C4)cc2)cc(-c2ccc(S(C)(=O)=O)cc2)n1-c1ccc(F)cc1
REMARK SMILES IDX 14 1 12 2 13 3 8 4 7 5 5 6 6 7 4 9 3 10 1 11 2 12 95 13
REMARK SMILES IDX 83 14 84 15 96 16 97 17 102 18 98 19 101 20 99 21 100 22
REMARK SMILES IDX 85 23 86 24 94 25 87 26 93 27 88 28 89 29 90 30 91 31 92 32
REMARK SMILES IDX 9 33 10 34 11 35 15 37 16 38 17 39 18 40 19 41 20 42 21 43
REMARK SMILES IDX 82 44 22 45 81 46 23 47 24 48 25 49 75 50 26 51 80 52 74 53
REMARK SMILES IDX 76 54 27 55 79 56 73 57 72 58 28 60 60 61 40 62 59 63 41 64
REMARK SMILES IDX 44 65 58 66 77 67 42 68 43 69 57 71 78 72 45 73 29 74 30 75
REMARK SMILES IDX 38 76 31 77 32 78 36 79 39 80 33 81 34 82 37 83 35 84 61 85
REMARK SMILES IDX 62 86 70 87 63 88 64 89 68 90 71 91 65 92 66 93 69 94 67 95
REMARK SMILES IDX 46 96 47 97 55 98 48 99 49 100 53 101 56 102 50 103 51 104
REMARK SMILES IDX 54 105 52 106
REMARK H PARENT 7 8 11 36 76 59 44 70
REMARK Flexibility Score: inf
ROOT
ATOM      1  O   UNL A   1      31.890  29.564  24.714  1.00  0.00    -0.461 OA
ENDROOT
BRANCH   1   2
ATOM      2  C   UNL A   1      31.076  28.484  24.528  1.00  0.00     0.328 C 
ATOM      3  O   UNL A   1      30.877  27.614  25.368  1.00  0.00    -0.250 OA
BRANCH   2   4
ATOM      4  C   UNL A   1      30.344  28.530  23.169  1.00  0.00     0.194 C 
BRANCH   4   5
ATOM      5  N   UNL A   1      30.968  27.786  22.068  1.00  0.00    -0.342 N 
ATOM      6  C   UNL A   1      31.257  26.453  21.985  1.00  0.00     0.225 C 
ATOM      7  O   UNL A   1      31.833  26.054  20.970  1.00  0.00    -0.275 OA
ATOM      8  H   UNL A   1      31.213  28.323  21.279  1.00  0.00     0.164 HD
BRANCH   6   9
ATOM      9  C   UNL A   1      30.837  25.493  23.092  1.00  0.00     0.137 C 
BRANCH   9  10
ATOM     10  C   UNL A   1      31.870  24.451  23.417  1.00  0.00    -0.017 A 
ATOM     11  C   UNL A   1      33.841  25.945  24.160  1.00  0.00     0.065 C 
ATOM     12  C   UNL A   1      33.147  24.640  23.931  1.00  0.00     0.024 A 
ATOM     13  N   UNL A   1      33.726  23.388  24.130  1.00  0.00    -0.314 N 
ATOM     14  C   UNL A   1      31.701  23.053  23.245  1.00  0.00     0.033 A 
ATOM     15  C   UNL A   1      32.804  22.405  23.767  1.00  0.00     0.053 A 
BRANCH  13  16
ATOM     16  C   UNL A   1      35.043  23.133  24.600  1.00  0.00     0.046 A 
ATOM     17  C   UNL A   1      35.981  22.564  23.725  1.00  0.00     0.029 A 
ATOM     18  C   UNL A   1      35.388  23.416  25.927  1.00  0.00     0.029 A 
ATOM     19  C   UNL A   1      37.269  22.288  24.177  1.00  0.00     0.041 A 
ATOM     20  C   UNL A   1      36.676  23.120  26.375  1.00  0.00     0.041 A 
ATOM     21  C   UNL A   1      37.602  22.563  25.498  1.00  0.00     0.123 A 
ATOM     22  F   UNL A   1      38.838  22.286  25.934  1.00  0.00    -0.207 F 
ENDBRANCH  13  16
BRANCH  15  23
ATOM     23  C   UNL A   1      32.950  20.962  24.007  1.00  0.00    -0.001 A 
ATOM     24  C   UNL A   1      32.563  20.026  23.035  1.00  0.00     0.011 A 
ATOM     25  C   UNL A   1      33.525  20.504  25.201  1.00  0.00     0.011 A 
ATOM     26  C   UNL A   1      32.715  18.654  23.262  1.00  0.00     0.021 A 
ATOM     27  C   UNL A   1      33.678  19.136  25.436  1.00  0.00     0.021 A 
ATOM     28  C   UNL A   1      33.261  18.217  24.471  1.00  0.00     0.067 A 
BRANCH  28  29
ATOM     29  S   UNL A   1      33.476  16.474  24.742  1.00  0.00     0.175 S 
ATOM     30  C   UNL A   1      32.086  16.011  25.741  1.00  0.00     0.163 C 
ATOM     31  O   UNL A   1      33.361  15.824  23.463  1.00  0.00    -0.224 OA
ATOM     32  O   UNL A   1      34.672  16.305  25.566  1.00  0.00    -0.224 OA
ENDBRANCH  28  29
ENDBRANCH  15  23
ENDBRANCH   9  10
ENDBRANCH   6   9
ENDBRANCH   4   5
BRANCH   4  33
ATOM     33  C   UNL A   1      28.841  28.210  23.257  1.00  0.00     0.065 C 
BRANCH  33  34
ATOM     34  C   UNL A   1      27.907  29.349  22.871  1.00  0.00     0.159 C 
BRANCH  34  35
ATOM     35  O   UNL A   1      26.555  28.984  23.085  1.00  0.00    -0.396 OA
ATOM     36  H   UNL A   1      26.489  28.019  23.167  1.00  0.00     0.210 HD
ENDBRANCH  34  35
ENDBRANCH  33  34
ENDBRANCH   4  33
ENDBRANCH   2   4
ENDBRANCH   1   2
BRANCH   1  37
ATOM     37  C   UNL A   1      33.159  29.320  25.373  1.00  0.00     0.274 C 
BRANCH  37  38
ATOM     38  C   UNL A   1      33.244  30.093  26.711  1.00  0.00     0.275 C 
BRANCH  38  39
ATOM     39  O   UNL A   1      34.371  31.019  26.885  1.00  0.00    -0.458 OA
BRANCH  39  40
ATOM     40  C   UNL A   1      34.770  31.296  28.163  1.00  0.00     0.338 C 
ATOM     41  O   UNL A   1      34.142  31.995  28.945  1.00  0.00    -0.246 OA
BRANCH  40  42
ATOM     42  C   UNL A   1      36.096  30.653  28.546  1.00  0.00     0.060 A 
ATOM     43  C   UNL A   1      37.036  30.382  27.563  1.00  0.00     0.016 A 
ATOM     44  C   UNL A   1      36.366  30.096  29.815  1.00  0.00     0.016 A 
ATOM     45  C   UNL A   1      38.219  29.633  27.866  1.00  0.00     0.010 A 
ATOM     46  C   UNL A   1      37.546  29.278  30.100  1.00  0.00     0.010 A 
ATOM     47  C   UNL A   1      38.528  29.009  29.131  1.00  0.00    -0.014 A 
BRANCH  47  48
ATOM     48  C   UNL A   1      39.613  27.819  29.114  1.00  0.00     0.031 A 
ATOM     49  C   UNL A   1      40.452  28.105  30.317  1.00  0.00     0.074 A 
ATOM     50  C   UNL A   1      40.069  26.735  28.358  1.00  0.00     0.049 A 
ATOM     51  N   UNL A   1      41.065  29.252  30.448  1.00  0.00    -0.248 NA
ATOM     52  C   UNL A   1      40.333  27.323  31.549  1.00  0.00     0.031 C 
ATOM     53  C   UNL A   1      39.608  26.298  27.030  1.00  0.00     0.029 A 
ATOM     54  N   UNL A   1      41.072  25.733  28.601  1.00  0.00    -0.354 N 
ATOM     55  C   UNL A   1      41.658  29.216  31.687  1.00  0.00     0.074 A 
ATOM     56  C   UNL A   1      40.984  28.134  32.389  1.00  0.00     0.031 C 
ATOM     57  C   UNL A   1      40.177  25.113  26.657  1.00  0.00     0.029 A 
ATOM     58  C   UNL A   1      41.134  24.641  27.657  1.00  0.00     0.049 A 
ATOM     59  H   UNL A   1      41.683  25.786  29.370  1.00  0.00     0.167 HD
ATOM     60  C   UNL A   1      42.984  29.535  31.721  1.00  0.00     0.037 A 
ATOM     61  C   UNL A   1      41.917  23.487  27.620  1.00  0.00     0.037 A 
ATOM     62  C   UNL A   1      43.816  28.369  31.813  1.00  0.00     0.049 A 
ATOM     63  C   UNL A   1      43.112  23.746  28.431  1.00  0.00     0.074 A 
ATOM     64  C   UNL A   1      43.759  27.239  32.602  1.00  0.00     0.029 A 
ATOM     65  N   UNL A   1      44.577  28.043  30.711  1.00  0.00    -0.354 N 
ATOM     66  N   UNL A   1      44.111  24.431  27.969  1.00  0.00    -0.248 NA
ATOM     67  C   UNL A   1      43.319  23.145  29.746  1.00  0.00     0.031 C 
ATOM     68  C   UNL A   1      44.016  26.171  31.715  1.00  0.00     0.029 A 
ATOM     69  C   UNL A   1      44.579  26.675  30.549  1.00  0.00     0.049 A 
ATOM     70  H   UNL A   1      45.045  28.685  30.131  1.00  0.00     0.167 HD
ATOM     71  C   UNL A   1      44.771  24.794  29.097  1.00  0.00     0.074 A 
ATOM     72  C   UNL A   1      44.451  23.772  30.074  1.00  0.00     0.031 C 
ATOM     73  C   UNL A   1      44.941  26.127  29.267  1.00  0.00     0.037 A 
BRANCH  60  74
ATOM     74  C   UNL A   1      43.316  30.766  30.935  1.00  0.00     0.064 A 
ATOM     75  C   UNL A   1      43.267  32.007  31.576  1.00  0.00     0.173 A 
ATOM     76  C   UNL A   1      43.502  30.760  29.539  1.00  0.00     0.173 A 
ATOM     77  F   UNL A   1      43.148  32.070  32.912  1.00  0.00    -0.203 F 
ATOM     78  C   UNL A   1      43.325  33.191  30.845  1.00  0.00     0.198 A 
ATOM     79  C   UNL A   1      43.497  31.941  28.806  1.00  0.00     0.198 A 
ATOM     80  F   UNL A   1      43.681  29.603  28.878  1.00  0.00    -0.203 F 
ATOM     81  F   UNL A   1      43.288  34.371  31.481  1.00  0.00    -0.200 F 
ATOM     82  C   UNL A   1      43.400  33.157  29.460  1.00  0.00     0.200 A 
ATOM     83  F   UNL A   1      43.579  31.896  27.469  1.00  0.00    -0.200 F 
ATOM     84  F   UNL A   1      43.394  34.297  28.755  1.00  0.00    -0.200 F 
ENDBRANCH  60  74
BRANCH  61  85
ATOM     85  C   UNL A   1      42.078  22.109  26.921  1.00  0.00     0.064 A 
ATOM     86  C   UNL A   1      42.972  21.936  25.804  1.00  0.00     0.173 A 
ATOM     87  C   UNL A   1      41.714  20.903  27.533  1.00  0.00     0.173 A 
ATOM     88  F   UNL A   1      43.387  22.975  25.067  1.00  0.00    -0.203 F 
ATOM     89  C   UNL A   1      43.544  20.707  25.435  1.00  0.00     0.198 A 
ATOM     90  C   UNL A   1      42.263  19.657  27.133  1.00  0.00     0.198 A 
ATOM     91  F   UNL A   1      40.889  20.914  28.587  1.00  0.00    -0.203 F 
ATOM     92  F   UNL A   1      44.474  20.657  24.467  1.00  0.00    -0.200 F 
ATOM     93  C   UNL A   1      43.202  19.565  26.116  1.00  0.00     0.200 A 
ATOM     94  F   UNL A   1      41.925  18.538  27.791  1.00  0.00    -0.200 F 
ATOM     95  F   UNL A   1      43.795  18.398  25.819  1.00  0.00    -0.200 F 
ENDBRANCH  61  85
BRANCH  73  96
ATOM     96  C   UNL A   1      45.345  26.915  28.030  1.00  0.00     0.064 A 
ATOM     97  C   UNL A   1      44.512  27.299  26.950  1.00  0.00     0.173 A 
ATOM     98  C   UNL A   1      46.710  27.199  27.878  1.00  0.00     0.173 A 
ATOM     99  F   UNL A   1      43.175  27.221  27.016  1.00  0.00    -0.203 F 
ATOM    100  C   UNL A   1      45.037  27.809  25.759  1.00  0.00     0.198 A 
ATOM    101  C   UNL A   1      47.222  27.767  26.713  1.00  0.00     0.198 A 
ATOM    102  F   UNL A   1      47.563  26.929  28.878  1.00  0.00    -0.203 F 
ATOM    103  F   UNL A   1      44.223  28.076  24.724  1.00  0.00    -0.200 F 
ATOM    104  C   UNL A   1      46.392  28.039  25.640  1.00  0.00     0.200 A 
ATOM    105  F   UNL A   1      48.531  28.043  26.632  1.00  0.00    -0.200 F 
ATOM    106  F   UNL A   1      46.898  28.539  24.504  1.00  0.00    -0.200 F 
ENDBRANCH  73  96
ENDBRANCH  47  48
ENDBRANCH  40  42
ENDBRANCH  39  40
ENDBRANCH  38  39
ENDBRANCH  37  38
ENDBRANCH   1  37
TORSDOF 20
ENDMDL
MODEL 2
REMARK VINA RESULT:     -11.2      6.256      9.000
REMARK SMILES Cc1c(CC(=O)N[C@@H](CCO)C(=O)OCCOC(=O)c2ccc(-c3c4nc(c(-c5c(F)c(F)c(F)c(F)c5F)c5ccc([nH]5)c(-c5c(F)c(F)c(F)c(F)c5F)c5nc(c(-c6c(F)c(F)c(F)c(F)c6F)c6ccc3[nH]6)C=C5)C=C4)cc2)cc(-c2ccc(S(C)(=O)=O)cc2)n1-c1ccc(F)cc1
REMARK SMILES IDX 14 1 12 2 13 3 8 4 7 5 5 6 6 7 4 9 3 10 1 11 2 12 95 13
REMARK SMILES IDX 83 14 84 15 96 16 97 17 102 18 98 19 101 20 99 21 100 22
REMARK SMILES IDX 85 23 86 24 94 25 87 26 93 27 88 28 89 29 90 30 91 31 92 32
REMARK SMILES IDX 9 33 10 34 11 35 15 37 16 38 17 39 18 40 19 41 20 42 21 43
REMARK SMILES IDX 82 44 22 45 81 46 23 47 24 48 25 49 75 50 26 51 80 52 74 53
REMARK SMILES IDX 76 54 27 55 79 56 73 57 72 58 28 60 60 61 40 62 59 63 41 64
REMARK SMILES IDX 44 65 58 66 77 67 42 68 43 69 57 71 78 72 45 73 29 74 30 75
REMARK SMILES IDX 38 76 31 77 32 78 36 79 39 80 33 81 34 82 37 83 35 84 61 85
REMARK SMILES IDX 62 86 70 87 63 88 64 89 68 90 71 91 65 92 66 93 69 94 67 95
REMARK SMILES IDX 46 96 47 97 55 98 48 99 49 100 53 101 56 102 50 103 51 104
REMARK SMILES IDX 54 105 52 106
REMARK H PARENT 7 8 11 36 76 59 44 70
REMARK Flexibility Score: inf
ROOT
ATOM      1  O   UNL A   1      35.600  34.502  32.590  1.00  0.00    -0.461 OA
ENDROOT
BRANCH   1   2
ATOM      2  C   UNL A   1      34.298  34.320  32.222  1.00  0.00     0.328 C 
ATOM      3  O   UNL A   1      33.505  33.599  32.817  1.00  0.00    -0.250 OA
BRANCH   2   4
ATOM      4  C   UNL A   1      33.898  35.210  31.025  1.00  0.00     0.194 C 
BRANCH   4   5
ATOM      5  N   UNL A   1      33.070  34.577  29.991  1.00  0.00    -0.342 N 
ATOM      6  C   UNL A   1      33.372  34.326  28.683  1.00  0.00     0.225 C 
ATOM      7  O   UNL A   1      32.493  33.821  27.978  1.00  0.00    -0.275 OA
ATOM      8  H   UNL A   1      32.172  34.293  30.282  1.00  0.00     0.164 HD
BRANCH   6   9
ATOM      9  C   UNL A   1      34.762  34.619  28.132  1.00  0.00     0.137 C 
BRANCH   9  10
ATOM     10  C   UNL A   1      35.837  33.730  28.691  1.00  0.00    -0.017 A 
ATOM     11  C   UNL A   1      35.075  31.431  27.796  1.00  0.00     0.065 C 
ATOM     12  C   UNL A   1      36.006  32.364  28.503  1.00  0.00     0.024 A 
ATOM     13  N   UNL A   1      37.171  31.974  29.161  1.00  0.00    -0.314 N 
ATOM     14  C   UNL A   1      36.894  34.160  29.536  1.00  0.00     0.033 A 
ATOM     15  C   UNL A   1      37.754  33.100  29.743  1.00  0.00     0.053 A 
BRANCH  13  16
ATOM     16  C   UNL A   1      37.684  30.651  29.255  1.00  0.00     0.046 A 
ATOM     17  C   UNL A   1      38.321  30.087  28.139  1.00  0.00     0.029 A 
ATOM     18  C   UNL A   1      37.525  29.913  30.434  1.00  0.00     0.029 A 
ATOM     19  C   UNL A   1      38.809  28.785  28.208  1.00  0.00     0.041 A 
ATOM     20  C   UNL A   1      38.002  28.602  30.487  1.00  0.00     0.041 A 
ATOM     21  C   UNL A   1      38.640  28.053  29.379  1.00  0.00     0.123 A 
ATOM     22  F   UNL A   1      39.100  26.796  29.438  1.00  0.00    -0.207 F 
ENDBRANCH  13  16
BRANCH  15  23
ATOM     23  C   UNL A   1      39.088  33.152  30.361  1.00  0.00    -0.001 A 
ATOM     24  C   UNL A   1      40.222  32.695  29.670  1.00  0.00     0.011 A 
ATOM     25  C   UNL A   1      39.248  33.705  31.639  1.00  0.00     0.011 A 
ATOM     26  C   UNL A   1      41.490  32.758  30.256  1.00  0.00     0.021 A 
ATOM     27  C   UNL A   1      40.511  33.769  32.232  1.00  0.00     0.021 A 
ATOM     28  C   UNL A   1      41.624  33.284  31.543  1.00  0.00     0.067 A 
BRANCH  28  29
ATOM     29  S   UNL A   1      43.242  33.386  32.271  1.00  0.00     0.175 S 
ATOM     30  C   UNL A   1      43.917  31.758  32.069  1.00  0.00     0.163 C 
ATOM     31  O   UNL A   1      44.013  34.305  31.476  1.00  0.00    -0.224 OA
ATOM     32  O   UNL A   1      43.062  33.600  33.706  1.00  0.00    -0.224 OA
ENDBRANCH  28  29
ENDBRANCH  15  23
ENDBRANCH   9  10
ENDBRANCH   6   9
ENDBRANCH   4   5
BRANCH   4  33
ATOM     33  C   UNL A   1      33.313  36.575  31.428  1.00  0.00     0.065 C 
BRANCH  33  34
ATOM     34  C   UNL A   1      32.839  36.682  32.872  1.00  0.00     0.159 C 
BRANCH  34  35
ATOM     35  O   UNL A   1      31.582  36.049  33.037  1.00  0.00    -0.396 OA
ATOM     36  H   UNL A   1      30.911  36.523  32.520  1.00  0.00     0.210 HD
ENDBRANCH  34  35
ENDBRANCH  33  34
ENDBRANCH   4  33
ENDBRANCH   2   4
ENDBRANCH   1   2
BRANCH   1  37
ATOM     37  C   UNL A   1      35.874  34.566  34.013  1.00  0.00     0.274 C 
BRANCH  37  38
ATOM     38  C   UNL A   1      36.874  33.462  34.433  1.00  0.00     0.275 C 
BRANCH  38  39
ATOM     39  O   UNL A   1      36.770  32.943  35.804  1.00  0.00    -0.458 OA
BRANCH  39  40
ATOM     40  C   UNL A   1      37.876  32.342  36.337  1.00  0.00     0.338 C 
ATOM     41  O   UNL A   1      38.102  32.254  37.535  1.00  0.00    -0.246 OA
BRANCH  40  42
ATOM     42  C   UNL A   1      38.832  31.779  35.294  1.00  0.00     0.060 A 
ATOM     43  C   UNL A   1      38.337  30.995  34.263  1.00  0.00     0.016 A 
ATOM     44  C   UNL A   1      40.239  31.808  35.416  1.00  0.00     0.016 A 
ATOM     45  C   UNL A   1      39.226  30.320  33.364  1.00  0.00     0.010 A 
ATOM     46  C   UNL A   1      41.137  31.064  34.531  1.00  0.00     0.010 A 
ATOM     47  C   UNL A   1      40.666  30.283  33.463  1.00  0.00    -0.014 A 
BRANCH  47  48
ATOM     48  C   UNL A   1      41.420  29.087  32.692  1.00  0.00     0.031 A 
ATOM     49  C   UNL A   1      41.869  28.195  33.803  1.00  0.00     0.074 A 
ATOM     50  C   UNL A   1      41.853  28.669  31.430  1.00  0.00     0.049 A 
ATOM     51  N   UNL A   1      42.636  28.650  34.758  1.00  0.00    -0.248 NA
ATOM     52  C   UNL A   1      41.197  26.928  34.101  1.00  0.00     0.031 C 
ATOM     53  C   UNL A   1      41.761  29.397  30.154  1.00  0.00     0.029 A 
ATOM     54  N   UNL A   1      42.488  27.464  30.968  1.00  0.00    -0.354 N 
ATOM     55  C   UNL A   1      42.779  27.611  35.647  1.00  0.00     0.074 A 
ATOM     56  C   UNL A   1      41.701  26.691  35.317  1.00  0.00     0.031 C 
ATOM     57  C   UNL A   1      42.154  28.626  29.096  1.00  0.00     0.029 A 
ATOM     58  C   UNL A   1      42.616  27.310  29.538  1.00  0.00     0.049 A 
ATOM     59  H   UNL A   1      42.816  26.778  31.593  1.00  0.00     0.167 HD
ATOM     60  C   UNL A   1      44.059  27.305  36.003  1.00  0.00     0.037 A 
ATOM     61  C   UNL A   1      43.106  26.264  28.755  1.00  0.00     0.037 A 
ATOM     62  C   UNL A   1      44.549  26.149  35.306  1.00  0.00     0.049 A 
ATOM     63  C   UNL A   1      44.003  25.470  29.601  1.00  0.00     0.074 A 
ATOM     64  C   UNL A   1      44.004  24.908  35.051  1.00  0.00     0.029 A 
ATOM     65  N   UNL A   1      45.536  26.348  34.364  1.00  0.00    -0.354 N 
ATOM     66  N   UNL A   1      45.219  25.849  29.845  1.00  0.00    -0.248 NA
ATOM     67  C   UNL A   1      43.644  24.149  30.111  1.00  0.00     0.031 C 
ATOM     68  C   UNL A   1      44.298  24.662  33.693  1.00  0.00     0.029 A 
ATOM     69  C   UNL A   1      45.300  25.532  33.280  1.00  0.00     0.049 A 
ATOM     70  H   UNL A   1      46.291  26.972  34.453  1.00  0.00     0.167 HD
ATOM     71  C   UNL A   1      45.543  25.124  30.944  1.00  0.00     0.074 A 
ATOM     72  C   UNL A   1      44.717  23.934  30.877  1.00  0.00     0.031 C 
ATOM     73  C   UNL A   1      45.928  25.846  32.022  1.00  0.00     0.037 A 
BRANCH  60  74
ATOM     74  C   UNL A   1      44.880  28.508  36.354  1.00  0.00     0.064 A 
ATOM     75  C   UNL A   1      45.126  28.783  37.702  1.00  0.00     0.173 A 
ATOM     76  C   UNL A   1      45.266  29.476  35.408  1.00  0.00     0.173 A 
ATOM     77  F   UNL A   1      44.828  27.871  38.641  1.00  0.00    -0.203 F 
ATOM     78  C   UNL A   1      45.667  30.007  38.093  1.00  0.00     0.198 A 
ATOM     79  C   UNL A   1      45.748  30.719  35.804  1.00  0.00     0.198 A 
ATOM     80  F   UNL A   1      45.171  29.222  34.091  1.00  0.00    -0.203 F 
ATOM     81  F   UNL A   1      45.906  30.246  39.390  1.00  0.00    -0.200 F 
ATOM     82  C   UNL A   1      45.940  30.986  37.149  1.00  0.00     0.200 A 
ATOM     83  F   UNL A   1      46.016  31.654  34.883  1.00  0.00    -0.200 F 
ATOM     84  F   UNL A   1      46.403  32.184  37.533  1.00  0.00    -0.200 F 
ENDBRANCH  60  74
BRANCH  61  85
ATOM     85  C   UNL A   1      43.185  25.724  27.300  1.00  0.00     0.064 A 
ATOM     86  C   UNL A   1      44.283  26.070  26.433  1.00  0.00     0.173 A 
ATOM     87  C   UNL A   1      42.470  24.600  26.870  1.00  0.00     0.173 A 
ATOM     88  F   UNL A   1      45.048  27.147  26.660  1.00  0.00    -0.203 F 
ATOM     89  C   UNL A   1      44.699  25.292  25.339  1.00  0.00     0.198 A 
ATOM     90  C   UNL A   1      42.869  23.837  25.741  1.00  0.00     0.198 A 
ATOM     91  F   UNL A   1      41.425  24.163  27.582  1.00  0.00    -0.203 F 
ATOM     92  F   UNL A   1      45.816  25.614  24.666  1.00  0.00    -0.200 F 
ATOM     93  C   UNL A   1      44.000  24.159  25.004  1.00  0.00     0.200 A 
ATOM     94  F   UNL A   1      42.184  22.735  25.406  1.00  0.00    -0.200 F 
ATOM     95  F   UNL A   1      44.429  23.371  24.006  1.00  0.00    -0.200 F 
ENDBRANCH  61  85
BRANCH  73  96
ATOM     96  C   UNL A   1      46.866  27.012  31.749  1.00  0.00     0.064 A 
ATOM     97  C   UNL A   1      46.511  28.309  31.300  1.00  0.00     0.173 A 
ATOM     98  C   UNL A   1      48.242  26.753  31.840  1.00  0.00     0.173 A 
ATOM     99  F   UNL A   1      45.242  28.742  31.301  1.00  0.00    -0.203 F 
ATOM    100  C   UNL A   1      47.470  29.223  30.854  1.00  0.00     0.198 A 
ATOM    101  C   UNL A   1      49.198  27.692  31.454  1.00  0.00     0.198 A 
ATOM    102  F   UNL A   1      48.669  25.575  32.318  1.00  0.00    -0.203 F 
ATOM    103  F   UNL A   1      47.088  30.407  30.349  1.00  0.00    -0.200 F 
ATOM    104  C   UNL A   1      48.813  28.912  30.928  1.00  0.00     0.200 A 
ATOM    105  F   UNL A   1      50.499  27.402  31.588  1.00  0.00    -0.200 F 
ATOM    106  F   UNL A   1      49.736  29.790  30.512  1.00  0.00    -0.200 F 
ENDBRANCH  73  96
ENDBRANCH  47  48
ENDBRANCH  40  42
ENDBRANCH  39  40
ENDBRANCH  38  39
ENDBRANCH  37  38
ENDBRANCH   1  37
TORSDOF 20
ENDMDL
MODEL 3
REMARK VINA RESULT:     -11.1      2.990      5.581
REMARK SMILES Cc1c(CC(=O)N[C@@H](CCO)C(=O)OCCOC(=O)c2ccc(-c3c4nc(c(-c5c(F)c(F)c(F)c(F)c5F)c5ccc([nH]5)c(-c5c(F)c(F)c(F)c(F)c5F)c5nc(c(-c6c(F)c(F)c(F)c(F)c6F)c6ccc3[nH]6)C=C5)C=C4)cc2)cc(-c2ccc(S(C)(=O)=O)cc2)n1-c1ccc(F)cc1
REMARK SMILES IDX 14 1 12 2 13 3 8 4 7 5 5 6 6 7 4 9 3 10 1 11 2 12 95 13
REMARK SMILES IDX 83 14 84 15 96 16 97 17 102 18 98 19 101 20 99 21 100 22
REMARK SMILES IDX 85 23 86 24 94 25 87 26 93 27 88 28 89 29 90 30 91 31 92 32
REMARK SMILES IDX 9 33 10 34 11 35 15 37 16 38 17 39 18 40 19 41 20 42 21 43
REMARK SMILES IDX 82 44 22 45 81 46 23 47 24 48 25 49 75 50 26 51 80 52 74 53
REMARK SMILES IDX 76 54 27 55 79 56 73 57 72 58 28 60 60 61 40 62 59 63 41 64
REMARK SMILES IDX 44 65 58 66 77 67 42 68 43 69 57 71 78 72 45 73 29 74 30 75
REMARK SMILES IDX 38 76 31 77 32 78 36 79 39 80 33 81 34 82 37 83 35 84 61 85
REMARK SMILES IDX 62 86 70 87 63 88 64 89 68 90 71 91 65 92 66 93 69 94 67 95
REMARK SMILES IDX 46 96 47 97 55 98 48 99 49 100 53 101 56 102 50 103 51 104
REMARK SMILES IDX 54 105 52 106
REMARK H PARENT 7 8 11 36 76 59 44 70
REMARK Flexibility Score: inf
ROOT
ATOM      1  O   UNL A   1      34.880  34.896  31.022  1.00  0.00    -0.461 OA
ENDROOT
BRANCH   1   2
ATOM      2  C   UNL A   1      34.879  33.724  30.323  1.00  0.00     0.328 C 
ATOM      3  O   UNL A   1      34.412  32.670  30.740  1.00  0.00    -0.250 OA
BRANCH   2   4
ATOM      4  C   UNL A   1      35.442  33.892  28.895  1.00  0.00     0.194 C 
BRANCH   4   5
ATOM      5  N   UNL A   1      35.995  32.686  28.266  1.00  0.00    -0.342 N 
ATOM      6  C   UNL A   1      35.354  31.534  27.906  1.00  0.00     0.225 C 
ATOM      7  O   UNL A   1      36.038  30.624  27.430  1.00  0.00    -0.275 OA
ATOM      8  H   UNL A   1      36.961  32.711  28.078  1.00  0.00     0.164 HD
BRANCH   6   9
ATOM      9  C   UNL A   1      33.842  31.405  28.044  1.00  0.00     0.137 C 
BRANCH   9  10
ATOM     10  C   UNL A   1      33.238  30.356  27.155  1.00  0.00    -0.017 A 
ATOM     11  C   UNL A   1      31.184  31.626  26.240  1.00  0.00     0.065 C 
ATOM     12  C   UNL A   1      32.123  30.465  26.333  1.00  0.00     0.024 A 
ATOM     13  N   UNL A   1      31.967  29.262  25.647  1.00  0.00    -0.314 N 
ATOM     14  C   UNL A   1      33.727  29.031  27.006  1.00  0.00     0.033 A 
ATOM     15  C   UNL A   1      33.000  28.399  26.015  1.00  0.00     0.053 A 
BRANCH  13  16
ATOM     16  C   UNL A   1      30.923  28.939  24.738  1.00  0.00     0.046 A 
ATOM     17  C   UNL A   1      30.463  29.924  23.851  1.00  0.00     0.029 A 
ATOM     18  C   UNL A   1      30.340  27.666  24.753  1.00  0.00     0.029 A 
ATOM     19  C   UNL A   1      29.426  29.630  22.970  1.00  0.00     0.041 A 
ATOM     20  C   UNL A   1      29.290  27.386  23.878  1.00  0.00     0.041 A 
ATOM     21  C   UNL A   1      28.846  28.367  22.995  1.00  0.00     0.123 A 
ATOM     22  F   UNL A   1      27.840  28.090  22.154  1.00  0.00    -0.207 F 
ENDBRANCH  13  16
BRANCH  15  23
ATOM     23  C   UNL A   1      33.308  27.110  25.380  1.00  0.00    -0.001 A 
ATOM     24  C   UNL A   1      33.639  27.038  24.017  1.00  0.00     0.011 A 
ATOM     25  C   UNL A   1      33.319  25.936  26.144  1.00  0.00     0.011 A 
ATOM     26  C   UNL A   1      33.944  25.811  23.419  1.00  0.00     0.021 A 
ATOM     27  C   UNL A   1      33.620  24.706  25.554  1.00  0.00     0.021 A 
ATOM     28  C   UNL A   1      33.919  24.648  24.192  1.00  0.00     0.067 A 
BRANCH  28  29
ATOM     29  S   UNL A   1      34.333  23.096  23.431  1.00  0.00     0.175 S 
ATOM     30  C   UNL A   1      32.939  22.054  23.774  1.00  0.00     0.163 C 
ATOM     31  O   UNL A   1      34.402  23.319  22.012  1.00  0.00    -0.224 OA
ATOM     32  O   UNL A   1      35.472  22.543  24.162  1.00  0.00    -0.224 OA
ENDBRANCH  28  29
ENDBRANCH  15  23
ENDBRANCH   9  10
ENDBRANCH   6   9
ENDBRANCH   4   5
BRANCH   4  33
ATOM     33  C   UNL A   1      34.491  34.620  27.929  1.00  0.00     0.065 C 
BRANCH  33  34
ATOM     34  C   UNL A   1      33.421  35.480  28.590  1.00  0.00     0.159 C 
BRANCH  34  35
ATOM     35  O   UNL A   1      33.891  36.802  28.789  1.00  0.00    -0.396 OA
ATOM     36  H   UNL A   1      33.591  37.124  29.654  1.00  0.00     0.210 HD
ENDBRANCH  34  35
ENDBRANCH  33  34
ENDBRANCH   4  33
ENDBRANCH   2   4
ENDBRANCH   1   2
BRANCH   1  37
ATOM     37  C   UNL A   1      34.080  34.937  32.232  1.00  0.00     0.274 C 
BRANCH  37  38
ATOM     38  C   UNL A   1      34.930  35.399  33.440  1.00  0.00     0.275 C 
BRANCH  38  39
ATOM     39  O   UNL A   1      36.293  34.860  33.552  1.00  0.00    -0.458 OA
BRANCH  39  40
ATOM     40  C   UNL A   1      36.431  33.587  34.032  1.00  0.00     0.338 C 
ATOM     41  O   UNL A   1      36.102  33.235  35.155  1.00  0.00    -0.246 OA
BRANCH  40  42
ATOM     42  C   UNL A   1      37.048  32.618  33.033  1.00  0.00     0.060 A 
ATOM     43  C   UNL A   1      37.035  31.257  33.299  1.00  0.00     0.016 A 
ATOM     44  C   UNL A   1      37.844  33.015  31.936  1.00  0.00     0.016 A 
ATOM     45  C   UNL A   1      37.748  30.339  32.462  1.00  0.00     0.010 A 
ATOM     46  C   UNL A   1      38.621  32.076  31.124  1.00  0.00     0.010 A 
ATOM     47  C   UNL A   1      38.606  30.690  31.355  1.00  0.00    -0.014 A 
BRANCH  47  48
ATOM     48  C   UNL A   1      39.686  29.590  30.890  1.00  0.00     0.031 A 
ATOM     49  C   UNL A   1      40.631  29.530  32.045  1.00  0.00     0.074 A 
ATOM     50  C   UNL A   1      40.071  28.790  29.809  1.00  0.00     0.049 A 
ATOM     51  N   UNL A   1      41.253  30.604  32.456  1.00  0.00    -0.248 NA
ATOM     52  C   UNL A   1      40.627  28.416  32.995  1.00  0.00     0.031 C 
ATOM     53  C   UNL A   1      39.490  28.753  28.457  1.00  0.00     0.029 A 
ATOM     54  N   UNL A   1      41.092  27.790  29.654  1.00  0.00    -0.354 N 
ATOM     55  C   UNL A   1      41.959  30.219  33.571  1.00  0.00     0.074 A 
ATOM     56  C   UNL A   1      41.352  28.960  33.977  1.00  0.00     0.031 C 
ATOM     57  C   UNL A   1      40.022  27.748  27.700  1.00  0.00     0.029 A 
ATOM     58  C   UNL A   1      41.068  27.028  28.427  1.00  0.00     0.049 A 
ATOM     59  H   UNL A   1      41.772  27.630  30.348  1.00  0.00     0.167 HD
ATOM     60  C   UNL A   1      43.282  30.551  33.582  1.00  0.00     0.037 A 
ATOM     61  C   UNL A   1      41.846  25.959  27.980  1.00  0.00     0.037 A 
ATOM     62  C   UNL A   1      44.119  29.434  33.251  1.00  0.00     0.049 A 
ATOM     63  C   UNL A   1      43.110  26.000  28.723  1.00  0.00     0.074 A 
ATOM     64  C   UNL A   1      44.136  28.119  33.670  1.00  0.00     0.029 A 
ATOM     65  N   UNL A   1      44.775  29.470  32.039  1.00  0.00    -0.354 N 
ATOM     66  N   UNL A   1      44.062  26.819  28.400  1.00  0.00    -0.248 NA
ATOM     67  C   UNL A   1      43.438  25.043  29.777  1.00  0.00     0.031 C 
ATOM     68  C   UNL A   1      44.310  27.370  32.487  1.00  0.00     0.029 A 
ATOM     69  C   UNL A   1      44.764  28.211  31.478  1.00  0.00     0.049 A 
ATOM     70  H   UNL A   1      45.188  30.268  31.638  1.00  0.00     0.167 HD
ATOM     71  C   UNL A   1      44.823  26.850  29.522  1.00  0.00     0.074 A 
ATOM     72  C   UNL A   1      44.594  25.577  30.176  1.00  0.00     0.031 C 
ATOM     73  C   UNL A   1      45.006  28.077  30.065  1.00  0.00     0.037 A 
BRANCH  60  74
ATOM     74  C   UNL A   1      43.539  31.968  33.171  1.00  0.00     0.064 A 
ATOM     75  C   UNL A   1      43.763  32.926  34.165  1.00  0.00     0.173 A 
ATOM     76  C   UNL A   1      43.391  32.423  31.847  1.00  0.00     0.173 A 
ATOM     77  F   UNL A   1      43.967  32.543  35.435  1.00  0.00    -0.203 F 
ATOM     78  C   UNL A   1      43.764  34.285  33.859  1.00  0.00     0.198 A 
ATOM     79  C   UNL A   1      43.330  33.781  31.554  1.00  0.00     0.198 A 
ATOM     80  F   UNL A   1      43.296  31.549  30.831  1.00  0.00    -0.203 F 
ATOM     81  F   UNL A   1      43.992  35.187  34.824  1.00  0.00    -0.200 F 
ATOM     82  C   UNL A   1      43.508  34.712  32.563  1.00  0.00     0.200 A 
ATOM     83  F   UNL A   1      43.092  34.182  30.298  1.00  0.00    -0.200 F 
ATOM     84  F   UNL A   1      43.449  36.021  32.283  1.00  0.00    -0.200 F 
ENDBRANCH  60  74
BRANCH  61  85
ATOM     85  C   UNL A   1      41.942  24.854  26.892  1.00  0.00     0.064 A 
ATOM     86  C   UNL A   1      42.900  24.942  25.819  1.00  0.00     0.173 A 
ATOM     87  C   UNL A   1      41.433  23.563  27.078  1.00  0.00     0.173 A 
ATOM     88  F   UNL A   1      43.455  26.110  25.464  1.00  0.00    -0.203 F 
ATOM     89  C   UNL A   1      43.393  23.835  25.109  1.00  0.00     0.198 A 
ATOM     90  C   UNL A   1      41.904  22.451  26.332  1.00  0.00     0.198 A 
ATOM     91  F   UNL A   1      40.535  23.334  28.043  1.00  0.00    -0.203 F 
ATOM     92  F   UNL A   1      44.385  23.990  24.218  1.00  0.00    -0.200 F 
ATOM     93  C   UNL A   1      42.906  22.580  25.381  1.00  0.00     0.200 A 
ATOM     94  F   UNL A   1      41.425  21.225  26.589  1.00  0.00    -0.200 F 
ATOM     95  F   UNL A   1      43.420  21.507  24.760  1.00  0.00    -0.200 F 
ENDBRANCH  61  85
BRANCH  73  96
ATOM     96  C   UNL A   1      45.294  29.207  29.087  1.00  0.00     0.064 A 
ATOM     97  C   UNL A   1      44.353  29.923  28.306  1.00  0.00     0.173 A 
ATOM     98  C   UNL A   1      46.643  29.503  28.841  1.00  0.00     0.173 A 
ATOM     99  F   UNL A   1      43.034  29.850  28.532  1.00  0.00    -0.203 F 
ATOM    100  C   UNL A   1      44.750  30.773  27.269  1.00  0.00     0.198 A 
ATOM    101  C   UNL A   1      47.034  30.400  27.848  1.00  0.00     0.198 A 
ATOM    102  F   UNL A   1      47.600  28.919  29.579  1.00  0.00    -0.203 F 
ATOM    103  F   UNL A   1      43.828  31.363  26.492  1.00  0.00    -0.200 F 
ATOM    104  C   UNL A   1      46.091  31.008  27.039  1.00  0.00     0.200 A 
ATOM    105  F   UNL A   1      48.336  30.666  27.674  1.00  0.00    -0.200 F 
ATOM    106  F   UNL A   1      46.476  31.830  26.053  1.00  0.00    -0.200 F 
ENDBRANCH  73  96
ENDBRANCH  47  48
ENDBRANCH  40  42
ENDBRANCH  39  40
ENDBRANCH  38  39
ENDBRANCH  37  38
ENDBRANCH   1  37
TORSDOF 20
ENDMDL
