MODEL 1
REMARK VINA RESULT:     -12.4      0.000      0.000
REMARK SMILES Cc1cnn([C@H]2CC[C@@]([NH3+])(C(=O)OCCOC(=O)c3ccc(-c4c5nc(c(-c6c(F)c(F)c(F)c(F)c6F)c6ccc([nH]6)c(-c6c(F)c(F)c(F)c(F)c6F)c6nc(c(-c7c(F)c(F)c(F)c(F)c7F)c7ccc4[nH]7)C=C6)C=C5)cc3)C2)c1
REMARK SMILES IDX 15 1 14 2 13 3 11 4 12 5 9 6 6 7 7 8 82 9 8 10 5 11 1 12
REMARK SMILES IDX 2 13 3 14 83 15 4 16 10 17 16 21 17 22 18 23 19 24 20 25
REMARK SMILES IDX 81 26 21 27 80 28 22 29 23 30 24 31 74 32 25 33 79 34 73 35
REMARK SMILES IDX 75 36 26 37 78 38 72 39 71 40 27 42 59 43 39 44 58 45 40 46
REMARK SMILES IDX 43 47 57 48 76 49 41 50 42 51 56 53 77 54 44 55 28 56 29 57
REMARK SMILES IDX 37 58 30 59 31 60 35 61 38 62 32 63 33 64 36 65 34 66 60 67
REMARK SMILES IDX 61 68 69 69 62 70 63 71 67 72 70 73 64 74 65 75 68 76 66 77
REMARK SMILES IDX 45 78 46 79 54 80 47 81 48 82 52 83 55 84 49 85 50 86 53 87
REMARK SMILES IDX 51 88
REMARK H PARENT 10 18 10 19 10 20 75 41 43 52
REMARK Flexibility Score: inf
ROOT
ATOM      1  C   UNL A   1      33.199  29.668  27.185  1.00  0.00     0.275 C 
ENDROOT
BRANCH   1   2
ATOM      2  C   UNL A   1      33.522  28.987  25.847  1.00  0.00     0.274 C 
BRANCH   2   3
ATOM      3  O   UNL A   1      32.897  29.652  24.723  1.00  0.00    -0.457 OA
BRANCH   3   4
ATOM      4  C   UNL A   1      32.964  29.000  23.528  1.00  0.00     0.368 C 
ATOM      5  O   UNL A   1      34.019  28.728  22.954  1.00  0.00    -0.245 OA
BRANCH   4   6
ATOM      6  C   UNL A   1      31.565  28.654  22.893  1.00  0.00     0.194 C 
ATOM      7  C   UNL A   1      31.106  26.255  23.262  1.00  0.00     0.114 C 
ATOM      8  C   UNL A   1      29.957  27.034  23.905  1.00  0.00     0.034 C 
ATOM      9  C   UNL A   1      31.622  27.256  22.218  1.00  0.00     0.108 C 
ATOM     10  C   UNL A   1      30.339  28.531  23.830  1.00  0.00     0.083 C 
BRANCH   7  11
ATOM     11  N   UNL A   1      32.104  25.738  24.206  1.00  0.00    -0.269 N 
ATOM     12  C   UNL A   1      33.381  22.989  27.421  1.00  0.00     0.048 C 
ATOM     13  C   UNL A   1      33.212  23.910  26.247  1.00  0.00    -0.013 A 
ATOM     14  C   UNL A   1      34.675  24.575  25.081  1.00  0.00     0.138 A 
ATOM     15  C   UNL A   1      31.713  24.656  25.657  1.00  0.00     0.112 A 
ATOM     16  N   UNL A   1      33.980  25.636  23.864  1.00  0.00    -0.181 NA
ENDBRANCH   7  11
BRANCH   6  17
ATOM     17  N   UNL A   1      31.325  29.694  21.865  1.00  0.00    -0.343 N 
ATOM     18  H   UNL A   1      30.383  30.070  21.975  1.00  0.00     0.345 HD
ATOM     19  H   UNL A   1      31.421  29.283  20.936  1.00  0.00     0.345 HD
ATOM     20  H   UNL A   1      32.005  30.446  21.976  1.00  0.00     0.345 HD
ENDBRANCH   6  17
ENDBRANCH   4   6
ENDBRANCH   3   4
ENDBRANCH   2   3
ENDBRANCH   1   2
BRANCH   1  21
ATOM     21  O   UNL A   1      32.021  30.494  27.103  1.00  0.00    -0.458 OA
BRANCH  21  22
ATOM     22  C   UNL A   1      32.188  31.988  27.273  1.00  0.00     0.338 C 
ATOM     23  O   UNL A   1      31.287  32.437  26.515  1.00  0.00    -0.246 OA
BRANCH  22  24
ATOM     24  C   UNL A   1      33.841  33.010  28.357  1.00  0.00     0.060 A 
ATOM     25  C   UNL A   1      34.993  33.798  27.790  1.00  0.00     0.016 A 
ATOM     26  C   UNL A   1      34.341  32.831  29.720  1.00  0.00     0.016 A 
ATOM     27  C   UNL A   1      36.310  33.445  28.064  1.00  0.00     0.010 A 
ATOM     28  C   UNL A   1      35.500  32.126  29.873  1.00  0.00     0.010 A 
ATOM     29  C   UNL A   1      36.506  32.432  28.985  1.00  0.00    -0.014 A 
BRANCH  29  30
ATOM     30  C   UNL A   1      37.825  32.118  29.464  1.00  0.00     0.031 A 
ATOM     31  C   UNL A   1      38.059  30.679  29.150  1.00  0.00     0.074 A 
ATOM     32  C   UNL A   1      38.695  33.064  29.859  1.00  0.00     0.049 A 
ATOM     33  N   UNL A   1      37.894  29.681  29.959  1.00  0.00    -0.248 NA
ATOM     34  C   UNL A   1      38.055  30.255  27.724  1.00  0.00     0.031 C 
ATOM     35  C   UNL A   1      38.531  34.522  29.859  1.00  0.00     0.029 A 
ATOM     36  N   UNL A   1      39.984  32.899  30.262  1.00  0.00    -0.354 N 
ATOM     37  C   UNL A   1      38.098  28.558  29.159  1.00  0.00     0.074 A 
ATOM     38  C   UNL A   1      37.773  28.956  27.832  1.00  0.00     0.031 C 
ATOM     39  C   UNL A   1      39.740  35.112  30.024  1.00  0.00     0.029 A 
ATOM     40  C   UNL A   1      40.731  34.082  30.273  1.00  0.00     0.049 A 
ATOM     41  H   UNL A   1      40.358  32.026  30.522  1.00  0.00     0.167 HD
ATOM     42  C   UNL A   1      39.019  27.633  29.546  1.00  0.00     0.037 A 
ATOM     43  C   UNL A   1      42.082  34.121  30.411  1.00  0.00     0.037 A 
ATOM     44  C   UNL A   1      39.288  27.802  30.956  1.00  0.00     0.049 A 
ATOM     45  C   UNL A   1      42.479  32.807  30.987  1.00  0.00     0.074 A 
ATOM     46  C   UNL A   1      38.562  27.649  32.117  1.00  0.00     0.029 A 
ATOM     47  N   UNL A   1      40.289  28.707  31.214  1.00  0.00    -0.354 N 
ATOM     48  N   UNL A   1      42.132  32.417  32.184  1.00  0.00    -0.248 NA
ATOM     49  C   UNL A   1      42.873  31.741  30.073  1.00  0.00     0.031 C 
ATOM     50  C   UNL A   1      39.057  28.633  33.024  1.00  0.00     0.029 A 
ATOM     51  C   UNL A   1      40.136  29.295  32.437  1.00  0.00     0.049 A 
ATOM     52  H   UNL A   1      41.026  28.908  30.593  1.00  0.00     0.167 HD
ATOM     53  C   UNL A   1      41.850  31.068  32.041  1.00  0.00     0.074 A 
ATOM     54  C   UNL A   1      42.466  30.679  30.775  1.00  0.00     0.031 C 
ATOM     55  C   UNL A   1      40.871  30.488  32.798  1.00  0.00     0.037 A 
BRANCH  42  56
ATOM     56  C   UNL A   1      40.067  27.032  28.615  1.00  0.00     0.064 A 
ATOM     57  C   UNL A   1      40.065  25.633  28.453  1.00  0.00     0.173 A 
ATOM     58  C   UNL A   1      41.230  27.681  28.128  1.00  0.00     0.173 A 
ATOM     59  F   UNL A   1      39.017  24.905  28.867  1.00  0.00    -0.203 F 
ATOM     60  C   UNL A   1      41.167  24.942  27.941  1.00  0.00     0.198 A 
ATOM     61  C   UNL A   1      42.312  26.992  27.586  1.00  0.00     0.198 A 
ATOM     62  F   UNL A   1      41.438  28.996  28.219  1.00  0.00    -0.203 F 
ATOM     63  F   UNL A   1      41.155  23.603  27.914  1.00  0.00    -0.200 F 
ATOM     64  C   UNL A   1      42.295  25.620  27.521  1.00  0.00     0.200 A 
ATOM     65  F   UNL A   1      43.400  27.676  27.204  1.00  0.00    -0.200 F 
ATOM     66  F   UNL A   1      43.376  24.959  27.090  1.00  0.00    -0.200 F 
ENDBRANCH  42  56
BRANCH  43  67
ATOM     67  C   UNL A   1      43.076  35.036  29.799  1.00  0.00     0.064 A 
ATOM     68  C   UNL A   1      43.354  34.994  28.421  1.00  0.00     0.173 A 
ATOM     69  C   UNL A   1      43.534  36.172  30.494  1.00  0.00     0.173 A 
ATOM     70  F   UNL A   1      42.914  33.969  27.677  1.00  0.00    -0.203 F 
ATOM     71  C   UNL A   1      44.018  36.042  27.771  1.00  0.00     0.198 A 
ATOM     72  C   UNL A   1      44.195  37.216  29.844  1.00  0.00     0.198 A 
ATOM     73  F   UNL A   1      43.254  36.336  31.794  1.00  0.00    -0.203 F 
ATOM     74  F   UNL A   1      44.203  35.997  26.444  1.00  0.00    -0.200 F 
ATOM     75  C   UNL A   1      44.424  37.159  28.481  1.00  0.00     0.200 A 
ATOM     76  F   UNL A   1      44.545  38.311  30.534  1.00  0.00    -0.200 F 
ATOM     77  F   UNL A   1      44.993  38.195  27.849  1.00  0.00    -0.200 F 
ENDBRANCH  43  67
BRANCH  55  78
ATOM     78  C   UNL A   1      40.447  31.206  34.045  1.00  0.00     0.064 A 
ATOM     79  C   UNL A   1      41.182  31.253  35.241  1.00  0.00     0.173 A 
ATOM     80  C   UNL A   1      39.277  31.972  33.976  1.00  0.00     0.173 A 
ATOM     81  F   UNL A   1      42.352  30.611  35.356  1.00  0.00    -0.203 F 
ATOM     82  C   UNL A   1      40.741  32.008  36.329  1.00  0.00     0.198 A 
ATOM     83  C   UNL A   1      38.859  32.753  35.046  1.00  0.00     0.198 A 
ATOM     84  F   UNL A   1      38.560  31.998  32.842  1.00  0.00    -0.203 F 
ATOM     85  F   UNL A   1      41.449  32.028  37.468  1.00  0.00    -0.200 F 
ATOM     86  C   UNL A   1      39.583  32.763  36.227  1.00  0.00     0.200 A 
ATOM     87  F   UNL A   1      37.764  33.516  34.922  1.00  0.00    -0.200 F 
ATOM     88  F   UNL A   1      39.175  33.517  37.257  1.00  0.00    -0.200 F 
ENDBRANCH  55  78
ENDBRANCH  29  30
ENDBRANCH  22  24
ENDBRANCH  21  22
ENDBRANCH   1  21
TORSDOF 13
ENDMDL
MODEL 2
REMARK VINA RESULT:     -12.3      4.653      9.533
REMARK SMILES Cc1cnn([C@H]2CC[C@@]([NH3+])(C(=O)OCCOC(=O)c3ccc(-c4c5nc(c(-c6c(F)c(F)c(F)c(F)c6F)c6ccc([nH]6)c(-c6c(F)c(F)c(F)c(F)c6F)c6nc(c(-c7c(F)c(F)c(F)c(F)c7F)c7ccc4[nH]7)C=C6)C=C5)cc3)C2)c1
REMARK SMILES IDX 15 1 14 2 13 3 11 4 12 5 9 6 6 7 7 8 82 9 8 10 5 11 1 12
REMARK SMILES IDX 2 13 3 14 83 15 4 16 10 17 16 21 17 22 18 23 19 24 20 25
REMARK SMILES IDX 81 26 21 27 80 28 22 29 23 30 24 31 74 32 25 33 79 34 73 35
REMARK SMILES IDX 75 36 26 37 78 38 72 39 71 40 27 42 59 43 39 44 58 45 40 46
REMARK SMILES IDX 43 47 57 48 76 49 41 50 42 51 56 53 77 54 44 55 28 56 29 57
REMARK SMILES IDX 37 58 30 59 31 60 35 61 38 62 32 63 33 64 36 65 34 66 60 67
REMARK SMILES IDX 61 68 69 69 62 70 63 71 67 72 70 73 64 74 65 75 68 76 66 77
REMARK SMILES IDX 45 78 46 79 54 80 47 81 48 82 52 83 55 84 49 85 50 86 53 87
REMARK SMILES IDX 51 88
REMARK H PARENT 10 18 10 19 10 20 75 41 43 52
REMARK Flexibility Score: inf
ROOT
ATOM      1  C   UNL A   1      37.127  22.341  25.401  1.00  0.00     0.275 C 
ENDROOT
BRANCH   1   2
ATOM      2  C   UNL A   1      35.846  21.927  26.138  1.00  0.00     0.274 C 
BRANCH   2   3
ATOM      3  O   UNL A   1      34.737  22.817  25.860  1.00  0.00    -0.457 OA
BRANCH   3   4
ATOM      4  C   UNL A   1      33.531  22.451  26.381  1.00  0.00     0.368 C 
ATOM      5  O   UNL A   1      33.213  22.620  27.558  1.00  0.00    -0.245 OA
BRANCH   4   6
ATOM      6  C   UNL A   1      32.570  21.733  25.360  1.00  0.00     0.194 C 
ATOM      7  C   UNL A   1      31.039  23.420  24.404  1.00  0.00     0.114 C 
ATOM      8  C   UNL A   1      31.790  22.783  23.233  1.00  0.00     0.034 C 
ATOM      9  C   UNL A   1      31.139  22.325  25.476  1.00  0.00     0.108 C 
ATOM     10  C   UNL A   1      32.871  21.862  23.847  1.00  0.00     0.083 C 
BRANCH   7  11
ATOM     11  N   UNL A   1      31.522  24.750  24.795  1.00  0.00    -0.269 N 
ATOM     12  C   UNL A   1      31.695  28.178  27.578  1.00  0.00     0.048 C 
ATOM     13  C   UNL A   1      31.898  27.082  26.572  1.00  0.00    -0.013 A 
ATOM     14  C   UNL A   1      33.504  26.847  25.428  1.00  0.00     0.138 A 
ATOM     15  C   UNL A   1      30.764  25.791  26.126  1.00  0.00     0.112 A 
ATOM     16  N   UNL A   1      33.260  25.438  24.405  1.00  0.00    -0.181 NA
ENDBRANCH   7  11
BRANCH   6  17
ATOM     17  N   UNL A   1      32.553  20.307  25.763  1.00  0.00    -0.343 N 
ATOM     18  H   UNL A   1      31.588  19.996  25.872  1.00  0.00     0.345 HD
ATOM     19  H   UNL A   1      33.047  20.198  26.649  1.00  0.00     0.345 HD
ATOM     20  H   UNL A   1      33.012  19.746  25.046  1.00  0.00     0.345 HD
ENDBRANCH   6  17
ENDBRANCH   4   6
ENDBRANCH   3   4
ENDBRANCH   2   3
ENDBRANCH   1   2
BRANCH   1  21
ATOM     21  O   UNL A   1      37.623  21.294  24.542  1.00  0.00    -0.458 OA
BRANCH  21  22
ATOM     22  C   UNL A   1      38.663  20.350  25.101  1.00  0.00     0.338 C 
ATOM     23  O   UNL A   1      38.094  19.233  24.974  1.00  0.00    -0.246 OA
BRANCH  22  24
ATOM     24  C   UNL A   1      40.540  20.932  26.145  1.00  0.00     0.060 A 
ATOM     25  C   UNL A   1      40.887  20.796  27.604  1.00  0.00     0.016 A 
ATOM     26  C   UNL A   1      41.608  21.848  25.746  1.00  0.00     0.016 A 
ATOM     27  C   UNL A   1      41.246  21.903  28.365  1.00  0.00     0.010 A 
ATOM     28  C   UNL A   1      41.626  23.082  26.331  1.00  0.00     0.010 A 
ATOM     29  C   UNL A   1      41.404  23.100  27.689  1.00  0.00    -0.014 A 
BRANCH  29  30
ATOM     30  C   UNL A   1      41.943  24.254  28.355  1.00  0.00     0.031 A 
ATOM     31  C   UNL A   1      40.947  25.350  28.177  1.00  0.00     0.074 A 
ATOM     32  C   UNL A   1      43.010  24.187  29.171  1.00  0.00     0.049 A 
ATOM     33  N   UNL A   1      40.978  26.276  27.271  1.00  0.00    -0.248 NA
ATOM     34  C   UNL A   1      39.587  25.172  28.754  1.00  0.00     0.031 C 
ATOM     35  C   UNL A   1      43.788  23.010  29.571  1.00  0.00     0.029 A 
ATOM     36  N   UNL A   1      43.565  25.188  29.906  1.00  0.00    -0.354 N 
ATOM     37  C   UNL A   1      39.771  26.952  27.435  1.00  0.00     0.074 A 
ATOM     38  C   UNL A   1      38.868  26.012  28.009  1.00  0.00     0.031 C 
ATOM     39  C   UNL A   1      44.562  23.322  30.640  1.00  0.00     0.029 A 
ATOM     40  C   UNL A   1      44.432  24.742  30.909  1.00  0.00     0.049 A 
ATOM     41  H   UNL A   1      43.374  26.141  29.746  1.00  0.00     0.167 HD
ATOM     42  C   UNL A   1      39.791  28.301  27.616  1.00  0.00     0.037 A 
ATOM     43  C   UNL A   1      44.910  25.535  31.903  1.00  0.00     0.037 A 
ATOM     44  C   UNL A   1      41.063  28.815  27.162  1.00  0.00     0.049 A 
ATOM     45  C   UNL A   1      44.725  26.938  31.439  1.00  0.00     0.074 A 
ATOM     46  C   UNL A   1      41.701  28.911  25.945  1.00  0.00     0.029 A 
ATOM     47  N   UNL A   1      42.032  28.806  28.135  1.00  0.00    -0.354 N 
ATOM     48  N   UNL A   1      45.357  27.441  30.412  1.00  0.00    -0.248 NA
ATOM     49  C   UNL A   1      43.509  27.641  31.829  1.00  0.00     0.031 C 
ATOM     50  C   UNL A   1      43.095  28.777  26.220  1.00  0.00     0.029 A 
ATOM     51  C   UNL A   1      43.285  28.702  27.599  1.00  0.00     0.049 A 
ATOM     52  H   UNL A   1      41.847  28.866  29.100  1.00  0.00     0.167 HD
ATOM     53  C   UNL A   1      44.413  28.232  29.778  1.00  0.00     0.074 A 
ATOM     54  C   UNL A   1      43.358  28.439  30.767  1.00  0.00     0.031 C 
ATOM     55  C   UNL A   1      44.429  28.362  28.418  1.00  0.00     0.037 A 
BRANCH  42  56
ATOM     56  C   UNL A   1      38.991  29.029  28.692  1.00  0.00     0.064 A 
ATOM     57  C   UNL A   1      39.220  28.659  30.031  1.00  0.00     0.173 A 
ATOM     58  C   UNL A   1      37.833  29.821  28.487  1.00  0.00     0.173 A 
ATOM     59  F   UNL A   1      40.288  27.916  30.356  1.00  0.00    -0.203 F 
ATOM     60  C   UNL A   1      38.317  28.971  31.053  1.00  0.00     0.198 A 
ATOM     61  C   UNL A   1      36.954  30.159  29.513  1.00  0.00     0.198 A 
ATOM     62  F   UNL A   1      37.426  30.242  27.288  1.00  0.00    -0.203 F 
ATOM     63  F   UNL A   1      38.526  28.498  32.289  1.00  0.00    -0.200 F 
ATOM     64  C   UNL A   1      37.179  29.708  30.791  1.00  0.00     0.200 A 
ATOM     65  F   UNL A   1      35.848  30.859  29.225  1.00  0.00    -0.200 F 
ATOM     66  F   UNL A   1      36.281  29.954  31.753  1.00  0.00    -0.200 F 
ENDBRANCH  42  56
BRANCH  43  67
ATOM     67  C   UNL A   1      45.200  25.215  33.321  1.00  0.00     0.064 A 
ATOM     68  C   UNL A   1      44.166  24.941  34.233  1.00  0.00     0.173 A 
ATOM     69  C   UNL A   1      46.501  24.865  33.730  1.00  0.00     0.173 A 
ATOM     70  F   UNL A   1      42.892  25.203  33.905  1.00  0.00    -0.203 F 
ATOM     71  C   UNL A   1      44.413  24.320  35.464  1.00  0.00     0.198 A 
ATOM     72  C   UNL A   1      46.746  24.245  34.957  1.00  0.00     0.198 A 
ATOM     73  F   UNL A   1      47.542  25.021  32.901  1.00  0.00    -0.203 F 
ATOM     74  F   UNL A   1      43.392  24.012  36.276  1.00  0.00    -0.200 F 
ATOM     75  C   UNL A   1      45.702  23.959  35.817  1.00  0.00     0.200 A 
ATOM     76  F   UNL A   1      47.992  23.860  35.269  1.00  0.00    -0.200 F 
ATOM     77  F   UNL A   1      45.932  23.298  36.960  1.00  0.00    -0.200 F 
ENDBRANCH  43  67
BRANCH  55  78
ATOM     78  C   UNL A   1      45.703  28.014  27.707  1.00  0.00     0.064 A 
ATOM     79  C   UNL A   1      45.972  26.786  27.082  1.00  0.00     0.173 A 
ATOM     80  C   UNL A   1      46.657  29.031  27.570  1.00  0.00     0.173 A 
ATOM     81  F   UNL A   1      45.074  25.792  27.102  1.00  0.00    -0.203 F 
ATOM     82  C   UNL A   1      47.161  26.579  26.381  1.00  0.00     0.198 A 
ATOM     83  C   UNL A   1      47.823  28.836  26.840  1.00  0.00     0.198 A 
ATOM     84  F   UNL A   1      46.431  30.238  28.110  1.00  0.00    -0.203 F 
ATOM     85  F   UNL A   1      47.406  25.393  25.803  1.00  0.00    -0.200 F 
ATOM     86  C   UNL A   1      48.082  27.607  26.255  1.00  0.00     0.200 A 
ATOM     87  F   UNL A   1      48.685  29.850  26.684  1.00  0.00    -0.200 F 
ATOM     88  F   UNL A   1      49.208  27.423  25.553  1.00  0.00    -0.200 F 
ENDBRANCH  55  78
ENDBRANCH  29  30
ENDBRANCH  22  24
ENDBRANCH  21  22
ENDBRANCH   1  21
TORSDOF 13
ENDMDL
MODEL 3
REMARK VINA RESULT:     -12.3      1.312      3.000
REMARK SMILES Cc1cnn([C@H]2CC[C@@]([NH3+])(C(=O)OCCOC(=O)c3ccc(-c4c5nc(c(-c6c(F)c(F)c(F)c(F)c6F)c6ccc([nH]6)c(-c6c(F)c(F)c(F)c(F)c6F)c6nc(c(-c7c(F)c(F)c(F)c(F)c7F)c7ccc4[nH]7)C=C6)C=C5)cc3)C2)c1
REMARK SMILES IDX 15 1 14 2 13 3 11 4 12 5 9 6 6 7 7 8 82 9 8 10 5 11 1 12
REMARK SMILES IDX 2 13 3 14 83 15 4 16 10 17 16 21 17 22 18 23 19 24 20 25
REMARK SMILES IDX 81 26 21 27 80 28 22 29 23 30 24 31 74 32 25 33 79 34 73 35
REMARK SMILES IDX 75 36 26 37 78 38 72 39 71 40 27 42 59 43 39 44 58 45 40 46
REMARK SMILES IDX 43 47 57 48 76 49 41 50 42 51 56 53 77 54 44 55 28 56 29 57
REMARK SMILES IDX 37 58 30 59 31 60 35 61 38 62 32 63 33 64 36 65 34 66 60 67
REMARK SMILES IDX 61 68 69 69 62 70 63 71 67 72 70 73 64 74 65 75 68 76 66 77
REMARK SMILES IDX 45 78 46 79 54 80 47 81 48 82 52 83 55 84 49 85 50 86 53 87
REMARK SMILES IDX 51 88
REMARK H PARENT 10 18 10 19 10 20 75 41 43 52
REMARK Flexibility Score: inf
ROOT
ATOM      1  C   UNL A   1      33.074  30.087  27.245  1.00  0.00     0.275 C 
ENDROOT
BRANCH   1   2
ATOM      2  C   UNL A   1      32.548  28.646  27.277  1.00  0.00     0.274 C 
BRANCH   2   3
ATOM      3  O   UNL A   1      31.725  28.331  26.127  1.00  0.00    -0.457 OA
BRANCH   3   4
ATOM      4  C   UNL A   1      31.474  27.008  25.915  1.00  0.00     0.368 C 
ATOM      5  O   UNL A   1      30.658  26.353  26.564  1.00  0.00    -0.245 OA
BRANCH   4   6
ATOM      6  C   UNL A   1      32.356  26.349  24.788  1.00  0.00     0.194 C 
ATOM      7  C   UNL A   1      31.308  26.810  22.600  1.00  0.00     0.114 C 
ATOM      8  C   UNL A   1      32.726  27.384  22.547  1.00  0.00     0.034 C 
ATOM      9  C   UNL A   1      31.442  25.739  23.691  1.00  0.00     0.108 C 
ATOM     10  C   UNL A   1      33.310  27.254  23.973  1.00  0.00     0.083 C 
BRANCH   7  11
ATOM     11  N   UNL A   1      30.248  27.806  22.801  1.00  0.00    -0.269 N 
ATOM     12  C   UNL A   1      28.122  31.521  21.704  1.00  0.00     0.048 C 
ATOM     13  C   UNL A   1      28.595  30.171  22.161  1.00  0.00    -0.013 A 
ATOM     14  C   UNL A   1      27.489  28.817  23.104  1.00  0.00     0.138 A 
ATOM     15  C   UNL A   1      30.227  29.487  22.025  1.00  0.00     0.112 A 
ATOM     16  N   UNL A   1      28.493  27.415  23.445  1.00  0.00    -0.181 NA
ENDBRANCH   7  11
BRANCH   6  17
ATOM     17  N   UNL A   1      33.117  25.269  25.459  1.00  0.00    -0.343 N 
ATOM     18  H   UNL A   1      32.819  25.197  26.433  1.00  0.00     0.345 HD
ATOM     19  H   UNL A   1      34.114  25.484  25.425  1.00  0.00     0.345 HD
ATOM     20  H   UNL A   1      32.944  24.384  24.985  1.00  0.00     0.345 HD
ENDBRANCH   6  17
ENDBRANCH   4   6
ENDBRANCH   3   4
ENDBRANCH   2   3
ENDBRANCH   1   2
BRANCH   1  21
ATOM     21  O   UNL A   1      32.047  31.033  26.885  1.00  0.00    -0.458 OA
BRANCH  21  22
ATOM     22  C   UNL A   1      32.229  32.474  27.307  1.00  0.00     0.338 C 
ATOM     23  O   UNL A   1      31.340  33.056  26.629  1.00  0.00    -0.246 OA
BRANCH  22  24
ATOM     24  C   UNL A   1      33.882  33.277  28.560  1.00  0.00     0.060 A 
ATOM     25  C   UNL A   1      35.023  34.173  28.153  1.00  0.00     0.016 A 
ATOM     26  C   UNL A   1      34.396  32.837  29.857  1.00  0.00     0.016 A 
ATOM     27  C   UNL A   1      36.345  33.786  28.342  1.00  0.00     0.010 A 
ATOM     28  C   UNL A   1      35.563  32.127  29.860  1.00  0.00     0.010 A 
ATOM     29  C   UNL A   1      36.558  32.612  29.043  1.00  0.00    -0.014 A 
BRANCH  29  30
ATOM     30  C   UNL A   1      37.883  32.223  29.441  1.00  0.00     0.031 A 
ATOM     31  C   UNL A   1      38.011  30.771  29.127  1.00  0.00     0.074 A 
ATOM     32  C   UNL A   1      38.831  33.118  29.770  1.00  0.00     0.049 A 
ATOM     33  N   UNL A   1      37.839  29.789  29.955  1.00  0.00    -0.248 NA
ATOM     34  C   UNL A   1      37.892  30.339  27.709  1.00  0.00     0.031 C 
ATOM     35  C   UNL A   1      38.755  34.583  29.766  1.00  0.00     0.029 A 
ATOM     36  N   UNL A   1      40.131  32.878  30.093  1.00  0.00    -0.354 N 
ATOM     37  C   UNL A   1      37.925  28.651  29.156  1.00  0.00     0.074 A 
ATOM     38  C   UNL A   1      37.540  29.060  27.847  1.00  0.00     0.031 C 
ATOM     39  C   UNL A   1      40.005  35.101  29.850  1.00  0.00     0.029 A 
ATOM     40  C   UNL A   1      40.947  34.014  30.046  1.00  0.00     0.049 A 
ATOM     41  H   UNL A   1      40.468  31.986  30.338  1.00  0.00     0.167 HD
ATOM     42  C   UNL A   1      38.811  27.675  29.494  1.00  0.00     0.037 A 
ATOM     43  C   UNL A   1      42.303  33.973  30.098  1.00  0.00     0.037 A 
ATOM     44  C   UNL A   1      39.179  27.837  30.882  1.00  0.00     0.049 A 
ATOM     45  C   UNL A   1      42.657  32.642  30.661  1.00  0.00     0.074 A 
ATOM     46  C   UNL A   1      38.520  27.735  32.087  1.00  0.00     0.029 A 
ATOM     47  N   UNL A   1      40.247  28.681  31.067  1.00  0.00    -0.354 N 
ATOM     48  N   UNL A   1      42.364  32.281  31.881  1.00  0.00    -0.248 NA
ATOM     49  C   UNL A   1      42.928  31.548  29.735  1.00  0.00     0.031 C 
ATOM     50  C   UNL A   1      39.130  28.693  32.951  1.00  0.00     0.029 A 
ATOM     51  C   UNL A   1      40.206  29.285  32.292  1.00  0.00     0.049 A 
ATOM     52  H   UNL A   1      40.953  28.834  30.399  1.00  0.00     0.167 HD
ATOM     53  C   UNL A   1      41.995  30.950  31.770  1.00  0.00     0.074 A 
ATOM     54  C   UNL A   1      42.505  30.517  30.472  1.00  0.00     0.031 C 
ATOM     55  C   UNL A   1      41.033  30.435  32.593  1.00  0.00     0.037 A 
BRANCH  42  56
ATOM     56  C   UNL A   1      39.761  27.006  28.504  1.00  0.00     0.064 A 
ATOM     57  C   UNL A   1      40.635  27.839  27.780  1.00  0.00     0.173 A 
ATOM     58  C   UNL A   1      39.663  25.681  28.011  1.00  0.00     0.173 A 
ATOM     59  F   UNL A   1      40.820  29.114  28.153  1.00  0.00    -0.203 F 
ATOM     60  C   UNL A   1      41.274  27.411  26.612  1.00  0.00     0.198 A 
ATOM     61  C   UNL A   1      40.328  25.247  26.866  1.00  0.00     0.198 A 
ATOM     62  F   UNL A   1      38.863  24.751  28.536  1.00  0.00    -0.203 F 
ATOM     63  F   UNL A   1      42.005  28.278  25.900  1.00  0.00    -0.200 F 
ATOM     64  C   UNL A   1      41.109  26.120  26.149  1.00  0.00     0.200 A 
ATOM     65  F   UNL A   1      40.133  23.994  26.430  1.00  0.00    -0.200 F 
ATOM     66  F   UNL A   1      41.666  25.725  24.997  1.00  0.00    -0.200 F 
ENDBRANCH  42  56
BRANCH  43  67
ATOM     67  C   UNL A   1      43.309  34.823  29.416  1.00  0.00     0.064 A 
ATOM     68  C   UNL A   1      43.638  34.620  28.064  1.00  0.00     0.173 A 
ATOM     69  C   UNL A   1      43.729  36.041  29.984  1.00  0.00     0.173 A 
ATOM     70  F   UNL A   1      43.237  33.507  27.433  1.00  0.00    -0.203 F 
ATOM     71  C   UNL A   1      44.314  35.592  27.316  1.00  0.00     0.198 A 
ATOM     72  C   UNL A   1      44.403  37.009  29.237  1.00  0.00     0.198 A 
ATOM     73  F   UNL A   1      43.400  36.356  31.244  1.00  0.00    -0.203 F 
ATOM     74  F   UNL A   1      44.548  35.391  26.011  1.00  0.00    -0.200 F 
ATOM     75  C   UNL A   1      44.682  36.793  27.900  1.00  0.00     0.200 A 
ATOM     76  F   UNL A   1      44.715  38.185  29.802  1.00  0.00    -0.200 F 
ATOM     77  F   UNL A   1      45.262  37.754  27.168  1.00  0.00    -0.200 F 
ENDBRANCH  43  67
BRANCH  55  78
ATOM     78  C   UNL A   1      40.732  31.185  33.857  1.00  0.00     0.064 A 
ATOM     79  C   UNL A   1      39.668  32.084  34.030  1.00  0.00     0.173 A 
ATOM     80  C   UNL A   1      41.514  30.886  34.980  1.00  0.00     0.173 A 
ATOM     81  F   UNL A   1      38.829  32.360  33.024  1.00  0.00    -0.203 F 
ATOM     82  C   UNL A   1      39.423  32.682  35.268  1.00  0.00     0.198 A 
ATOM     83  C   UNL A   1      41.246  31.452  36.220  1.00  0.00     0.198 A 
ATOM     84  F   UNL A   1      42.516  29.998  34.880  1.00  0.00    -0.203 F 
ATOM     85  F   UNL A   1      38.411  33.551  35.409  1.00  0.00    -0.200 F 
ATOM     86  C   UNL A   1      40.209  32.359  36.363  1.00  0.00     0.200 A 
ATOM     87  F   UNL A   1      41.981  31.097  37.283  1.00  0.00    -0.200 F 
ATOM     88  F   UNL A   1      39.956  32.903  37.561  1.00  0.00    -0.200 F 
ENDBRANCH  55  78
ENDBRANCH  29  30
ENDBRANCH  22  24
ENDBRANCH  21  22
ENDBRANCH   1  21
TORSDOF 13
ENDMDL
