MODEL 1
REMARK VINA RESULT:     -12.2      0.000      0.000
REMARK SMILES O=C(OCCOC(=O)c1ccc(-c2c3nc(c(-c4c(F)c(F)c(F)c(F)c4F)c4ccc([nH]4)c(-c4c(F)c(F)c(F)c(F)c4F)c4nc(c(-c5c(F)c(F)c(F)c(F)c5F)c5ccc2[nH]5)C=C4)C=C3)cc1)C1=NN(c2ccc([N+](=O)[O-])cc2)[C@H](c2ccccc2)C1
REMARK SMILES IDX 4 1 3 2 2 3 1 4 72 5 73 6 91 7 74 8 84 9 75 10 76 11 83 12
REMARK SMILES IDX 77 13 82 14 78 15 79 16 80 17 81 18 85 19 86 20 90 21 87 22
REMARK SMILES IDX 89 23 88 24 5 25 6 26 7 27 8 28 9 29 10 30 71 31 11 32 70 33
REMARK SMILES IDX 12 34 13 35 14 36 64 37 15 38 69 39 63 40 65 41 16 42 68 43
REMARK SMILES IDX 62 44 61 45 17 47 49 48 29 49 48 50 30 51 33 52 47 53 66 54
REMARK SMILES IDX 31 55 32 56 46 58 67 59 34 60 18 61 19 62 27 63 20 64 21 65
REMARK SMILES IDX 25 66 28 67 22 68 23 69 26 70 24 71 50 72 51 73 59 74 52 75
REMARK SMILES IDX 53 76 57 77 60 78 54 79 55 80 58 81 56 82 35 83 36 84 44 85
REMARK SMILES IDX 37 86 38 87 42 88 45 89 39 90 40 91 43 92 41 93
REMARK H PARENT 65 46 33 57
REMARK Flexibility Score: inf
ROOT
ATOM      1  C   UNL A   1      35.794  22.191  24.720  1.00  0.00     0.275 C 
ENDROOT
BRANCH   1   2
ATOM      2  O   UNL A   1      35.288  23.530  24.901  1.00  0.00    -0.458 OA
BRANCH   2   3
ATOM      3  C   UNL A   1      34.667  24.267  23.975  1.00  0.00     0.354 C 
ATOM      4  O   UNL A   1      34.790  24.037  22.775  1.00  0.00    -0.245 OA
BRANCH   3   5
ATOM      5  C   UNL A   1      33.822  25.472  24.347  1.00  0.00     0.148 C 
ATOM      6  N   UNL A   1      33.231  26.263  23.510  1.00  0.00    -0.169 NA
ATOM      7  C   UNL A   1      33.613  25.781  25.795  1.00  0.00     0.098 C 
ATOM      8  N   UNL A   1      32.612  27.234  24.234  1.00  0.00    -0.257 N 
ATOM      9  C   UNL A   1      32.719  27.021  25.690  1.00  0.00     0.144 C 
BRANCH   8  10
ATOM     10  C   UNL A   1      31.451  27.799  23.700  1.00  0.00     0.061 A 
ATOM     11  C   UNL A   1      30.188  27.237  23.937  1.00  0.00     0.035 A 
ATOM     12  C   UNL A   1      31.527  28.942  22.896  1.00  0.00     0.035 A 
ATOM     13  C   UNL A   1      29.023  27.815  23.424  1.00  0.00     0.088 A 
ATOM     14  C   UNL A   1      30.375  29.526  22.357  1.00  0.00     0.088 A 
ATOM     15  C   UNL A   1      29.124  28.962  22.631  1.00  0.00     0.269 A 
BRANCH  15  16
ATOM     16  N   UNL A   1      27.910  29.569  22.073  1.00  0.00     0.062 N 
ATOM     17  O   UNL A   1      27.977  30.040  20.927  1.00  0.00    -0.258 OA
ATOM     18  O   UNL A   1      26.890  29.570  22.775  1.00  0.00    -0.258 OA
ENDBRANCH  15  16
ENDBRANCH   8  10
BRANCH   9  19
ATOM     19  C   UNL A   1      33.224  28.272  26.391  1.00  0.00    -0.023 A 
ATOM     20  C   UNL A   1      34.580  28.513  26.656  1.00  0.00     0.006 A 
ATOM     21  C   UNL A   1      32.296  29.273  26.733  1.00  0.00     0.006 A 
ATOM     22  C   UNL A   1      34.995  29.709  27.247  1.00  0.00     0.000 A 
ATOM     23  C   UNL A   1      32.714  30.482  27.293  1.00  0.00     0.000 A 
ATOM     24  C   UNL A   1      34.064  30.698  27.553  1.00  0.00     0.000 A 
ENDBRANCH   9  19
ENDBRANCH   3   5
ENDBRANCH   2   3
ENDBRANCH   1   2
BRANCH   1  25
ATOM     25  C   UNL A   1      37.314  22.105  24.882  1.00  0.00     0.275 C 
BRANCH  25  26
ATOM     26  O   UNL A   1      37.865  23.268  25.525  1.00  0.00    -0.458 OA
BRANCH  26  27
ATOM     27  C   UNL A   1      39.037  23.083  26.189  1.00  0.00     0.338 C 
ATOM     28  O   UNL A   1      39.751  22.102  26.153  1.00  0.00    -0.246 OA
BRANCH  27  29
ATOM     29  C   UNL A   1      39.413  24.357  26.848  1.00  0.00     0.060 A 
ATOM     30  C   UNL A   1      39.046  24.550  28.185  1.00  0.00     0.016 A 
ATOM     31  C   UNL A   1      40.158  25.335  26.182  1.00  0.00     0.016 A 
ATOM     32  C   UNL A   1      39.452  25.706  28.863  1.00  0.00     0.010 A 
ATOM     33  C   UNL A   1      40.583  26.476  26.867  1.00  0.00     0.010 A 
ATOM     34  C   UNL A   1      40.231  26.674  28.212  1.00  0.00    -0.014 A 
BRANCH  34  35
ATOM     35  C   UNL A   1      40.624  27.930  28.899  1.00  0.00     0.031 A 
ATOM     36  C   UNL A   1      42.014  28.064  29.454  1.00  0.00     0.074 A 
ATOM     37  C   UNL A   1      39.739  28.930  29.077  1.00  0.00     0.049 A 
ATOM     38  N   UNL A   1      42.549  29.060  30.112  1.00  0.00    -0.248 NA
ATOM     39  C   UNL A   1      42.918  26.922  29.246  1.00  0.00     0.031 C 
ATOM     40  C   UNL A   1      38.357  28.932  28.606  1.00  0.00     0.029 A 
ATOM     41  N   UNL A   1      39.868  30.132  29.731  1.00  0.00    -0.354 N 
ATOM     42  C   UNL A   1      43.853  28.672  30.387  1.00  0.00     0.074 A 
ATOM     43  C   UNL A   1      44.014  27.330  29.869  1.00  0.00     0.031 C 
ATOM     44  C   UNL A   1      37.752  30.061  29.015  1.00  0.00     0.029 A 
ATOM     45  C   UNL A   1      38.707  30.863  29.777  1.00  0.00     0.049 A 
ATOM     46  H   UNL A   1      40.714  30.439  30.129  1.00  0.00     0.167 HD
ATOM     47  C   UNL A   1      44.835  29.379  30.993  1.00  0.00     0.037 A 
ATOM     48  C   UNL A   1      38.439  32.041  30.374  1.00  0.00     0.037 A 
ATOM     49  C   UNL A   1      44.689  30.717  31.499  1.00  0.00     0.049 A 
ATOM     50  C   UNL A   1      39.535  32.780  31.098  1.00  0.00     0.074 A 
ATOM     51  C   UNL A   1      45.659  31.541  32.044  1.00  0.00     0.029 A 
ATOM     52  N   UNL A   1      43.498  31.420  31.539  1.00  0.00    -0.354 N 
ATOM     53  N   UNL A   1      40.794  32.451  31.250  1.00  0.00    -0.248 NA
ATOM     54  C   UNL A   1      39.173  34.060  31.727  1.00  0.00     0.031 C 
ATOM     55  C   UNL A   1      45.043  32.726  32.460  1.00  0.00     0.029 A 
ATOM     56  C   UNL A   1      43.698  32.653  32.139  1.00  0.00     0.049 A 
ATOM     57  H   UNL A   1      42.635  31.093  31.193  1.00  0.00     0.167 HD
ATOM     58  C   UNL A   1      41.378  33.492  31.961  1.00  0.00     0.074 A 
ATOM     59  C   UNL A   1      40.339  34.469  32.204  1.00  0.00     0.031 C 
ATOM     60  C   UNL A   1      42.662  33.625  32.372  1.00  0.00     0.037 A 
BRANCH  47  61
ATOM     61  C   UNL A   1      46.172  28.722  31.134  1.00  0.00     0.064 A 
ATOM     62  C   UNL A   1      46.491  27.959  32.266  1.00  0.00     0.173 A 
ATOM     63  C   UNL A   1      47.117  28.802  30.101  1.00  0.00     0.173 A 
ATOM     64  F   UNL A   1      45.621  27.864  33.283  1.00  0.00    -0.203 F 
ATOM     65  C   UNL A   1      47.717  27.310  32.365  1.00  0.00     0.198 A 
ATOM     66  C   UNL A   1      48.334  28.135  30.196  1.00  0.00     0.198 A 
ATOM     67  F   UNL A   1      46.854  29.519  28.998  1.00  0.00    -0.203 F 
ATOM     68  F   UNL A   1      48.014  26.608  33.468  1.00  0.00    -0.200 F 
ATOM     69  C   UNL A   1      48.634  27.392  31.328  1.00  0.00     0.200 A 
ATOM     70  F   UNL A   1      49.216  28.208  29.190  1.00  0.00    -0.200 F 
ATOM     71  F   UNL A   1      49.810  26.756  31.420  1.00  0.00    -0.200 F 
ENDBRANCH  47  61
BRANCH  48  72
ATOM     72  C   UNL A   1      37.068  32.613  30.320  1.00  0.00     0.064 A 
ATOM     73  C   UNL A   1      36.684  33.468  29.278  1.00  0.00     0.173 A 
ATOM     74  C   UNL A   1      36.141  32.366  31.341  1.00  0.00     0.173 A 
ATOM     75  F   UNL A   1      37.550  33.755  28.294  1.00  0.00    -0.203 F 
ATOM     76  C   UNL A   1      35.432  34.078  29.275  1.00  0.00     0.198 A 
ATOM     77  C   UNL A   1      34.880  32.957  31.325  1.00  0.00     0.198 A 
ATOM     78  F   UNL A   1      36.465  31.562  32.365  1.00  0.00    -0.203 F 
ATOM     79  F   UNL A   1      35.111  34.939  28.299  1.00  0.00    -0.200 F 
ATOM     80  C   UNL A   1      34.530  33.822  30.298  1.00  0.00     0.200 A 
ATOM     81  F   UNL A   1      34.010  32.707  32.314  1.00  0.00    -0.200 F 
ATOM     82  F   UNL A   1      33.333  34.423  30.304  1.00  0.00    -0.200 F 
ENDBRANCH  48  72
BRANCH  60  83
ATOM     83  C   UNL A   1      43.030  34.878  33.112  1.00  0.00     0.064 A 
ATOM     84  C   UNL A   1      43.026  34.928  34.513  1.00  0.00     0.173 A 
ATOM     85  C   UNL A   1      43.444  36.023  32.414  1.00  0.00     0.173 A 
ATOM     86  F   UNL A   1      42.623  33.865  35.225  1.00  0.00    -0.203 F 
ATOM     87  C   UNL A   1      43.408  36.084  35.189  1.00  0.00     0.198 A 
ATOM     88  C   UNL A   1      43.851  37.168  33.093  1.00  0.00     0.198 A 
ATOM     89  F   UNL A   1      43.470  36.024  31.073  1.00  0.00    -0.203 F 
ATOM     90  F   UNL A   1      43.363  36.122  36.528  1.00  0.00    -0.200 F 
ATOM     91  C   UNL A   1      43.829  37.200  34.479  1.00  0.00     0.200 A 
ATOM     92  F   UNL A   1      44.267  38.240  32.405  1.00  0.00    -0.200 F 
ATOM     93  F   UNL A   1      44.207  38.307  35.132  1.00  0.00    -0.200 F 
ENDBRANCH  60  83
ENDBRANCH  34  35
ENDBRANCH  27  29
ENDBRANCH  26  27
ENDBRANCH  25  26
ENDBRANCH   1  25
TORSDOF 14
ENDMDL
MODEL 2
REMARK VINA RESULT:     -12.0      3.862      7.320
REMARK SMILES O=C(OCCOC(=O)c1ccc(-c2c3nc(c(-c4c(F)c(F)c(F)c(F)c4F)c4ccc([nH]4)c(-c4c(F)c(F)c(F)c(F)c4F)c4nc(c(-c5c(F)c(F)c(F)c(F)c5F)c5ccc2[nH]5)C=C4)C=C3)cc1)C1=NN(c2ccc([N+](=O)[O-])cc2)[C@H](c2ccccc2)C1
REMARK SMILES IDX 4 1 3 2 2 3 1 4 72 5 73 6 91 7 74 8 84 9 75 10 76 11 83 12
REMARK SMILES IDX 77 13 82 14 78 15 79 16 80 17 81 18 85 19 86 20 90 21 87 22
REMARK SMILES IDX 89 23 88 24 5 25 6 26 7 27 8 28 9 29 10 30 71 31 11 32 70 33
REMARK SMILES IDX 12 34 13 35 14 36 64 37 15 38 69 39 63 40 65 41 16 42 68 43
REMARK SMILES IDX 62 44 61 45 17 47 49 48 29 49 48 50 30 51 33 52 47 53 66 54
REMARK SMILES IDX 31 55 32 56 46 58 67 59 34 60 18 61 19 62 27 63 20 64 21 65
REMARK SMILES IDX 25 66 28 67 22 68 23 69 26 70 24 71 50 72 51 73 59 74 52 75
REMARK SMILES IDX 53 76 57 77 60 78 54 79 55 80 58 81 56 82 35 83 36 84 44 85
REMARK SMILES IDX 37 86 38 87 42 88 45 89 39 90 40 91 43 92 41 93
REMARK H PARENT 65 46 33 57
REMARK Flexibility Score: inf
ROOT
ATOM      1  C   UNL A   1      31.652  28.223  26.387  1.00  0.00     0.275 C 
ENDROOT
BRANCH   1   2
ATOM      2  O   UNL A   1      32.464  27.073  26.071  1.00  0.00    -0.458 OA
BRANCH   2   3
ATOM      3  C   UNL A   1      32.103  25.794  26.209  1.00  0.00     0.354 C 
ATOM      4  O   UNL A   1      31.076  25.472  26.800  1.00  0.00    -0.245 OA
BRANCH   3   5
ATOM      5  C   UNL A   1      32.971  24.657  25.698  1.00  0.00     0.148 C 
ATOM      6  N   UNL A   1      32.679  23.399  25.768  1.00  0.00    -0.169 NA
ATOM      7  C   UNL A   1      34.266  24.991  25.028  1.00  0.00     0.098 C 
ATOM      8  N   UNL A   1      33.725  22.708  25.239  1.00  0.00    -0.257 N 
ATOM      9  C   UNL A   1      34.769  23.587  24.680  1.00  0.00     0.144 C 
BRANCH   8  10
ATOM     10  C   UNL A   1      33.448  21.483  24.626  1.00  0.00     0.061 A 
ATOM     11  C   UNL A   1      32.674  21.408  23.458  1.00  0.00     0.035 A 
ATOM     12  C   UNL A   1      33.930  20.291  25.179  1.00  0.00     0.035 A 
ATOM     13  C   UNL A   1      32.417  20.187  22.830  1.00  0.00     0.088 A 
ATOM     14  C   UNL A   1      33.668  19.056  24.576  1.00  0.00     0.088 A 
ATOM     15  C   UNL A   1      32.916  19.010  23.397  1.00  0.00     0.269 A 
BRANCH  15  16
ATOM     16  N   UNL A   1      32.638  17.719  22.755  1.00  0.00     0.062 N 
ATOM     17  O   UNL A   1      31.779  17.694  21.862  1.00  0.00    -0.258 OA
ATOM     18  O   UNL A   1      33.283  16.734  23.140  1.00  0.00    -0.258 OA
ENDBRANCH  15  16
ENDBRANCH   8  10
BRANCH   9  19
ATOM     19  C   UNL A   1      36.142  23.215  25.214  1.00  0.00    -0.023 A 
ATOM     20  C   UNL A   1      36.816  22.038  24.854  1.00  0.00     0.006 A 
ATOM     21  C   UNL A   1      36.806  24.123  26.060  1.00  0.00     0.006 A 
ATOM     22  C   UNL A   1      38.105  21.776  25.326  1.00  0.00     0.000 A 
ATOM     23  C   UNL A   1      38.106  23.877  26.505  1.00  0.00     0.000 A 
ATOM     24  C   UNL A   1      38.754  22.700  26.140  1.00  0.00     0.000 A 
ENDBRANCH   9  19
ENDBRANCH   3   5
ENDBRANCH   2   3
ENDBRANCH   1   2
BRANCH   1  25
ATOM     25  C   UNL A   1      31.822  29.362  25.378  1.00  0.00     0.275 C 
BRANCH  25  26
ATOM     26  O   UNL A   1      33.062  30.070  25.552  1.00  0.00    -0.458 OA
BRANCH  26  27
ATOM     27  C   UNL A   1      33.110  30.943  26.593  1.00  0.00     0.338 C 
ATOM     28  O   UNL A   1      32.245  31.724  26.934  1.00  0.00    -0.246 OA
BRANCH  27  29
ATOM     29  C   UNL A   1      34.339  30.676  27.378  1.00  0.00     0.060 A 
ATOM     30  C   UNL A   1      35.213  31.738  27.633  1.00  0.00     0.016 A 
ATOM     31  C   UNL A   1      34.612  29.408  27.902  1.00  0.00     0.016 A 
ATOM     32  C   UNL A   1      36.342  31.540  28.437  1.00  0.00     0.010 A 
ATOM     33  C   UNL A   1      35.726  29.217  28.724  1.00  0.00     0.010 A 
ATOM     34  C   UNL A   1      36.603  30.280  28.996  1.00  0.00    -0.014 A 
BRANCH  34  35
ATOM     35  C   UNL A   1      37.824  30.038  29.805  1.00  0.00     0.031 A 
ATOM     36  C   UNL A   1      38.879  29.102  29.286  1.00  0.00     0.074 A 
ATOM     37  C   UNL A   1      37.976  30.603  31.018  1.00  0.00     0.049 A 
ATOM     38  N   UNL A   1      40.002  28.731  29.846  1.00  0.00    -0.248 NA
ATOM     39  C   UNL A   1      38.633  28.501  27.967  1.00  0.00     0.031 C 
ATOM     40  C   UNL A   1      37.030  31.517  31.653  1.00  0.00     0.029 A 
ATOM     41  N   UNL A   1      38.978  30.466  31.949  1.00  0.00    -0.354 N 
ATOM     42  C   UNL A   1      40.602  27.863  28.944  1.00  0.00     0.074 A 
ATOM     43  C   UNL A   1      39.697  27.723  27.824  1.00  0.00     0.031 C 
ATOM     44  C   UNL A   1      37.475  31.832  32.881  1.00  0.00     0.029 A 
ATOM     45  C   UNL A   1      38.740  31.142  33.121  1.00  0.00     0.049 A 
ATOM     46  H   UNL A   1      39.790  29.933  31.790  1.00  0.00     0.167 HD
ATOM     47  C   UNL A   1      41.809  27.258  29.030  1.00  0.00     0.037 A 
ATOM     48  C   UNL A   1      39.457  31.192  34.261  1.00  0.00     0.037 A 
ATOM     49  C   UNL A   1      42.722  27.400  30.133  1.00  0.00     0.049 A 
ATOM     50  C   UNL A   1      40.768  30.456  34.355  1.00  0.00     0.074 A 
ATOM     51  C   UNL A   1      44.005  26.896  30.258  1.00  0.00     0.029 A 
ATOM     52  N   UNL A   1      42.443  28.082  31.304  1.00  0.00    -0.354 N 
ATOM     53  N   UNL A   1      41.377  29.731  33.449  1.00  0.00    -0.248 NA
ATOM     54  C   UNL A   1      41.497  30.553  35.629  1.00  0.00     0.031 C 
ATOM     55  C   UNL A   1      44.485  27.231  31.529  1.00  0.00     0.029 A 
ATOM     56  C   UNL A   1      43.513  27.976  32.178  1.00  0.00     0.049 A 
ATOM     57  H   UNL A   1      41.607  28.570  31.491  1.00  0.00     0.167 HD
ATOM     58  C   UNL A   1      42.568  29.314  34.030  1.00  0.00     0.074 A 
ATOM     59  C   UNL A   1      42.603  29.873  35.364  1.00  0.00     0.031 C 
ATOM     60  C   UNL A   1      43.546  28.540  33.502  1.00  0.00     0.037 A 
BRANCH  47  61
ATOM     61  C   UNL A   1      42.227  26.387  27.887  1.00  0.00     0.064 A 
ATOM     62  C   UNL A   1      43.093  26.862  26.891  1.00  0.00     0.173 A 
ATOM     63  C   UNL A   1      41.812  25.050  27.822  1.00  0.00     0.173 A 
ATOM     64  F   UNL A   1      43.507  28.137  26.908  1.00  0.00    -0.203 F 
ATOM     65  C   UNL A   1      43.517  26.029  25.860  1.00  0.00     0.198 A 
ATOM     66  C   UNL A   1      42.254  24.215  26.800  1.00  0.00     0.198 A 
ATOM     67  F   UNL A   1      40.986  24.552  28.755  1.00  0.00    -0.203 F 
ATOM     68  F   UNL A   1      44.322  26.509  24.902  1.00  0.00    -0.200 F 
ATOM     69  C   UNL A   1      43.104  24.706  25.819  1.00  0.00     0.200 A 
ATOM     70  F   UNL A   1      41.860  22.935  26.766  1.00  0.00    -0.200 F 
ATOM     71  F   UNL A   1      43.522  23.902  24.832  1.00  0.00    -0.200 F 
ENDBRANCH  47  61
BRANCH  48  72
ATOM     72  C   UNL A   1      38.956  31.969  35.425  1.00  0.00     0.064 A 
ATOM     73  C   UNL A   1      39.295  33.319  35.590  1.00  0.00     0.173 A 
ATOM     74  C   UNL A   1      38.184  31.360  36.424  1.00  0.00     0.173 A 
ATOM     75  F   UNL A   1      40.056  33.934  34.673  1.00  0.00    -0.203 F 
ATOM     76  C   UNL A   1      38.905  34.023  36.728  1.00  0.00     0.198 A 
ATOM     77  C   UNL A   1      37.773  32.071  37.548  1.00  0.00     0.198 A 
ATOM     78  F   UNL A   1      37.841  30.068  36.315  1.00  0.00    -0.203 F 
ATOM     79  F   UNL A   1      39.293  35.295  36.891  1.00  0.00    -0.200 F 
ATOM     80  C   UNL A   1      38.143  33.399  37.705  1.00  0.00     0.200 A 
ATOM     81  F   UNL A   1      37.037  31.466  38.491  1.00  0.00    -0.200 F 
ATOM     82  F   UNL A   1      37.783  34.072  38.806  1.00  0.00    -0.200 F 
ENDBRANCH  48  72
BRANCH  60  83
ATOM     83  C   UNL A   1      44.750  28.260  34.353  1.00  0.00     0.064 A 
ATOM     84  C   UNL A   1      44.810  27.136  35.188  1.00  0.00     0.173 A 
ATOM     85  C   UNL A   1      45.876  29.096  34.292  1.00  0.00     0.173 A 
ATOM     86  F   UNL A   1      43.754  26.316  35.294  1.00  0.00    -0.203 F 
ATOM     87  C   UNL A   1      45.948  26.866  35.943  1.00  0.00     0.198 A 
ATOM     88  C   UNL A   1      47.021  28.808  35.028  1.00  0.00     0.198 A 
ATOM     89  F   UNL A   1      45.869  30.182  33.505  1.00  0.00    -0.203 F 
ATOM     90  F   UNL A   1      45.972  25.804  36.762  1.00  0.00    -0.200 F 
ATOM     91  C   UNL A   1      47.056  27.697  35.856  1.00  0.00     0.200 A 
ATOM     92  F   UNL A   1      48.094  29.606  34.933  1.00  0.00    -0.200 F 
ATOM     93  F   UNL A   1      48.155  27.428  36.574  1.00  0.00    -0.200 F 
ENDBRANCH  60  83
ENDBRANCH  34  35
ENDBRANCH  27  29
ENDBRANCH  26  27
ENDBRANCH  25  26
ENDBRANCH   1  25
TORSDOF 14
ENDMDL
MODEL 3
REMARK VINA RESULT:     -11.9      1.312      2.268
REMARK SMILES O=C(OCCOC(=O)c1ccc(-c2c3nc(c(-c4c(F)c(F)c(F)c(F)c4F)c4ccc([nH]4)c(-c4c(F)c(F)c(F)c(F)c4F)c4nc(c(-c5c(F)c(F)c(F)c(F)c5F)c5ccc2[nH]5)C=C4)C=C3)cc1)C1=NN(c2ccc([N+](=O)[O-])cc2)[C@H](c2ccccc2)C1
REMARK SMILES IDX 4 1 3 2 2 3 1 4 72 5 73 6 91 7 74 8 84 9 75 10 76 11 83 12
REMARK SMILES IDX 77 13 82 14 78 15 79 16 80 17 81 18 85 19 86 20 90 21 87 22
REMARK SMILES IDX 89 23 88 24 5 25 6 26 7 27 8 28 9 29 10 30 71 31 11 32 70 33
REMARK SMILES IDX 12 34 13 35 14 36 64 37 15 38 69 39 63 40 65 41 16 42 68 43
REMARK SMILES IDX 62 44 61 45 17 47 49 48 29 49 48 50 30 51 33 52 47 53 66 54
REMARK SMILES IDX 31 55 32 56 46 58 67 59 34 60 18 61 19 62 27 63 20 64 21 65
REMARK SMILES IDX 25 66 28 67 22 68 23 69 26 70 24 71 50 72 51 73 59 74 52 75
REMARK SMILES IDX 53 76 57 77 60 78 54 79 55 80 58 81 56 82 35 83 36 84 44 85
REMARK SMILES IDX 37 86 38 87 42 88 45 89 39 90 40 91 43 92 41 93
REMARK H PARENT 65 46 33 57
REMARK Flexibility Score: inf
ROOT
ATOM      1  C   UNL A   1      35.861  22.332  24.707  1.00  0.00     0.275 C 
ENDROOT
BRANCH   1   2
ATOM      2  O   UNL A   1      35.262  23.631  24.893  1.00  0.00    -0.458 OA
BRANCH   2   3
ATOM      3  C   UNL A   1      34.624  24.344  23.959  1.00  0.00     0.354 C 
ATOM      4  O   UNL A   1      34.715  24.074  22.765  1.00  0.00    -0.245 OA
BRANCH   3   5
ATOM      5  C   UNL A   1      33.801  25.570  24.313  1.00  0.00     0.148 C 
ATOM      6  N   UNL A   1      33.203  26.343  23.465  1.00  0.00    -0.169 NA
ATOM      7  C   UNL A   1      33.626  25.924  25.755  1.00  0.00     0.098 C 
ATOM      8  N   UNL A   1      32.610  27.342  24.172  1.00  0.00    -0.257 N 
ATOM      9  C   UNL A   1      32.746  27.172  25.631  1.00  0.00     0.144 C 
BRANCH   8  10
ATOM     10  C   UNL A   1      31.445  27.906  23.645  1.00  0.00     0.061 A 
ATOM     11  C   UNL A   1      30.178  27.393  23.959  1.00  0.00     0.035 A 
ATOM     12  C   UNL A   1      31.520  28.998  22.772  1.00  0.00     0.035 A 
ATOM     13  C   UNL A   1      29.010  27.970  23.453  1.00  0.00     0.088 A 
ATOM     14  C   UNL A   1      30.364  29.579  22.240  1.00  0.00     0.088 A 
ATOM     15  C   UNL A   1      29.110  29.066  22.589  1.00  0.00     0.269 A 
BRANCH  15  16
ATOM     16  N   UNL A   1      27.892  29.671  22.038  1.00  0.00     0.062 N 
ATOM     17  O   UNL A   1      27.945  30.118  20.882  1.00  0.00    -0.258 OA
ATOM     18  O   UNL A   1      26.883  29.693  22.756  1.00  0.00    -0.258 OA
ENDBRANCH  15  16
ENDBRANCH   8  10
BRANCH   9  19
ATOM     19  C   UNL A   1      33.279  28.436  26.284  1.00  0.00    -0.023 A 
ATOM     20  C   UNL A   1      32.468  29.532  26.618  1.00  0.00     0.006 A 
ATOM     21  C   UNL A   1      34.640  28.492  26.636  1.00  0.00     0.006 A 
ATOM     22  C   UNL A   1      33.000  30.645  27.275  1.00  0.00     0.000 A 
ATOM     23  C   UNL A   1      35.164  29.589  27.321  1.00  0.00     0.000 A 
ATOM     24  C   UNL A   1      34.344  30.667  27.637  1.00  0.00     0.000 A 
ENDBRANCH   9  19
ENDBRANCH   3   5
ENDBRANCH   2   3
ENDBRANCH   1   2
BRANCH   1  25
ATOM     25  C   UNL A   1      36.957  22.033  25.733  1.00  0.00     0.275 C 
BRANCH  25  26
ATOM     26  O   UNL A   1      38.128  22.845  25.539  1.00  0.00    -0.458 OA
BRANCH  26  27
ATOM     27  C   UNL A   1      39.110  22.707  26.469  1.00  0.00     0.338 C 
ATOM     28  O   UNL A   1      39.662  21.680  26.805  1.00  0.00    -0.246 OA
BRANCH  27  29
ATOM     29  C   UNL A   1      39.540  24.058  26.905  1.00  0.00     0.060 A 
ATOM     30  C   UNL A   1      39.436  24.386  28.261  1.00  0.00     0.016 A 
ATOM     31  C   UNL A   1      40.086  24.979  26.005  1.00  0.00     0.016 A 
ATOM     32  C   UNL A   1      39.906  25.623  28.721  1.00  0.00     0.010 A 
ATOM     33  C   UNL A   1      40.576  26.202  26.469  1.00  0.00     0.010 A 
ATOM     34  C   UNL A   1      40.487  26.537  27.830  1.00  0.00    -0.014 A 
BRANCH  34  35
ATOM     35  C   UNL A   1      40.941  27.874  28.290  1.00  0.00     0.031 A 
ATOM     36  C   UNL A   1      42.413  28.155  28.402  1.00  0.00     0.074 A 
ATOM     37  C   UNL A   1      40.054  28.818  28.658  1.00  0.00     0.049 A 
ATOM     38  N   UNL A   1      43.018  29.241  28.810  1.00  0.00    -0.248 NA
ATOM     39  C   UNL A   1      43.322  27.068  28.010  1.00  0.00     0.031 C 
ATOM     40  C   UNL A   1      38.601  28.680  28.616  1.00  0.00     0.029 A 
ATOM     41  N   UNL A   1      40.252  30.079  29.169  1.00  0.00    -0.354 N 
ATOM     42  C   UNL A   1      44.376  28.974  28.713  1.00  0.00     0.074 A 
ATOM     43  C   UNL A   1      44.508  27.607  28.256  1.00  0.00     0.031 C 
ATOM     44  C   UNL A   1      38.036  29.793  29.114  1.00  0.00     0.029 A 
ATOM     45  C   UNL A   1      39.089  30.726  29.509  1.00  0.00     0.049 A 
ATOM     46  H   UNL A   1      41.143  30.480  29.280  1.00  0.00     0.167 HD
ATOM     47  C   UNL A   1      45.420  29.800  28.957  1.00  0.00     0.037 A 
ATOM     48  C   UNL A   1      38.895  31.930  30.083  1.00  0.00     0.037 A 
ATOM     49  C   UNL A   1      45.300  31.164  29.400  1.00  0.00     0.049 A 
ATOM     50  C   UNL A   1      40.078  32.806  30.405  1.00  0.00     0.074 A 
ATOM     51  C   UNL A   1      46.304  32.099  29.582  1.00  0.00     0.029 A 
ATOM     52  N   UNL A   1      44.110  31.779  29.744  1.00  0.00    -0.354 N 
ATOM     53  N   UNL A   1      41.353  32.583  30.200  1.00  0.00    -0.248 NA
ATOM     54  C   UNL A   1      39.793  34.106  31.032  1.00  0.00     0.031 C 
ATOM     55  C   UNL A   1      45.725  33.269  30.086  1.00  0.00     0.029 A 
ATOM     56  C   UNL A   1      44.356  33.071  30.180  1.00  0.00     0.049 A 
ATOM     57  H   UNL A   1      43.219  31.362  29.689  1.00  0.00     0.167 HD
ATOM     58  C   UNL A   1      42.016  33.722  30.641  1.00  0.00     0.074 A 
ATOM     59  C   UNL A   1      41.003  34.639  31.117  1.00  0.00     0.031 C 
ATOM     60  C   UNL A   1      43.345  33.982  30.647  1.00  0.00     0.037 A 
BRANCH  47  61
ATOM     61  C   UNL A   1      46.796  29.256  28.739  1.00  0.00     0.064 A 
ATOM     62  C   UNL A   1      47.417  29.333  27.484  1.00  0.00     0.173 A 
ATOM     63  C   UNL A   1      47.525  28.713  29.807  1.00  0.00     0.173 A 
ATOM     64  F   UNL A   1      46.754  29.835  26.432  1.00  0.00    -0.203 F 
ATOM     65  C   UNL A   1      48.717  28.870  27.303  1.00  0.00     0.198 A 
ATOM     66  C   UNL A   1      48.832  28.270  29.626  1.00  0.00     0.198 A 
ATOM     67  F   UNL A   1      46.972  28.622  31.026  1.00  0.00    -0.203 F 
ATOM     68  F   UNL A   1      49.283  28.927  26.089  1.00  0.00    -0.200 F 
ATOM     69  C   UNL A   1      49.425  28.347  28.374  1.00  0.00     0.200 A 
ATOM     70  F   UNL A   1      49.518  27.772  30.663  1.00  0.00    -0.200 F 
ATOM     71  F   UNL A   1      50.681  27.912  28.201  1.00  0.00    -0.200 F 
ENDBRANCH  47  61
BRANCH  48  72
ATOM     72  C   UNL A   1      37.519  32.394  30.400  1.00  0.00     0.064 A 
ATOM     73  C   UNL A   1      36.782  33.146  29.475  1.00  0.00     0.173 A 
ATOM     74  C   UNL A   1      36.943  32.149  31.654  1.00  0.00     0.173 A 
ATOM     75  F   UNL A   1      37.305  33.429  28.273  1.00  0.00    -0.203 F 
ATOM     76  C   UNL A   1      35.530  33.661  29.805  1.00  0.00     0.198 A 
ATOM     77  C   UNL A   1      35.681  32.644  31.974  1.00  0.00     0.198 A 
ATOM     78  F   UNL A   1      37.614  31.442  32.575  1.00  0.00    -0.203 F 
ATOM     79  F   UNL A   1      34.871  34.428  28.925  1.00  0.00    -0.200 F 
ATOM     80  C   UNL A   1      34.980  33.409  31.053  1.00  0.00     0.200 A 
ATOM     81  F   UNL A   1      35.152  32.397  33.180  1.00  0.00    -0.200 F 
ATOM     82  F   UNL A   1      33.784  33.919  31.375  1.00  0.00    -0.200 F 
ENDBRANCH  48  72
BRANCH  60  83
ATOM     83  C   UNL A   1      43.791  35.318  31.166  1.00  0.00     0.064 A 
ATOM     84  C   UNL A   1      43.871  36.439  30.327  1.00  0.00     0.173 A 
ATOM     85  C   UNL A   1      44.089  35.492  32.526  1.00  0.00     0.173 A 
ATOM     86  F   UNL A   1      43.612  36.321  29.016  1.00  0.00    -0.203 F 
ATOM     87  C   UNL A   1      44.248  37.682  30.828  1.00  0.00     0.198 A 
ATOM     88  C   UNL A   1      44.439  36.742  33.028  1.00  0.00     0.198 A 
ATOM     89  F   UNL A   1      44.023  34.452  33.370  1.00  0.00    -0.203 F 
ATOM     90  F   UNL A   1      44.352  38.733  30.002  1.00  0.00    -0.200 F 
ATOM     91  C   UNL A   1      44.523  37.835  32.180  1.00  0.00     0.200 A 
ATOM     92  F   UNL A   1      44.693  36.889  34.336  1.00  0.00    -0.200 F 
ATOM     93  F   UNL A   1      44.873  39.035  32.662  1.00  0.00    -0.200 F 
ENDBRANCH  60  83
ENDBRANCH  34  35
ENDBRANCH  27  29
ENDBRANCH  26  27
ENDBRANCH  25  26
ENDBRANCH   1  25
TORSDOF 14
ENDMDL
