MODEL 1
REMARK VINA RESULT:     -13.6      0.000      0.000
REMARK SMILES Cc1ccc(C(=O)OCCOC(=O)c2ccc(-c3c4nc(c(-c5c(F)c(F)c(F)c(F)c5F)c5ccc([nH]5)c(-c5c(F)c(F)c(F)c(F)c5F)c5nc(c(-c6c(F)c(F)c(F)c(F)c6F)c6ccc3[nH]6)C=C5)C=C4)cc2)cc1N1C(=O)/C(=C\c2nc3ccccc3n2C)SC1=S
REMARK SMILES IDX 9 1 8 2 6 3 7 4 5 5 1 6 2 7 3 8 78 9 4 10 77 11 79 12 80 13
REMARK SMILES IDX 95 14 81 15 82 16 94 17 96 18 83 19 84 20 85 21 92 22 86 23
REMARK SMILES IDX 91 24 93 25 87 26 90 27 88 28 89 29 10 30 11 31 12 32 13 33
REMARK SMILES IDX 14 34 15 35 76 36 16 37 75 38 17 39 18 40 19 41 69 42 20 43
REMARK SMILES IDX 74 44 68 45 70 46 21 47 73 48 67 49 66 50 22 52 54 53 34 54
REMARK SMILES IDX 53 55 35 56 38 57 52 58 71 59 36 60 37 61 51 63 72 64 39 65
REMARK SMILES IDX 23 66 24 67 32 68 25 69 26 70 30 71 33 72 27 73 28 74 31 75
REMARK SMILES IDX 29 76 55 77 56 78 64 79 57 80 58 81 62 82 65 83 59 84 60 85
REMARK SMILES IDX 63 86 61 87 40 88 41 89 49 90 42 91 43 92 47 93 50 94 44 95
REMARK SMILES IDX 45 96 48 97 46 98
REMARK H PARENT 70 51 38 62
REMARK Flexibility Score: inf
ROOT
ATOM      1  C   UNL A   1      33.468  31.643  27.611  1.00  0.00     0.275 C 
ENDROOT
BRANCH   1   2
ATOM      2  O   UNL A   1      33.886  30.763  26.557  1.00  0.00    -0.458 OA
BRANCH   2   3
ATOM      3  C   UNL A   1      33.917  29.481  26.993  1.00  0.00     0.338 C 
ATOM      4  O   UNL A   1      34.907  28.904  27.424  1.00  0.00    -0.246 OA
BRANCH   3   5
ATOM      5  C   UNL A   1      32.673  28.730  26.768  1.00  0.00     0.062 A 
ATOM      6  C   UNL A   1      29.842  25.577  25.947  1.00  0.00     0.046 C 
ATOM      7  C   UNL A   1      30.768  26.743  26.156  1.00  0.00    -0.027 A 
ATOM      8  C   UNL A   1      30.823  27.333  27.438  1.00  0.00     0.006 A 
ATOM      9  C   UNL A   1      31.645  27.220  25.170  1.00  0.00     0.054 A 
ATOM     10  C   UNL A   1      31.765  28.330  27.743  1.00  0.00     0.016 A 
ATOM     11  C   UNL A   1      32.571  28.215  25.485  1.00  0.00     0.042 A 
BRANCH   9  12
ATOM     12  N   UNL A   1      31.762  26.663  23.872  1.00  0.00    -0.261 N 
ATOM     13  C   UNL A   1      32.519  25.501  23.735  1.00  0.00     0.270 C 
ATOM     14  C   UNL A   1      31.558  27.401  22.720  1.00  0.00     0.152 C 
ATOM     15  O   UNL A   1      33.145  24.948  24.631  1.00  0.00    -0.268 OA
ATOM     16  C   UNL A   1      32.666  25.157  22.291  1.00  0.00     0.084 C 
ATOM     17  S   UNL A   1      32.208  26.518  21.333  1.00  0.00    -0.054 SA
ATOM     18  S   UNL A   1      30.906  28.932  22.557  1.00  0.00    -0.051 S 
ATOM     19  C   UNL A   1      33.086  23.992  21.779  1.00  0.00     0.068 C 
BRANCH  19  20
ATOM     20  C   UNL A   1      33.214  22.839  22.596  1.00  0.00     0.134 A 
ATOM     21  N   UNL A   1      32.304  21.910  22.812  1.00  0.00    -0.229 NA
ATOM     22  N   UNL A   1      34.385  22.520  23.255  1.00  0.00    -0.328 N 
ATOM     23  C   UNL A   1      32.821  21.085  23.768  1.00  0.00     0.089 A 
ATOM     24  C   UNL A   1      34.134  21.431  24.066  1.00  0.00     0.068 A 
ATOM     25  C   UNL A   1      35.656  23.190  23.119  1.00  0.00     0.152 C 
ATOM     26  C   UNL A   1      32.210  20.010  24.428  1.00  0.00     0.030 A 
ATOM     27  C   UNL A   1      34.895  20.721  25.003  1.00  0.00     0.028 A 
ATOM     28  C   UNL A   1      32.952  19.291  25.367  1.00  0.00     0.002 A 
ATOM     29  C   UNL A   1      34.275  19.638  25.641  1.00  0.00     0.002 A 
ENDBRANCH  19  20
ENDBRANCH   9  12
ENDBRANCH   3   5
ENDBRANCH   2   3
ENDBRANCH   1   2
BRANCH   1  30
ATOM     30  C   UNL A   1      34.594  32.497  28.192  1.00  0.00     0.275 C 
BRANCH  30  31
ATOM     31  O   UNL A   1      35.857  31.862  28.542  1.00  0.00    -0.458 OA
BRANCH  31  32
ATOM     32  C   UNL A   1      36.314  31.500  29.763  1.00  0.00     0.338 C 
ATOM     33  O   UNL A   1      35.794  31.891  30.803  1.00  0.00    -0.246 OA
BRANCH  32  34
ATOM     34  C   UNL A   1      37.459  30.583  29.818  1.00  0.00     0.060 A 
ATOM     35  C   UNL A   1      37.238  29.239  30.164  1.00  0.00     0.016 A 
ATOM     36  C   UNL A   1      38.715  31.035  29.433  1.00  0.00     0.016 A 
ATOM     37  C   UNL A   1      38.252  28.305  30.009  1.00  0.00     0.010 A 
ATOM     38  C   UNL A   1      39.684  30.106  29.162  1.00  0.00     0.010 A 
ATOM     39  C   UNL A   1      39.465  28.759  29.501  1.00  0.00    -0.014 A 
BRANCH  39  40
ATOM     40  C   UNL A   1      40.707  28.033  29.664  1.00  0.00     0.031 A 
ATOM     41  C   UNL A   1      40.941  26.714  29.074  1.00  0.00     0.074 A 
ATOM     42  C   UNL A   1      41.656  28.848  30.177  1.00  0.00     0.049 A 
ATOM     43  N   UNL A   1      42.009  26.035  29.295  1.00  0.00    -0.248 NA
ATOM     44  C   UNL A   1      39.998  26.017  28.209  1.00  0.00     0.031 C 
ATOM     45  C   UNL A   1      43.104  28.772  30.164  1.00  0.00     0.029 A 
ATOM     46  N   UNL A   1      41.384  29.982  30.968  1.00  0.00    -0.354 N 
ATOM     47  C   UNL A   1      42.044  24.992  28.395  1.00  0.00     0.074 A 
ATOM     48  C   UNL A   1      40.719  24.951  27.835  1.00  0.00     0.031 C 
ATOM     49  C   UNL A   1      43.576  29.581  31.135  1.00  0.00     0.029 A 
ATOM     50  C   UNL A   1      42.422  30.059  31.895  1.00  0.00     0.049 A 
ATOM     51  H   UNL A   1      40.618  30.594  30.883  1.00  0.00     0.167 HD
ATOM     52  C   UNL A   1      43.260  24.417  28.162  1.00  0.00     0.037 A 
ATOM     53  C   UNL A   1      42.132  29.723  33.188  1.00  0.00     0.037 A 
ATOM     54  C   UNL A   1      44.217  24.905  29.164  1.00  0.00     0.049 A 
ATOM     55  C   UNL A   1      42.883  28.474  33.573  1.00  0.00     0.074 A 
ATOM     56  C   UNL A   1      45.175  25.905  29.119  1.00  0.00     0.029 A 
ATOM     57  N   UNL A   1      43.979  24.645  30.516  1.00  0.00    -0.354 N 
ATOM     58  N   UNL A   1      43.108  27.468  32.769  1.00  0.00    -0.248 NA
ATOM     59  C   UNL A   1      43.527  28.336  34.870  1.00  0.00     0.031 C 
ATOM     60  C   UNL A   1      45.416  26.329  30.454  1.00  0.00     0.029 A 
ATOM     61  C   UNL A   1      44.636  25.566  31.311  1.00  0.00     0.049 A 
ATOM     62  H   UNL A   1      43.421  23.908  30.855  1.00  0.00     0.167 HD
ATOM     63  C   UNL A   1      43.985  26.610  33.378  1.00  0.00     0.074 A 
ATOM     64  C   UNL A   1      44.193  27.183  34.700  1.00  0.00     0.031 C 
ATOM     65  C   UNL A   1      44.540  25.522  32.765  1.00  0.00     0.037 A 
BRANCH  52  66
ATOM     66  C   UNL A   1      43.681  23.618  26.937  1.00  0.00     0.064 A 
ATOM     67  C   UNL A   1      43.218  22.289  26.771  1.00  0.00     0.173 A 
ATOM     68  C   UNL A   1      44.576  24.041  25.932  1.00  0.00     0.173 A 
ATOM     69  F   UNL A   1      42.364  21.732  27.641  1.00  0.00    -0.203 F 
ATOM     70  C   UNL A   1      43.625  21.465  25.713  1.00  0.00     0.198 A 
ATOM     71  C   UNL A   1      44.958  23.227  24.857  1.00  0.00     0.198 A 
ATOM     72  F   UNL A   1      45.127  25.254  25.929  1.00  0.00    -0.203 F 
ATOM     73  F   UNL A   1      43.171  20.206  25.636  1.00  0.00    -0.200 F 
ATOM     74  C   UNL A   1      44.489  21.938  24.750  1.00  0.00     0.200 A 
ATOM     75  F   UNL A   1      45.792  23.712  23.923  1.00  0.00    -0.200 F 
ATOM     76  F   UNL A   1      44.866  21.159  23.728  1.00  0.00    -0.200 F 
ENDBRANCH  52  66
BRANCH  53  77
ATOM     77  C   UNL A   1      40.730  30.066  33.616  1.00  0.00     0.064 A 
ATOM     78  C   UNL A   1      40.446  31.392  34.021  1.00  0.00     0.173 A 
ATOM     79  C   UNL A   1      39.628  29.233  33.386  1.00  0.00     0.173 A 
ATOM     80  F   UNL A   1      41.452  32.247  34.270  1.00  0.00    -0.203 F 
ATOM     81  C   UNL A   1      39.142  31.886  34.081  1.00  0.00     0.198 A 
ATOM     82  C   UNL A   1      38.318  29.726  33.469  1.00  0.00     0.198 A 
ATOM     83  F   UNL A   1      39.802  27.960  33.009  1.00  0.00    -0.203 F 
ATOM     84  F   UNL A   1      38.929  33.181  34.360  1.00  0.00    -0.200 F 
ATOM     85  C   UNL A   1      38.078  31.054  33.791  1.00  0.00     0.200 A 
ATOM     86  F   UNL A   1      37.283  28.930  33.163  1.00  0.00    -0.200 F 
ATOM     87  F   UNL A   1      36.826  31.536  33.777  1.00  0.00    -0.200 F 
ENDBRANCH  53  77
BRANCH  65  88
ATOM     88  C   UNL A   1      45.202  24.385  33.504  1.00  0.00     0.064 A 
ATOM     89  C   UNL A   1      44.576  23.151  33.745  1.00  0.00     0.173 A 
ATOM     90  C   UNL A   1      46.568  24.455  33.871  1.00  0.00     0.173 A 
ATOM     91  F   UNL A   1      43.339  22.894  33.298  1.00  0.00    -0.203 F 
ATOM     92  C   UNL A   1      45.222  22.111  34.411  1.00  0.00     0.198 A 
ATOM     93  C   UNL A   1      47.233  23.386  34.466  1.00  0.00     0.198 A 
ATOM     94  F   UNL A   1      47.311  25.545  33.636  1.00  0.00    -0.203 F 
ATOM     95  F   UNL A   1      44.552  20.984  34.684  1.00  0.00    -0.200 F 
ATOM     96  C   UNL A   1      46.552  22.224  34.764  1.00  0.00     0.200 A 
ATOM     97  F   UNL A   1      48.543  23.484  34.732  1.00  0.00    -0.200 F 
ATOM     98  F   UNL A   1      47.182  21.208  35.366  1.00  0.00    -0.200 F 
ENDBRANCH  65  88
ENDBRANCH  39  40
ENDBRANCH  32  34
ENDBRANCH  31  32
ENDBRANCH  30  31
ENDBRANCH   1  30
TORSDOF 13
ENDMDL
MODEL 2
REMARK VINA RESULT:     -13.6      1.362      2.215
REMARK SMILES Cc1ccc(C(=O)OCCOC(=O)c2ccc(-c3c4nc(c(-c5c(F)c(F)c(F)c(F)c5F)c5ccc([nH]5)c(-c5c(F)c(F)c(F)c(F)c5F)c5nc(c(-c6c(F)c(F)c(F)c(F)c6F)c6ccc3[nH]6)C=C5)C=C4)cc2)cc1N1C(=O)/C(=C\c2nc3ccccc3n2C)SC1=S
REMARK SMILES IDX 9 1 8 2 6 3 7 4 5 5 1 6 2 7 3 8 78 9 4 10 77 11 79 12 80 13
REMARK SMILES IDX 95 14 81 15 82 16 94 17 96 18 83 19 84 20 85 21 92 22 86 23
REMARK SMILES IDX 91 24 93 25 87 26 90 27 88 28 89 29 10 30 11 31 12 32 13 33
REMARK SMILES IDX 14 34 15 35 76 36 16 37 75 38 17 39 18 40 19 41 69 42 20 43
REMARK SMILES IDX 74 44 68 45 70 46 21 47 73 48 67 49 66 50 22 52 54 53 34 54
REMARK SMILES IDX 53 55 35 56 38 57 52 58 71 59 36 60 37 61 51 63 72 64 39 65
REMARK SMILES IDX 23 66 24 67 32 68 25 69 26 70 30 71 33 72 27 73 28 74 31 75
REMARK SMILES IDX 29 76 55 77 56 78 64 79 57 80 58 81 62 82 65 83 59 84 60 85
REMARK SMILES IDX 63 86 61 87 40 88 41 89 49 90 42 91 43 92 47 93 50 94 44 95
REMARK SMILES IDX 45 96 48 97 46 98
REMARK H PARENT 70 51 38 62
REMARK Flexibility Score: inf
ROOT
ATOM      1  C   UNL A   1      33.838  29.907  27.633  1.00  0.00     0.275 C 
ENDROOT
BRANCH   1   2
ATOM      2  O   UNL A   1      33.535  28.827  26.739  1.00  0.00    -0.458 OA
BRANCH   2   3
ATOM      3  C   UNL A   1      33.131  29.303  25.538  1.00  0.00     0.338 C 
ATOM      4  O   UNL A   1      32.478  30.325  25.366  1.00  0.00    -0.246 OA
BRANCH   3   5
ATOM      5  C   UNL A   1      33.398  28.407  24.404  1.00  0.00     0.062 A 
ATOM      6  C   UNL A   1      32.940  25.563  21.189  1.00  0.00     0.046 C 
ATOM      7  C   UNL A   1      33.194  26.492  22.343  1.00  0.00    -0.027 A 
ATOM      8  C   UNL A   1      33.522  27.836  22.063  1.00  0.00     0.006 A 
ATOM      9  C   UNL A   1      33.037  26.116  23.686  1.00  0.00     0.054 A 
ATOM     10  C   UNL A   1      33.633  28.791  23.088  1.00  0.00     0.016 A 
ATOM     11  C   UNL A   1      33.157  27.073  24.695  1.00  0.00     0.042 A 
BRANCH   9  12
ATOM     12  N   UNL A   1      32.622  24.828  24.110  1.00  0.00    -0.261 N 
ATOM     13  C   UNL A   1      33.574  23.810  24.104  1.00  0.00     0.270 C 
ATOM     14  C   UNL A   1      31.298  24.430  24.103  1.00  0.00     0.152 C 
ATOM     15  O   UNL A   1      34.728  23.916  23.707  1.00  0.00    -0.268 OA
ATOM     16  C   UNL A   1      32.924  22.505  24.417  1.00  0.00     0.084 C 
ATOM     17  S   UNL A   1      31.213  22.671  24.267  1.00  0.00    -0.054 SA
ATOM     18  S   UNL A   1      29.924  25.357  23.883  1.00  0.00    -0.051 S 
ATOM     19  C   UNL A   1      33.535  21.362  24.762  1.00  0.00     0.068 C 
BRANCH  19  20
ATOM     20  C   UNL A   1      34.911  21.347  25.108  1.00  0.00     0.134 A 
ATOM     21  N   UNL A   1      35.611  22.327  25.643  1.00  0.00    -0.229 NA
ATOM     22  N   UNL A   1      35.703  20.225  24.956  1.00  0.00    -0.328 N 
ATOM     23  C   UNL A   1      36.908  21.904  25.662  1.00  0.00     0.089 A 
ATOM     24  C   UNL A   1      37.005  20.581  25.246  1.00  0.00     0.068 A 
ATOM     25  C   UNL A   1      35.259  18.905  24.576  1.00  0.00     0.152 C 
ATOM     26  C   UNL A   1      38.060  22.613  26.028  1.00  0.00     0.030 A 
ATOM     27  C   UNL A   1      38.232  19.906  25.197  1.00  0.00     0.028 A 
ATOM     28  C   UNL A   1      39.292  21.958  25.984  1.00  0.00     0.002 A 
ATOM     29  C   UNL A   1      39.372  20.624  25.584  1.00  0.00     0.002 A 
ENDBRANCH  19  20
ENDBRANCH   9  12
ENDBRANCH   3   5
ENDBRANCH   2   3
ENDBRANCH   1   2
BRANCH   1  30
ATOM     30  C   UNL A   1      35.235  30.498  27.444  1.00  0.00     0.275 C 
BRANCH  30  31
ATOM     31  O   UNL A   1      35.667  31.586  28.309  1.00  0.00    -0.458 OA
BRANCH  31  32
ATOM     32  C   UNL A   1      36.322  31.521  29.491  1.00  0.00     0.338 C 
ATOM     33  O   UNL A   1      35.987  32.186  30.467  1.00  0.00    -0.246 OA
BRANCH  32  34
ATOM     34  C   UNL A   1      37.454  30.594  29.594  1.00  0.00     0.060 A 
ATOM     35  C   UNL A   1      37.248  29.327  30.167  1.00  0.00     0.016 A 
ATOM     36  C   UNL A   1      38.677  30.945  29.036  1.00  0.00     0.016 A 
ATOM     37  C   UNL A   1      38.231  28.354  30.076  1.00  0.00     0.010 A 
ATOM     38  C   UNL A   1      39.606  29.959  28.834  1.00  0.00     0.010 A 
ATOM     39  C   UNL A   1      39.401  28.688  29.400  1.00  0.00    -0.014 A 
BRANCH  39  40
ATOM     40  C   UNL A   1      40.643  27.964  29.570  1.00  0.00     0.031 A 
ATOM     41  C   UNL A   1      40.870  26.633  29.005  1.00  0.00     0.074 A 
ATOM     42  C   UNL A   1      41.596  28.788  30.060  1.00  0.00     0.049 A 
ATOM     43  N   UNL A   1      41.938  25.957  29.233  1.00  0.00    -0.248 NA
ATOM     44  C   UNL A   1      39.921  25.920  28.162  1.00  0.00     0.031 C 
ATOM     45  C   UNL A   1      43.043  28.709  30.039  1.00  0.00     0.029 A 
ATOM     46  N   UNL A   1      41.331  29.938  30.830  1.00  0.00    -0.354 N 
ATOM     47  C   UNL A   1      41.966  24.896  28.355  1.00  0.00     0.074 A 
ATOM     48  C   UNL A   1      40.637  24.845  27.804  1.00  0.00     0.031 C 
ATOM     49  C   UNL A   1      43.523  29.537  30.991  1.00  0.00     0.029 A 
ATOM     50  C   UNL A   1      42.376  30.032  31.748  1.00  0.00     0.049 A 
ATOM     51  H   UNL A   1      40.565  30.549  30.738  1.00  0.00     0.167 HD
ATOM     52  C   UNL A   1      43.179  24.313  28.126  1.00  0.00     0.037 A 
ATOM     53  C   UNL A   1      42.093  29.723  33.050  1.00  0.00     0.037 A 
ATOM     54  C   UNL A   1      44.144  24.820  29.111  1.00  0.00     0.049 A 
ATOM     55  C   UNL A   1      42.845  28.480  33.455  1.00  0.00     0.074 A 
ATOM     56  C   UNL A   1      45.103  25.817  29.039  1.00  0.00     0.029 A 
ATOM     57  N   UNL A   1      43.914  24.588  30.469  1.00  0.00    -0.354 N 
ATOM     58  N   UNL A   1      43.063  27.458  32.670  1.00  0.00    -0.248 NA
ATOM     59  C   UNL A   1      43.497  28.368  34.750  1.00  0.00     0.031 C 
ATOM     60  C   UNL A   1      45.353  26.268  30.364  1.00  0.00     0.029 A 
ATOM     61  C   UNL A   1      44.578  25.524  31.241  1.00  0.00     0.049 A 
ATOM     62  H   UNL A   1      43.357  23.859  30.827  1.00  0.00     0.167 HD
ATOM     63  C   UNL A   1      43.943  26.611  33.291  1.00  0.00     0.074 A 
ATOM     64  C   UNL A   1      44.161  27.210  34.599  1.00  0.00     0.031 C 
ATOM     65  C   UNL A   1      44.492  25.509  32.696  1.00  0.00     0.037 A 
BRANCH  52  66
ATOM     66  C   UNL A   1      43.590  23.489  26.914  1.00  0.00     0.064 A 
ATOM     67  C   UNL A   1      43.108  22.165  26.768  1.00  0.00     0.173 A 
ATOM     68  C   UNL A   1      44.494  23.882  25.905  1.00  0.00     0.173 A 
ATOM     69  F   UNL A   1      42.243  21.635  27.643  1.00  0.00    -0.203 F 
ATOM     70  C   UNL A   1      43.504  21.319  25.723  1.00  0.00     0.198 A 
ATOM     71  C   UNL A   1      44.867  23.046  24.844  1.00  0.00     0.198 A 
ATOM     72  F   UNL A   1      45.065  25.087  25.884  1.00  0.00    -0.203 F 
ATOM     73  F   UNL A   1      43.030  20.066  25.665  1.00  0.00    -0.200 F 
ATOM     74  C   UNL A   1      44.377  21.762  24.756  1.00  0.00     0.200 A 
ATOM     75  F   UNL A   1      45.710  23.503  23.905  1.00  0.00    -0.200 F 
ATOM     76  F   UNL A   1      44.745  20.962  23.747  1.00  0.00    -0.200 F 
ENDBRANCH  52  66
BRANCH  53  77
ATOM     77  C   UNL A   1      40.695  30.076  33.480  1.00  0.00     0.064 A 
ATOM     78  C   UNL A   1      40.390  31.430  33.763  1.00  0.00     0.173 A 
ATOM     79  C   UNL A   1      39.607  29.203  33.361  1.00  0.00     0.173 A 
ATOM     80  F   UNL A   1      41.382  32.325  33.901  1.00  0.00    -0.203 F 
ATOM     81  C   UNL A   1      39.077  31.901  33.809  1.00  0.00     0.198 A 
ATOM     82  C   UNL A   1      38.289  29.675  33.431  1.00  0.00     0.198 A 
ATOM     83  F   UNL A   1      39.801  27.903  33.103  1.00  0.00    -0.203 F 
ATOM     84  F   UNL A   1      38.842  33.211  33.968  1.00  0.00    -0.200 F 
ATOM     85  C   UNL A   1      38.026  31.023  33.629  1.00  0.00     0.200 A 
ATOM     86  F   UNL A   1      37.264  28.832  33.230  1.00  0.00    -0.200 F 
ATOM     87  F   UNL A   1      36.764  31.475  33.602  1.00  0.00    -0.200 F 
ENDBRANCH  53  77
BRANCH  65  88
ATOM     88  C   UNL A   1      45.157  24.387  33.453  1.00  0.00     0.064 A 
ATOM     89  C   UNL A   1      44.533  23.156  33.716  1.00  0.00     0.173 A 
ATOM     90  C   UNL A   1      46.522  24.466  33.819  1.00  0.00     0.173 A 
ATOM     91  F   UNL A   1      43.297  22.888  33.274  1.00  0.00    -0.203 F 
ATOM     92  C   UNL A   1      45.183  22.129  34.398  1.00  0.00     0.198 A 
ATOM     93  C   UNL A   1      47.190  23.409  34.432  1.00  0.00     0.198 A 
ATOM     94  F   UNL A   1      47.263  25.554  33.566  1.00  0.00    -0.203 F 
ATOM     95  F   UNL A   1      44.515  21.004  34.691  1.00  0.00    -0.200 F 
ATOM     96  C   UNL A   1      46.512  22.251  34.749  1.00  0.00     0.200 A 
ATOM     97  F   UNL A   1      48.500  23.515  34.695  1.00  0.00    -0.200 F 
ATOM     98  F   UNL A   1      47.145  21.246  35.367  1.00  0.00    -0.200 F 
ENDBRANCH  65  88
ENDBRANCH  39  40
ENDBRANCH  32  34
ENDBRANCH  31  32
ENDBRANCH  30  31
ENDBRANCH   1  30
TORSDOF 13
ENDMDL
MODEL 3
REMARK VINA RESULT:     -13.6      4.138     10.340
REMARK SMILES Cc1ccc(C(=O)OCCOC(=O)c2ccc(-c3c4nc(c(-c5c(F)c(F)c(F)c(F)c5F)c5ccc([nH]5)c(-c5c(F)c(F)c(F)c(F)c5F)c5nc(c(-c6c(F)c(F)c(F)c(F)c6F)c6ccc3[nH]6)C=C5)C=C4)cc2)cc1N1C(=O)/C(=C\c2nc3ccccc3n2C)SC1=S
REMARK SMILES IDX 9 1 8 2 6 3 7 4 5 5 1 6 2 7 3 8 78 9 4 10 77 11 79 12 80 13
REMARK SMILES IDX 95 14 81 15 82 16 94 17 96 18 83 19 84 20 85 21 92 22 86 23
REMARK SMILES IDX 91 24 93 25 87 26 90 27 88 28 89 29 10 30 11 31 12 32 13 33
REMARK SMILES IDX 14 34 15 35 76 36 16 37 75 38 17 39 18 40 19 41 69 42 20 43
REMARK SMILES IDX 74 44 68 45 70 46 21 47 73 48 67 49 66 50 22 52 54 53 34 54
REMARK SMILES IDX 53 55 35 56 38 57 52 58 71 59 36 60 37 61 51 63 72 64 39 65
REMARK SMILES IDX 23 66 24 67 32 68 25 69 26 70 30 71 33 72 27 73 28 74 31 75
REMARK SMILES IDX 29 76 55 77 56 78 64 79 57 80 58 81 62 82 65 83 59 84 60 85
REMARK SMILES IDX 63 86 61 87 40 88 41 89 49 90 42 91 43 92 47 93 50 94 44 95
REMARK SMILES IDX 45 96 48 97 46 98
REMARK H PARENT 70 51 38 62
REMARK Flexibility Score: inf
ROOT
ATOM      1  C   UNL A   1      37.930  22.228  25.592  1.00  0.00     0.275 C 
ENDROOT
BRANCH   1   2
ATOM      2  O   UNL A   1      37.042  21.878  24.520  1.00  0.00    -0.458 OA
BRANCH   2   3
ATOM      3  C   UNL A   1      36.096  21.011  24.952  1.00  0.00     0.338 C 
ATOM      4  O   UNL A   1      36.221  19.794  25.000  1.00  0.00    -0.246 OA
BRANCH   3   5
ATOM      5  C   UNL A   1      34.789  21.623  25.233  1.00  0.00     0.062 A 
ATOM      6  C   UNL A   1      30.748  23.093  24.851  1.00  0.00     0.046 C 
ATOM      7  C   UNL A   1      32.183  22.684  25.035  1.00  0.00    -0.027 A 
ATOM      8  C   UNL A   1      32.466  21.594  25.885  1.00  0.00     0.006 A 
ATOM      9  C   UNL A   1      33.249  23.273  24.338  1.00  0.00     0.054 A 
ATOM     10  C   UNL A   1      33.765  21.068  25.993  1.00  0.00     0.016 A 
ATOM     11  C   UNL A   1      34.535  22.746  24.459  1.00  0.00     0.042 A 
BRANCH   9  12
ATOM     12  N   UNL A   1      33.101  24.313  23.385  1.00  0.00    -0.261 N 
ATOM     13  C   UNL A   1      32.768  25.580  23.860  1.00  0.00     0.270 C 
ATOM     14  C   UNL A   1      32.838  24.070  22.049  1.00  0.00     0.152 C 
ATOM     15  O   UNL A   1      32.532  25.864  25.029  1.00  0.00    -0.268 OA
ATOM     16  C   UNL A   1      32.494  26.496  22.716  1.00  0.00     0.084 C 
ATOM     17  S   UNL A   1      32.291  25.564  21.277  1.00  0.00    -0.054 SA
ATOM     18  S   UNL A   1      32.896  22.623  21.214  1.00  0.00    -0.051 S 
ATOM     19  C   UNL A   1      32.408  27.833  22.757  1.00  0.00     0.068 C 
BRANCH  19  20
ATOM     20  C   UNL A   1      32.822  28.556  23.905  1.00  0.00     0.134 A 
ATOM     21  N   UNL A   1      34.028  28.589  24.435  1.00  0.00    -0.229 NA
ATOM     22  N   UNL A   1      31.972  29.389  24.606  1.00  0.00    -0.328 N 
ATOM     23  C   UNL A   1      33.915  29.294  25.598  1.00  0.00     0.089 A 
ATOM     24  C   UNL A   1      32.636  29.822  25.736  1.00  0.00     0.068 A 
ATOM     25  C   UNL A   1      30.628  29.759  24.230  1.00  0.00     0.152 C 
ATOM     26  C   UNL A   1      34.881  29.520  26.588  1.00  0.00     0.030 A 
ATOM     27  C   UNL A   1      32.272  30.606  26.838  1.00  0.00     0.028 A 
ATOM     28  C   UNL A   1      34.536  30.298  27.695  1.00  0.00     0.002 A 
ATOM     29  C   UNL A   1      33.255  30.838  27.810  1.00  0.00     0.002 A 
ENDBRANCH  19  20
ENDBRANCH   9  12
ENDBRANCH   3   5
ENDBRANCH   2   3
ENDBRANCH   1   2
BRANCH   1  30
ATOM     30  C   UNL A   1      37.773  23.666  26.085  1.00  0.00     0.275 C 
BRANCH  30  31
ATOM     31  O   UNL A   1      38.624  24.140  27.167  1.00  0.00    -0.458 OA
BRANCH  31  32
ATOM     32  C   UNL A   1      39.818  24.772  27.093  1.00  0.00     0.338 C 
ATOM     33  O   UNL A   1      40.778  24.296  26.495  1.00  0.00    -0.246 OA
BRANCH  32  34
ATOM     34  C   UNL A   1      39.937  26.085  27.737  1.00  0.00     0.060 A 
ATOM     35  C   UNL A   1      39.669  26.196  29.112  1.00  0.00     0.016 A 
ATOM     36  C   UNL A   1      40.405  27.166  27.001  1.00  0.00     0.016 A 
ATOM     37  C   UNL A   1      39.986  27.363  29.791  1.00  0.00     0.010 A 
ATOM     38  C   UNL A   1      40.833  28.277  27.680  1.00  0.00     0.010 A 
ATOM     39  C   UNL A   1      40.573  28.389  29.057  1.00  0.00    -0.014 A 
BRANCH  39  40
ATOM     40  C   UNL A   1      40.580  29.768  29.499  1.00  0.00     0.031 A 
ATOM     41  C   UNL A   1      39.415  30.646  29.382  1.00  0.00     0.074 A 
ATOM     42  C   UNL A   1      41.678  30.009  30.248  1.00  0.00     0.049 A 
ATOM     43  N   UNL A   1      39.452  31.892  29.691  1.00  0.00    -0.248 NA
ATOM     44  C   UNL A   1      38.112  30.227  28.884  1.00  0.00     0.031 C 
ATOM     45  C   UNL A   1      41.972  31.036  31.228  1.00  0.00     0.029 A 
ATOM     46  N   UNL A   1      42.885  29.288  30.142  1.00  0.00    -0.354 N 
ATOM     47  C   UNL A   1      38.157  32.359  29.735  1.00  0.00     0.074 A 
ATOM     48  C   UNL A   1      37.377  31.327  29.103  1.00  0.00     0.031 C 
ATOM     49  C   UNL A   1      43.311  31.092  31.390  1.00  0.00     0.029 A 
ATOM     50  C   UNL A   1      43.903  30.209  30.387  1.00  0.00     0.049 A 
ATOM     51  H   UNL A   1      42.988  28.331  29.936  1.00  0.00     0.167 HD
ATOM     52  C   UNL A   1      37.935  33.503  30.445  1.00  0.00     0.037 A 
ATOM     53  C   UNL A   1      44.649  30.616  29.316  1.00  0.00     0.037 A 
ATOM     54  C   UNL A   1      39.229  34.113  30.782  1.00  0.00     0.049 A 
ATOM     55  C   UNL A   1      44.409  32.081  29.053  1.00  0.00     0.074 A 
ATOM     56  C   UNL A   1      40.000  34.072  31.931  1.00  0.00     0.029 A 
ATOM     57  N   UNL A   1      40.077  34.521  29.749  1.00  0.00    -0.354 N 
ATOM     58  N   UNL A   1      43.255  32.679  29.193  1.00  0.00    -0.248 NA
ATOM     59  C   UNL A   1      45.497  32.987  28.721  1.00  0.00     0.031 C 
ATOM     60  C   UNL A   1      41.345  34.338  31.555  1.00  0.00     0.029 A 
ATOM     61  C   UNL A   1      41.387  34.575  30.189  1.00  0.00     0.049 A 
ATOM     62  H   UNL A   1      39.782  34.740  28.835  1.00  0.00     0.167 HD
ATOM     63  C   UNL A   1      43.447  34.030  29.073  1.00  0.00     0.074 A 
ATOM     64  C   UNL A   1      44.859  34.168  28.749  1.00  0.00     0.031 C 
ATOM     65  C   UNL A   1      42.473  34.963  29.298  1.00  0.00     0.037 A 
BRANCH  52  66
ATOM     66  C   UNL A   1      36.619  33.972  31.048  1.00  0.00     0.064 A 
ATOM     67  C   UNL A   1      35.502  34.201  30.208  1.00  0.00     0.173 A 
ATOM     68  C   UNL A   1      36.387  34.285  32.405  1.00  0.00     0.173 A 
ATOM     69  F   UNL A   1      35.555  33.957  28.892  1.00  0.00    -0.203 F 
ATOM     70  C   UNL A   1      34.283  34.708  30.679  1.00  0.00     0.198 A 
ATOM     71  C   UNL A   1      35.158  34.763  32.879  1.00  0.00     0.198 A 
ATOM     72  F   UNL A   1      37.325  34.149  33.341  1.00  0.00    -0.203 F 
ATOM     73  F   UNL A   1      33.278  34.930  29.820  1.00  0.00    -0.200 F 
ATOM     74  C   UNL A   1      34.108  34.981  32.017  1.00  0.00     0.200 A 
ATOM     75  F   UNL A   1      35.006  35.012  34.190  1.00  0.00    -0.200 F 
ATOM     76  F   UNL A   1      32.939  35.449  32.473  1.00  0.00    -0.200 F 
ENDBRANCH  52  66
BRANCH  53  77
ATOM     77  C   UNL A   1      44.844  29.560  28.262  1.00  0.00     0.064 A 
ATOM     78  C   UNL A   1      45.698  28.466  28.542  1.00  0.00     0.173 A 
ATOM     79  C   UNL A   1      44.032  29.444  27.127  1.00  0.00     0.173 A 
ATOM     80  F   UNL A   1      46.514  28.509  29.608  1.00  0.00    -0.203 F 
ATOM     81  C   UNL A   1      45.659  27.285  27.799  1.00  0.00     0.198 A 
ATOM     82  C   UNL A   1      44.011  28.264  26.369  1.00  0.00     0.198 A 
ATOM     83  F   UNL A   1      43.199  30.434  26.780  1.00  0.00    -0.203 F 
ATOM     84  F   UNL A   1      46.406  26.235  28.172  1.00  0.00    -0.200 F 
ATOM     85  C   UNL A   1      44.803  27.180  26.719  1.00  0.00     0.200 A 
ATOM     86  F   UNL A   1      43.163  28.147  25.336  1.00  0.00    -0.200 F 
ATOM     87  F   UNL A   1      44.706  26.027  26.042  1.00  0.00    -0.200 F 
ENDBRANCH  53  77
BRANCH  65  88
ATOM     88  C   UNL A   1      42.554  36.395  28.829  1.00  0.00     0.064 A 
ATOM     89  C   UNL A   1      41.904  36.868  27.677  1.00  0.00     0.173 A 
ATOM     90  C   UNL A   1      43.181  37.385  29.622  1.00  0.00     0.173 A 
ATOM     91  F   UNL A   1      41.134  36.067  26.927  1.00  0.00    -0.203 F 
ATOM     92  C   UNL A   1      41.978  38.202  27.282  1.00  0.00     0.198 A 
ATOM     93  C   UNL A   1      43.187  38.731  29.264  1.00  0.00     0.198 A 
ATOM     94  F   UNL A   1      43.780  37.090  30.784  1.00  0.00    -0.203 F 
ATOM     95  F   UNL A   1      41.406  38.584  26.132  1.00  0.00    -0.200 F 
ATOM     96  C   UNL A   1      42.612  39.135  28.078  1.00  0.00     0.200 A 
ATOM     97  F   UNL A   1      43.739  39.634  30.086  1.00  0.00    -0.200 F 
ATOM     98  F   UNL A   1      42.646  40.424  27.717  1.00  0.00    -0.200 F 
ENDBRANCH  65  88
ENDBRANCH  39  40
ENDBRANCH  32  34
ENDBRANCH  31  32
ENDBRANCH  30  31
ENDBRANCH   1  30
TORSDOF 13
ENDMDL
