MODEL 1
REMARK VINA RESULT:     -11.1      0.000      0.000
REMARK SMILES CCc1ccc(C(=O)N[C@H](C(=O)OCCOC(=O)c2ccc(-c3c4nc(c(-c5c(F)c(F)c(F)c(F)c5F)c5ccc([nH]5)c(-c5c(F)c(F)c(F)c(F)c5F)c5nc(c(-c6c(F)c(F)c(F)c(F)c6F)c6ccc3[nH]6)C=C5)C=C4)cc2)[C@H](C)CC)o1
REMARK SMILES IDX 14 1 13 2 11 3 12 4 10 5 9 6 7 7 8 8 6 10 3 11 4 12 86 13
REMARK SMILES IDX 5 14 2 15 1 16 82 17 83 18 84 19 85 20 15 21 16 22 17 23
REMARK SMILES IDX 18 24 19 25 20 26 81 27 21 28 80 29 22 30 23 31 24 32 74 33
REMARK SMILES IDX 25 34 79 35 73 36 75 37 26 38 78 39 72 40 71 41 27 43 59 44
REMARK SMILES IDX 39 45 58 46 40 47 43 48 57 49 76 50 41 51 42 52 56 54 77 55
REMARK SMILES IDX 44 56 28 57 29 58 37 59 30 60 31 61 35 62 38 63 32 64 33 65
REMARK SMILES IDX 36 66 34 67 60 68 61 69 69 70 62 71 63 72 67 73 70 74 64 75
REMARK SMILES IDX 65 76 68 77 66 78 45 79 46 80 54 81 47 82 48 83 52 84 55 85
REMARK SMILES IDX 49 86 50 87 53 88 51 89
REMARK H PARENT 9 9 75 42 43 53
REMARK Flexibility Score: inf
ROOT
ATOM      1  C   UNL A   1      36.120  20.249  25.018  1.00  0.00     0.274 C 
ENDROOT
BRANCH   1   2
ATOM      2  O   UNL A   1      35.797  21.180  26.063  1.00  0.00    -0.461 OA
BRANCH   2   3
ATOM      3  C   UNL A   1      34.883  22.143  25.765  1.00  0.00     0.329 C 
ATOM      4  O   UNL A   1      34.468  22.989  26.547  1.00  0.00    -0.250 OA
BRANCH   3   5
ATOM      5  C   UNL A   1      34.455  22.038  24.286  1.00  0.00     0.195 C 
BRANCH   5   6
ATOM      6  N   UNL A   1      33.030  21.730  24.047  1.00  0.00    -0.336 N 
ATOM      7  C   UNL A   1      32.311  20.727  24.661  1.00  0.00     0.287 C 
ATOM      8  O   UNL A   1      31.381  21.070  25.387  1.00  0.00    -0.266 OA
ATOM      9  H   UNL A   1      32.553  22.289  23.393  1.00  0.00     0.164 HD
BRANCH   7  10
ATOM     10  C   UNL A   1      32.609  19.358  24.268  1.00  0.00     0.191 A 
ATOM     11  C   UNL A   1      33.222  17.254  24.595  1.00  0.00     0.104 A 
ATOM     12  C   UNL A   1      32.962  17.378  23.249  1.00  0.00     0.046 A 
ATOM     13  O   UNL A   1      32.969  18.441  25.225  1.00  0.00    -0.456 OA
ATOM     14  C   UNL A   1      32.581  18.725  23.037  1.00  0.00     0.056 A 
BRANCH  11  15
ATOM     15  C   UNL A   1      33.694  16.121  25.435  1.00  0.00     0.072 C 
ATOM     16  C   UNL A   1      32.668  15.003  25.544  1.00  0.00     0.012 C 
ENDBRANCH  11  15
ENDBRANCH   7  10
ENDBRANCH   5   6
BRANCH   5  17
ATOM     17  C   UNL A   1      34.981  23.188  23.353  1.00  0.00     0.019 C 
ATOM     18  C   UNL A   1      36.354  23.669  23.849  1.00  0.00     0.010 C 
BRANCH  17  19
ATOM     19  C   UNL A   1      34.001  24.366  23.138  1.00  0.00     0.002 C 
ATOM     20  C   UNL A   1      34.049  25.459  24.200  1.00  0.00     0.004 C 
ENDBRANCH  17  19
ENDBRANCH   5  17
ENDBRANCH   3   5
ENDBRANCH   2   3
ENDBRANCH   1   2
BRANCH   1  21
ATOM     21  C   UNL A   1      37.644  20.114  24.950  1.00  0.00     0.275 C 
BRANCH  21  22
ATOM     22  O   UNL A   1      38.271  21.266  25.551  1.00  0.00    -0.458 OA
BRANCH  22  23
ATOM     23  C   UNL A   1      39.444  21.047  26.196  1.00  0.00     0.338 C 
ATOM     24  O   UNL A   1      40.043  19.995  26.312  1.00  0.00    -0.246 OA
BRANCH  23  25
ATOM     25  C   UNL A   1      39.965  22.340  26.684  1.00  0.00     0.060 A 
ATOM     26  C   UNL A   1      39.413  23.511  26.165  1.00  0.00     0.016 A 
ATOM     27  C   UNL A   1      40.976  22.407  27.645  1.00  0.00     0.016 A 
ATOM     28  C   UNL A   1      39.807  24.753  26.668  1.00  0.00     0.010 A 
ATOM     29  C   UNL A   1      41.396  23.656  28.128  1.00  0.00     0.010 A 
ATOM     30  C   UNL A   1      40.807  24.836  27.646  1.00  0.00    -0.014 A 
BRANCH  30  31
ATOM     31  C   UNL A   1      41.363  26.167  27.998  1.00  0.00     0.031 A 
ATOM     32  C   UNL A   1      42.779  26.461  27.594  1.00  0.00     0.074 A 
ATOM     33  C   UNL A   1      40.620  27.121  28.588  1.00  0.00     0.049 A 
ATOM     34  N   UNL A   1      43.494  27.542  27.778  1.00  0.00    -0.248 NA
ATOM     35  C   UNL A   1      43.477  25.393  26.863  1.00  0.00     0.031 C 
ATOM     36  C   UNL A   1      39.207  26.998  28.940  1.00  0.00     0.029 A 
ATOM     37  N   UNL A   1      40.955  28.397  28.979  1.00  0.00    -0.354 N 
ATOM     38  C   UNL A   1      44.712  27.292  27.163  1.00  0.00     0.074 A 
ATOM     39  C   UNL A   1      44.649  25.954  26.616  1.00  0.00     0.031 C 
ATOM     40  C   UNL A   1      38.793  28.155  29.490  1.00  0.00     0.029 A 
ATOM     41  C   UNL A   1      39.918  29.089  29.559  1.00  0.00     0.049 A 
ATOM     42  H   UNL A   1      41.853  28.779  28.854  1.00  0.00     0.167 HD
ATOM     43  C   UNL A   1      45.793  28.098  27.068  1.00  0.00     0.037 A 
ATOM     44  C   UNL A   1      39.892  30.327  30.094  1.00  0.00     0.037 A 
ATOM     45  C   UNL A   1      45.888  29.398  27.669  1.00  0.00     0.049 A 
ATOM     46  C   UNL A   1      41.150  31.163  30.087  1.00  0.00     0.074 A 
ATOM     47  C   UNL A   1      46.980  30.243  27.742  1.00  0.00     0.029 A 
ATOM     48  N   UNL A   1      44.840  30.038  28.315  1.00  0.00    -0.354 N 
ATOM     49  N   UNL A   1      42.320  30.896  29.559  1.00  0.00    -0.248 NA
ATOM     50  C   UNL A   1      41.087  32.470  30.761  1.00  0.00     0.031 C 
ATOM     51  C   UNL A   1      46.602  31.381  28.464  1.00  0.00     0.029 A 
ATOM     52  C   UNL A   1      45.263  31.263  28.801  1.00  0.00     0.049 A 
ATOM     53  H   UNL A   1      43.930  29.674  28.414  1.00  0.00     0.167 HD
ATOM     54  C   UNL A   1      43.126  31.996  29.826  1.00  0.00     0.074 A 
ATOM     55  C   UNL A   1      42.305  32.948  30.546  1.00  0.00     0.031 C 
ATOM     56  C   UNL A   1      44.429  32.198  29.512  1.00  0.00     0.037 A 
BRANCH  43  57
ATOM     57  C   UNL A   1      46.975  27.544  26.336  1.00  0.00     0.064 A 
ATOM     58  C   UNL A   1      48.034  26.926  27.019  1.00  0.00     0.173 A 
ATOM     59  C   UNL A   1      47.074  27.678  24.944  1.00  0.00     0.173 A 
ATOM     60  F   UNL A   1      47.996  26.803  28.353  1.00  0.00    -0.203 F 
ATOM     61  C   UNL A   1      49.164  26.490  26.333  1.00  0.00     0.198 A 
ATOM     62  C   UNL A   1      48.197  27.221  24.261  1.00  0.00     0.198 A 
ATOM     63  F   UNL A   1      46.091  28.271  24.250  1.00  0.00    -0.203 F 
ATOM     64  F   UNL A   1      50.190  25.953  27.010  1.00  0.00    -0.200 F 
ATOM     65  C   UNL A   1      49.244  26.636  24.956  1.00  0.00     0.200 A 
ATOM     66  F   UNL A   1      48.273  27.363  22.930  1.00  0.00    -0.200 F 
ATOM     67  F   UNL A   1      50.339  26.227  24.301  1.00  0.00    -0.200 F 
ENDBRANCH  43  57
BRANCH  44  68
ATOM     68  C   UNL A   1      38.643  30.853  30.711  1.00  0.00     0.064 A 
ATOM     69  C   UNL A   1      37.649  31.466  29.935  1.00  0.00     0.173 A 
ATOM     70  C   UNL A   1      38.434  30.785  32.096  1.00  0.00     0.173 A 
ATOM     71  F   UNL A   1      37.815  31.593  28.610  1.00  0.00    -0.203 F 
ATOM     72  C   UNL A   1      36.499  31.996  30.521  1.00  0.00     0.198 A 
ATOM     73  C   UNL A   1      37.272  31.292  32.679  1.00  0.00     0.198 A 
ATOM     74  F   UNL A   1      39.359  30.226  32.889  1.00  0.00    -0.203 F 
ATOM     75  F   UNL A   1      35.586  32.616  29.761  1.00  0.00    -0.200 F 
ATOM     76  C   UNL A   1      36.309  31.902  31.891  1.00  0.00     0.200 A 
ATOM     77  F   UNL A   1      37.091  31.195  34.003  1.00  0.00    -0.200 F 
ATOM     78  F   UNL A   1      35.204  32.411  32.454  1.00  0.00    -0.200 F 
ENDBRANCH  44  68
BRANCH  56  79
ATOM     79  C   UNL A   1      45.054  33.495  29.930  1.00  0.00     0.064 A 
ATOM     80  C   UNL A   1      44.991  34.634  29.111  1.00  0.00     0.173 A 
ATOM     81  C   UNL A   1      45.652  33.624  31.191  1.00  0.00     0.173 A 
ATOM     82  F   UNL A   1      44.437  34.558  27.892  1.00  0.00    -0.203 F 
ATOM     83  C   UNL A   1      45.516  35.849  29.539  1.00  0.00     0.198 A 
ATOM     84  C   UNL A   1      46.157  34.846  31.624  1.00  0.00     0.198 A 
ATOM     85  F   UNL A   1      45.729  32.565  32.013  1.00  0.00    -0.203 F 
ATOM     86  F   UNL A   1      45.470  36.918  28.731  1.00  0.00    -0.200 F 
ATOM     87  C   UNL A   1      46.091  35.958  30.797  1.00  0.00     0.200 A 
ATOM     88  F   UNL A   1      46.701  34.952  32.844  1.00  0.00    -0.200 F 
ATOM     89  F   UNL A   1      46.584  37.132  31.211  1.00  0.00    -0.200 F 
ENDBRANCH  56  79
ENDBRANCH  30  31
ENDBRANCH  23  25
ENDBRANCH  22  23
ENDBRANCH  21  22
ENDBRANCH   1  21
TORSDOF 16
ENDMDL
MODEL 2
REMARK VINA RESULT:     -11.0      4.536      7.149
REMARK SMILES CCc1ccc(C(=O)N[C@H](C(=O)OCCOC(=O)c2ccc(-c3c4nc(c(-c5c(F)c(F)c(F)c(F)c5F)c5ccc([nH]5)c(-c5c(F)c(F)c(F)c(F)c5F)c5nc(c(-c6c(F)c(F)c(F)c(F)c6F)c6ccc3[nH]6)C=C5)C=C4)cc2)[C@H](C)CC)o1
REMARK SMILES IDX 14 1 13 2 11 3 12 4 10 5 9 6 7 7 8 8 6 10 3 11 4 12 86 13
REMARK SMILES IDX 5 14 2 15 1 16 82 17 83 18 84 19 85 20 15 21 16 22 17 23
REMARK SMILES IDX 18 24 19 25 20 26 81 27 21 28 80 29 22 30 23 31 24 32 74 33
REMARK SMILES IDX 25 34 79 35 73 36 75 37 26 38 78 39 72 40 71 41 27 43 59 44
REMARK SMILES IDX 39 45 58 46 40 47 43 48 57 49 76 50 41 51 42 52 56 54 77 55
REMARK SMILES IDX 44 56 28 57 29 58 37 59 30 60 31 61 35 62 38 63 32 64 33 65
REMARK SMILES IDX 36 66 34 67 60 68 61 69 69 70 62 71 63 72 67 73 70 74 64 75
REMARK SMILES IDX 65 76 68 77 66 78 45 79 46 80 54 81 47 82 48 83 52 84 55 85
REMARK SMILES IDX 49 86 50 87 53 88 51 89
REMARK H PARENT 9 9 75 42 43 53
REMARK Flexibility Score: inf
ROOT
ATOM      1  C   UNL A   1      31.032  30.019  24.697  1.00  0.00     0.274 C 
ENDROOT
BRANCH   1   2
ATOM      2  O   UNL A   1      31.560  29.029  23.800  1.00  0.00    -0.461 OA
BRANCH   2   3
ATOM      3  C   UNL A   1      30.790  27.930  23.577  1.00  0.00     0.329 C 
ATOM      4  O   UNL A   1      29.609  27.949  23.255  1.00  0.00    -0.250 OA
BRANCH   3   5
ATOM      5  C   UNL A   1      31.624  26.644  23.760  1.00  0.00     0.195 C 
BRANCH   5   6
ATOM      6  N   UNL A   1      32.864  26.561  22.961  1.00  0.00    -0.336 N 
ATOM      7  C   UNL A   1      33.180  25.556  22.072  1.00  0.00     0.287 C 
ATOM      8  O   UNL A   1      33.282  25.869  20.888  1.00  0.00    -0.266 OA
ATOM      9  H   UNL A   1      33.520  27.285  23.073  1.00  0.00     0.164 HD
BRANCH   7  10
ATOM     10  C   UNL A   1      33.526  24.257  22.631  1.00  0.00     0.191 A 
ATOM     11  C   UNL A   1      34.849  22.764  23.593  1.00  0.00     0.104 A 
ATOM     12  C   UNL A   1      33.641  22.138  23.390  1.00  0.00     0.046 A 
ATOM     13  O   UNL A   1      34.772  24.063  23.173  1.00  0.00    -0.456 OA
ATOM     14  C   UNL A   1      32.798  23.088  22.765  1.00  0.00     0.056 A 
BRANCH  11  15
ATOM     15  C   UNL A   1      36.145  22.306  24.162  1.00  0.00     0.072 C 
ATOM     16  C   UNL A   1      35.991  21.097  25.075  1.00  0.00     0.012 C 
ENDBRANCH  11  15
ENDBRANCH   7  10
ENDBRANCH   5   6
BRANCH   5  17
ATOM     17  C   UNL A   1      31.844  26.195  25.250  1.00  0.00     0.019 C 
ATOM     18  C   UNL A   1      33.317  26.402  25.640  1.00  0.00     0.010 C 
BRANCH  17  19
ATOM     19  C   UNL A   1      31.353  24.768  25.591  1.00  0.00     0.002 C 
ATOM     20  C   UNL A   1      32.237  23.986  26.557  1.00  0.00     0.004 C 
ENDBRANCH  17  19
ENDBRANCH   5  17
ENDBRANCH   3   5
ENDBRANCH   2   3
ENDBRANCH   1   2
BRANCH   1  21
ATOM     21  C   UNL A   1      31.693  29.830  26.064  1.00  0.00     0.275 C 
BRANCH  21  22
ATOM     22  O   UNL A   1      33.031  30.371  26.046  1.00  0.00    -0.458 OA
BRANCH  22  23
ATOM     23  C   UNL A   1      33.277  31.403  26.892  1.00  0.00     0.338 C 
ATOM     24  O   UNL A   1      32.600  32.398  27.065  1.00  0.00    -0.246 OA
BRANCH  23  25
ATOM     25  C   UNL A   1      34.490  31.094  27.676  1.00  0.00     0.060 A 
ATOM     26  C   UNL A   1      34.700  29.775  28.073  1.00  0.00     0.016 A 
ATOM     27  C   UNL A   1      35.418  32.084  28.010  1.00  0.00     0.016 A 
ATOM     28  C   UNL A   1      35.880  29.420  28.731  1.00  0.00     0.010 A 
ATOM     29  C   UNL A   1      36.588  31.735  28.700  1.00  0.00     0.010 A 
ATOM     30  C   UNL A   1      36.829  30.399  29.058  1.00  0.00    -0.014 A 
BRANCH  30  31
ATOM     31  C   UNL A   1      37.960  30.038  29.949  1.00  0.00     0.031 A 
ATOM     32  C   UNL A   1      39.022  29.131  29.398  1.00  0.00     0.074 A 
ATOM     33  C   UNL A   1      38.092  30.554  31.185  1.00  0.00     0.049 A 
ATOM     34  N   UNL A   1      40.108  28.672  29.966  1.00  0.00    -0.248 NA
ATOM     35  C   UNL A   1      38.843  28.701  28.002  1.00  0.00     0.031 C 
ATOM     36  C   UNL A   1      37.185  31.520  31.800  1.00  0.00     0.029 A 
ATOM     37  N   UNL A   1      39.060  30.344  32.140  1.00  0.00    -0.354 N 
ATOM     38  C   UNL A   1      40.750  27.923  28.991  1.00  0.00     0.074 A 
ATOM     39  C   UNL A   1      39.929  27.974  27.801  1.00  0.00     0.031 C 
ATOM     40  C   UNL A   1      37.644  31.826  33.029  1.00  0.00     0.029 A 
ATOM     41  C   UNL A   1      38.857  31.053  33.300  1.00  0.00     0.049 A 
ATOM     42  H   UNL A   1      39.827  29.743  32.004  1.00  0.00     0.167 HD
ATOM     43  C   UNL A   1      41.917  27.244  29.077  1.00  0.00     0.037 A 
ATOM     44  C   UNL A   1      39.566  31.062  34.448  1.00  0.00     0.037 A 
ATOM     45  C   UNL A   1      42.700  27.131  30.274  1.00  0.00     0.049 A 
ATOM     46  C   UNL A   1      40.799  30.197  34.563  1.00  0.00     0.074 A 
ATOM     47  C   UNL A   1      43.828  26.365  30.504  1.00  0.00     0.029 A 
ATOM     48  N   UNL A   1      42.423  27.805  31.455  1.00  0.00    -0.354 N 
ATOM     49  N   UNL A   1      41.368  29.440  33.656  1.00  0.00    -0.248 NA
ATOM     50  C   UNL A   1      41.483  30.179  35.866  1.00  0.00     0.031 C 
ATOM     51  C   UNL A   1      44.214  26.548  31.837  1.00  0.00     0.029 A 
ATOM     52  C   UNL A   1      43.352  27.462  32.422  1.00  0.00     0.049 A 
ATOM     53  H   UNL A   1      41.676  28.433  31.586  1.00  0.00     0.167 HD
ATOM     54  C   UNL A   1      42.475  28.866  34.270  1.00  0.00     0.074 A 
ATOM     55  C   UNL A   1      42.512  29.379  35.624  1.00  0.00     0.031 C 
ATOM     56  C   UNL A   1      43.374  27.988  33.764  1.00  0.00     0.037 A 
BRANCH  43  57
ATOM     57  C   UNL A   1      42.359  26.521  27.843  1.00  0.00     0.064 A 
ATOM     58  C   UNL A   1      41.927  25.215  27.566  1.00  0.00     0.173 A 
ATOM     59  C   UNL A   1      43.265  27.121  26.957  1.00  0.00     0.173 A 
ATOM     60  F   UNL A   1      41.084  24.592  28.402  1.00  0.00    -0.203 F 
ATOM     61  C   UNL A   1      42.412  24.526  26.458  1.00  0.00     0.198 A 
ATOM     62  C   UNL A   1      43.730  26.434  25.839  1.00  0.00     0.198 A 
ATOM     63  F   UNL A   1      43.714  28.364  27.186  1.00  0.00    -0.203 F 
ATOM     64  F   UNL A   1      42.030  23.259  26.241  1.00  0.00    -0.200 F 
ATOM     65  C   UNL A   1      43.311  25.135  25.596  1.00  0.00     0.200 A 
ATOM     66  F   UNL A   1      44.599  27.024  25.007  1.00  0.00    -0.200 F 
ATOM     67  F   UNL A   1      43.786  24.464  24.538  1.00  0.00    -0.200 F 
ENDBRANCH  43  57
BRANCH  44  68
ATOM     68  C   UNL A   1      39.120  31.893  35.600  1.00  0.00     0.064 A 
ATOM     69  C   UNL A   1      39.575  33.209  35.768  1.00  0.00     0.173 A 
ATOM     70  C   UNL A   1      38.257  31.376  36.577  1.00  0.00     0.173 A 
ATOM     71  F   UNL A   1      40.433  33.740  34.884  1.00  0.00    -0.203 F 
ATOM     72  C   UNL A   1      39.190  33.971  36.872  1.00  0.00     0.198 A 
ATOM     73  C   UNL A   1      37.851  32.148  37.666  1.00  0.00     0.198 A 
ATOM     74  F   UNL A   1      37.805  30.118  36.477  1.00  0.00    -0.203 F 
ATOM     75  F   UNL A   1      39.675  35.211  37.031  1.00  0.00    -0.200 F 
ATOM     76  C   UNL A   1      38.322  33.442  37.815  1.00  0.00     0.200 A 
ATOM     77  F   UNL A   1      37.010  31.633  38.573  1.00  0.00    -0.200 F 
ATOM     78  F   UNL A   1      37.952  34.175  38.875  1.00  0.00    -0.200 F 
ENDBRANCH  44  68
BRANCH  56  79
ATOM     79  C   UNL A   1      44.482  27.528  34.662  1.00  0.00     0.064 A 
ATOM     80  C   UNL A   1      44.369  26.353  35.421  1.00  0.00     0.173 A 
ATOM     81  C   UNL A   1      45.699  28.225  34.706  1.00  0.00     0.173 A 
ATOM     82  F   UNL A   1      43.222  25.658  35.419  1.00  0.00    -0.203 F 
ATOM     83  C   UNL A   1      45.430  25.901  36.200  1.00  0.00     0.198 A 
ATOM     84  C   UNL A   1      46.765  27.758  35.469  1.00  0.00     0.198 A 
ATOM     85  F   UNL A   1      45.859  29.349  33.991  1.00  0.00    -0.203 F 
ATOM     86  F   UNL A   1      45.292  24.791  36.939  1.00  0.00    -0.200 F 
ATOM     87  C   UNL A   1      46.629  26.598  36.218  1.00  0.00     0.200 A 
ATOM     88  F   UNL A   1      47.927  28.426  35.475  1.00  0.00    -0.200 F 
ATOM     89  F   UNL A   1      47.654  26.154  36.958  1.00  0.00    -0.200 F 
ENDBRANCH  56  79
ENDBRANCH  30  31
ENDBRANCH  23  25
ENDBRANCH  22  23
ENDBRANCH  21  22
ENDBRANCH   1  21
TORSDOF 16
ENDMDL
MODEL 3
REMARK VINA RESULT:     -10.9      4.334      6.838
REMARK SMILES CCc1ccc(C(=O)N[C@H](C(=O)OCCOC(=O)c2ccc(-c3c4nc(c(-c5c(F)c(F)c(F)c(F)c5F)c5ccc([nH]5)c(-c5c(F)c(F)c(F)c(F)c5F)c5nc(c(-c6c(F)c(F)c(F)c(F)c6F)c6ccc3[nH]6)C=C5)C=C4)cc2)[C@H](C)CC)o1
REMARK SMILES IDX 14 1 13 2 11 3 12 4 10 5 9 6 7 7 8 8 6 10 3 11 4 12 86 13
REMARK SMILES IDX 5 14 2 15 1 16 82 17 83 18 84 19 85 20 15 21 16 22 17 23
REMARK SMILES IDX 18 24 19 25 20 26 81 27 21 28 80 29 22 30 23 31 24 32 74 33
REMARK SMILES IDX 25 34 79 35 73 36 75 37 26 38 78 39 72 40 71 41 27 43 59 44
REMARK SMILES IDX 39 45 58 46 40 47 43 48 57 49 76 50 41 51 42 52 56 54 77 55
REMARK SMILES IDX 44 56 28 57 29 58 37 59 30 60 31 61 35 62 38 63 32 64 33 65
REMARK SMILES IDX 36 66 34 67 60 68 61 69 69 70 62 71 63 72 67 73 70 74 64 75
REMARK SMILES IDX 65 76 68 77 66 78 45 79 46 80 54 81 47 82 48 83 52 84 55 85
REMARK SMILES IDX 49 86 50 87 53 88 51 89
REMARK H PARENT 9 9 75 42 43 53
REMARK Flexibility Score: inf
ROOT
ATOM      1  C   UNL A   1      32.053  28.273  25.337  1.00  0.00     0.274 C 
ENDROOT
BRANCH   1   2
ATOM      2  O   UNL A   1      32.267  27.293  26.366  1.00  0.00    -0.461 OA
BRANCH   2   3
ATOM      3  C   UNL A   1      31.490  26.177  26.320  1.00  0.00     0.329 C 
ATOM      4  O   UNL A   1      30.279  26.151  26.499  1.00  0.00    -0.250 OA
BRANCH   3   5
ATOM      5  C   UNL A   1      32.349  24.940  25.983  1.00  0.00     0.195 C 
BRANCH   5   6
ATOM      6  N   UNL A   1      31.928  23.672  26.615  1.00  0.00    -0.336 N 
ATOM      7  C   UNL A   1      32.770  22.734  27.173  1.00  0.00     0.287 C 
ATOM      8  O   UNL A   1      32.671  22.544  28.382  1.00  0.00    -0.266 OA
ATOM      9  H   UNL A   1      30.964  23.480  26.638  1.00  0.00     0.164 HD
BRANCH   7  10
ATOM     10  C   UNL A   1      33.580  21.940  26.261  1.00  0.00     0.191 A 
ATOM     11  C   UNL A   1      35.362  21.475  25.030  1.00  0.00     0.104 A 
ATOM     12  C   UNL A   1      34.490  20.424  24.862  1.00  0.00     0.046 A 
ATOM     13  O   UNL A   1      34.834  22.378  25.911  1.00  0.00    -0.456 OA
ATOM     14  C   UNL A   1      33.346  20.725  25.639  1.00  0.00     0.056 A 
BRANCH  11  15
ATOM     15  C   UNL A   1      36.703  21.781  24.462  1.00  0.00     0.072 C 
ATOM     16  C   UNL A   1      36.650  22.838  23.368  1.00  0.00     0.012 C 
ENDBRANCH  11  15
ENDBRANCH   7  10
ENDBRANCH   5   6
BRANCH   5  17
ATOM     17  C   UNL A   1      32.698  24.760  24.462  1.00  0.00     0.019 C 
ATOM     18  C   UNL A   1      34.064  25.400  24.166  1.00  0.00     0.010 C 
BRANCH  17  19
ATOM     19  C   UNL A   1      31.611  25.240  23.471  1.00  0.00     0.002 C 
ATOM     20  C   UNL A   1      30.393  24.329  23.347  1.00  0.00     0.004 C 
ENDBRANCH  17  19
ENDBRANCH   5  17
ENDBRANCH   3   5
ENDBRANCH   2   3
ENDBRANCH   1   2
BRANCH   1  21
ATOM     21  C   UNL A   1      31.903  29.643  26.003  1.00  0.00     0.275 C 
BRANCH  21  22
ATOM     22  O   UNL A   1      33.166  30.339  25.995  1.00  0.00    -0.458 OA
BRANCH  22  23
ATOM     23  C   UNL A   1      33.336  31.295  26.943  1.00  0.00     0.338 C 
ATOM     24  O   UNL A   1      32.589  32.218  27.208  1.00  0.00    -0.246 OA
BRANCH  23  25
ATOM     25  C   UNL A   1      34.564  30.995  27.705  1.00  0.00     0.060 A 
ATOM     26  C   UNL A   1      34.728  29.705  28.210  1.00  0.00     0.016 A 
ATOM     27  C   UNL A   1      35.551  31.961  27.916  1.00  0.00     0.016 A 
ATOM     28  C   UNL A   1      35.916  29.350  28.852  1.00  0.00     0.010 A 
ATOM     29  C   UNL A   1      36.731  31.614  28.590  1.00  0.00     0.010 A 
ATOM     30  C   UNL A   1      36.923  30.304  29.055  1.00  0.00    -0.014 A 
BRANCH  30  31
ATOM     31  C   UNL A   1      38.072  29.964  29.932  1.00  0.00     0.031 A 
ATOM     32  C   UNL A   1      39.124  29.045  29.381  1.00  0.00     0.074 A 
ATOM     33  C   UNL A   1      38.227  30.508  31.152  1.00  0.00     0.049 A 
ATOM     34  N   UNL A   1      40.221  28.600  29.938  1.00  0.00    -0.248 NA
ATOM     35  C   UNL A   1      38.918  28.583  28.000  1.00  0.00     0.031 C 
ATOM     36  C   UNL A   1      37.332  31.488  31.763  1.00  0.00     0.029 A 
ATOM     37  N   UNL A   1      39.214  30.322  32.093  1.00  0.00    -0.354 N 
ATOM     38  C   UNL A   1      40.845  27.829  28.968  1.00  0.00     0.074 A 
ATOM     39  C   UNL A   1      40.000  27.851  27.794  1.00  0.00     0.031 C 
ATOM     40  C   UNL A   1      37.814  31.823  32.975  1.00  0.00     0.029 A 
ATOM     41  C   UNL A   1      39.034  31.057  33.240  1.00  0.00     0.049 A 
ATOM     42  H   UNL A   1      39.980  29.718  31.956  1.00  0.00     0.167 HD
ATOM     43  C   UNL A   1      42.014  27.153  29.047  1.00  0.00     0.037 A 
ATOM     44  C   UNL A   1      39.765  31.094  34.373  1.00  0.00     0.037 A 
ATOM     45  C   UNL A   1      42.821  27.069  30.231  1.00  0.00     0.049 A 
ATOM     46  C   UNL A   1      41.002  30.232  34.484  1.00  0.00     0.074 A 
ATOM     47  C   UNL A   1      43.953  26.309  30.456  1.00  0.00     0.029 A 
ATOM     48  N   UNL A   1      42.566  27.770  31.401  1.00  0.00    -0.354 N 
ATOM     49  N   UNL A   1      41.553  29.454  33.584  1.00  0.00    -0.248 NA
ATOM     50  C   UNL A   1      41.711  30.245  35.773  1.00  0.00     0.031 C 
ATOM     51  C   UNL A   1      44.365  26.523  31.776  1.00  0.00     0.029 A 
ATOM     52  C   UNL A   1      43.515  27.450  32.357  1.00  0.00     0.049 A 
ATOM     53  H   UNL A   1      41.822  28.400  31.532  1.00  0.00     0.167 HD
ATOM     54  C   UNL A   1      42.672  28.896  34.189  1.00  0.00     0.074 A 
ATOM     55  C   UNL A   1      42.736  29.440  35.530  1.00  0.00     0.031 C 
ATOM     56  C   UNL A   1      43.562  28.007  33.685  1.00  0.00     0.037 A 
BRANCH  43  57
ATOM     57  C   UNL A   1      42.433  26.402  27.822  1.00  0.00     0.064 A 
ATOM     58  C   UNL A   1      41.956  25.109  27.558  1.00  0.00     0.173 A 
ATOM     59  C   UNL A   1      43.360  26.960  26.930  1.00  0.00     0.173 A 
ATOM     60  F   UNL A   1      41.091  24.524  28.399  1.00  0.00    -0.203 F 
ATOM     61  C   UNL A   1      42.418  24.391  26.459  1.00  0.00     0.198 A 
ATOM     62  C   UNL A   1      43.802  26.246  25.821  1.00  0.00     0.198 A 
ATOM     63  F   UNL A   1      43.851  28.189  27.147  1.00  0.00    -0.203 F 
ATOM     64  F   UNL A   1      41.993  23.136  26.255  1.00  0.00    -0.200 F 
ATOM     65  C   UNL A   1      43.338  24.960  25.592  1.00  0.00     0.200 A 
ATOM     66  F   UNL A   1      44.692  26.797  24.984  1.00  0.00    -0.200 F 
ATOM     67  F   UNL A   1      43.792  24.261  24.542  1.00  0.00    -0.200 F 
ENDBRANCH  43  57
BRANCH  44  68
ATOM     68  C   UNL A   1      39.341  31.951  35.514  1.00  0.00     0.064 A 
ATOM     69  C   UNL A   1      38.490  31.463  36.516  1.00  0.00     0.173 A 
ATOM     70  C   UNL A   1      39.749  33.290  35.606  1.00  0.00     0.173 A 
ATOM     71  F   UNL A   1      38.038  30.201  36.455  1.00  0.00    -0.203 F 
ATOM     72  C   UNL A   1      38.060  32.281  37.561  1.00  0.00     0.198 A 
ATOM     73  C   UNL A   1      39.340  34.100  36.666  1.00  0.00     0.198 A 
ATOM     74  F   UNL A   1      40.548  33.816  34.666  1.00  0.00    -0.203 F 
ATOM     75  F   UNL A   1      37.211  31.800  38.481  1.00  0.00    -0.200 F 
ATOM     76  C   UNL A   1      38.491  33.596  37.638  1.00  0.00     0.200 A 
ATOM     77  F   UNL A   1      39.761  35.370  36.737  1.00  0.00    -0.200 F 
ATOM     78  F   UNL A   1      38.077  34.382  38.642  1.00  0.00    -0.200 F 
ENDBRANCH  44  68
BRANCH  56  79
ATOM     79  C   UNL A   1      44.689  27.569  34.572  1.00  0.00     0.064 A 
ATOM     80  C   UNL A   1      45.950  28.181  34.508  1.00  0.00     0.173 A 
ATOM     81  C   UNL A   1      44.484  26.583  35.549  1.00  0.00     0.173 A 
ATOM     82  F   UNL A   1      46.197  29.122  33.585  1.00  0.00    -0.203 F 
ATOM     83  C   UNL A   1      46.968  27.811  35.383  1.00  0.00     0.198 A 
ATOM     84  C   UNL A   1      45.498  26.231  36.436  1.00  0.00     0.198 A 
ATOM     85  F   UNL A   1      43.293  25.975  35.655  1.00  0.00    -0.203 F 
ATOM     86  F   UNL A   1      48.173  28.389  35.287  1.00  0.00    -0.200 F 
ATOM     87  C   UNL A   1      46.740  26.844  36.350  1.00  0.00     0.200 A 
ATOM     88  F   UNL A   1      45.272  25.306  37.378  1.00  0.00    -0.200 F 
ATOM     89  F   UNL A   1      47.717  26.500  37.200  1.00  0.00    -0.200 F 
ENDBRANCH  56  79
ENDBRANCH  30  31
ENDBRANCH  23  25
ENDBRANCH  22  23
ENDBRANCH  21  22
ENDBRANCH   1  21
TORSDOF 16
ENDMDL
