MODEL 1
REMARK VINA RESULT:     -11.6      0.000      0.000
REMARK SMILES CC(C)(C)OC(=O)N[C@H](c1ccccc1)[C@@H](O)CC(=O)OCCOC(=O)c1ccc(-c2c3nc(c(-c4c(F)c(F)c(F)c(F)c4F)c4ccc([nH]4)c(-c4c(F)c(F)c(F)c(F)c4F)c4nc(c(-c5c(F)c(F)c(F)c(F)c5F)c5ccc2[nH]5)C=C4)C=C3)cc1
REMARK SMILES IDX 21 1 19 2 20 3 18 4 16 5 9 6 8 7 6 8 7 9 5 11 2 12 1 13 3 14
REMARK SMILES IDX 4 15 10 16 11 17 15 18 12 19 14 20 13 21 17 22 22 24 23 25
REMARK SMILES IDX 24 26 25 27 26 28 27 29 28 30 89 31 29 32 88 33 30 34 31 35
REMARK SMILES IDX 32 36 82 37 33 38 87 39 81 40 83 41 34 42 86 43 80 44 79 45
REMARK SMILES IDX 35 47 67 48 47 49 66 50 48 51 51 52 65 53 84 54 49 55 50 56
REMARK SMILES IDX 64 58 85 59 52 60 36 61 37 62 45 63 38 64 39 65 43 66 46 67
REMARK SMILES IDX 40 68 41 69 44 70 42 71 68 72 69 73 77 74 70 75 71 76 75 77
REMARK SMILES IDX 78 78 72 79 73 80 76 81 74 82 53 83 54 84 62 85 55 86 56 87
REMARK SMILES IDX 60 88 63 89 57 90 58 91 61 92 59 93
REMARK H PARENT 8 10 17 23 83 46 51 57
REMARK Flexibility Score: inf
ROOT
ATOM      1  O   UNL A   1      32.021  30.817  27.124  1.00  0.00    -0.462 OA
ENDROOT
BRANCH   1   2
ATOM      2  C   UNL A   1      32.652  30.009  26.240  1.00  0.00     0.308 C 
ATOM      3  O   UNL A   1      33.835  29.693  26.316  1.00  0.00    -0.252 OA
BRANCH   2   4
ATOM      4  C   UNL A   1      31.767  29.549  25.105  1.00  0.00     0.157 C 
BRANCH   4   5
ATOM      5  C   UNL A   1      32.420  28.602  24.110  1.00  0.00     0.152 C 
BRANCH   5   6
ATOM      6  C   UNL A   1      31.511  27.744  23.149  1.00  0.00     0.145 C 
BRANCH   6   7
ATOM      7  N   UNL A   1      32.147  27.232  21.930  1.00  0.00    -0.312 N 
ATOM      8  C   UNL A   1      32.384  25.965  21.472  1.00  0.00     0.408 C 
ATOM      9  O   UNL A   1      32.980  25.803  20.420  1.00  0.00    -0.225 OA
ATOM     10  H   UNL A   1      32.464  27.939  21.322  1.00  0.00     0.167 HD
BRANCH   8  11
ATOM     11  O   UNL A   1      31.984  24.971  22.303  1.00  0.00    -0.444 OA
BRANCH  11  12
ATOM     12  C   UNL A   1      32.951  24.189  23.081  1.00  0.00     0.106 C 
ATOM     13  C   UNL A   1      32.148  23.627  24.265  1.00  0.00     0.056 C 
ATOM     14  C   UNL A   1      34.076  25.062  23.654  1.00  0.00     0.056 C 
ATOM     15  C   UNL A   1      33.557  23.024  22.294  1.00  0.00     0.056 C 
ENDBRANCH  11  12
ENDBRANCH   8  11
ENDBRANCH   6   7
BRANCH   6  16
ATOM     16  C   UNL A   1      30.237  28.547  22.729  1.00  0.00    -0.023 A 
ATOM     17  C   UNL A   1      28.929  28.227  23.156  1.00  0.00     0.006 A 
ATOM     18  C   UNL A   1      30.368  29.671  21.891  1.00  0.00     0.006 A 
ATOM     19  C   UNL A   1      27.817  28.988  22.777  1.00  0.00     0.000 A 
ATOM     20  C   UNL A   1      29.255  30.443  21.525  1.00  0.00     0.000 A 
ATOM     21  C   UNL A   1      27.981  30.101  21.966  1.00  0.00     0.000 A 
ENDBRANCH   6  16
ENDBRANCH   5   6
BRANCH   5  22
ATOM     22  O   UNL A   1      33.290  29.449  23.315  1.00  0.00    -0.390 OA
ATOM     23  H   UNL A   1      33.321  29.115  22.405  1.00  0.00     0.211 HD
ENDBRANCH   5  22
ENDBRANCH   4   5
ENDBRANCH   2   4
ENDBRANCH   1   2
BRANCH   1  24
ATOM     24  C   UNL A   1      31.357  31.990  26.613  1.00  0.00     0.274 C 
BRANCH  24  25
ATOM     25  C   UNL A   1      32.132  33.261  26.955  1.00  0.00     0.275 C 
BRANCH  25  26
ATOM     26  O   UNL A   1      33.098  32.979  27.977  1.00  0.00    -0.458 OA
BRANCH  26  27
ATOM     27  C   UNL A   1      34.190  33.781  27.955  1.00  0.00     0.338 C 
ATOM     28  O   UNL A   1      34.214  34.989  27.784  1.00  0.00    -0.246 OA
BRANCH  27  29
ATOM     29  C   UNL A   1      35.353  33.007  28.431  1.00  0.00     0.060 A 
ATOM     30  C   UNL A   1      35.139  31.662  28.760  1.00  0.00     0.016 A 
ATOM     31  C   UNL A   1      36.634  33.561  28.498  1.00  0.00     0.016 A 
ATOM     32  C   UNL A   1      36.204  30.861  29.151  1.00  0.00     0.010 A 
ATOM     33  C   UNL A   1      37.696  32.773  28.935  1.00  0.00     0.010 A 
ATOM     34  C   UNL A   1      37.475  31.430  29.281  1.00  0.00    -0.014 A 
BRANCH  34  35
ATOM     35  C   UNL A   1      38.519  30.687  30.010  1.00  0.00     0.031 A 
ATOM     36  C   UNL A   1      38.729  31.035  31.454  1.00  0.00     0.074 A 
ATOM     37  C   UNL A   1      39.247  29.739  29.403  1.00  0.00     0.049 A 
ATOM     38  N   UNL A   1      39.615  30.583  32.299  1.00  0.00    -0.248 NA
ATOM     39  C   UNL A   1      37.806  32.035  32.023  1.00  0.00     0.031 C 
ATOM     40  C   UNL A   1      39.079  29.298  28.020  1.00  0.00     0.029 A 
ATOM     41  N   UNL A   1      40.287  28.983  29.877  1.00  0.00    -0.354 N 
ATOM     42  C   UNL A   1      39.354  31.235  33.496  1.00  0.00     0.074 A 
ATOM     43  C   UNL A   1      38.241  32.129  33.269  1.00  0.00     0.031 C 
ATOM     44  C   UNL A   1      40.005  28.360  27.749  1.00  0.00     0.029 A 
ATOM     45  C   UNL A   1      40.843  28.163  28.929  1.00  0.00     0.049 A 
ATOM     46  H   UNL A   1      40.605  29.025  30.808  1.00  0.00     0.167 HD
ATOM     47  C   UNL A   1      39.994  31.102  34.679  1.00  0.00     0.037 A 
ATOM     48  C   UNL A   1      41.927  27.367  29.014  1.00  0.00     0.037 A 
ATOM     49  C   UNL A   1      41.125  30.241  34.878  1.00  0.00     0.049 A 
ATOM     50  C   UNL A   1      42.676  27.300  30.320  1.00  0.00     0.074 A 
ATOM     51  C   UNL A   1      41.872  30.042  36.023  1.00  0.00     0.029 A 
ATOM     52  N   UNL A   1      41.681  29.443  33.888  1.00  0.00    -0.354 N 
ATOM     53  N   UNL A   1      42.423  27.911  31.453  1.00  0.00    -0.248 NA
ATOM     54  C   UNL A   1      43.865  26.438  30.357  1.00  0.00     0.031 C 
ATOM     55  C   UNL A   1      42.907  29.153  35.715  1.00  0.00     0.029 A 
ATOM     56  C   UNL A   1      42.777  28.763  34.389  1.00  0.00     0.049 A 
ATOM     57  H   UNL A   1      41.345  29.370  32.965  1.00  0.00     0.167 HD
ATOM     58  C   UNL A   1      43.403  27.493  32.343  1.00  0.00     0.074 A 
ATOM     59  C   UNL A   1      44.249  26.564  31.620  1.00  0.00     0.031 C 
ATOM     60  C   UNL A   1      43.593  27.844  33.639  1.00  0.00     0.037 A 
BRANCH  47  61
ATOM     61  C   UNL A   1      39.502  31.942  35.817  1.00  0.00     0.064 A 
ATOM     62  C   UNL A   1      40.059  33.200  36.096  1.00  0.00     0.173 A 
ATOM     63  C   UNL A   1      38.476  31.478  36.652  1.00  0.00     0.173 A 
ATOM     64  F   UNL A   1      41.063  33.675  35.344  1.00  0.00    -0.203 F 
ATOM     65  C   UNL A   1      39.621  33.951  37.183  1.00  0.00     0.198 A 
ATOM     66  C   UNL A   1      38.023  32.242  37.724  1.00  0.00     0.198 A 
ATOM     67  F   UNL A   1      37.919  30.276  36.434  1.00  0.00    -0.203 F 
ATOM     68  F   UNL A   1      40.201  35.127  37.460  1.00  0.00    -0.200 F 
ATOM     69  C   UNL A   1      38.600  33.474  37.992  1.00  0.00     0.200 A 
ATOM     70  F   UNL A   1      37.037  31.781  38.505  1.00  0.00    -0.200 F 
ATOM     71  F   UNL A   1      38.182  34.197  39.041  1.00  0.00    -0.200 F 
ENDBRANCH  47  61
BRANCH  48  72
ATOM     72  C   UNL A   1      42.379  26.593  27.828  1.00  0.00     0.064 A 
ATOM     73  C   UNL A   1      43.311  27.127  26.928  1.00  0.00     0.173 A 
ATOM     74  C   UNL A   1      41.875  25.311  27.562  1.00  0.00     0.173 A 
ATOM     75  F   UNL A   1      43.800  28.360  27.124  1.00  0.00    -0.203 F 
ATOM     76  C   UNL A   1      43.711  26.413  25.799  1.00  0.00     0.198 A 
ATOM     77  C   UNL A   1      42.295  24.589  26.446  1.00  0.00     0.198 A 
ATOM     78  F   UNL A   1      40.976  24.757  28.388  1.00  0.00    -0.203 F 
ATOM     79  F   UNL A   1      44.570  26.966  24.931  1.00  0.00    -0.200 F 
ATOM     80  C   UNL A   1      43.207  25.143  25.562  1.00  0.00     0.200 A 
ATOM     81  F   UNL A   1      41.811  23.359  26.225  1.00  0.00    -0.200 F 
ATOM     82  F   UNL A   1      43.593  24.459  24.476  1.00  0.00    -0.200 F 
ENDBRANCH  48  72
BRANCH  60  83
ATOM     83  C   UNL A   1      44.740  27.200  34.358  1.00  0.00     0.064 A 
ATOM     84  C   UNL A   1      44.599  25.965  35.006  1.00  0.00     0.173 A 
ATOM     85  C   UNL A   1      46.007  27.804  34.353  1.00  0.00     0.173 A 
ATOM     86  F   UNL A   1      43.404  25.357  35.047  1.00  0.00    -0.203 F 
ATOM     87  C   UNL A   1      45.681  25.367  35.643  1.00  0.00     0.198 A 
ATOM     88  C   UNL A   1      47.093  27.191  34.969  1.00  0.00     0.198 A 
ATOM     89  F   UNL A   1      46.192  28.981  33.738  1.00  0.00    -0.203 F 
ATOM     90  F   UNL A   1      45.517  24.206  36.293  1.00  0.00    -0.200 F 
ATOM     91  C   UNL A   1      46.928  25.976  35.618  1.00  0.00     0.200 A 
ATOM     92  F   UNL A   1      48.299  27.774  34.932  1.00  0.00    -0.200 F 
ATOM     93  F   UNL A   1      47.971  25.396  36.228  1.00  0.00    -0.200 F 
ENDBRANCH  60  83
ENDBRANCH  34  35
ENDBRANCH  27  29
ENDBRANCH  26  27
ENDBRANCH  25  26
ENDBRANCH  24  25
ENDBRANCH   1  24
TORSDOF 18
ENDMDL
MODEL 2
REMARK VINA RESULT:     -11.5      1.338      7.965
REMARK SMILES CC(C)(C)OC(=O)N[C@H](c1ccccc1)[C@@H](O)CC(=O)OCCOC(=O)c1ccc(-c2c3nc(c(-c4c(F)c(F)c(F)c(F)c4F)c4ccc([nH]4)c(-c4c(F)c(F)c(F)c(F)c4F)c4nc(c(-c5c(F)c(F)c(F)c(F)c5F)c5ccc2[nH]5)C=C4)C=C3)cc1
REMARK SMILES IDX 21 1 19 2 20 3 18 4 16 5 9 6 8 7 6 8 7 9 5 11 2 12 1 13 3 14
REMARK SMILES IDX 4 15 10 16 11 17 15 18 12 19 14 20 13 21 17 22 22 24 23 25
REMARK SMILES IDX 24 26 25 27 26 28 27 29 28 30 89 31 29 32 88 33 30 34 31 35
REMARK SMILES IDX 32 36 82 37 33 38 87 39 81 40 83 41 34 42 86 43 80 44 79 45
REMARK SMILES IDX 35 47 67 48 47 49 66 50 48 51 51 52 65 53 84 54 49 55 50 56
REMARK SMILES IDX 64 58 85 59 52 60 36 61 37 62 45 63 38 64 39 65 43 66 46 67
REMARK SMILES IDX 40 68 41 69 44 70 42 71 68 72 69 73 77 74 70 75 71 76 75 77
REMARK SMILES IDX 78 78 72 79 73 80 76 81 74 82 53 83 54 84 62 85 55 86 56 87
REMARK SMILES IDX 60 88 63 89 57 90 58 91 61 92 59 93
REMARK H PARENT 8 10 17 23 83 46 51 57
REMARK Flexibility Score: inf
ROOT
ATOM      1  O   UNL A   1      32.611  29.186  24.662  1.00  0.00    -0.462 OA
ENDROOT
BRANCH   1   2
ATOM      2  C   UNL A   1      32.557  28.845  23.353  1.00  0.00     0.308 C 
ATOM      3  O   UNL A   1      31.655  29.176  22.590  1.00  0.00    -0.252 OA
BRANCH   2   4
ATOM      4  C   UNL A   1      33.708  27.973  22.910  1.00  0.00     0.157 C 
BRANCH   4   5
ATOM      5  C   UNL A   1      33.339  26.544  22.540  1.00  0.00     0.152 C 
BRANCH   5   6
ATOM      6  C   UNL A   1      32.967  25.523  23.684  1.00  0.00     0.145 C 
BRANCH   6   7
ATOM      7  N   UNL A   1      32.403  26.093  24.912  1.00  0.00    -0.312 N 
ATOM      8  C   UNL A   1      31.435  25.656  25.776  1.00  0.00     0.408 C 
ATOM      9  O   UNL A   1      31.114  26.350  26.725  1.00  0.00    -0.225 OA
ATOM     10  H   UNL A   1      32.799  26.957  25.166  1.00  0.00     0.167 HD
BRANCH   8  11
ATOM     11  O   UNL A   1      30.852  24.480  25.434  1.00  0.00    -0.444 OA
BRANCH  11  12
ATOM     12  C   UNL A   1      31.211  23.227  26.105  1.00  0.00     0.106 C 
ATOM     13  C   UNL A   1      29.946  22.809  26.872  1.00  0.00     0.056 C 
ATOM     14  C   UNL A   1      32.336  23.419  27.131  1.00  0.00     0.056 C 
ATOM     15  C   UNL A   1      31.592  22.108  25.131  1.00  0.00     0.056 C 
ENDBRANCH  11  12
ENDBRANCH   8  11
ENDBRANCH   6   7
BRANCH   6  16
ATOM     16  C   UNL A   1      34.209  24.658  24.077  1.00  0.00    -0.023 A 
ATOM     17  C   UNL A   1      34.971  24.864  25.250  1.00  0.00     0.006 A 
ATOM     18  C   UNL A   1      34.607  23.594  23.247  1.00  0.00     0.006 A 
ATOM     19  C   UNL A   1      36.061  24.051  25.579  1.00  0.00     0.000 A 
ATOM     20  C   UNL A   1      35.690  22.768  23.586  1.00  0.00     0.000 A 
ATOM     21  C   UNL A   1      36.417  22.998  24.750  1.00  0.00     0.000 A 
ENDBRANCH   6  16
ENDBRANCH   5   6
BRANCH   5  22
ATOM     22  O   UNL A   1      32.213  26.678  21.635  1.00  0.00    -0.390 OA
ATOM     23  H   UNL A   1      32.038  27.618  21.474  1.00  0.00     0.211 HD
ENDBRANCH   5  22
ENDBRANCH   4   5
ENDBRANCH   2   4
ENDBRANCH   1   2
BRANCH   1  24
ATOM     24  C   UNL A   1      31.427  29.746  25.264  1.00  0.00     0.274 C 
BRANCH  24  25
ATOM     25  C   UNL A   1      31.781  30.706  26.398  1.00  0.00     0.275 C 
BRANCH  25  26
ATOM     26  O   UNL A   1      33.204  30.757  26.563  1.00  0.00    -0.458 OA
BRANCH  26  27
ATOM     27  C   UNL A   1      33.648  31.809  27.293  1.00  0.00     0.338 C 
ATOM     28  O   UNL A   1      33.027  32.818  27.586  1.00  0.00    -0.246 OA
BRANCH  27  29
ATOM     29  C   UNL A   1      34.937  31.443  27.912  1.00  0.00     0.060 A 
ATOM     30  C   UNL A   1      35.097  30.113  28.326  1.00  0.00     0.016 A 
ATOM     31  C   UNL A   1      35.986  32.357  28.035  1.00  0.00     0.016 A 
ATOM     32  C   UNL A   1      36.308  29.688  28.855  1.00  0.00     0.010 A 
ATOM     33  C   UNL A   1      37.186  31.944  28.608  1.00  0.00     0.010 A 
ATOM     34  C   UNL A   1      37.338  30.616  29.038  1.00  0.00    -0.014 A 
BRANCH  34  35
ATOM     35  C   UNL A   1      38.480  30.257  29.898  1.00  0.00     0.031 A 
ATOM     36  C   UNL A   1      39.476  29.281  29.345  1.00  0.00     0.074 A 
ATOM     37  C   UNL A   1      38.618  30.784  31.123  1.00  0.00     0.049 A 
ATOM     38  N   UNL A   1      40.527  28.752  29.912  1.00  0.00    -0.248 NA
ATOM     39  C   UNL A   1      39.255  28.842  27.955  1.00  0.00     0.031 C 
ATOM     40  C   UNL A   1      37.729  31.777  31.723  1.00  0.00     0.029 A 
ATOM     41  N   UNL A   1      39.560  30.543  32.089  1.00  0.00    -0.354 N 
ATOM     42  C   UNL A   1      41.092  27.927  28.950  1.00  0.00     0.074 A 
ATOM     43  C   UNL A   1      40.263  28.007  27.769  1.00  0.00     0.031 C 
ATOM     44  C   UNL A   1      38.157  32.043  32.970  1.00  0.00     0.029 A 
ATOM     45  C   UNL A   1      39.327  31.218  33.259  1.00  0.00     0.049 A 
ATOM     46  H   UNL A   1      40.328  29.942  31.955  1.00  0.00     0.167 HD
ATOM     47  C   UNL A   1      42.205  27.166  29.050  1.00  0.00     0.037 A 
ATOM     48  C   UNL A   1      39.981  31.146  34.435  1.00  0.00     0.037 A 
ATOM     49  C   UNL A   1      42.994  27.066  30.245  1.00  0.00     0.049 A 
ATOM     50  C   UNL A   1      41.168  30.224  34.548  1.00  0.00     0.074 A 
ATOM     51  C   UNL A   1      44.127  26.307  30.474  1.00  0.00     0.029 A 
ATOM     52  N   UNL A   1      42.715  27.743  31.424  1.00  0.00    -0.354 N 
ATOM     53  N   UNL A   1      41.707  29.451  33.635  1.00  0.00    -0.248 NA
ATOM     54  C   UNL A   1      41.835  30.161  35.855  1.00  0.00     0.031 C 
ATOM     55  C   UNL A   1      44.509  26.495  31.806  1.00  0.00     0.029 A 
ATOM     56  C   UNL A   1      43.642  27.405  32.393  1.00  0.00     0.049 A 
ATOM     57  H   UNL A   1      41.968  28.373  31.551  1.00  0.00     0.167 HD
ATOM     58  C   UNL A   1      42.785  28.826  34.247  1.00  0.00     0.074 A 
ATOM     59  C   UNL A   1      42.833  29.323  35.608  1.00  0.00     0.031 C 
ATOM     60  C   UNL A   1      43.659  27.923  33.736  1.00  0.00     0.037 A 
BRANCH  47  61
ATOM     61  C   UNL A   1      42.587  26.359  27.847  1.00  0.00     0.064 A 
ATOM     62  C   UNL A   1      42.075  25.071  27.633  1.00  0.00     0.173 A 
ATOM     63  C   UNL A   1      43.492  26.872  26.907  1.00  0.00     0.173 A 
ATOM     64  F   UNL A   1      41.229  24.525  28.520  1.00  0.00    -0.203 F 
ATOM     65  C   UNL A   1      42.473  24.317  26.533  1.00  0.00     0.198 A 
ATOM     66  C   UNL A   1      43.869  26.125  25.795  1.00  0.00     0.198 A 
ATOM     67  F   UNL A   1      44.018  28.096  27.072  1.00  0.00    -0.203 F 
ATOM     68  F   UNL A   1      42.009  23.069  26.375  1.00  0.00    -0.200 F 
ATOM     69  C   UNL A   1      43.365  24.846  25.612  1.00  0.00     0.200 A 
ATOM     70  F   UNL A   1      44.730  26.637  24.905  1.00  0.00    -0.200 F 
ATOM     71  F   UNL A   1      43.750  24.117  24.555  1.00  0.00    -0.200 F 
ENDBRANCH  47  61
BRANCH  48  72
ATOM     72  C   UNL A   1      39.518  31.947  35.598  1.00  0.00     0.064 A 
ATOM     73  C   UNL A   1      40.060  33.211  35.867  1.00  0.00     0.173 A 
ATOM     74  C   UNL A   1      38.536  31.459  36.473  1.00  0.00     0.173 A 
ATOM     75  F   UNL A   1      41.021  33.709  35.076  1.00  0.00    -0.203 F 
ATOM     76  C   UNL A   1      39.648  33.949  36.976  1.00  0.00     0.198 A 
ATOM     77  C   UNL A   1      38.108  32.208  37.567  1.00  0.00     0.198 A 
ATOM     78  F   UNL A   1      37.989  30.252  36.264  1.00  0.00    -0.203 F 
ATOM     79  F   UNL A   1      40.216  35.135  37.236  1.00  0.00    -0.200 F 
ATOM     80  C   UNL A   1      38.669  33.450  37.822  1.00  0.00     0.200 A 
ATOM     81  F   UNL A   1      37.156  31.725  38.377  1.00  0.00    -0.200 F 
ATOM     82  F   UNL A   1      38.274  34.161  38.887  1.00  0.00    -0.200 F 
ENDBRANCH  48  72
BRANCH  60  83
ATOM     83  C   UNL A   1      44.747  27.439  34.646  1.00  0.00     0.064 A 
ATOM     84  C   UNL A   1      45.978  28.104  34.736  1.00  0.00     0.173 A 
ATOM     85  C   UNL A   1      44.535  26.326  35.474  1.00  0.00     0.173 A 
ATOM     86  F   UNL A   1      46.230  29.166  33.954  1.00  0.00    -0.203 F 
ATOM     87  C   UNL A   1      46.967  27.659  35.606  1.00  0.00     0.198 A 
ATOM     88  C   UNL A   1      45.517  25.899  36.362  1.00  0.00     0.198 A 
ATOM     89  F   UNL A   1      43.370  25.663  35.430  1.00  0.00    -0.203 F 
ATOM     90  F   UNL A   1      48.152  28.284  35.647  1.00  0.00    -0.200 F 
ATOM     91  C   UNL A   1      46.734  26.562  36.424  1.00  0.00     0.200 A 
ATOM     92  F   UNL A   1      45.285  24.849  37.161  1.00  0.00    -0.200 F 
ATOM     93  F   UNL A   1      47.685  26.139  37.266  1.00  0.00    -0.200 F 
ENDBRANCH  60  83
ENDBRANCH  34  35
ENDBRANCH  27  29
ENDBRANCH  26  27
ENDBRANCH  25  26
ENDBRANCH  24  25
ENDBRANCH   1  24
TORSDOF 18
ENDMDL
MODEL 3
REMARK VINA RESULT:     -11.5      0.172      1.602
REMARK SMILES CC(C)(C)OC(=O)N[C@H](c1ccccc1)[C@@H](O)CC(=O)OCCOC(=O)c1ccc(-c2c3nc(c(-c4c(F)c(F)c(F)c(F)c4F)c4ccc([nH]4)c(-c4c(F)c(F)c(F)c(F)c4F)c4nc(c(-c5c(F)c(F)c(F)c(F)c5F)c5ccc2[nH]5)C=C4)C=C3)cc1
REMARK SMILES IDX 21 1 19 2 20 3 18 4 16 5 9 6 8 7 6 8 7 9 5 11 2 12 1 13 3 14
REMARK SMILES IDX 4 15 10 16 11 17 15 18 12 19 14 20 13 21 17 22 22 24 23 25
REMARK SMILES IDX 24 26 25 27 26 28 27 29 28 30 89 31 29 32 88 33 30 34 31 35
REMARK SMILES IDX 32 36 82 37 33 38 87 39 81 40 83 41 34 42 86 43 80 44 79 45
REMARK SMILES IDX 35 47 67 48 47 49 66 50 48 51 51 52 65 53 84 54 49 55 50 56
REMARK SMILES IDX 64 58 85 59 52 60 36 61 37 62 45 63 38 64 39 65 43 66 46 67
REMARK SMILES IDX 40 68 41 69 44 70 42 71 68 72 69 73 77 74 70 75 71 76 75 77
REMARK SMILES IDX 78 78 72 79 73 80 76 81 74 82 53 83 54 84 62 85 55 86 56 87
REMARK SMILES IDX 60 88 63 89 57 90 58 91 61 92 59 93
REMARK H PARENT 8 10 17 23 83 46 51 57
REMARK Flexibility Score: inf
ROOT
ATOM      1  O   UNL A   1      31.953  30.773  27.186  1.00  0.00    -0.462 OA
ENDROOT
BRANCH   1   2
ATOM      2  C   UNL A   1      32.465  29.768  26.436  1.00  0.00     0.308 C 
ATOM      3  O   UNL A   1      33.521  29.194  26.680  1.00  0.00    -0.252 OA
BRANCH   2   4
ATOM      4  C   UNL A   1      31.625  29.432  25.227  1.00  0.00     0.157 C 
BRANCH   4   5
ATOM      5  C   UNL A   1      32.288  28.519  24.206  1.00  0.00     0.152 C 
BRANCH   5   6
ATOM      6  C   UNL A   1      31.387  27.701  23.202  1.00  0.00     0.145 C 
BRANCH   6   7
ATOM      7  N   UNL A   1      32.043  27.213  21.983  1.00  0.00    -0.312 N 
ATOM      8  C   UNL A   1      32.293  25.955  21.507  1.00  0.00     0.408 C 
ATOM      9  O   UNL A   1      32.904  25.815  20.461  1.00  0.00    -0.225 OA
ATOM     10  H   UNL A   1      32.364  27.932  21.392  1.00  0.00     0.167 HD
BRANCH   8  11
ATOM     11  O   UNL A   1      31.886  24.945  22.316  1.00  0.00    -0.444 OA
BRANCH  11  12
ATOM     12  C   UNL A   1      32.844  24.176  23.117  1.00  0.00     0.106 C 
ATOM     13  C   UNL A   1      32.047  23.701  24.342  1.00  0.00     0.056 C 
ATOM     14  C   UNL A   1      34.005  25.042  23.624  1.00  0.00     0.056 C 
ATOM     15  C   UNL A   1      33.400  22.953  22.383  1.00  0.00     0.056 C 
ENDBRANCH  11  12
ENDBRANCH   8  11
ENDBRANCH   6   7
BRANCH   6  16
ATOM     16  C   UNL A   1      30.135  28.534  22.777  1.00  0.00    -0.023 A 
ATOM     17  C   UNL A   1      28.810  28.204  23.141  1.00  0.00     0.006 A 
ATOM     18  C   UNL A   1      30.303  29.696  22.001  1.00  0.00     0.006 A 
ATOM     19  C   UNL A   1      27.717  28.992  22.761  1.00  0.00     0.000 A 
ATOM     20  C   UNL A   1      29.209  30.495  21.634  1.00  0.00     0.000 A 
ATOM     21  C   UNL A   1      27.917  30.142  22.012  1.00  0.00     0.000 A 
ENDBRANCH   6  16
ENDBRANCH   5   6
BRANCH   5  22
ATOM     22  O   UNL A   1      33.172  29.390  23.454  1.00  0.00    -0.390 OA
ATOM     23  H   UNL A   1      33.059  29.223  22.505  1.00  0.00     0.211 HD
ENDBRANCH   5  22
ENDBRANCH   4   5
ENDBRANCH   2   4
ENDBRANCH   1   2
BRANCH   1  24
ATOM     24  C   UNL A   1      31.405  31.917  26.501  1.00  0.00     0.274 C 
BRANCH  24  25
ATOM     25  C   UNL A   1      32.066  33.212  26.966  1.00  0.00     0.275 C 
BRANCH  25  26
ATOM     26  O   UNL A   1      33.023  32.926  27.994  1.00  0.00    -0.458 OA
BRANCH  26  27
ATOM     27  C   UNL A   1      34.116  33.727  27.983  1.00  0.00     0.338 C 
ATOM     28  O   UNL A   1      34.143  34.936  27.822  1.00  0.00    -0.246 OA
BRANCH  27  29
ATOM     29  C   UNL A   1      35.277  32.946  28.456  1.00  0.00     0.060 A 
ATOM     30  C   UNL A   1      35.048  31.614  28.824  1.00  0.00     0.016 A 
ATOM     31  C   UNL A   1      36.567  33.482  28.485  1.00  0.00     0.016 A 
ATOM     32  C   UNL A   1      36.108  30.806  29.215  1.00  0.00     0.010 A 
ATOM     33  C   UNL A   1      37.625  32.687  28.921  1.00  0.00     0.010 A 
ATOM     34  C   UNL A   1      37.390  31.358  29.306  1.00  0.00    -0.014 A 
BRANCH  34  35
ATOM     35  C   UNL A   1      38.437  30.617  30.034  1.00  0.00     0.031 A 
ATOM     36  C   UNL A   1      38.666  30.984  31.470  1.00  0.00     0.074 A 
ATOM     37  C   UNL A   1      39.150  29.654  29.433  1.00  0.00     0.049 A 
ATOM     38  N   UNL A   1      39.559  30.537  32.311  1.00  0.00    -0.248 NA
ATOM     39  C   UNL A   1      37.759  32.000  32.035  1.00  0.00     0.031 C 
ATOM     40  C   UNL A   1      38.962  29.194  28.058  1.00  0.00     0.029 A 
ATOM     41  N   UNL A   1      40.189  28.896  29.906  1.00  0.00    -0.354 N 
ATOM     42  C   UNL A   1      39.317  31.209  33.501  1.00  0.00     0.074 A 
ATOM     43  C   UNL A   1      38.209  32.108  33.274  1.00  0.00     0.031 C 
ATOM     44  C   UNL A   1      39.877  28.245  27.790  1.00  0.00     0.029 A 
ATOM     45  C   UNL A   1      40.728  28.058  28.963  1.00  0.00     0.049 A 
ATOM     46  H   UNL A   1      40.518  28.950  30.832  1.00  0.00     0.167 HD
ATOM     47  C   UNL A   1      39.970  31.088  34.679  1.00  0.00     0.037 A 
ATOM     48  C   UNL A   1      41.806  27.254  29.047  1.00  0.00     0.037 A 
ATOM     49  C   UNL A   1      41.097  30.220  34.877  1.00  0.00     0.049 A 
ATOM     50  C   UNL A   1      42.569  27.200  30.345  1.00  0.00     0.074 A 
ATOM     51  C   UNL A   1      41.855  30.032  36.017  1.00  0.00     0.029 A 
ATOM     52  N   UNL A   1      41.634  29.403  33.892  1.00  0.00    -0.354 N 
ATOM     53  N   UNL A   1      42.335  27.830  31.472  1.00  0.00    -0.248 NA
ATOM     54  C   UNL A   1      43.751  26.328  30.381  1.00  0.00     0.031 C 
ATOM     55  C   UNL A   1      42.879  29.130  35.709  1.00  0.00     0.029 A 
ATOM     56  C   UNL A   1      42.730  28.722  34.391  1.00  0.00     0.049 A 
ATOM     57  H   UNL A   1      41.287  29.319  32.974  1.00  0.00     0.167 HD
ATOM     58  C   UNL A   1      43.322  27.417  32.356  1.00  0.00     0.074 A 
ATOM     59  C   UNL A   1      44.151  26.470  31.638  1.00  0.00     0.031 C 
ATOM     60  C   UNL A   1      43.529  27.785  33.645  1.00  0.00     0.037 A 
BRANCH  47  61
ATOM     61  C   UNL A   1      39.499  31.949  35.810  1.00  0.00     0.064 A 
ATOM     62  C   UNL A   1      38.481  31.528  36.680  1.00  0.00     0.173 A 
ATOM     63  C   UNL A   1      40.057  33.218  36.016  1.00  0.00     0.173 A 
ATOM     64  F   UNL A   1      37.895  30.334  36.505  1.00  0.00    -0.203 F 
ATOM     65  C   UNL A   1      38.025  32.357  37.700  1.00  0.00     0.198 A 
ATOM     66  C   UNL A   1      39.615  34.036  37.053  1.00  0.00     0.198 A 
ATOM     67  F   UNL A   1      41.026  33.671  35.205  1.00  0.00    -0.203 F 
ATOM     68  F   UNL A   1      37.017  31.956  38.488  1.00  0.00    -0.200 F 
ATOM     69  C   UNL A   1      38.595  33.607  37.889  1.00  0.00     0.200 A 
ATOM     70  F   UNL A   1      40.168  35.242  37.235  1.00  0.00    -0.200 F 
ATOM     71  F   UNL A   1      38.152  34.406  38.870  1.00  0.00    -0.200 F 
ENDBRANCH  47  61
BRANCH  48  72
ATOM     72  C   UNL A   1      42.237  26.459  27.868  1.00  0.00     0.064 A 
ATOM     73  C   UNL A   1      43.203  26.950  26.979  1.00  0.00     0.173 A 
ATOM     74  C   UNL A   1      41.681  25.200  27.597  1.00  0.00     0.173 A 
ATOM     75  F   UNL A   1      43.744  28.160  27.179  1.00  0.00    -0.203 F 
ATOM     76  C   UNL A   1      43.585  26.218  25.855  1.00  0.00     0.198 A 
ATOM     77  C   UNL A   1      42.082  24.459  26.487  1.00  0.00     0.198 A 
ATOM     78  F   UNL A   1      40.748  24.688  28.413  1.00  0.00    -0.203 F 
ATOM     79  F   UNL A   1      44.477  26.730  24.997  1.00  0.00    -0.200 F 
ATOM     80  C   UNL A   1      43.028  24.971  25.613  1.00  0.00     0.200 A 
ATOM     81  F   UNL A   1      41.546  23.251  26.261  1.00  0.00    -0.200 F 
ATOM     82  F   UNL A   1      43.396  24.268  24.533  1.00  0.00    -0.200 F 
ENDBRANCH  48  72
BRANCH  60  83
ATOM     83  C   UNL A   1      44.680  27.142  34.360  1.00  0.00     0.064 A 
ATOM     84  C   UNL A   1      45.946  27.744  34.401  1.00  0.00     0.173 A 
ATOM     85  C   UNL A   1      44.498  25.937  35.054  1.00  0.00     0.173 A 
ATOM     86  F   UNL A   1      46.169  28.891  33.741  1.00  0.00    -0.203 F 
ATOM     87  C   UNL A   1      46.996  27.150  35.092  1.00  0.00     0.198 A 
ATOM     88  C   UNL A   1      45.543  25.358  35.767  1.00  0.00     0.198 A 
ATOM     89  F   UNL A   1      43.303  25.329  35.052  1.00  0.00    -0.203 F 
ATOM     90  F   UNL A   1      48.209  27.719  35.085  1.00  0.00    -0.200 F 
ATOM     91  C   UNL A   1      46.792  25.962  35.781  1.00  0.00     0.200 A 
ATOM     92  F   UNL A   1      45.342  24.219  36.442  1.00  0.00    -0.200 F 
ATOM     93  F   UNL A   1      47.803  25.394  36.452  1.00  0.00    -0.200 F 
ENDBRANCH  60  83
ENDBRANCH  34  35
ENDBRANCH  27  29
ENDBRANCH  26  27
ENDBRANCH  25  26
ENDBRANCH  24  25
ENDBRANCH   1  24
TORSDOF 18
ENDMDL
