MODEL 1
REMARK VINA RESULT:     -11.8      0.000      0.000
REMARK SMILES C[C@H]1C[C@H](C)CN(S(=O)(=O)N[C@@H](CCC(N)=O)C(=O)OCCOC(=O)c2ccc(-c3c4nc(c(-c5c(F)c(F)c(F)c(F)c5F)c5ccc([nH]5)c(-c5c(F)c(F)c(F)c(F)c5F)c5nc(c(-c6c(F)c(F)c(F)c(F)c6F)c6ccc3[nH]6)C=C5)C=C4)cc2)C1
REMARK SMILES IDX 21 1 20 2 18 3 19 4 12 5 11 6 8 8 9 9 10 10 7 11 1 12 2 13
REMARK SMILES IDX 3 14 89 15 4 16 5 17 6 18 13 19 14 20 15 21 16 22 17 23
REMARK SMILES IDX 22 26 23 27 24 28 25 29 26 30 27 31 88 32 28 33 87 34 29 35
REMARK SMILES IDX 30 36 31 37 81 38 32 39 86 40 80 41 82 42 33 43 85 44 79 45
REMARK SMILES IDX 78 46 34 48 66 49 46 50 65 51 47 52 50 53 64 54 83 55 48 56
REMARK SMILES IDX 49 57 63 59 84 60 51 61 35 62 36 63 44 64 37 65 38 66 42 67
REMARK SMILES IDX 45 68 39 69 40 70 43 71 41 72 67 73 68 74 76 75 69 76 70 77
REMARK SMILES IDX 74 78 77 79 71 80 72 81 75 82 73 83 52 84 53 85 61 86 54 87
REMARK SMILES IDX 55 88 59 89 62 90 56 91 57 92 60 93 58 94
REMARK H PARENT 11 7 16 24 16 25 82 47 50 58
REMARK Flexibility Score: inf
ROOT
ATOM      1  C   UNL A   1      36.034  22.021  24.229  1.00  0.00     0.274 C 
ENDROOT
BRANCH   1   2
ATOM      2  O   UNL A   1      34.916  21.785  25.114  1.00  0.00    -0.461 OA
BRANCH   2   3
ATOM      3  C   UNL A   1      33.709  21.617  24.517  1.00  0.00     0.324 C 
ATOM      4  O   UNL A   1      33.379  22.125  23.448  1.00  0.00    -0.250 OA
BRANCH   3   5
ATOM      5  C   UNL A   1      32.738  20.767  25.335  1.00  0.00     0.181 C 
BRANCH   5   6
ATOM      6  N   UNL A   1      31.538  21.491  25.820  1.00  0.00    -0.188 NA
ATOM      7  H   UNL A   1      31.011  21.740  24.983  1.00  0.00     0.143 HD
BRANCH   6   8
ATOM      8  S   UNL A   1      31.585  22.873  26.749  1.00  0.00     0.280 S 
ATOM      9  O   UNL A   1      32.694  22.770  27.669  1.00  0.00    -0.195 OA
ATOM     10  O   UNL A   1      30.246  23.078  27.244  1.00  0.00    -0.195 OA
BRANCH   8  11
ATOM     11  N   UNL A   1      31.927  24.167  25.682  1.00  0.00    -0.188 NA
ATOM     12  C   UNL A   1      29.543  26.712  23.958  1.00  0.00     0.009 C 
ATOM     13  C   UNL A   1      30.847  25.970  24.247  1.00  0.00     0.001 C 
ATOM     14  C   UNL A   1      31.903  26.963  24.744  1.00  0.00     0.009 C 
ATOM     15  C   UNL A   1      30.637  24.834  25.260  1.00  0.00     0.106 C 
ATOM     16  C   UNL A   1      33.200  26.243  25.088  1.00  0.00     0.001 C 
ATOM     17  C   UNL A   1      33.893  25.717  23.825  1.00  0.00     0.009 C 
ATOM     18  C   UNL A   1      32.932  25.149  26.127  1.00  0.00     0.106 C 
ENDBRANCH   8  11
ENDBRANCH   6   8
ENDBRANCH   5   6
BRANCH   5  19
ATOM     19  C   UNL A   1      32.522  19.426  24.624  1.00  0.00     0.042 C 
BRANCH  19  20
ATOM     20  C   UNL A   1      33.767  18.611  24.286  1.00  0.00     0.102 C 
BRANCH  20  21
ATOM     21  C   UNL A   1      33.470  17.236  23.734  1.00  0.00     0.217 C 
ATOM     22  N   UNL A   1      32.533  16.513  24.407  1.00  0.00    -0.370 N 
ATOM     23  O   UNL A   1      34.026  16.776  22.745  1.00  0.00    -0.275 OA
ATOM     24  H   UNL A   1      32.095  16.895  25.202  1.00  0.00     0.159 HD
ATOM     25  H   UNL A   1      32.294  15.608  24.100  1.00  0.00     0.159 HD
ENDBRANCH  20  21
ENDBRANCH  19  20
ENDBRANCH   5  19
ENDBRANCH   3   5
ENDBRANCH   2   3
ENDBRANCH   1   2
BRANCH   1  26
ATOM     26  C   UNL A   1      37.256  21.189  24.625  1.00  0.00     0.275 C 
BRANCH  26  27
ATOM     27  O   UNL A   1      37.704  21.527  25.947  1.00  0.00    -0.458 OA
BRANCH  27  28
ATOM     28  C   UNL A   1      39.036  21.393  26.129  1.00  0.00     0.338 C 
ATOM     29  O   UNL A   1      39.757  20.486  25.752  1.00  0.00    -0.246 OA
BRANCH  28  30
ATOM     30  C   UNL A   1      39.563  22.606  26.760  1.00  0.00     0.060 A 
ATOM     31  C   UNL A   1      39.039  23.828  26.352  1.00  0.00     0.016 A 
ATOM     32  C   UNL A   1      40.655  22.552  27.622  1.00  0.00     0.016 A 
ATOM     33  C   UNL A   1      39.650  25.009  26.746  1.00  0.00     0.010 A 
ATOM     34  C   UNL A   1      41.245  23.747  28.048  1.00  0.00     0.010 A 
ATOM     35  C   UNL A   1      40.778  24.988  27.575  1.00  0.00    -0.014 A 
BRANCH  35  36
ATOM     36  C   UNL A   1      41.502  26.253  27.876  1.00  0.00     0.031 A 
ATOM     37  C   UNL A   1      40.832  27.339  28.678  1.00  0.00     0.074 A 
ATOM     38  C   UNL A   1      42.775  26.418  27.466  1.00  0.00     0.049 A 
ATOM     39  N   UNL A   1      41.221  28.571  28.897  1.00  0.00    -0.248 NA
ATOM     40  C   UNL A   1      39.548  26.999  29.311  1.00  0.00     0.031 C 
ATOM     41  C   UNL A   1      43.567  25.420  26.745  1.00  0.00     0.029 A 
ATOM     42  N   UNL A   1      43.627  27.487  27.593  1.00  0.00    -0.354 N 
ATOM     43  C   UNL A   1      40.208  29.166  29.640  1.00  0.00     0.074 A 
ATOM     44  C   UNL A   1      39.182  28.162  29.832  1.00  0.00     0.031 C 
ATOM     45  C   UNL A   1      44.793  25.912  26.516  1.00  0.00     0.029 A 
ATOM     46  C   UNL A   1      44.840  27.294  26.979  1.00  0.00     0.049 A 
ATOM     47  H   UNL A   1      43.391  28.311  28.079  1.00  0.00     0.167 HD
ATOM     48  C   UNL A   1      40.141  30.434  30.113  1.00  0.00     0.037 A 
ATOM     49  C   UNL A   1      45.855  28.149  26.754  1.00  0.00     0.037 A 
ATOM     50  C   UNL A   1      41.191  31.410  29.955  1.00  0.00     0.049 A 
ATOM     51  C   UNL A   1      45.730  29.568  27.230  1.00  0.00     0.074 A 
ATOM     52  C   UNL A   1      41.234  32.715  30.417  1.00  0.00     0.029 A 
ATOM     53  N   UNL A   1      42.387  31.185  29.288  1.00  0.00    -0.354 N 
ATOM     54  N   UNL A   1      44.752  30.136  27.893  1.00  0.00    -0.248 NA
ATOM     55  C   UNL A   1      46.846  30.469  26.916  1.00  0.00     0.031 C 
ATOM     56  C   UNL A   1      42.428  33.296  29.976  1.00  0.00     0.029 A 
ATOM     57  C   UNL A   1      43.162  32.335  29.301  1.00  0.00     0.049 A 
ATOM     58  H   UNL A   1      42.647  30.333  28.867  1.00  0.00     0.167 HD
ATOM     59  C   UNL A   1      45.142  31.453  28.094  1.00  0.00     0.074 A 
ATOM     60  C   UNL A   1      46.456  31.592  27.500  1.00  0.00     0.031 C 
ATOM     61  C   UNL A   1      44.471  32.456  28.710  1.00  0.00     0.037 A 
BRANCH  48  62
ATOM     62  C   UNL A   1      38.879  30.864  30.810  1.00  0.00     0.064 A 
ATOM     63  C   UNL A   1      38.722  30.774  32.201  1.00  0.00     0.173 A 
ATOM     64  C   UNL A   1      37.824  31.422  30.070  1.00  0.00     0.173 A 
ATOM     65  F   UNL A   1      39.694  30.242  32.957  1.00  0.00    -0.203 F 
ATOM     66  C   UNL A   1      37.547  31.200  32.819  1.00  0.00     0.198 A 
ATOM     67  C   UNL A   1      36.666  31.879  30.694  1.00  0.00     0.198 A 
ATOM     68  F   UNL A   1      37.921  31.543  28.737  1.00  0.00    -0.203 F 
ATOM     69  F   UNL A   1      37.402  31.059  34.145  1.00  0.00    -0.200 F 
ATOM     70  C   UNL A   1      36.524  31.760  32.069  1.00  0.00     0.200 A 
ATOM     71  F   UNL A   1      35.688  32.437  29.967  1.00  0.00    -0.200 F 
ATOM     72  F   UNL A   1      35.402  32.180  32.666  1.00  0.00    -0.200 F 
ENDBRANCH  48  62
BRANCH  49  73
ATOM     73  C   UNL A   1      47.051  27.693  25.997  1.00  0.00     0.064 A 
ATOM     74  C   UNL A   1      48.181  27.199  26.660  1.00  0.00     0.173 A 
ATOM     75  C   UNL A   1      47.085  27.736  24.594  1.00  0.00     0.173 A 
ATOM     76  F   UNL A   1      48.207  27.158  28.001  1.00  0.00    -0.203 F 
ATOM     77  C   UNL A   1      49.305  26.779  25.951  1.00  0.00     0.198 A 
ATOM     78  C   UNL A   1      48.193  27.280  23.885  1.00  0.00     0.198 A 
ATOM     79  F   UNL A   1      46.028  28.198  23.908  1.00  0.00    -0.203 F 
ATOM     80  F   UNL A   1      50.391  26.354  26.611  1.00  0.00    -0.200 F 
ATOM     81  C   UNL A   1      49.306  26.810  24.564  1.00  0.00     0.200 A 
ATOM     82  F   UNL A   1      48.180  27.293  22.545  1.00  0.00    -0.200 F 
ATOM     83  F   UNL A   1      50.382  26.393  23.883  1.00  0.00    -0.200 F 
ENDBRANCH  49  73
BRANCH  61  84
ATOM     84  C   UNL A   1      45.168  33.784  28.813  1.00  0.00     0.064 A 
ATOM     85  C   UNL A   1      45.003  34.784  27.844  1.00  0.00     0.173 A 
ATOM     86  C   UNL A   1      45.995  34.064  29.912  1.00  0.00     0.173 A 
ATOM     87  F   UNL A   1      44.237  34.560  26.765  1.00  0.00    -0.203 F 
ATOM     88  C   UNL A   1      45.666  36.003  27.953  1.00  0.00     0.198 A 
ATOM     89  C   UNL A   1      46.627  35.299  30.037  1.00  0.00     0.198 A 
ATOM     90  F   UNL A   1      46.183  33.145  30.870  1.00  0.00    -0.203 F 
ATOM     91  F   UNL A   1      45.542  36.921  26.985  1.00  0.00    -0.200 F 
ATOM     92  C   UNL A   1      46.471  36.262  29.053  1.00  0.00     0.200 A 
ATOM     93  F   UNL A   1      47.392  35.551  31.108  1.00  0.00    -0.200 F 
ATOM     94  F   UNL A   1      47.105  37.438  29.159  1.00  0.00    -0.200 F 
ENDBRANCH  61  84
ENDBRANCH  35  36
ENDBRANCH  28  30
ENDBRANCH  27  28
ENDBRANCH  26  27
ENDBRANCH   1  26
TORSDOF 17
ENDMDL
MODEL 2
REMARK VINA RESULT:     -11.8      4.495      9.926
REMARK SMILES C[C@H]1C[C@H](C)CN(S(=O)(=O)N[C@@H](CCC(N)=O)C(=O)OCCOC(=O)c2ccc(-c3c4nc(c(-c5c(F)c(F)c(F)c(F)c5F)c5ccc([nH]5)c(-c5c(F)c(F)c(F)c(F)c5F)c5nc(c(-c6c(F)c(F)c(F)c(F)c6F)c6ccc3[nH]6)C=C5)C=C4)cc2)C1
REMARK SMILES IDX 21 1 20 2 18 3 19 4 12 5 11 6 8 8 9 9 10 10 7 11 1 12 2 13
REMARK SMILES IDX 3 14 89 15 4 16 5 17 6 18 13 19 14 20 15 21 16 22 17 23
REMARK SMILES IDX 22 26 23 27 24 28 25 29 26 30 27 31 88 32 28 33 87 34 29 35
REMARK SMILES IDX 30 36 31 37 81 38 32 39 86 40 80 41 82 42 33 43 85 44 79 45
REMARK SMILES IDX 78 46 34 48 66 49 46 50 65 51 47 52 50 53 64 54 83 55 48 56
REMARK SMILES IDX 49 57 63 59 84 60 51 61 35 62 36 63 44 64 37 65 38 66 42 67
REMARK SMILES IDX 45 68 39 69 40 70 43 71 41 72 67 73 68 74 76 75 69 76 70 77
REMARK SMILES IDX 74 78 77 79 71 80 72 81 75 82 73 83 52 84 53 85 61 86 54 87
REMARK SMILES IDX 55 88 59 89 62 90 56 91 57 92 60 93 58 94
REMARK H PARENT 11 7 16 24 16 25 82 47 50 58
REMARK Flexibility Score: inf
ROOT
ATOM      1  C   UNL A   1      31.990  29.690  25.228  1.00  0.00     0.274 C 
ENDROOT
BRANCH   1   2
ATOM      2  O   UNL A   1      31.377  28.492  25.755  1.00  0.00    -0.461 OA
BRANCH   2   3
ATOM      3  C   UNL A   1      31.930  27.316  25.358  1.00  0.00     0.324 C 
ATOM      4  O   UNL A   1      33.134  27.075  25.355  1.00  0.00    -0.250 OA
BRANCH   3   5
ATOM      5  C   UNL A   1      30.907  26.306  24.842  1.00  0.00     0.181 C 
BRANCH   5   6
ATOM      6  N   UNL A   1      30.408  25.353  25.863  1.00  0.00    -0.188 NA
ATOM      7  H   UNL A   1      30.363  25.883  26.734  1.00  0.00     0.143 HD
BRANCH   6   8
ATOM      8  S   UNL A   1      31.153  23.915  26.251  1.00  0.00     0.280 S 
ATOM      9  O   UNL A   1      30.212  22.839  26.039  1.00  0.00    -0.195 OA
ATOM     10  O   UNL A   1      31.761  24.105  27.544  1.00  0.00    -0.195 OA
BRANCH   8  11
ATOM     11  N   UNL A   1      32.426  23.706  25.125  1.00  0.00    -0.188 NA
ATOM     12  C   UNL A   1      36.280  23.675  25.653  1.00  0.00     0.009 C 
ATOM     13  C   UNL A   1      34.959  23.706  24.885  1.00  0.00     0.001 C 
ATOM     14  C   UNL A   1      34.851  22.458  24.002  1.00  0.00     0.009 C 
ATOM     15  C   UNL A   1      33.757  23.817  25.835  1.00  0.00     0.106 C 
ATOM     16  C   UNL A   1      33.521  22.438  23.261  1.00  0.00     0.001 C 
ATOM     17  C   UNL A   1      33.465  23.535  22.192  1.00  0.00     0.009 C 
ATOM     18  C   UNL A   1      32.362  22.513  24.261  1.00  0.00     0.106 C 
ENDBRANCH   8  11
ENDBRANCH   6   8
ENDBRANCH   5   6
BRANCH   5  19
ATOM     19  C   UNL A   1      29.868  27.037  23.983  1.00  0.00     0.042 C 
BRANCH  19  20
ATOM     20  C   UNL A   1      30.362  27.664  22.682  1.00  0.00     0.102 C 
BRANCH  20  21
ATOM     21  C   UNL A   1      29.948  29.106  22.499  1.00  0.00     0.217 C 
ATOM     22  N   UNL A   1      30.700  29.837  21.631  1.00  0.00    -0.370 N 
ATOM     23  O   UNL A   1      28.999  29.611  23.085  1.00  0.00    -0.275 OA
ATOM     24  H   UNL A   1      31.461  29.419  21.167  1.00  0.00     0.159 HD
ATOM     25  H   UNL A   1      30.483  30.784  21.468  1.00  0.00     0.159 HD
ENDBRANCH  20  21
ENDBRANCH  19  20
ENDBRANCH   5  19
ENDBRANCH   3   5
ENDBRANCH   2   3
ENDBRANCH   1   2
BRANCH   1  26
ATOM     26  C   UNL A   1      31.746  30.897  26.135  1.00  0.00     0.275 C 
BRANCH  26  27
ATOM     27  O   UNL A   1      32.585  30.846  27.300  1.00  0.00    -0.458 OA
BRANCH  27  28
ATOM     28  C   UNL A   1      33.326  31.959  27.496  1.00  0.00     0.338 C 
ATOM     29  O   UNL A   1      32.960  33.120  27.458  1.00  0.00    -0.246 OA
BRANCH  28  30
ATOM     30  C   UNL A   1      34.678  31.574  27.910  1.00  0.00     0.060 A 
ATOM     31  C   UNL A   1      34.900  30.240  28.234  1.00  0.00     0.016 A 
ATOM     32  C   UNL A   1      35.665  32.532  28.122  1.00  0.00     0.016 A 
ATOM     33  C   UNL A   1      36.089  29.865  28.842  1.00  0.00     0.010 A 
ATOM     34  C   UNL A   1      36.878  32.143  28.701  1.00  0.00     0.010 A 
ATOM     35  C   UNL A   1      37.085  30.813  29.112  1.00  0.00    -0.014 A 
BRANCH  35  36
ATOM     36  C   UNL A   1      38.293  30.420  29.886  1.00  0.00     0.031 A 
ATOM     37  C   UNL A   1      39.318  29.496  29.279  1.00  0.00     0.074 A 
ATOM     38  C   UNL A   1      38.497  30.920  31.121  1.00  0.00     0.049 A 
ATOM     39  N   UNL A   1      40.339  28.901  29.845  1.00  0.00    -0.248 NA
ATOM     40  C   UNL A   1      39.168  29.192  27.847  1.00  0.00     0.031 C 
ATOM     41  C   UNL A   1      37.624  31.880  31.799  1.00  0.00     0.029 A 
ATOM     42  N   UNL A   1      39.502  30.689  32.027  1.00  0.00    -0.354 N 
ATOM     43  C   UNL A   1      40.916  28.111  28.856  1.00  0.00     0.074 A 
ATOM     44  C   UNL A   1      40.129  28.298  27.656  1.00  0.00     0.031 C 
ATOM     45  C   UNL A   1      38.142  32.174  33.000  1.00  0.00     0.029 A 
ATOM     46  C   UNL A   1      39.323  31.347  33.219  1.00  0.00     0.049 A 
ATOM     47  H   UNL A   1      40.276  30.109  31.840  1.00  0.00     0.167 HD
ATOM     48  C   UNL A   1      42.000  27.304  28.948  1.00  0.00     0.037 A 
ATOM     49  C   UNL A   1      39.993  31.252  34.383  1.00  0.00     0.037 A 
ATOM     50  C   UNL A   1      42.803  27.163  30.138  1.00  0.00     0.049 A 
ATOM     51  C   UNL A   1      41.151  30.300  34.480  1.00  0.00     0.074 A 
ATOM     52  C   UNL A   1      43.936  26.390  30.330  1.00  0.00     0.029 A 
ATOM     53  N   UNL A   1      42.561  27.817  31.338  1.00  0.00    -0.354 N 
ATOM     54  N   UNL A   1      41.665  29.525  33.556  1.00  0.00    -0.248 NA
ATOM     55  C   UNL A   1      41.815  30.201  35.785  1.00  0.00     0.031 C 
ATOM     56  C   UNL A   1      44.341  26.529  31.662  1.00  0.00     0.029 A 
ATOM     57  C   UNL A   1      43.505  27.442  32.283  1.00  0.00     0.049 A 
ATOM     58  H   UNL A   1      41.826  28.453  31.496  1.00  0.00     0.167 HD
ATOM     59  C   UNL A   1      42.724  28.862  34.161  1.00  0.00     0.074 A 
ATOM     60  C   UNL A   1      42.791  29.344  35.525  1.00  0.00     0.031 C 
ATOM     61  C   UNL A   1      43.562  27.935  33.635  1.00  0.00     0.037 A 
BRANCH  48  62
ATOM     62  C   UNL A   1      42.366  26.471  27.749  1.00  0.00     0.064 A 
ATOM     63  C   UNL A   1      43.353  26.866  26.835  1.00  0.00     0.173 A 
ATOM     64  C   UNL A   1      41.745  25.229  27.543  1.00  0.00     0.173 A 
ATOM     65  F   UNL A   1      43.974  28.046  26.978  1.00  0.00    -0.203 F 
ATOM     66  C   UNL A   1      43.683  26.062  25.744  1.00  0.00     0.198 A 
ATOM     67  C   UNL A   1      42.102  24.412  26.472  1.00  0.00     0.198 A 
ATOM     68  F   UNL A   1      40.800  24.794  28.390  1.00  0.00    -0.203 F 
ATOM     69  F   UNL A   1      44.597  26.483  24.858  1.00  0.00    -0.200 F 
ATOM     70  C   UNL A   1      43.066  24.833  25.569  1.00  0.00     0.200 A 
ATOM     71  F   UNL A   1      41.516  23.217  26.317  1.00  0.00    -0.200 F 
ATOM     72  F   UNL A   1      43.394  24.056  24.528  1.00  0.00    -0.200 F 
ENDBRANCH  48  62
BRANCH  49  73
ATOM     73  C   UNL A   1      39.546  32.043  35.560  1.00  0.00     0.064 A 
ATOM     74  C   UNL A   1      40.073  33.315  35.818  1.00  0.00     0.173 A 
ATOM     75  C   UNL A   1      38.578  31.547  36.447  1.00  0.00     0.173 A 
ATOM     76  F   UNL A   1      41.018  33.825  35.013  1.00  0.00    -0.203 F 
ATOM     77  C   UNL A   1      39.661  34.054  36.925  1.00  0.00     0.198 A 
ATOM     78  C   UNL A   1      38.138  32.302  37.531  1.00  0.00     0.198 A 
ATOM     79  F   UNL A   1      38.038  30.336  36.245  1.00  0.00    -0.203 F 
ATOM     80  F   UNL A   1      40.215  35.248  37.175  1.00  0.00    -0.200 F 
ATOM     81  C   UNL A   1      38.686  33.552  37.774  1.00  0.00     0.200 A 
ATOM     82  F   UNL A   1      37.180  31.821  38.335  1.00  0.00    -0.200 F 
ATOM     83  F   UNL A   1      38.280  34.269  38.831  1.00  0.00    -0.200 F 
ENDBRANCH  49  73
BRANCH  61  84
ATOM     84  C   UNL A   1      44.653  27.415  34.528  1.00  0.00     0.064 A 
ATOM     85  C   UNL A   1      45.899  28.051  34.623  1.00  0.00     0.173 A 
ATOM     86  C   UNL A   1      44.437  26.273  35.316  1.00  0.00     0.173 A 
ATOM     87  F   UNL A   1      46.162  29.136  33.877  1.00  0.00    -0.203 F 
ATOM     88  C   UNL A   1      46.900  27.547  35.448  1.00  0.00     0.198 A 
ATOM     89  C   UNL A   1      45.428  25.793  36.168  1.00  0.00     0.198 A 
ATOM     90  F   UNL A   1      43.262  25.629  35.268  1.00  0.00    -0.203 F 
ATOM     91  F   UNL A   1      48.103  28.136  35.477  1.00  0.00    -0.200 F 
ATOM     92  C   UNL A   1      46.661  26.422  36.225  1.00  0.00     0.200 A 
ATOM     93  F   UNL A   1      45.189  24.716  36.929  1.00  0.00    -0.200 F 
ATOM     94  F   UNL A   1      47.624  25.941  37.023  1.00  0.00    -0.200 F 
ENDBRANCH  61  84
ENDBRANCH  35  36
ENDBRANCH  28  30
ENDBRANCH  27  28
ENDBRANCH  26  27
ENDBRANCH   1  26
TORSDOF 17
ENDMDL
MODEL 3
REMARK VINA RESULT:     -11.8      4.385      9.759
REMARK SMILES C[C@H]1C[C@H](C)CN(S(=O)(=O)N[C@@H](CCC(N)=O)C(=O)OCCOC(=O)c2ccc(-c3c4nc(c(-c5c(F)c(F)c(F)c(F)c5F)c5ccc([nH]5)c(-c5c(F)c(F)c(F)c(F)c5F)c5nc(c(-c6c(F)c(F)c(F)c(F)c6F)c6ccc3[nH]6)C=C5)C=C4)cc2)C1
REMARK SMILES IDX 21 1 20 2 18 3 19 4 12 5 11 6 8 8 9 9 10 10 7 11 1 12 2 13
REMARK SMILES IDX 3 14 89 15 4 16 5 17 6 18 13 19 14 20 15 21 16 22 17 23
REMARK SMILES IDX 22 26 23 27 24 28 25 29 26 30 27 31 88 32 28 33 87 34 29 35
REMARK SMILES IDX 30 36 31 37 81 38 32 39 86 40 80 41 82 42 33 43 85 44 79 45
REMARK SMILES IDX 78 46 34 48 66 49 46 50 65 51 47 52 50 53 64 54 83 55 48 56
REMARK SMILES IDX 49 57 63 59 84 60 51 61 35 62 36 63 44 64 37 65 38 66 42 67
REMARK SMILES IDX 45 68 39 69 40 70 43 71 41 72 67 73 68 74 76 75 69 76 70 77
REMARK SMILES IDX 74 78 77 79 71 80 72 81 75 82 73 83 52 84 53 85 61 86 54 87
REMARK SMILES IDX 55 88 59 89 62 90 56 91 57 92 60 93 58 94
REMARK H PARENT 11 7 16 24 16 25 82 47 50 58
REMARK Flexibility Score: inf
ROOT
ATOM      1  C   UNL A   1      32.779  29.544  24.622  1.00  0.00     0.274 C 
ENDROOT
BRANCH   1   2
ATOM      2  O   UNL A   1      32.343  28.266  24.107  1.00  0.00    -0.461 OA
BRANCH   2   3
ATOM      3  C   UNL A   1      33.272  27.553  23.419  1.00  0.00     0.324 C 
ATOM      4  O   UNL A   1      33.963  28.001  22.508  1.00  0.00    -0.250 OA
BRANCH   3   5
ATOM      5  C   UNL A   1      33.349  26.087  23.840  1.00  0.00     0.181 C 
BRANCH   5   6
ATOM      6  N   UNL A   1      33.866  25.170  22.797  1.00  0.00    -0.188 NA
ATOM      7  H   UNL A   1      33.902  25.721  21.939  1.00  0.00     0.143 HD
BRANCH   6   8
ATOM      8  S   UNL A   1      33.150  23.727  22.373  1.00  0.00     0.280 S 
ATOM      9  O   UNL A   1      33.494  23.429  21.002  1.00  0.00    -0.195 OA
ATOM     10  O   UNL A   1      31.768  23.824  22.772  1.00  0.00    -0.195 OA
BRANCH   8  11
ATOM     11  N   UNL A   1      33.868  22.520  23.352  1.00  0.00    -0.188 NA
ATOM     12  C   UNL A   1      37.424  22.325  24.916  1.00  0.00     0.009 C 
ATOM     13  C   UNL A   1      36.038  21.840  24.493  1.00  0.00     0.001 C 
ATOM     14  C   UNL A   1      35.233  21.444  25.735  1.00  0.00     0.009 C 
ATOM     15  C   UNL A   1      35.296  22.903  23.669  1.00  0.00     0.106 C 
ATOM     16  C   UNL A   1      33.828  21.002  25.346  1.00  0.00     0.001 C 
ATOM     17  C   UNL A   1      33.855  19.663  24.599  1.00  0.00     0.009 C 
ATOM     18  C   UNL A   1      33.127  22.115  24.561  1.00  0.00     0.106 C 
ENDBRANCH   8  11
ENDBRANCH   6   8
ENDBRANCH   5   6
BRANCH   5  19
ATOM     19  C   UNL A   1      33.971  25.999  25.239  1.00  0.00     0.042 C 
BRANCH  19  20
ATOM     20  C   UNL A   1      33.226  25.167  26.279  1.00  0.00     0.102 C 
BRANCH  20  21
ATOM     21  C   UNL A   1      31.808  25.623  26.529  1.00  0.00     0.217 C 
ATOM     22  N   UNL A   1      31.656  26.925  26.900  1.00  0.00    -0.370 N 
ATOM     23  O   UNL A   1      30.836  24.887  26.415  1.00  0.00    -0.275 OA
ATOM     24  H   UNL A   1      32.447  27.505  26.988  1.00  0.00     0.159 HD
ATOM     25  H   UNL A   1      30.758  27.285  27.079  1.00  0.00     0.159 HD
ENDBRANCH  20  21
ENDBRANCH  19  20
ENDBRANCH   5  19
ENDBRANCH   3   5
ENDBRANCH   2   3
ENDBRANCH   1   2
BRANCH   1  26
ATOM     26  C   UNL A   1      31.828  30.076  25.696  1.00  0.00     0.275 C 
BRANCH  26  27
ATOM     27  O   UNL A   1      32.479  30.145  26.975  1.00  0.00    -0.458 OA
BRANCH  27  28
ATOM     28  C   UNL A   1      33.110  31.316  27.211  1.00  0.00     0.338 C 
ATOM     29  O   UNL A   1      32.638  32.439  27.193  1.00  0.00    -0.246 OA
BRANCH  28  30
ATOM     30  C   UNL A   1      34.484  31.048  27.642  1.00  0.00     0.060 A 
ATOM     31  C   UNL A   1      34.825  29.732  27.936  1.00  0.00     0.016 A 
ATOM     32  C   UNL A   1      35.373  32.088  27.899  1.00  0.00     0.016 A 
ATOM     33  C   UNL A   1      36.032  29.453  28.558  1.00  0.00     0.010 A 
ATOM     34  C   UNL A   1      36.607  31.797  28.492  1.00  0.00     0.010 A 
ATOM     35  C   UNL A   1      36.930  30.481  28.873  1.00  0.00    -0.014 A 
BRANCH  35  36
ATOM     36  C   UNL A   1      38.156  30.182  29.661  1.00  0.00     0.031 A 
ATOM     37  C   UNL A   1      39.230  29.294  29.087  1.00  0.00     0.074 A 
ATOM     38  C   UNL A   1      38.328  30.735  30.878  1.00  0.00     0.049 A 
ATOM     39  N   UNL A   1      40.281  28.776  29.674  1.00  0.00    -0.248 NA
ATOM     40  C   UNL A   1      39.102  28.933  27.667  1.00  0.00     0.031 C 
ATOM     41  C   UNL A   1      37.403  31.669  31.522  1.00  0.00     0.029 A 
ATOM     42  N   UNL A   1      39.342  30.590  31.793  1.00  0.00    -0.354 N 
ATOM     43  C   UNL A   1      40.903  27.985  28.714  1.00  0.00     0.074 A 
ATOM     44  C   UNL A   1      40.110  28.087  27.507  1.00  0.00     0.031 C 
ATOM     45  C   UNL A   1      37.901  32.032  32.712  1.00  0.00     0.029 A 
ATOM     46  C   UNL A   1      39.125  31.279  32.961  1.00  0.00     0.049 A 
ATOM     47  H   UNL A   1      40.147  30.047  31.627  1.00  0.00     0.167 HD
ATOM     48  C   UNL A   1      42.029  27.240  28.835  1.00  0.00     0.037 A 
ATOM     49  C   UNL A   1      39.796  31.260  34.128  1.00  0.00     0.037 A 
ATOM     50  C   UNL A   1      42.835  27.185  30.030  1.00  0.00     0.049 A 
ATOM     51  C   UNL A   1      41.004  30.376  34.259  1.00  0.00     0.074 A 
ATOM     52  C   UNL A   1      44.007  26.481  30.249  1.00  0.00     0.029 A 
ATOM     53  N   UNL A   1      42.554  27.866  31.206  1.00  0.00    -0.354 N 
ATOM     54  N   UNL A   1      41.561  29.599  33.363  1.00  0.00    -0.248 NA
ATOM     55  C   UNL A   1      41.668  30.359  35.567  1.00  0.00     0.031 C 
ATOM     56  C   UNL A   1      44.401  26.688  31.576  1.00  0.00     0.029 A 
ATOM     57  C   UNL A   1      43.515  27.576  32.164  1.00  0.00     0.049 A 
ATOM     58  H   UNL A   1      41.785  28.466  31.342  1.00  0.00     0.167 HD
ATOM     59  C   UNL A   1      42.653  29.015  33.991  1.00  0.00     0.074 A 
ATOM     60  C   UNL A   1      42.690  29.547  35.338  1.00  0.00     0.031 C 
ATOM     61  C   UNL A   1      43.541  28.118  33.499  1.00  0.00     0.037 A 
BRANCH  48  62
ATOM     62  C   UNL A   1      42.442  26.388  27.666  1.00  0.00     0.064 A 
ATOM     63  C   UNL A   1      43.426  26.794  26.753  1.00  0.00     0.173 A 
ATOM     64  C   UNL A   1      41.872  25.117  27.489  1.00  0.00     0.173 A 
ATOM     65  F   UNL A   1      43.999  28.001  26.869  1.00  0.00    -0.203 F 
ATOM     66  C   UNL A   1      43.801  25.972  25.691  1.00  0.00     0.198 A 
ATOM     67  C   UNL A   1      42.274  24.284  26.448  1.00  0.00     0.198 A 
ATOM     68  F   UNL A   1      40.933  24.671  28.337  1.00  0.00    -0.203 F 
ATOM     69  F   UNL A   1      44.710  26.401  24.803  1.00  0.00    -0.200 F 
ATOM     70  C   UNL A   1      43.233  24.715  25.544  1.00  0.00     0.200 A 
ATOM     71  F   UNL A   1      41.736  23.063  26.320  1.00  0.00    -0.200 F 
ATOM     72  F   UNL A   1      43.605  23.922  24.531  1.00  0.00    -0.200 F 
ENDBRANCH  48  62
BRANCH  49  73
ATOM     73  C   UNL A   1      39.304  32.066  35.276  1.00  0.00     0.064 A 
ATOM     74  C   UNL A   1      38.493  31.496  36.266  1.00  0.00     0.173 A 
ATOM     75  C   UNL A   1      39.641  33.423  35.412  1.00  0.00     0.173 A 
ATOM     76  F   UNL A   1      38.124  30.210  36.170  1.00  0.00    -0.203 F 
ATOM     77  C   UNL A   1      38.026  32.253  37.338  1.00  0.00     0.198 A 
ATOM     78  C   UNL A   1      39.206  34.168  36.504  1.00  0.00     0.198 A 
ATOM     79  F   UNL A   1      40.418  34.019  34.495  1.00  0.00    -0.203 F 
ATOM     80  F   UNL A   1      37.212  31.695  38.245  1.00  0.00    -0.200 F 
ATOM     81  C   UNL A   1      38.391  33.586  37.462  1.00  0.00     0.200 A 
ATOM     82  F   UNL A   1      39.580  35.449  36.630  1.00  0.00    -0.200 F 
ATOM     83  F   UNL A   1      37.952  34.309  38.501  1.00  0.00    -0.200 F 
ENDBRANCH  49  73
BRANCH  61  84
ATOM     84  C   UNL A   1      44.657  27.689  34.409  1.00  0.00     0.064 A 
ATOM     85  C   UNL A   1      44.554  26.551  35.223  1.00  0.00     0.173 A 
ATOM     86  C   UNL A   1      45.856  28.418  34.449  1.00  0.00     0.173 A 
ATOM     87  F   UNL A   1      43.422  25.830  35.234  1.00  0.00    -0.203 F 
ATOM     88  C   UNL A   1      45.595  26.177  36.067  1.00  0.00     0.198 A 
ATOM     89  C   UNL A   1      46.910  28.019  35.268  1.00  0.00     0.198 A 
ATOM     90  F   UNL A   1      46.010  29.511  33.688  1.00  0.00    -0.203 F 
ATOM     91  F   UNL A   1      45.451  25.121  36.879  1.00  0.00    -0.200 F 
ATOM     92  C   UNL A   1      46.775  26.907  36.082  1.00  0.00     0.200 A 
ATOM     93  F   UNL A   1      48.054  28.717  35.269  1.00  0.00    -0.200 F 
ATOM     94  F   UNL A   1      47.779  26.542  36.892  1.00  0.00    -0.200 F 
ENDBRANCH  61  84
ENDBRANCH  35  36
ENDBRANCH  28  30
ENDBRANCH  27  28
ENDBRANCH  26  27
ENDBRANCH   1  26
TORSDOF 17
ENDMDL
