MODEL 1
REMARK VINA RESULT:     -11.3      0.000      0.000
REMARK SMILES COc1cc([C@H]2C[C@@H](C(=O)OCCOC(=O)c3ccc(-c4c5nc(c(-c6c(F)c(F)c(F)c(F)c6F)c6ccc([nH]6)c(-c6c(F)c(F)c(F)c(F)c6F)c6nc(c(-c7c(F)c(F)c(F)c(F)c7F)c7ccc4[nH]7)C=C6)C=C5)cc3)C2)ccc1Br
REMARK SMILES IDX 12 1 11 2 9 3 10 4 8 5 6 6 7 7 80 8 5 9 3 10 4 11 83 12
REMARK SMILES IDX 82 13 84 14 81 15 2 16 1 17 13 18 14 19 15 20 16 21 17 22
REMARK SMILES IDX 18 23 79 24 19 25 78 26 20 27 21 28 22 29 72 30 23 31 77 32
REMARK SMILES IDX 71 33 73 34 24 35 76 36 70 37 69 38 25 40 57 41 37 42 56 43
REMARK SMILES IDX 38 44 41 45 55 46 74 47 39 48 40 49 54 51 75 52 42 53 26 54
REMARK SMILES IDX 27 55 35 56 28 57 29 58 33 59 36 60 30 61 31 62 34 63 32 64
REMARK SMILES IDX 58 65 59 66 67 67 60 68 61 69 65 70 68 71 62 72 63 73 66 74
REMARK SMILES IDX 64 75 43 76 44 77 52 78 45 79 46 80 50 81 53 82 47 83 48 84
REMARK SMILES IDX 51 85 49 86
REMARK H PARENT 73 39 41 50
REMARK Flexibility Score: inf
ROOT
ATOM      1  C   UNL A   1      31.552  29.201  24.457  1.00  0.00     0.274 C 
ENDROOT
BRANCH   1   2
ATOM      2  O   UNL A   1      30.867  27.965  24.733  1.00  0.00    -0.462 OA
BRANCH   2   3
ATOM      3  C   UNL A   1      31.481  26.810  24.336  1.00  0.00     0.309 C 
ATOM      4  O   UNL A   1      31.418  26.375  23.186  1.00  0.00    -0.252 OA
BRANCH   3   5
ATOM      5  C   UNL A   1      32.316  26.151  25.453  1.00  0.00     0.100 C 
ATOM      6  C   UNL A   1      33.787  24.721  26.097  1.00  0.00     0.021 C 
ATOM      7  C   UNL A   1      33.847  26.043  25.276  1.00  0.00     0.023 C 
ATOM      8  C   UNL A   1      32.309  24.611  25.631  1.00  0.00     0.023 C 
BRANCH   6   9
ATOM      9  C   UNL A   1      34.776  23.534  25.743  1.00  0.00    -0.041 A 
ATOM     10  C   UNL A   1      37.055  22.605  25.645  1.00  0.00     0.133 A 
ATOM     11  C   UNL A   1      36.168  23.649  25.942  1.00  0.00     0.051 A 
ATOM     12  C   UNL A   1      36.563  21.390  25.170  1.00  0.00     0.060 A 
ATOM     13  C   UNL A   1      35.195  21.245  24.953  1.00  0.00     0.020 A 
ATOM     14  Br  UNL A   1      37.672  19.885  24.856  1.00  0.00    -0.047 Br
ATOM     15  C   UNL A   1      34.323  22.301  25.236  1.00  0.00     0.005 A 
BRANCH  10  16
ATOM     16  O   UNL A   1      38.376  22.824  25.935  1.00  0.00    -0.496 OA
ATOM     17  C   UNL A   1      38.579  24.093  26.557  1.00  0.00     0.278 C 
ENDBRANCH  10  16
ENDBRANCH   6   9
ENDBRANCH   3   5
ENDBRANCH   2   3
ENDBRANCH   1   2
BRANCH   1  18
ATOM     18  C   UNL A   1      31.756  30.013  25.741  1.00  0.00     0.275 C 
BRANCH  18  19
ATOM     19  O   UNL A   1      33.145  30.330  25.955  1.00  0.00    -0.458 OA
BRANCH  19  20
ATOM     20  C   UNL A   1      33.375  31.264  26.908  1.00  0.00     0.338 C 
ATOM     21  O   UNL A   1      32.618  32.142  27.286  1.00  0.00    -0.246 OA
BRANCH  20  22
ATOM     22  C   UNL A   1      34.658  30.991  27.573  1.00  0.00     0.060 A 
ATOM     23  C   UNL A   1      34.918  29.673  27.953  1.00  0.00     0.016 A 
ATOM     24  C   UNL A   1      35.553  32.011  27.900  1.00  0.00     0.016 A 
ATOM     25  C   UNL A   1      36.075  29.360  28.658  1.00  0.00     0.010 A 
ATOM     26  C   UNL A   1      36.715  31.697  28.617  1.00  0.00     0.010 A 
ATOM     27  C   UNL A   1      36.976  30.372  29.008  1.00  0.00    -0.014 A 
BRANCH  27  28
ATOM     28  C   UNL A   1      38.156  30.032  29.836  1.00  0.00     0.031 A 
ATOM     29  C   UNL A   1      39.216  29.121  29.288  1.00  0.00     0.074 A 
ATOM     30  C   UNL A   1      38.301  30.584  31.054  1.00  0.00     0.049 A 
ATOM     31  N   UNL A   1      40.296  28.663  29.868  1.00  0.00    -0.248 NA
ATOM     32  C   UNL A   1      39.037  28.669  27.901  1.00  0.00     0.031 C 
ATOM     33  C   UNL A   1      37.367  31.528  31.667  1.00  0.00     0.029 A 
ATOM     34  N   UNL A   1      39.292  30.434  31.991  1.00  0.00    -0.354 N 
ATOM     35  C   UNL A   1      40.914  27.853  28.926  1.00  0.00     0.074 A 
ATOM     36  C   UNL A   1      40.085  27.873  27.739  1.00  0.00     0.031 C 
ATOM     37  C   UNL A   1      37.833  31.879  32.877  1.00  0.00     0.029 A 
ATOM     38  C   UNL A   1      39.072  31.151  33.141  1.00  0.00     0.049 A 
ATOM     39  H   UNL A   1      40.086  29.868  31.851  1.00  0.00     0.167 HD
ATOM     40  C   UNL A   1      42.071  27.159  29.043  1.00  0.00     0.037 A 
ATOM     41  C   UNL A   1      39.778  31.194  34.287  1.00  0.00     0.037 A 
ATOM     42  C   UNL A   1      42.903  27.156  30.218  1.00  0.00     0.049 A 
ATOM     43  C   UNL A   1      41.031  30.370  34.410  1.00  0.00     0.074 A 
ATOM     44  C   UNL A   1      44.095  26.489  30.432  1.00  0.00     0.029 A 
ATOM     45  N   UNL A   1      42.626  27.862  31.380  1.00  0.00    -0.354 N 
ATOM     46  N   UNL A   1      41.599  29.591  33.521  1.00  0.00    -0.248 NA
ATOM     47  C   UNL A   1      41.735  30.424  35.699  1.00  0.00     0.031 C 
ATOM     48  C   UNL A   1      44.522  26.762  31.737  1.00  0.00     0.029 A 
ATOM     49  C   UNL A   1      43.617  27.632  32.321  1.00  0.00     0.049 A 
ATOM     50  H   UNL A   1      41.841  28.442  31.516  1.00  0.00     0.167 HD
ATOM     51  C   UNL A   1      42.732  29.077  34.136  1.00  0.00     0.074 A 
ATOM     52  C   UNL A   1      42.782  29.644  35.467  1.00  0.00     0.031 C 
ATOM     53  C   UNL A   1      43.649  28.208  33.641  1.00  0.00     0.037 A 
BRANCH  40  54
ATOM     54  C   UNL A   1      42.490  26.314  27.877  1.00  0.00     0.064 A 
ATOM     55  C   UNL A   1      42.047  24.992  27.726  1.00  0.00     0.173 A 
ATOM     56  C   UNL A   1      43.322  26.847  26.882  1.00  0.00     0.173 A 
ATOM     57  F   UNL A   1      41.261  24.432  28.659  1.00  0.00    -0.203 F 
ATOM     58  C   UNL A   1      42.441  24.227  26.631  1.00  0.00     0.198 A 
ATOM     59  C   UNL A   1      43.695  26.088  25.777  1.00  0.00     0.198 A 
ATOM     60  F   UNL A   1      43.771  28.108  26.980  1.00  0.00    -0.203 F 
ATOM     61  F   UNL A   1      42.039  22.953  26.526  1.00  0.00    -0.200 F 
ATOM     62  C   UNL A   1      43.259  24.777  25.655  1.00  0.00     0.200 A 
ATOM     63  F   UNL A   1      44.478  26.624  24.831  1.00  0.00    -0.200 F 
ATOM     64  F   UNL A   1      43.634  24.042  24.599  1.00  0.00    -0.200 F 
ENDBRANCH  40  54
BRANCH  41  65
ATOM     65  C   UNL A   1      39.301  32.032  35.416  1.00  0.00     0.064 A 
ATOM     66  C   UNL A   1      38.497  31.491  36.428  1.00  0.00     0.173 A 
ATOM     67  C   UNL A   1      39.642  33.389  35.505  1.00  0.00     0.173 A 
ATOM     68  F   UNL A   1      38.124  30.205  36.372  1.00  0.00    -0.203 F 
ATOM     69  C   UNL A   1      38.042  32.281  37.483  1.00  0.00     0.198 A 
ATOM     70  C   UNL A   1      39.208  34.171  36.573  1.00  0.00     0.198 A 
ATOM     71  F   UNL A   1      40.407  33.953  34.559  1.00  0.00    -0.203 F 
ATOM     72  F   UNL A   1      37.242  31.750  38.417  1.00  0.00    -0.200 F 
ATOM     73  C   UNL A   1      38.404  33.618  37.557  1.00  0.00     0.200 A 
ATOM     74  F   UNL A   1      39.568  35.460  36.647  1.00  0.00    -0.200 F 
ATOM     75  F   UNL A   1      37.970  34.376  38.574  1.00  0.00    -0.200 F 
ENDBRANCH  41  65
BRANCH  53  76
ATOM     76  C   UNL A   1      44.792  27.838  34.537  1.00  0.00     0.064 A 
ATOM     77  C   UNL A   1      45.962  28.608  34.588  1.00  0.00     0.173 A 
ATOM     78  C   UNL A   1      44.700  26.720  35.382  1.00  0.00     0.173 A 
ATOM     79  F   UNL A   1      46.102  29.677  33.788  1.00  0.00    -0.203 F 
ATOM     80  C   UNL A   1      47.009  28.262  35.438  1.00  0.00     0.198 A 
ATOM     81  C   UNL A   1      45.739  26.392  36.246  1.00  0.00     0.198 A 
ATOM     82  F   UNL A   1      43.599  25.955  35.373  1.00  0.00    -0.203 F 
ATOM     83  F   UNL A   1      48.135  28.989  35.441  1.00  0.00    -0.200 F 
ATOM     84  C   UNL A   1      46.894  27.158  36.270  1.00  0.00     0.200 A 
ATOM     85  F   UNL A   1      45.624  25.330  37.057  1.00  0.00    -0.200 F 
ATOM     86  F   UNL A   1      47.902  26.829  37.091  1.00  0.00    -0.200 F 
ENDBRANCH  53  76
ENDBRANCH  27  28
ENDBRANCH  20  22
ENDBRANCH  19  20
ENDBRANCH  18  19
ENDBRANCH   1  18
TORSDOF 13
ENDMDL
MODEL 2
REMARK VINA RESULT:     -11.2      3.287      8.798
REMARK SMILES COc1cc([C@H]2C[C@@H](C(=O)OCCOC(=O)c3ccc(-c4c5nc(c(-c6c(F)c(F)c(F)c(F)c6F)c6ccc([nH]6)c(-c6c(F)c(F)c(F)c(F)c6F)c6nc(c(-c7c(F)c(F)c(F)c(F)c7F)c7ccc4[nH]7)C=C6)C=C5)cc3)C2)ccc1Br
REMARK SMILES IDX 12 1 11 2 9 3 10 4 8 5 6 6 7 7 80 8 5 9 3 10 4 11 83 12
REMARK SMILES IDX 82 13 84 14 81 15 2 16 1 17 13 18 14 19 15 20 16 21 17 22
REMARK SMILES IDX 18 23 79 24 19 25 78 26 20 27 21 28 22 29 72 30 23 31 77 32
REMARK SMILES IDX 71 33 73 34 24 35 76 36 70 37 69 38 25 40 57 41 37 42 56 43
REMARK SMILES IDX 38 44 41 45 55 46 74 47 39 48 40 49 54 51 75 52 42 53 26 54
REMARK SMILES IDX 27 55 35 56 28 57 29 58 33 59 36 60 30 61 31 62 34 63 32 64
REMARK SMILES IDX 58 65 59 66 67 67 60 68 61 69 65 70 68 71 62 72 63 73 66 74
REMARK SMILES IDX 64 75 43 76 44 77 52 78 45 79 46 80 50 81 53 82 47 83 48 84
REMARK SMILES IDX 51 85 49 86
REMARK H PARENT 73 39 41 50
REMARK Flexibility Score: inf
ROOT
ATOM      1  C   UNL A   1      45.577  21.053  24.807  1.00  0.00     0.274 C 
ENDROOT
BRANCH   1   2
ATOM      2  O   UNL A   1      44.310  20.422  24.540  1.00  0.00    -0.462 OA
BRANCH   2   3
ATOM      3  C   UNL A   1      44.017  19.289  25.245  1.00  0.00     0.309 C 
ATOM      4  O   UNL A   1      44.691  18.260  25.178  1.00  0.00    -0.252 OA
BRANCH   3   5
ATOM      5  C   UNL A   1      42.804  19.454  26.185  1.00  0.00     0.100 C 
ATOM      6  C   UNL A   1      40.794  20.122  26.550  1.00  0.00     0.021 C 
ATOM      7  C   UNL A   1      41.418  18.971  25.706  1.00  0.00     0.023 C 
ATOM      8  C   UNL A   1      42.159  20.848  26.392  1.00  0.00     0.023 C 
BRANCH   6   9
ATOM      9  C   UNL A   1      39.490  20.856  26.029  1.00  0.00    -0.041 A 
ATOM     10  C   UNL A   1      38.084  22.874  25.882  1.00  0.00     0.133 A 
ATOM     11  C   UNL A   1      39.227  22.206  26.344  1.00  0.00     0.051 A 
ATOM     12  C   UNL A   1      37.182  22.212  25.052  1.00  0.00     0.060 A 
ATOM     13  C   UNL A   1      37.405  20.876  24.728  1.00  0.00     0.020 A 
ATOM     14  Br  UNL A   1      35.675  23.066  24.282  1.00  0.00    -0.047 Br
ATOM     15  C   UNL A   1      38.540  20.216  25.211  1.00  0.00     0.005 A 
BRANCH  10  16
ATOM     16  O   UNL A   1      37.974  24.198  26.213  1.00  0.00    -0.496 OA
ATOM     17  C   UNL A   1      39.113  24.660  26.942  1.00  0.00     0.278 C 
ENDBRANCH  10  16
ENDBRANCH   6   9
ENDBRANCH   3   5
ENDBRANCH   2   3
ENDBRANCH   1   2
BRANCH   1  18
ATOM     18  C   UNL A   1      45.432  22.143  25.874  1.00  0.00     0.275 C 
BRANCH  18  19
ATOM     19  O   UNL A   1      45.275  23.448  25.283  1.00  0.00    -0.458 OA
BRANCH  19  20
ATOM     20  C   UNL A   1      43.996  23.883  25.196  1.00  0.00     0.338 C 
ATOM     21  O   UNL A   1      43.145  23.533  24.396  1.00  0.00    -0.246 OA
BRANCH  20  22
ATOM     22  C   UNL A   1      43.692  24.766  26.333  1.00  0.00     0.060 A 
ATOM     23  C   UNL A   1      42.838  24.272  27.321  1.00  0.00     0.016 A 
ATOM     24  C   UNL A   1      44.160  26.079  26.394  1.00  0.00     0.016 A 
ATOM     25  C   UNL A   1      42.445  25.083  28.379  1.00  0.00     0.010 A 
ATOM     26  C   UNL A   1      43.758  26.900  27.456  1.00  0.00     0.010 A 
ATOM     27  C   UNL A   1      42.891  26.408  28.448  1.00  0.00    -0.014 A 
BRANCH  27  28
ATOM     28  C   UNL A   1      42.390  27.282  29.534  1.00  0.00     0.031 A 
ATOM     29  C   UNL A   1      43.146  27.374  30.827  1.00  0.00     0.074 A 
ATOM     30  C   UNL A   1      41.291  28.031  29.337  1.00  0.00     0.049 A 
ATOM     31  N   UNL A   1      42.850  28.039  31.915  1.00  0.00    -0.248 NA
ATOM     32  C   UNL A   1      44.405  26.620  30.905  1.00  0.00     0.031 C 
ATOM     33  C   UNL A   1      40.508  28.070  28.103  1.00  0.00     0.029 A 
ATOM     34  N   UNL A   1      40.647  28.910  30.172  1.00  0.00    -0.354 N 
ATOM     35  C   UNL A   1      43.873  27.768  32.813  1.00  0.00     0.074 A 
ATOM     36  C   UNL A   1      44.793  26.870  32.148  1.00  0.00     0.031 C 
ATOM     37  C   UNL A   1      39.490  28.933  28.258  1.00  0.00     0.029 A 
ATOM     38  C   UNL A   1      39.525  29.472  29.616  1.00  0.00     0.049 A 
ATOM     39  H   UNL A   1      40.959  29.117  31.083  1.00  0.00     0.167 HD
ATOM     40  C   UNL A   1      44.028  28.231  34.077  1.00  0.00     0.037 A 
ATOM     41  C   UNL A   1      38.615  30.308  30.151  1.00  0.00     0.037 A 
ATOM     42  C   UNL A   1      43.121  29.139  34.727  1.00  0.00     0.049 A 
ATOM     43  C   UNL A   1      38.782  30.763  31.575  1.00  0.00     0.074 A 
ATOM     44  C   UNL A   1      43.194  29.668  36.003  1.00  0.00     0.029 A 
ATOM     45  N   UNL A   1      41.972  29.655  34.146  1.00  0.00    -0.354 N 
ATOM     46  N   UNL A   1      39.742  30.486  32.424  1.00  0.00    -0.248 NA
ATOM     47  C   UNL A   1      37.734  31.640  32.117  1.00  0.00     0.031 C 
ATOM     48  C   UNL A   1      42.070  30.477  36.207  1.00  0.00     0.029 A 
ATOM     49  C   UNL A   1      41.318  30.484  35.044  1.00  0.00     0.049 A 
ATOM     50  H   UNL A   1      41.666  29.462  33.230  1.00  0.00     0.167 HD
ATOM     51  C   UNL A   1      39.424  31.165  33.592  1.00  0.00     0.074 A 
ATOM     52  C   UNL A   1      38.191  31.880  33.339  1.00  0.00     0.031 C 
ATOM     53  C   UNL A   1      40.093  31.189  34.771  1.00  0.00     0.037 A 
BRANCH  40  54
ATOM     54  C   UNL A   1      45.211  27.733  34.853  1.00  0.00     0.064 A 
ATOM     55  C   UNL A   1      45.140  26.582  35.650  1.00  0.00     0.173 A 
ATOM     56  C   UNL A   1      46.440  28.403  34.772  1.00  0.00     0.173 A 
ATOM     57  F   UNL A   1      43.982  25.915  35.771  1.00  0.00    -0.203 F 
ATOM     58  C   UNL A   1      46.252  26.132  36.356  1.00  0.00     0.198 A 
ATOM     59  C   UNL A   1      47.557  27.937  35.460  1.00  0.00     0.198 A 
ATOM     60  F   UNL A   1      46.561  29.508  34.020  1.00  0.00    -0.203 F 
ATOM     61  F   UNL A   1      46.153  25.053  37.144  1.00  0.00    -0.200 F 
ATOM     62  C   UNL A   1      47.461  26.806  36.256  1.00  0.00     0.200 A 
ATOM     63  F   UNL A   1      48.725  28.584  35.355  1.00  0.00    -0.200 F 
ATOM     64  F   UNL A   1      48.532  26.369  36.932  1.00  0.00    -0.200 F 
ENDBRANCH  40  54
BRANCH  41  65
ATOM     65  C   UNL A   1      37.451  30.749  29.340  1.00  0.00     0.064 A 
ATOM     66  C   UNL A   1      36.390  29.876  29.063  1.00  0.00     0.173 A 
ATOM     67  C   UNL A   1      37.379  32.052  28.827  1.00  0.00     0.173 A 
ATOM     68  F   UNL A   1      36.428  28.613  29.511  1.00  0.00    -0.203 F 
ATOM     69  C   UNL A   1      35.303  30.288  28.295  1.00  0.00     0.198 A 
ATOM     70  C   UNL A   1      36.279  32.470  28.080  1.00  0.00     0.198 A 
ATOM     71  F   UNL A   1      38.371  32.923  29.060  1.00  0.00    -0.203 F 
ATOM     72  F   UNL A   1      34.320  29.424  28.012  1.00  0.00    -0.200 F 
ATOM     73  C   UNL A   1      35.246  31.586  27.809  1.00  0.00     0.200 A 
ATOM     74  F   UNL A   1      36.224  33.728  27.621  1.00  0.00    -0.200 F 
ATOM     75  F   UNL A   1      34.198  31.984  27.074  1.00  0.00    -0.200 F 
ENDBRANCH  41  65
BRANCH  53  76
ATOM     76  C   UNL A   1      39.515  32.034  35.867  1.00  0.00     0.064 A 
ATOM     77  C   UNL A   1      38.535  31.536  36.737  1.00  0.00     0.173 A 
ATOM     78  C   UNL A   1      39.974  33.345  36.071  1.00  0.00     0.173 A 
ATOM     79  F   UNL A   1      38.053  30.294  36.570  1.00  0.00    -0.203 F 
ATOM     80  C   UNL A   1      38.019  32.326  37.760  1.00  0.00     0.198 A 
ATOM     81  C   UNL A   1      39.473  34.123  37.110  1.00  0.00     0.198 A 
ATOM     82  F   UNL A   1      40.914  33.864  35.269  1.00  0.00    -0.203 F 
ATOM     83  F   UNL A   1      37.054  31.845  38.555  1.00  0.00    -0.200 F 
ATOM     84  C   UNL A   1      38.493  33.616  37.950  1.00  0.00     0.200 A 
ATOM     85  F   UNL A   1      39.939  35.366  37.299  1.00  0.00    -0.200 F 
ATOM     86  F   UNL A   1      37.999  34.374  38.939  1.00  0.00    -0.200 F 
ENDBRANCH  53  76
ENDBRANCH  27  28
ENDBRANCH  20  22
ENDBRANCH  19  20
ENDBRANCH  18  19
ENDBRANCH   1  18
TORSDOF 13
ENDMDL
MODEL 3
REMARK VINA RESULT:     -11.2      4.480      7.729
REMARK SMILES COc1cc([C@H]2C[C@@H](C(=O)OCCOC(=O)c3ccc(-c4c5nc(c(-c6c(F)c(F)c(F)c(F)c6F)c6ccc([nH]6)c(-c6c(F)c(F)c(F)c(F)c6F)c6nc(c(-c7c(F)c(F)c(F)c(F)c7F)c7ccc4[nH]7)C=C6)C=C5)cc3)C2)ccc1Br
REMARK SMILES IDX 12 1 11 2 9 3 10 4 8 5 6 6 7 7 80 8 5 9 3 10 4 11 83 12
REMARK SMILES IDX 82 13 84 14 81 15 2 16 1 17 13 18 14 19 15 20 16 21 17 22
REMARK SMILES IDX 18 23 79 24 19 25 78 26 20 27 21 28 22 29 72 30 23 31 77 32
REMARK SMILES IDX 71 33 73 34 24 35 76 36 70 37 69 38 25 40 57 41 37 42 56 43
REMARK SMILES IDX 38 44 41 45 55 46 74 47 39 48 40 49 54 51 75 52 42 53 26 54
REMARK SMILES IDX 27 55 35 56 28 57 29 58 33 59 36 60 30 61 31 62 34 63 32 64
REMARK SMILES IDX 58 65 59 66 67 67 60 68 61 69 65 70 68 71 62 72 63 73 66 74
REMARK SMILES IDX 64 75 43 76 44 77 52 78 45 79 46 80 50 81 53 82 47 83 48 84
REMARK SMILES IDX 51 85 49 86
REMARK H PARENT 73 39 41 50
REMARK Flexibility Score: inf
ROOT
ATOM      1  C   UNL A   1      37.992  20.504  24.988  1.00  0.00     0.274 C 
ENDROOT
BRANCH   1   2
ATOM      2  O   UNL A   1      36.696  19.876  25.032  1.00  0.00    -0.462 OA
BRANCH   2   3
ATOM      3  C   UNL A   1      35.605  20.696  24.986  1.00  0.00     0.309 C 
ATOM      4  O   UNL A   1      34.446  20.279  25.010  1.00  0.00    -0.252 OA
BRANCH   3   5
ATOM      5  C   UNL A   1      35.970  22.196  24.976  1.00  0.00     0.100 C 
ATOM      6  C   UNL A   1      35.398  24.263  24.837  1.00  0.00     0.021 C 
ATOM      7  C   UNL A   1      35.209  23.156  25.916  1.00  0.00     0.023 C 
ATOM      8  C   UNL A   1      35.513  23.105  23.807  1.00  0.00     0.023 C 
BRANCH   6   9
ATOM      9  C   UNL A   1      34.262  25.347  24.622  1.00  0.00    -0.041 A 
ATOM     10  C   UNL A   1      32.641  26.487  23.158  1.00  0.00     0.133 A 
ATOM     11  C   UNL A   1      33.654  25.540  23.363  1.00  0.00     0.051 A 
ATOM     12  C   UNL A   1      32.177  27.249  24.229  1.00  0.00     0.060 A 
ATOM     13  C   UNL A   1      32.760  27.091  25.484  1.00  0.00     0.020 A 
ATOM     14  Br  UNL A   1      30.731  28.465  24.075  1.00  0.00    -0.047 Br
ATOM     15  C   UNL A   1      33.783  26.156  25.670  1.00  0.00     0.005 A 
BRANCH  10  16
ATOM     16  O   UNL A   1      32.096  26.537  21.903  1.00  0.00    -0.496 OA
ATOM     17  C   UNL A   1      32.673  25.561  21.034  1.00  0.00     0.278 C 
ENDBRANCH  10  16
ENDBRANCH   6   9
ENDBRANCH   3   5
ENDBRANCH   2   3
ENDBRANCH   1   2
BRANCH   1  18
ATOM     18  C   UNL A   1      39.052  19.621  25.655  1.00  0.00     0.275 C 
BRANCH  18  19
ATOM     19  O   UNL A   1      40.292  20.330  25.846  1.00  0.00    -0.458 OA
BRANCH  19  20
ATOM     20  C   UNL A   1      40.701  20.422  27.133  1.00  0.00     0.338 C 
ATOM     21  O   UNL A   1      40.894  19.509  27.919  1.00  0.00    -0.246 OA
BRANCH  20  22
ATOM     22  C   UNL A   1      41.048  21.817  27.447  1.00  0.00     0.060 A 
ATOM     23  C   UNL A   1      40.567  22.807  26.589  1.00  0.00     0.016 A 
ATOM     24  C   UNL A   1      41.896  22.147  28.505  1.00  0.00     0.016 A 
ATOM     25  C   UNL A   1      40.924  24.137  26.780  1.00  0.00     0.010 A 
ATOM     26  C   UNL A   1      42.263  23.486  28.693  1.00  0.00     0.010 A 
ATOM     27  C   UNL A   1      41.786  24.485  27.826  1.00  0.00    -0.014 A 
BRANCH  27  28
ATOM     28  C   UNL A   1      42.227  25.894  27.959  1.00  0.00     0.031 A 
ATOM     29  C   UNL A   1      43.529  26.329  27.352  1.00  0.00     0.074 A 
ATOM     30  C   UNL A   1      41.433  26.789  28.573  1.00  0.00     0.049 A 
ATOM     31  N   UNL A   1      44.115  27.498  27.399  1.00  0.00    -0.248 NA
ATOM     32  C   UNL A   1      44.267  25.313  26.588  1.00  0.00     0.031 C 
ATOM     33  C   UNL A   1      40.121  26.495  29.149  1.00  0.00     0.029 A 
ATOM     34  N   UNL A   1      41.613  28.129  28.811  1.00  0.00    -0.354 N 
ATOM     35  C   UNL A   1      45.299  27.354  26.690  1.00  0.00     0.074 A 
ATOM     36  C   UNL A   1      45.355  25.982  26.232  1.00  0.00     0.031 C 
ATOM     37  C   UNL A   1      39.610  27.624  29.668  1.00  0.00     0.029 A 
ATOM     38  C   UNL A   1      40.577  28.707  29.501  1.00  0.00     0.049 A 
ATOM     39  H   UNL A   1      42.408  28.627  28.513  1.00  0.00     0.167 HD
ATOM     40  C   UNL A   1      46.251  28.286  26.444  1.00  0.00     0.037 A 
ATOM     41  C   UNL A   1      40.438  29.962  29.969  1.00  0.00     0.037 A 
ATOM     42  C   UNL A   1      46.183  29.654  26.885  1.00  0.00     0.049 A 
ATOM     43  C   UNL A   1      41.535  30.962  29.728  1.00  0.00     0.074 A 
ATOM     44  C   UNL A   1      47.095  30.675  26.682  1.00  0.00     0.029 A 
ATOM     45  N   UNL A   1      45.137  30.194  27.619  1.00  0.00    -0.354 N 
ATOM     46  N   UNL A   1      42.661  30.813  29.074  1.00  0.00    -0.248 NA
ATOM     47  C   UNL A   1      41.345  32.303  30.299  1.00  0.00     0.031 C 
ATOM     48  C   UNL A   1      46.617  31.823  27.324  1.00  0.00     0.029 A 
ATOM     49  C   UNL A   1      45.389  31.529  27.892  1.00  0.00     0.049 A 
ATOM     50  H   UNL A   1      44.333  29.701  27.904  1.00  0.00     0.167 HD
ATOM     51  C   UNL A   1      43.306  32.040  29.141  1.00  0.00     0.074 A 
ATOM     52  C   UNL A   1      42.438  32.929  29.885  1.00  0.00     0.031 C 
ATOM     53  C   UNL A   1      44.511  32.397  28.633  1.00  0.00     0.037 A 
BRANCH  40  54
ATOM     54  C   UNL A   1      47.469  27.845  25.687  1.00  0.00     0.064 A 
ATOM     55  C   UNL A   1      48.650  27.472  26.343  1.00  0.00     0.173 A 
ATOM     56  C   UNL A   1      47.439  27.767  24.287  1.00  0.00     0.173 A 
ATOM     57  F   UNL A   1      48.733  27.543  27.680  1.00  0.00    -0.203 F 
ATOM     58  C   UNL A   1      49.767  27.057  25.621  1.00  0.00     0.198 A 
ATOM     59  C   UNL A   1      48.549  27.329  23.570  1.00  0.00     0.198 A 
ATOM     60  F   UNL A   1      46.330  28.110  23.613  1.00  0.00    -0.203 F 
ATOM     61  F   UNL A   1      50.900  26.743  26.264  1.00  0.00    -0.200 F 
ATOM     62  C   UNL A   1      49.714  26.980  24.237  1.00  0.00     0.200 A 
ATOM     63  F   UNL A   1      48.492  27.248  22.234  1.00  0.00    -0.200 F 
ATOM     64  F   UNL A   1      50.788  26.577  23.544  1.00  0.00    -0.200 F 
ENDBRANCH  40  54
BRANCH  41  65
ATOM     65  C   UNL A   1      39.219  30.334  30.732  1.00  0.00     0.064 A 
ATOM     66  C   UNL A   1      38.107  30.893  30.089  1.00  0.00     0.173 A 
ATOM     67  C   UNL A   1      39.144  30.137  32.118  1.00  0.00     0.173 A 
ATOM     68  F   UNL A   1      38.142  31.124  28.769  1.00  0.00    -0.203 F 
ATOM     69  C   UNL A   1      36.967  31.251  30.807  1.00  0.00     0.198 A 
ATOM     70  C   UNL A   1      37.995  30.471  32.831  1.00  0.00     0.198 A 
ATOM     71  F   UNL A   1      40.184  29.609  32.779  1.00  0.00    -0.203 F 
ATOM     72  F   UNL A   1      35.931  31.819  30.176  1.00  0.00    -0.200 F 
ATOM     73  C   UNL A   1      36.910  31.033  32.176  1.00  0.00     0.200 A 
ATOM     74  F   UNL A   1      37.940  30.250  34.152  1.00  0.00    -0.200 F 
ATOM     75  F   UNL A   1      35.812  31.372  32.865  1.00  0.00    -0.200 F 
ENDBRANCH  41  65
BRANCH  53  76
ATOM     76  C   UNL A   1      44.950  33.815  28.848  1.00  0.00     0.064 A 
ATOM     77  C   UNL A   1      44.577  34.839  27.965  1.00  0.00     0.173 A 
ATOM     78  C   UNL A   1      45.720  34.159  29.969  1.00  0.00     0.173 A 
ATOM     79  F   UNL A   1      43.854  34.556  26.870  1.00  0.00    -0.203 F 
ATOM     80  C   UNL A   1      44.978  36.153  28.187  1.00  0.00     0.198 A 
ATOM     81  C   UNL A   1      46.098  35.478  30.199  1.00  0.00     0.198 A 
ATOM     82  F   UNL A   1      46.097  33.215  30.845  1.00  0.00    -0.203 F 
ATOM     83  F   UNL A   1      44.645  37.110  27.309  1.00  0.00    -0.200 F 
ATOM     84  C   UNL A   1      45.732  36.473  29.306  1.00  0.00     0.200 A 
ATOM     85  F   UNL A   1      46.819  35.787  31.287  1.00  0.00    -0.200 F 
ATOM     86  F   UNL A   1      46.113  37.741  29.520  1.00  0.00    -0.200 F 
ENDBRANCH  53  76
ENDBRANCH  27  28
ENDBRANCH  20  22
ENDBRANCH  19  20
ENDBRANCH  18  19
ENDBRANCH   1  18
TORSDOF 13
ENDMDL
