MODEL 1
REMARK VINA RESULT:     -13.6      0.000      0.000
REMARK SMILES CC1(C)S[C@H]2[C@H](NC(=O)[C@H](NN3CCNC3=O)c3ccccc3)C(=O)N2[C@H]1C(=O)OCCOC(=O)c1ccc(-c2c3nc(c(-c4c(F)c(F)c(F)c(F)c4F)c4ccc([nH]4)c(-c4c(F)c(F)c(F)c(F)c4F)c4nc(c(-c5c(F)c(F)c(F)c(F)c5F)c5ccc2[nH]5)C=C4)C=C3)cc1
REMARK SMILES IDX 31 1 30 2 28 3 29 4 27 5 1 6 2 7 3 8 4 9 5 10 26 11 6 12
REMARK SMILES IDX 24 13 25 14 7 15 8 16 9 18 10 19 18 20 19 21 23 22 20 23
REMARK SMILES IDX 22 24 21 25 11 26 12 28 13 29 16 30 14 31 15 32 17 33 32 35
REMARK SMILES IDX 33 36 34 37 35 38 36 39 37 40 98 41 38 42 97 43 39 44 40 45
REMARK SMILES IDX 41 46 91 47 42 48 96 49 90 50 92 51 43 52 95 53 89 54 88 55
REMARK SMILES IDX 44 57 76 58 56 59 75 60 57 61 60 62 74 63 93 64 58 65 59 66
REMARK SMILES IDX 73 68 94 69 61 70 45 71 46 72 54 73 47 74 48 75 52 76 55 77
REMARK SMILES IDX 49 78 50 79 53 80 51 81 77 82 78 83 86 84 79 85 80 86 84 87
REMARK SMILES IDX 87 88 81 89 82 90 85 91 83 92 62 93 63 94 71 95 64 96 65 97
REMARK SMILES IDX 69 98 72 99 66 100 67 101 70 102 68 103
REMARK H PARENT 7 17 11 27 15 34 92 56 60 67
REMARK Flexibility Score: inf
ROOT
ATOM      1  C   UNL A   1      31.313  29.304  24.604  1.00  0.00     0.274 C 
ENDROOT
BRANCH   1   2
ATOM      2  O   UNL A   1      31.512  28.275  23.613  1.00  0.00    -0.460 OA
BRANCH   2   3
ATOM      3  C   UNL A   1      30.530  27.345  23.525  1.00  0.00     0.330 C 
ATOM      4  O   UNL A   1      29.360  27.539  23.847  1.00  0.00    -0.250 OA
BRANCH   3   5
ATOM      5  C   UNL A   1      31.021  25.956  23.077  1.00  0.00     0.212 C 
ATOM      6  C   UNL A   1      32.519  25.917  20.972  1.00  0.00     0.026 C 
ATOM      7  C   UNL A   1      32.422  25.687  22.485  1.00  0.00     0.044 C 
ATOM      8  C   UNL A   1      33.588  26.398  23.172  1.00  0.00     0.026 C 
ATOM      9  S   UNL A   1      32.614  23.826  22.691  1.00  0.00    -0.125 SA
ATOM     10  C   UNL A   1      31.408  23.702  24.086  1.00  0.00     0.176 C 
ATOM     11  N   UNL A   1      30.806  25.033  24.174  1.00  0.00    -0.311 N 
ATOM     12  C   UNL A   1      32.089  23.972  25.435  1.00  0.00     0.205 C 
ATOM     13  C   UNL A   1      31.305  25.304  25.413  1.00  0.00     0.250 C 
ATOM     14  O   UNL A   1      31.245  26.292  26.091  1.00  0.00    -0.272 OA
BRANCH  12  15
ATOM     15  N   UNL A   1      31.781  23.191  26.642  1.00  0.00    -0.340 N 
ATOM     16  C   UNL A   1      32.729  22.328  27.163  1.00  0.00     0.244 C 
ATOM     17  H   UNL A   1      30.903  23.281  27.079  1.00  0.00     0.164 HD
ATOM     18  O   UNL A   1      32.864  22.334  28.389  1.00  0.00    -0.273 OA
BRANCH  16  19
ATOM     19  C   UNL A   1      33.536  21.421  26.171  1.00  0.00     0.194 C 
BRANCH  19  20
ATOM     20  C   UNL A   1      34.988  21.872  26.018  1.00  0.00    -0.020 A 
ATOM     21  C   UNL A   1      35.936  20.981  25.478  1.00  0.00     0.006 A 
ATOM     22  C   UNL A   1      35.434  23.163  26.305  1.00  0.00     0.006 A 
ATOM     23  C   UNL A   1      37.234  21.381  25.152  1.00  0.00     0.000 A 
ATOM     24  C   UNL A   1      36.756  23.551  26.053  1.00  0.00     0.000 A 
ATOM     25  C   UNL A   1      37.648  22.671  25.447  1.00  0.00     0.000 A 
ENDBRANCH  19  20
BRANCH  19  26
ATOM     26  N   UNL A   1      33.276  19.963  26.380  1.00  0.00    -0.213 NA
ATOM     27  H   UNL A   1      32.508  19.871  27.045  1.00  0.00     0.149 HD
BRANCH  26  28
ATOM     28  N   UNL A   1      32.941  19.247  25.233  1.00  0.00    -0.257 N 
ATOM     29  C   UNL A   1      32.978  19.764  23.884  1.00  0.00     0.163 C 
ATOM     30  C   UNL A   1      32.681  17.864  25.204  1.00  0.00     0.331 C 
ATOM     31  C   UNL A   1      32.040  18.796  23.172  1.00  0.00     0.141 C 
ATOM     32  N   UNL A   1      32.199  17.578  23.930  1.00  0.00    -0.335 N 
ATOM     33  O   UNL A   1      32.805  17.064  26.115  1.00  0.00    -0.247 OA
ATOM     34  H   UNL A   1      31.997  16.676  23.593  1.00  0.00     0.165 HD
ENDBRANCH  26  28
ENDBRANCH  19  26
ENDBRANCH  16  19
ENDBRANCH  12  15
ENDBRANCH   3   5
ENDBRANCH   2   3
ENDBRANCH   1   2
BRANCH   1  35
ATOM     35  C   UNL A   1      32.650  29.713  25.222  1.00  0.00     0.275 C 
BRANCH  35  36
ATOM     36  O   UNL A   1      32.510  29.953  26.637  1.00  0.00    -0.458 OA
BRANCH  36  37
ATOM     37  C   UNL A   1      33.046  31.121  27.057  1.00  0.00     0.338 C 
ATOM     38  O   UNL A   1      32.501  32.212  27.102  1.00  0.00    -0.246 OA
BRANCH  37  39
ATOM     39  C   UNL A   1      34.395  30.911  27.597  1.00  0.00     0.060 A 
ATOM     40  C   UNL A   1      34.782  29.629  27.985  1.00  0.00     0.016 A 
ATOM     41  C   UNL A   1      35.206  32.001  27.887  1.00  0.00     0.016 A 
ATOM     42  C   UNL A   1      35.940  29.421  28.715  1.00  0.00     0.010 A 
ATOM     43  C   UNL A   1      36.416  31.786  28.553  1.00  0.00     0.010 A 
ATOM     44  C   UNL A   1      36.783  30.498  28.986  1.00  0.00    -0.014 A 
BRANCH  44  45
ATOM     45  C   UNL A   1      38.043  30.272  29.729  1.00  0.00     0.031 A 
ATOM     46  C   UNL A   1      39.109  29.398  29.140  1.00  0.00     0.074 A 
ATOM     47  C   UNL A   1      38.217  30.854  30.932  1.00  0.00     0.049 A 
ATOM     48  N   UNL A   1      40.186  28.915  29.702  1.00  0.00    -0.248 NA
ATOM     49  C   UNL A   1      38.935  29.006  27.732  1.00  0.00     0.031 C 
ATOM     50  C   UNL A   1      37.277  31.776  31.573  1.00  0.00     0.029 A 
ATOM     51  N   UNL A   1      39.243  30.745  31.837  1.00  0.00    -0.354 N 
ATOM     52  C   UNL A   1      40.801  28.136  28.730  1.00  0.00     0.074 A 
ATOM     53  C   UNL A   1      39.968  28.196  27.548  1.00  0.00     0.031 C 
ATOM     54  C   UNL A   1      37.764  32.143  32.768  1.00  0.00     0.029 A 
ATOM     55  C   UNL A   1      39.006  31.421  33.009  1.00  0.00     0.049 A 
ATOM     56  H   UNL A   1      40.065  30.234  31.663  1.00  0.00     0.167 HD
ATOM     57  C   UNL A   1      41.957  27.439  28.827  1.00  0.00     0.037 A 
ATOM     58  C   UNL A   1      39.686  31.410  34.171  1.00  0.00     0.037 A 
ATOM     59  C   UNL A   1      42.779  27.408  30.009  1.00  0.00     0.049 A 
ATOM     60  C   UNL A   1      40.923  30.561  34.275  1.00  0.00     0.074 A 
ATOM     61  C   UNL A   1      43.965  26.726  30.218  1.00  0.00     0.029 A 
ATOM     62  N   UNL A   1      42.499  28.094  31.183  1.00  0.00    -0.354 N 
ATOM     63  N   UNL A   1      41.485  29.803  33.365  1.00  0.00    -0.248 NA
ATOM     64  C   UNL A   1      41.616  30.560  35.568  1.00  0.00     0.031 C 
ATOM     65  C   UNL A   1      44.379  26.963  31.532  1.00  0.00     0.029 A 
ATOM     66  C   UNL A   1      43.484  27.840  32.124  1.00  0.00     0.049 A 
ATOM     67  H   UNL A   1      41.718  28.675  31.325  1.00  0.00     0.167 HD
ATOM     68  C   UNL A   1      42.615  29.263  33.964  1.00  0.00     0.074 A 
ATOM     69  C   UNL A   1      42.666  29.795  35.310  1.00  0.00     0.031 C 
ATOM     70  C   UNL A   1      43.525  28.399  33.451  1.00  0.00     0.037 A 
BRANCH  57  71
ATOM     71  C   UNL A   1      42.393  26.636  27.637  1.00  0.00     0.064 A 
ATOM     72  C   UNL A   1      43.381  27.100  26.755  1.00  0.00     0.173 A 
ATOM     73  C   UNL A   1      41.858  25.358  27.409  1.00  0.00     0.173 A 
ATOM     74  F   UNL A   1      43.913  28.320  26.917  1.00  0.00    -0.203 F 
ATOM     75  C   UNL A   1      43.804  26.320  25.680  1.00  0.00     0.198 A 
ATOM     76  C   UNL A   1      42.306  24.571  26.353  1.00  0.00     0.198 A 
ATOM     77  F   UNL A   1      40.913  24.867  28.224  1.00  0.00    -0.203 F 
ATOM     78  F   UNL A   1      44.721  26.799  24.829  1.00  0.00    -0.200 F 
ATOM     79  C   UNL A   1      43.275  25.054  25.487  1.00  0.00     0.200 A 
ATOM     80  F   UNL A   1      41.802  23.341  26.176  1.00  0.00    -0.200 F 
ATOM     81  F   UNL A   1      43.696  24.299  24.463  1.00  0.00    -0.200 F 
ENDBRANCH  57  71
BRANCH  58  82
ATOM     82  C   UNL A   1      39.187  32.182  35.341  1.00  0.00     0.064 A 
ATOM     83  C   UNL A   1      39.511  33.535  35.506  1.00  0.00     0.173 A 
ATOM     84  C   UNL A   1      38.408  31.574  36.339  1.00  0.00     0.173 A 
ATOM     85  F   UNL A   1      40.269  34.158  34.591  1.00  0.00    -0.203 F 
ATOM     86  C   UNL A   1      39.106  34.241  36.637  1.00  0.00     0.198 A 
ATOM     87  C   UNL A   1      37.972  32.290  37.451  1.00  0.00     0.198 A 
ATOM     88  F   UNL A   1      38.065  30.282  36.232  1.00  0.00    -0.203 F 
ATOM     89  F   UNL A   1      39.488  35.514  36.799  1.00  0.00    -0.200 F 
ATOM     90  C   UNL A   1      38.334  33.619  37.607  1.00  0.00     0.200 A 
ATOM     91  F   UNL A   1      37.211  31.690  38.375  1.00  0.00    -0.200 F 
ATOM     92  F   UNL A   1      37.950  34.297  38.697  1.00  0.00    -0.200 F 
ENDBRANCH  58  82
BRANCH  70  93
ATOM     93  C   UNL A   1      44.685  28.028  34.328  1.00  0.00     0.064 A 
ATOM     94  C   UNL A   1      44.648  26.905  35.168  1.00  0.00     0.173 A 
ATOM     95  C   UNL A   1      45.861  28.793  34.304  1.00  0.00     0.173 A 
ATOM     96  F   UNL A   1      43.540  26.152  35.240  1.00  0.00    -0.203 F 
ATOM     97  C   UNL A   1      45.736  26.580  35.973  1.00  0.00     0.198 A 
ATOM     98  C   UNL A   1      46.959  28.444  35.083  1.00  0.00     0.198 A 
ATOM     99  F   UNL A   1      45.949  29.873  33.513  1.00  0.00    -0.203 F 
ATOM    100  F   UNL A   1      45.658  25.536  36.810  1.00  0.00    -0.200 F 
ATOM    101  C   UNL A   1      46.892  27.344  35.924  1.00  0.00     0.200 A 
ATOM    102  F   UNL A   1      48.081  29.175  35.021  1.00  0.00    -0.200 F 
ATOM    103  F   UNL A   1      47.942  27.024  36.695  1.00  0.00    -0.200 F 
ENDBRANCH  70  93
ENDBRANCH  44  45
ENDBRANCH  37  39
ENDBRANCH  36  37
ENDBRANCH  35  36
ENDBRANCH   1  35
TORSDOF 16
ENDMDL
MODEL 2
REMARK VINA RESULT:     -13.4      4.144      9.762
REMARK SMILES CC1(C)S[C@H]2[C@H](NC(=O)[C@H](NN3CCNC3=O)c3ccccc3)C(=O)N2[C@H]1C(=O)OCCOC(=O)c1ccc(-c2c3nc(c(-c4c(F)c(F)c(F)c(F)c4F)c4ccc([nH]4)c(-c4c(F)c(F)c(F)c(F)c4F)c4nc(c(-c5c(F)c(F)c(F)c(F)c5F)c5ccc2[nH]5)C=C4)C=C3)cc1
REMARK SMILES IDX 31 1 30 2 28 3 29 4 27 5 1 6 2 7 3 8 4 9 5 10 26 11 6 12
REMARK SMILES IDX 24 13 25 14 7 15 8 16 9 18 10 19 18 20 19 21 23 22 20 23
REMARK SMILES IDX 22 24 21 25 11 26 12 28 13 29 16 30 14 31 15 32 17 33 32 35
REMARK SMILES IDX 33 36 34 37 35 38 36 39 37 40 98 41 38 42 97 43 39 44 40 45
REMARK SMILES IDX 41 46 91 47 42 48 96 49 90 50 92 51 43 52 95 53 89 54 88 55
REMARK SMILES IDX 44 57 76 58 56 59 75 60 57 61 60 62 74 63 93 64 58 65 59 66
REMARK SMILES IDX 73 68 94 69 61 70 45 71 46 72 54 73 47 74 48 75 52 76 55 77
REMARK SMILES IDX 49 78 50 79 53 80 51 81 77 82 78 83 86 84 79 85 80 86 84 87
REMARK SMILES IDX 87 88 81 89 82 90 85 91 83 92 62 93 63 94 71 95 64 96 65 97
REMARK SMILES IDX 69 98 72 99 66 100 67 101 70 102 68 103
REMARK H PARENT 7 17 11 27 15 34 92 56 60 67
REMARK Flexibility Score: inf
ROOT
ATOM      1  C   UNL A   1      35.827  20.538  25.015  1.00  0.00     0.274 C 
ENDROOT
BRANCH   1   2
ATOM      2  O   UNL A   1      35.048  21.602  24.429  1.00  0.00    -0.460 OA
BRANCH   2   3
ATOM      3  C   UNL A   1      34.233  22.272  25.279  1.00  0.00     0.330 C 
ATOM      4  O   UNL A   1      34.481  22.472  26.466  1.00  0.00    -0.250 OA
BRANCH   3   5
ATOM      5  C   UNL A   1      32.886  22.685  24.660  1.00  0.00     0.212 C 
ATOM      6  C   UNL A   1      30.792  22.204  26.094  1.00  0.00     0.026 C 
ATOM      7  C   UNL A   1      31.705  23.265  25.470  1.00  0.00     0.044 C 
ATOM      8  C   UNL A   1      32.069  24.299  26.537  1.00  0.00     0.026 C 
ATOM      9  S   UNL A   1      30.646  24.079  24.144  1.00  0.00    -0.125 SA
ATOM     10  C   UNL A   1      32.039  24.302  22.951  1.00  0.00     0.176 C 
ATOM     11  N   UNL A   1      33.161  23.582  23.554  1.00  0.00    -0.311 N 
ATOM     12  C   UNL A   1      32.796  25.611  23.220  1.00  0.00     0.205 C 
ATOM     13  C   UNL A   1      33.927  24.694  23.741  1.00  0.00     0.250 C 
ATOM     14  O   UNL A   1      34.995  24.839  24.265  1.00  0.00    -0.272 OA
BRANCH  12  15
ATOM     15  N   UNL A   1      33.271  26.482  22.135  1.00  0.00    -0.340 N 
ATOM     16  C   UNL A   1      33.385  27.845  22.346  1.00  0.00     0.244 C 
ATOM     17  H   UNL A   1      33.509  26.097  21.260  1.00  0.00     0.164 HD
ATOM     18  O   UNL A   1      34.400  28.387  21.906  1.00  0.00    -0.273 OA
BRANCH  16  19
ATOM     19  C   UNL A   1      32.228  28.579  23.108  1.00  0.00     0.194 C 
BRANCH  19  20
ATOM     20  C   UNL A   1      32.627  28.981  24.527  1.00  0.00    -0.020 A 
ATOM     21  C   UNL A   1      31.755  29.783  25.289  1.00  0.00     0.006 A 
ATOM     22  C   UNL A   1      33.783  28.530  25.165  1.00  0.00     0.006 A 
ATOM     23  C   UNL A   1      31.976  30.044  26.644  1.00  0.00     0.000 A 
ATOM     24  C   UNL A   1      34.050  28.851  26.502  1.00  0.00     0.000 A 
ATOM     25  C   UNL A   1      33.133  29.581  27.251  1.00  0.00     0.000 A 
ENDBRANCH  19  20
BRANCH  19  26
ATOM     26  N   UNL A   1      31.535  29.599  22.261  1.00  0.00    -0.213 NA
ATOM     27  H   UNL A   1      31.852  29.479  21.300  1.00  0.00     0.149 HD
BRANCH  26  28
ATOM     28  N   UNL A   1      30.144  29.534  22.268  1.00  0.00    -0.257 N 
ATOM     29  C   UNL A   1      29.259  30.478  21.625  1.00  0.00     0.163 C 
ATOM     30  C   UNL A   1      29.400  28.444  22.756  1.00  0.00     0.331 C 
ATOM     31  C   UNL A   1      27.963  30.236  22.389  1.00  0.00     0.141 C 
ATOM     32  N   UNL A   1      28.067  28.846  22.765  1.00  0.00    -0.335 N 
ATOM     33  O   UNL A   1      29.821  27.367  23.142  1.00  0.00    -0.247 OA
ATOM     34  H   UNL A   1      27.305  28.266  22.993  1.00  0.00     0.165 HD
ENDBRANCH  26  28
ENDBRANCH  19  26
ENDBRANCH  16  19
ENDBRANCH  12  15
ENDBRANCH   3   5
ENDBRANCH   2   3
ENDBRANCH   1   2
BRANCH   1  35
ATOM     35  C   UNL A   1      37.320  20.800  24.817  1.00  0.00     0.275 C 
BRANCH  35  36
ATOM     36  O   UNL A   1      37.806  21.754  25.782  1.00  0.00    -0.458 OA
BRANCH  36  37
ATOM     37  C   UNL A   1      39.077  21.535  26.187  1.00  0.00     0.338 C 
ATOM     38  O   UNL A   1      39.729  20.512  26.061  1.00  0.00    -0.246 OA
BRANCH  37  39
ATOM     39  C   UNL A   1      39.672  22.765  26.725  1.00  0.00     0.060 A 
ATOM     40  C   UNL A   1      39.309  23.994  26.175  1.00  0.00     0.016 A 
ATOM     41  C   UNL A   1      40.714  22.693  27.640  1.00  0.00     0.016 A 
ATOM     42  C   UNL A   1      40.012  25.149  26.477  1.00  0.00     0.010 A 
ATOM     43  C   UNL A   1      41.374  23.868  28.010  1.00  0.00     0.010 A 
ATOM     44  C   UNL A   1      41.038  25.101  27.419  1.00  0.00    -0.014 A 
BRANCH  44  45
ATOM     45  C   UNL A   1      41.763  26.341  27.775  1.00  0.00     0.031 A 
ATOM     46  C   UNL A   1      41.067  27.410  28.562  1.00  0.00     0.074 A 
ATOM     47  C   UNL A   1      43.043  26.497  27.385  1.00  0.00     0.049 A 
ATOM     48  N   UNL A   1      41.447  28.638  28.805  1.00  0.00    -0.248 NA
ATOM     49  C   UNL A   1      39.764  27.054  29.148  1.00  0.00     0.031 C 
ATOM     50  C   UNL A   1      43.841  25.497  26.672  1.00  0.00     0.029 A 
ATOM     51  N   UNL A   1      43.895  27.564  27.521  1.00  0.00    -0.354 N 
ATOM     52  C   UNL A   1      40.418  29.211  29.540  1.00  0.00     0.074 A 
ATOM     53  C   UNL A   1      39.389  28.204  29.690  1.00  0.00     0.031 C 
ATOM     54  C   UNL A   1      45.062  25.999  26.428  1.00  0.00     0.029 A 
ATOM     55  C   UNL A   1      45.103  27.378  26.893  1.00  0.00     0.049 A 
ATOM     56  H   UNL A   1      43.663  28.381  28.018  1.00  0.00     0.167 HD
ATOM     57  C   UNL A   1      40.349  30.467  30.041  1.00  0.00     0.037 A 
ATOM     58  C   UNL A   1      46.106  28.245  26.666  1.00  0.00     0.037 A 
ATOM     59  C   UNL A   1      41.393  31.448  29.895  1.00  0.00     0.049 A 
ATOM     60  C   UNL A   1      45.966  29.657  27.164  1.00  0.00     0.074 A 
ATOM     61  C   UNL A   1      41.422  32.753  30.355  1.00  0.00     0.029 A 
ATOM     62  N   UNL A   1      42.596  31.227  29.240  1.00  0.00    -0.354 N 
ATOM     63  N   UNL A   1      44.981  30.205  27.833  1.00  0.00    -0.248 NA
ATOM     64  C   UNL A   1      47.074  30.574  26.871  1.00  0.00     0.031 C 
ATOM     65  C   UNL A   1      42.622  33.336  29.939  1.00  0.00     0.029 A 
ATOM     66  C   UNL A   1      43.369  32.378  29.272  1.00  0.00     0.049 A 
ATOM     67  H   UNL A   1      42.862  30.380  28.815  1.00  0.00     0.167 HD
ATOM     68  C   UNL A   1      45.363  31.518  28.069  1.00  0.00     0.074 A 
ATOM     69  C   UNL A   1      46.680  31.678  27.486  1.00  0.00     0.031 C 
ATOM     70  C   UNL A   1      44.686  32.506  28.704  1.00  0.00     0.037 A 
BRANCH  57  71
ATOM     71  C   UNL A   1      39.100  30.862  30.774  1.00  0.00     0.064 A 
ATOM     72  C   UNL A   1      37.968  31.343  30.099  1.00  0.00     0.173 A 
ATOM     73  C   UNL A   1      39.015  30.702  32.166  1.00  0.00     0.173 A 
ATOM     74  F   UNL A   1      38.003  31.530  28.772  1.00  0.00    -0.203 F 
ATOM     75  C   UNL A   1      36.804  31.663  30.793  1.00  0.00     0.198 A 
ATOM     76  C   UNL A   1      37.839  30.994  32.851  1.00  0.00     0.198 A 
ATOM     77  F   UNL A   1      40.068  30.244  32.860  1.00  0.00    -0.203 F 
ATOM     78  F   UNL A   1      35.748  32.156  30.132  1.00  0.00    -0.200 F 
ATOM     79  C   UNL A   1      36.737  31.478  32.165  1.00  0.00     0.200 A 
ATOM     80  F   UNL A   1      37.773  30.802  34.176  1.00  0.00    -0.200 F 
ATOM     81  F   UNL A   1      35.609  31.771  32.828  1.00  0.00    -0.200 F 
ENDBRANCH  57  71
BRANCH  58  82
ATOM     82  C   UNL A   1      47.304  27.823  25.891  1.00  0.00     0.064 A 
ATOM     83  C   UNL A   1      47.291  27.807  24.490  1.00  0.00     0.173 A 
ATOM     84  C   UNL A   1      48.475  27.390  26.535  1.00  0.00     0.173 A 
ATOM     85  F   UNL A   1      46.190  28.192  23.827  1.00  0.00    -0.203 F 
ATOM     86  C   UNL A   1      48.386  27.343  23.764  1.00  0.00     0.198 A 
ATOM     87  C   UNL A   1      49.583  26.962  25.807  1.00  0.00     0.198 A 
ATOM     88  F   UNL A   1      48.546  27.388  27.874  1.00  0.00    -0.203 F 
ATOM     89  F   UNL A   1      48.319  27.276  22.428  1.00  0.00    -0.200 F 
ATOM     90  C   UNL A   1      49.533  26.925  24.423  1.00  0.00     0.200 A 
ATOM     91  F   UNL A   1      50.694  26.577  26.448  1.00  0.00    -0.200 F 
ATOM     92  F   UNL A   1      50.583  26.473  23.723  1.00  0.00    -0.200 F 
ENDBRANCH  58  82
BRANCH  70  93
ATOM     93  C   UNL A   1      45.385  33.826  28.855  1.00  0.00     0.064 A 
ATOM     94  C   UNL A   1      46.190  34.115  29.966  1.00  0.00     0.173 A 
ATOM     95  C   UNL A   1      45.267  34.804  27.855  1.00  0.00     0.173 A 
ATOM     96  F   UNL A   1      46.320  33.219  30.956  1.00  0.00    -0.203 F 
ATOM     97  C   UNL A   1      46.828  35.346  30.085  1.00  0.00     0.198 A 
ATOM     98  C   UNL A   1      45.935  36.020  27.960  1.00  0.00     0.198 A 
ATOM     99  F   UNL A   1      44.514  34.575  26.769  1.00  0.00    -0.203 F 
ATOM    100  F   UNL A   1      47.546  35.621  31.182  1.00  0.00    -0.200 F 
ATOM    101  C   UNL A   1      46.707  36.293  29.079  1.00  0.00     0.200 A 
ATOM    102  F   UNL A   1      45.830  36.927  26.980  1.00  0.00    -0.200 F 
ATOM    103  F   UNL A   1      47.328  37.476  29.193  1.00  0.00    -0.200 F 
ENDBRANCH  70  93
ENDBRANCH  44  45
ENDBRANCH  37  39
ENDBRANCH  36  37
ENDBRANCH  35  36
ENDBRANCH   1  35
TORSDOF 16
ENDMDL
MODEL 3
REMARK VINA RESULT:     -13.3      0.197      1.604
REMARK SMILES CC1(C)S[C@H]2[C@H](NC(=O)[C@H](NN3CCNC3=O)c3ccccc3)C(=O)N2[C@H]1C(=O)OCCOC(=O)c1ccc(-c2c3nc(c(-c4c(F)c(F)c(F)c(F)c4F)c4ccc([nH]4)c(-c4c(F)c(F)c(F)c(F)c4F)c4nc(c(-c5c(F)c(F)c(F)c(F)c5F)c5ccc2[nH]5)C=C4)C=C3)cc1
REMARK SMILES IDX 31 1 30 2 28 3 29 4 27 5 1 6 2 7 3 8 4 9 5 10 26 11 6 12
REMARK SMILES IDX 24 13 25 14 7 15 8 16 9 18 10 19 18 20 19 21 23 22 20 23
REMARK SMILES IDX 22 24 21 25 11 26 12 28 13 29 16 30 14 31 15 32 17 33 32 35
REMARK SMILES IDX 33 36 34 37 35 38 36 39 37 40 98 41 38 42 97 43 39 44 40 45
REMARK SMILES IDX 41 46 91 47 42 48 96 49 90 50 92 51 43 52 95 53 89 54 88 55
REMARK SMILES IDX 44 57 76 58 56 59 75 60 57 61 60 62 74 63 93 64 58 65 59 66
REMARK SMILES IDX 73 68 94 69 61 70 45 71 46 72 54 73 47 74 48 75 52 76 55 77
REMARK SMILES IDX 49 78 50 79 53 80 51 81 77 82 78 83 86 84 79 85 80 86 84 87
REMARK SMILES IDX 87 88 81 89 82 90 85 91 83 92 62 93 63 94 71 95 64 96 65 97
REMARK SMILES IDX 69 98 72 99 66 100 67 101 70 102 68 103
REMARK H PARENT 7 17 11 27 15 34 92 56 60 67
REMARK Flexibility Score: inf
ROOT
ATOM      1  C   UNL A   1      31.252  29.164  24.841  1.00  0.00     0.274 C 
ENDROOT
BRANCH   1   2
ATOM      2  O   UNL A   1      31.419  28.256  23.732  1.00  0.00    -0.460 OA
BRANCH   2   3
ATOM      3  C   UNL A   1      30.461  27.307  23.598  1.00  0.00     0.330 C 
ATOM      4  O   UNL A   1      29.277  27.471  23.884  1.00  0.00    -0.250 OA
BRANCH   3   5
ATOM      5  C   UNL A   1      30.996  25.936  23.147  1.00  0.00     0.212 C 
ATOM      6  C   UNL A   1      32.482  25.948  21.034  1.00  0.00     0.026 C 
ATOM      7  C   UNL A   1      32.402  25.714  22.547  1.00  0.00     0.044 C 
ATOM      8  C   UNL A   1      33.547  26.465  23.228  1.00  0.00     0.026 C 
ATOM      9  S   UNL A   1      32.658  23.861  22.752  1.00  0.00    -0.125 SA
ATOM     10  C   UNL A   1      31.465  23.697  24.153  1.00  0.00     0.176 C 
ATOM     11  N   UNL A   1      30.820  25.006  24.245  1.00  0.00    -0.311 N 
ATOM     12  C   UNL A   1      32.145  23.990  25.499  1.00  0.00     0.205 C 
ATOM     13  C   UNL A   1      31.316  25.295  25.481  1.00  0.00     0.250 C 
ATOM     14  O   UNL A   1      31.226  26.279  26.160  1.00  0.00    -0.272 OA
BRANCH  12  15
ATOM     15  N   UNL A   1      31.871  23.199  26.708  1.00  0.00    -0.340 N 
ATOM     16  C   UNL A   1      32.813  22.295  27.167  1.00  0.00     0.244 C 
ATOM     17  H   UNL A   1      31.020  23.311  27.190  1.00  0.00     0.164 HD
ATOM     18  O   UNL A   1      33.009  22.276  28.384  1.00  0.00    -0.273 OA
BRANCH  16  19
ATOM     19  C   UNL A   1      33.538  21.379  26.121  1.00  0.00     0.194 C 
BRANCH  19  20
ATOM     20  C   UNL A   1      34.974  21.825  25.851  1.00  0.00    -0.020 A 
ATOM     21  C   UNL A   1      35.349  23.156  26.124  1.00  0.00     0.006 A 
ATOM     22  C   UNL A   1      35.986  20.965  25.421  1.00  0.00     0.006 A 
ATOM     23  C   UNL A   1      36.677  23.583  26.063  1.00  0.00     0.000 A 
ATOM     24  C   UNL A   1      37.308  21.406  25.283  1.00  0.00     0.000 A 
ATOM     25  C   UNL A   1      37.661  22.705  25.634  1.00  0.00     0.000 A 
ENDBRANCH  19  20
BRANCH  19  26
ATOM     26  N   UNL A   1      33.292  19.923  26.360  1.00  0.00    -0.213 NA
ATOM     27  H   UNL A   1      32.531  19.839  27.034  1.00  0.00     0.149 HD
BRANCH  26  28
ATOM     28  N   UNL A   1      32.951  19.183  25.230  1.00  0.00    -0.257 N 
ATOM     29  C   UNL A   1      32.934  19.685  23.876  1.00  0.00     0.163 C 
ATOM     30  C   UNL A   1      32.739  17.792  25.224  1.00  0.00     0.331 C 
ATOM     31  C   UNL A   1      32.012  18.677  23.200  1.00  0.00     0.141 C 
ATOM     32  N   UNL A   1      32.233  17.474  23.966  1.00  0.00    -0.335 N 
ATOM     33  O   UNL A   1      32.915  17.007  26.139  1.00  0.00    -0.247 OA
ATOM     34  H   UNL A   1      32.054  16.561  23.645  1.00  0.00     0.165 HD
ENDBRANCH  26  28
ENDBRANCH  19  26
ENDBRANCH  16  19
ENDBRANCH  12  15
ENDBRANCH   3   5
ENDBRANCH   2   3
ENDBRANCH   1   2
BRANCH   1  35
ATOM     35  C   UNL A   1      32.603  29.734  25.270  1.00  0.00     0.275 C 
BRANCH  35  36
ATOM     36  O   UNL A   1      32.652  29.921  26.699  1.00  0.00    -0.458 OA
BRANCH  36  37
ATOM     37  C   UNL A   1      33.218  31.085  27.087  1.00  0.00     0.338 C 
ATOM     38  O   UNL A   1      32.698  32.189  27.114  1.00  0.00    -0.246 OA
BRANCH  37  39
ATOM     39  C   UNL A   1      34.568  30.857  27.618  1.00  0.00     0.060 A 
ATOM     40  C   UNL A   1      34.936  29.572  28.013  1.00  0.00     0.016 A 
ATOM     41  C   UNL A   1      35.399  31.935  27.893  1.00  0.00     0.016 A 
ATOM     42  C   UNL A   1      36.097  29.351  28.735  1.00  0.00     0.010 A 
ATOM     43  C   UNL A   1      36.611  31.706  28.551  1.00  0.00     0.010 A 
ATOM     44  C   UNL A   1      36.960  30.415  28.991  1.00  0.00    -0.014 A 
BRANCH  44  45
ATOM     45  C   UNL A   1      38.222  30.174  29.726  1.00  0.00     0.031 A 
ATOM     46  C   UNL A   1      39.271  29.284  29.132  1.00  0.00     0.074 A 
ATOM     47  C   UNL A   1      38.413  30.758  30.925  1.00  0.00     0.049 A 
ATOM     48  N   UNL A   1      40.346  28.788  29.688  1.00  0.00    -0.248 NA
ATOM     49  C   UNL A   1      39.082  28.890  27.726  1.00  0.00     0.031 C 
ATOM     50  C   UNL A   1      37.490  31.694  31.571  1.00  0.00     0.029 A 
ATOM     51  N   UNL A   1      39.443  30.637  31.823  1.00  0.00    -0.354 N 
ATOM     52  C   UNL A   1      40.943  27.998  28.714  1.00  0.00     0.074 A 
ATOM     53  C   UNL A   1      40.103  28.065  27.537  1.00  0.00     0.031 C 
ATOM     54  C   UNL A   1      37.991  32.058  32.761  1.00  0.00     0.029 A 
ATOM     55  C   UNL A   1      39.224  31.320  32.996  1.00  0.00     0.049 A 
ATOM     56  H   UNL A   1      40.257  30.114  31.645  1.00  0.00     0.167 HD
ATOM     57  C   UNL A   1      42.089  27.285  28.805  1.00  0.00     0.037 A 
ATOM     58  C   UNL A   1      39.912  31.303  34.152  1.00  0.00     0.037 A 
ATOM     59  C   UNL A   1      42.920  27.245  29.981  1.00  0.00     0.049 A 
ATOM     60  C   UNL A   1      41.138  30.437  34.250  1.00  0.00     0.074 A 
ATOM     61  C   UNL A   1      44.097  26.548  30.184  1.00  0.00     0.029 A 
ATOM     62  N   UNL A   1      42.658  27.939  31.155  1.00  0.00    -0.354 N 
ATOM     63  N   UNL A   1      41.683  29.669  33.338  1.00  0.00    -0.248 NA
ATOM     64  C   UNL A   1      41.841  30.431  35.538  1.00  0.00     0.031 C 
ATOM     65  C   UNL A   1      44.524  26.783  31.494  1.00  0.00     0.029 A 
ATOM     66  C   UNL A   1      43.646  27.674  32.090  1.00  0.00     0.049 A 
ATOM     67  H   UNL A   1      41.886  28.531  31.301  1.00  0.00     0.167 HD
ATOM     68  C   UNL A   1      42.810  29.115  33.931  1.00  0.00     0.074 A 
ATOM     69  C   UNL A   1      42.878  29.650  35.275  1.00  0.00     0.031 C 
ATOM     70  C   UNL A   1      43.704  28.237  33.414  1.00  0.00     0.037 A 
BRANCH  57  71
ATOM     71  C   UNL A   1      42.506  26.472  27.614  1.00  0.00     0.064 A 
ATOM     72  C   UNL A   1      43.481  26.927  26.713  1.00  0.00     0.173 A 
ATOM     73  C   UNL A   1      41.966  25.194  27.404  1.00  0.00     0.173 A 
ATOM     74  F   UNL A   1      44.018  28.148  26.859  1.00  0.00    -0.203 F 
ATOM     75  C   UNL A   1      43.886  26.139  25.639  1.00  0.00     0.198 A 
ATOM     76  C   UNL A   1      42.395  24.398  26.347  1.00  0.00     0.198 A 
ATOM     77  F   UNL A   1      41.032  24.710  28.236  1.00  0.00    -0.203 F 
ATOM     78  F   UNL A   1      44.791  26.609  24.770  1.00  0.00    -0.200 F 
ATOM     79  C   UNL A   1      43.352  24.872  25.463  1.00  0.00     0.200 A 
ATOM     80  F   UNL A   1      41.886  23.168  26.187  1.00  0.00    -0.200 F 
ATOM     81  F   UNL A   1      43.756  24.109  24.438  1.00  0.00    -0.200 F 
ENDBRANCH  57  71
BRANCH  58  82
ATOM     82  C   UNL A   1      39.433  32.086  35.323  1.00  0.00     0.064 A 
ATOM     83  C   UNL A   1      38.574  31.516  36.272  1.00  0.00     0.173 A 
ATOM     84  C   UNL A   1      39.794  33.432  35.498  1.00  0.00     0.173 A 
ATOM     85  F   UNL A   1      38.183  30.240  36.140  1.00  0.00    -0.203 F 
ATOM     86  C   UNL A   1      38.067  32.270  37.329  1.00  0.00     0.198 A 
ATOM     87  C   UNL A   1      39.317  34.173  36.576  1.00  0.00     0.198 A 
ATOM     88  F   UNL A   1      40.617  34.028  34.623  1.00  0.00    -0.203 F 
ATOM     89  F   UNL A   1      37.194  31.717  38.181  1.00  0.00    -0.200 F 
ATOM     90  C   UNL A   1      38.442  33.596  37.483  1.00  0.00     0.200 A 
ATOM     91  F   UNL A   1      39.697  35.448  36.730  1.00  0.00    -0.200 F 
ATOM     92  F   UNL A   1      37.949  34.320  38.497  1.00  0.00    -0.200 F 
ENDBRANCH  58  82
BRANCH  70  93
ATOM     93  C   UNL A   1      44.865  27.852  34.284  1.00  0.00     0.064 A 
ATOM     94  C   UNL A   1      46.051  28.600  34.310  1.00  0.00     0.173 A 
ATOM     95  C   UNL A   1      44.774  26.733  35.127  1.00  0.00     0.173 A 
ATOM     96  F   UNL A   1      46.193  29.668  33.510  1.00  0.00    -0.203 F 
ATOM     97  C   UNL A   1      47.115  28.224  35.125  1.00  0.00     0.198 A 
ATOM     98  C   UNL A   1      45.826  26.381  35.967  1.00  0.00     0.198 A 
ATOM     99  F   UNL A   1      43.659  25.989  35.145  1.00  0.00    -0.203 F 
ATOM    100  F   UNL A   1      48.259  28.919  35.091  1.00  0.00    -0.200 F 
ATOM    101  C   UNL A   1      46.998  27.121  35.957  1.00  0.00     0.200 A 
ATOM    102  F   UNL A   1      45.705  25.325  36.782  1.00  0.00    -0.200 F 
ATOM    103  F   UNL A   1      48.022  26.765  36.747  1.00  0.00    -0.200 F 
ENDBRANCH  70  93
ENDBRANCH  44  45
ENDBRANCH  37  39
ENDBRANCH  36  37
ENDBRANCH  35  36
ENDBRANCH   1  35
TORSDOF 16
ENDMDL
