MODEL 1
REMARK VINA RESULT:     -11.8      0.000      0.000
REMARK SMILES O=C(OCCOC(=O)c1cccc(Nc2ccnc3ccc(Cl)cc23)c1)c1ccc(-c2c3nc(c(-c4c(F)c(F)c(F)c(F)c4F)c4ccc([nH]4)c(-c4c(F)c(F)c(F)c(F)c4F)c4nc(c(-c5c(F)c(F)c(F)c(F)c5F)c5ccc2[nH]5)C=C4)C=C3)cc1
REMARK SMILES IDX 4 1 3 2 2 3 1 4 27 5 28 6 89 7 29 8 88 9 30 10 31 11 32 12
REMARK SMILES IDX 82 13 33 14 87 15 81 16 83 17 34 18 86 19 80 20 79 21 35 23
REMARK SMILES IDX 67 24 47 25 66 26 48 27 51 28 65 29 84 30 49 31 50 32 64 34
REMARK SMILES IDX 85 35 52 36 36 37 37 38 45 39 38 40 39 41 43 42 46 43 40 44
REMARK SMILES IDX 41 45 44 46 42 47 68 48 69 49 77 50 70 51 71 52 75 53 78 54
REMARK SMILES IDX 72 55 73 56 76 57 74 58 53 59 54 60 62 61 55 62 56 63 60 64
REMARK SMILES IDX 63 65 57 66 58 67 61 68 59 69 5 70 6 71 7 72 8 73 9 74 10 75
REMARK SMILES IDX 26 76 11 77 13 78 12 79 14 80 15 82 16 83 25 84 17 85 19 86
REMARK SMILES IDX 24 87 18 88 20 89 22 90 21 91 23 92
REMARK H PARENT 83 22 51 33 14 81
REMARK Flexibility Score: inf
ROOT
ATOM      1  C   UNL A   1      34.518  32.942  28.274  1.00  0.00     0.275 C 
ENDROOT
BRANCH   1   2
ATOM      2  O   UNL A   1      33.913  31.654  28.046  1.00  0.00    -0.458 OA
BRANCH   2   3
ATOM      3  C   UNL A   1      34.516  30.526  27.592  1.00  0.00     0.338 C 
ATOM      4  O   UNL A   1      33.900  29.745  26.869  1.00  0.00    -0.246 OA
BRANCH   3   5
ATOM      5  C   UNL A   1      35.833  30.087  28.132  1.00  0.00     0.060 A 
ATOM      6  C   UNL A   1      36.043  29.597  29.420  1.00  0.00     0.016 A 
ATOM      7  C   UNL A   1      36.933  30.197  27.266  1.00  0.00     0.016 A 
ATOM      8  C   UNL A   1      37.291  29.089  29.788  1.00  0.00     0.010 A 
ATOM      9  C   UNL A   1      38.184  29.696  27.629  1.00  0.00     0.010 A 
ATOM     10  C   UNL A   1      38.362  29.115  28.889  1.00  0.00    -0.014 A 
BRANCH  10  11
ATOM     11  C   UNL A   1      39.690  28.635  29.323  1.00  0.00     0.031 A 
ATOM     12  C   UNL A   1      40.455  29.448  30.320  1.00  0.00     0.074 A 
ATOM     13  C   UNL A   1      40.173  27.461  28.875  1.00  0.00     0.049 A 
ATOM     14  N   UNL A   1      41.561  29.151  30.949  1.00  0.00    -0.248 NA
ATOM     15  C   UNL A   1      39.880  30.753  30.684  1.00  0.00     0.031 C 
ATOM     16  C   UNL A   1      39.489  26.567  27.943  1.00  0.00     0.029 A 
ATOM     17  N   UNL A   1      41.351  26.814  29.147  1.00  0.00    -0.354 N 
ATOM     18  C   UNL A   1      41.774  30.198  31.833  1.00  0.00     0.074 A 
ATOM     19  C   UNL A   1      40.738  31.178  31.599  1.00  0.00     0.031 C 
ATOM     20  C   UNL A   1      40.279  25.513  27.678  1.00  0.00     0.029 A 
ATOM     21  C   UNL A   1      41.512  25.642  28.450  1.00  0.00     0.049 A 
ATOM     22  H   UNL A   1      42.020  27.159  29.782  1.00  0.00     0.167 HD
ATOM     23  C   UNL A   1      42.723  30.305  32.791  1.00  0.00     0.037 A 
ATOM     24  C   UNL A   1      42.536  24.766  28.453  1.00  0.00     0.037 A 
ATOM     25  C   UNL A   1      43.784  29.355  32.978  1.00  0.00     0.049 A 
ATOM     26  C   UNL A   1      43.664  24.983  29.430  1.00  0.00     0.074 A 
ATOM     27  C   UNL A   1      44.822  29.382  33.890  1.00  0.00     0.029 A 
ATOM     28  N   UNL A   1      43.949  28.207  32.214  1.00  0.00    -0.354 N 
ATOM     29  N   UNL A   1      43.813  25.935  30.321  1.00  0.00    -0.248 NA
ATOM     30  C   UNL A   1      44.743  23.986  29.434  1.00  0.00     0.031 C 
ATOM     31  C   UNL A   1      45.640  28.272  33.650  1.00  0.00     0.029 A 
ATOM     32  C   UNL A   1      45.087  27.530  32.617  1.00  0.00     0.049 A 
ATOM     33  H   UNL A   1      43.346  27.918  31.492  1.00  0.00     0.167 HD
ATOM     34  C   UNL A   1      44.975  25.629  31.017  1.00  0.00     0.074 A 
ATOM     35  C   UNL A   1      45.485  24.398  30.451  1.00  0.00     0.031 C 
ATOM     36  C   UNL A   1      45.564  26.300  32.039  1.00  0.00     0.037 A 
BRANCH  23  37
ATOM     37  C   UNL A   1      42.631  31.491  33.699  1.00  0.00     0.064 A 
ATOM     38  C   UNL A   1      43.280  32.695  33.379  1.00  0.00     0.173 A 
ATOM     39  C   UNL A   1      41.913  31.429  34.900  1.00  0.00     0.173 A 
ATOM     40  F   UNL A   1      44.000  32.794  32.251  1.00  0.00    -0.203 F 
ATOM     41  C   UNL A   1      43.233  33.785  34.242  1.00  0.00     0.198 A 
ATOM     42  C   UNL A   1      41.851  32.529  35.751  1.00  0.00     0.198 A 
ATOM     43  F   UNL A   1      41.283  30.298  35.253  1.00  0.00    -0.203 F 
ATOM     44  F   UNL A   1      43.899  34.908  33.939  1.00  0.00    -0.200 F 
ATOM     45  C   UNL A   1      42.515  33.702  35.426  1.00  0.00     0.200 A 
ATOM     46  F   UNL A   1      41.157  32.449  36.895  1.00  0.00    -0.200 F 
ATOM     47  F   UNL A   1      42.475  34.751  36.260  1.00  0.00    -0.200 F 
ENDBRANCH  23  37
BRANCH  24  48
ATOM     48  C   UNL A   1      42.538  23.602  27.528  1.00  0.00     0.064 A 
ATOM     49  C   UNL A   1      42.031  22.354  27.914  1.00  0.00     0.173 A 
ATOM     50  C   UNL A   1      43.092  23.709  26.243  1.00  0.00     0.173 A 
ATOM     51  F   UNL A   1      41.501  22.196  29.136  1.00  0.00    -0.203 F 
ATOM     52  C   UNL A   1      42.113  21.248  27.068  1.00  0.00     0.198 A 
ATOM     53  C   UNL A   1      43.150  22.609  25.388  1.00  0.00     0.198 A 
ATOM     54  F   UNL A   1      43.577  24.884  25.817  1.00  0.00    -0.203 F 
ATOM     55  F   UNL A   1      41.669  20.055  27.484  1.00  0.00    -0.200 F 
ATOM     56  C   UNL A   1      42.672  21.376  25.805  1.00  0.00     0.200 A 
ATOM     57  F   UNL A   1      43.677  22.743  24.164  1.00  0.00    -0.200 F 
ATOM     58  F   UNL A   1      42.756  20.313  24.995  1.00  0.00    -0.200 F 
ENDBRANCH  24  48
BRANCH  36  59
ATOM     59  C   UNL A   1      46.804  25.694  32.624  1.00  0.00     0.064 A 
ATOM     60  C   UNL A   1      48.076  25.979  32.108  1.00  0.00     0.173 A 
ATOM     61  C   UNL A   1      46.719  24.842  33.736  1.00  0.00     0.173 A 
ATOM     62  F   UNL A   1      48.205  26.774  31.034  1.00  0.00    -0.203 F 
ATOM     63  C   UNL A   1      49.217  25.412  32.665  1.00  0.00     0.198 A 
ATOM     64  C   UNL A   1      47.865  24.300  34.309  1.00  0.00     0.198 A 
ATOM     65  F   UNL A   1      45.525  24.544  34.271  1.00  0.00    -0.203 F 
ATOM     66  F   UNL A   1      50.417  25.656  32.124  1.00  0.00    -0.200 F 
ATOM     67  C   UNL A   1      49.111  24.578  33.769  1.00  0.00     0.200 A 
ATOM     68  F   UNL A   1      47.763  23.505  35.384  1.00  0.00    -0.200 F 
ATOM     69  F   UNL A   1      50.212  24.036  34.307  1.00  0.00    -0.200 F 
ENDBRANCH  36  59
ENDBRANCH  10  11
ENDBRANCH   3   5
ENDBRANCH   2   3
ENDBRANCH   1   2
BRANCH   1  70
ATOM     70  C   UNL A   1      33.609  34.142  27.989  1.00  0.00     0.275 C 
BRANCH  70  71
ATOM     71  O   UNL A   1      32.798  34.484  29.121  1.00  0.00    -0.458 OA
BRANCH  71  72
ATOM     72  C   UNL A   1      32.906  35.776  29.521  1.00  0.00     0.338 C 
ATOM     73  O   UNL A   1      32.580  36.771  28.908  1.00  0.00    -0.246 OA
BRANCH  72  74
ATOM     74  C   UNL A   1      33.337  35.803  30.928  1.00  0.00     0.062 A 
ATOM     75  C   UNL A   1      33.351  37.042  31.574  1.00  0.00     0.016 A 
ATOM     76  C   UNL A   1      33.767  34.646  31.584  1.00  0.00     0.041 A 
ATOM     77  C   UNL A   1      33.780  37.123  32.895  1.00  0.00     0.003 A 
ATOM     78  C   UNL A   1      34.223  34.728  32.906  1.00  0.00     0.039 A 
ATOM     79  C   UNL A   1      34.226  35.975  33.550  1.00  0.00     0.026 A 
BRANCH  78  80
ATOM     80  N   UNL A   1      34.904  33.643  33.513  1.00  0.00    -0.355 N 
ATOM     81  H   UNL A   1      34.496  32.748  33.535  1.00  0.00     0.167 HD
BRANCH  80  82
ATOM     82  C   UNL A   1      36.188  33.867  34.092  1.00  0.00     0.050 A 
ATOM     83  C   UNL A   1      36.303  33.827  35.484  1.00  0.00     0.047 A 
ATOM     84  C   UNL A   1      37.340  34.097  33.307  1.00  0.00     0.025 A 
ATOM     85  C   UNL A   1      37.555  33.925  36.046  1.00  0.00     0.114 A 
ATOM     86  C   UNL A   1      38.573  34.186  33.995  1.00  0.00     0.072 A 
ATOM     87  C   UNL A   1      37.331  34.214  31.897  1.00  0.00     0.033 A 
ATOM     88  N   UNL A   1      38.681  34.094  35.329  1.00  0.00    -0.256 NA
ATOM     89  C   UNL A   1      39.740  34.365  33.268  1.00  0.00     0.030 A 
ATOM     90  C   UNL A   1      38.520  34.414  31.196  1.00  0.00     0.041 A 
ATOM     91  C   UNL A   1      39.728  34.485  31.878  1.00  0.00     0.023 A 
ATOM     92  Cl  UNL A   1      38.499  34.572  29.485  1.00  0.00    -0.084 Cl
ENDBRANCH  80  82
ENDBRANCH  78  80
ENDBRANCH  72  74
ENDBRANCH  71  72
ENDBRANCH  70  71
ENDBRANCH   1  70
TORSDOF 13
ENDMDL
MODEL 2
REMARK VINA RESULT:     -11.6      4.047      7.264
REMARK SMILES O=C(OCCOC(=O)c1cccc(Nc2ccnc3ccc(Cl)cc23)c1)c1ccc(-c2c3nc(c(-c4c(F)c(F)c(F)c(F)c4F)c4ccc([nH]4)c(-c4c(F)c(F)c(F)c(F)c4F)c4nc(c(-c5c(F)c(F)c(F)c(F)c5F)c5ccc2[nH]5)C=C4)C=C3)cc1
REMARK SMILES IDX 4 1 3 2 2 3 1 4 27 5 28 6 89 7 29 8 88 9 30 10 31 11 32 12
REMARK SMILES IDX 82 13 33 14 87 15 81 16 83 17 34 18 86 19 80 20 79 21 35 23
REMARK SMILES IDX 67 24 47 25 66 26 48 27 51 28 65 29 84 30 49 31 50 32 64 34
REMARK SMILES IDX 85 35 52 36 36 37 37 38 45 39 38 40 39 41 43 42 46 43 40 44
REMARK SMILES IDX 41 45 44 46 42 47 68 48 69 49 77 50 70 51 71 52 75 53 78 54
REMARK SMILES IDX 72 55 73 56 76 57 74 58 53 59 54 60 62 61 55 62 56 63 60 64
REMARK SMILES IDX 63 65 57 66 58 67 61 68 59 69 5 70 6 71 7 72 8 73 9 74 10 75
REMARK SMILES IDX 26 76 11 77 13 78 12 79 14 80 15 82 16 83 25 84 17 85 19 86
REMARK SMILES IDX 24 87 18 88 20 89 22 90 21 91 23 92
REMARK H PARENT 83 22 51 33 14 81
REMARK Flexibility Score: inf
ROOT
ATOM      1  C   UNL A   1      32.526  33.041  27.103  1.00  0.00     0.275 C 
ENDROOT
BRANCH   1   2
ATOM      2  O   UNL A   1      32.229  34.206  27.898  1.00  0.00    -0.458 OA
BRANCH   2   3
ATOM      3  C   UNL A   1      33.080  34.901  28.696  1.00  0.00     0.338 C 
ATOM      4  O   UNL A   1      33.012  36.127  28.750  1.00  0.00    -0.246 OA
BRANCH   3   5
ATOM      5  C   UNL A   1      34.250  34.237  29.334  1.00  0.00     0.060 A 
ATOM      6  C   UNL A   1      34.175  33.344  30.402  1.00  0.00     0.016 A 
ATOM      7  C   UNL A   1      35.514  34.560  28.814  1.00  0.00     0.016 A 
ATOM      8  C   UNL A   1      35.319  32.674  30.844  1.00  0.00     0.010 A 
ATOM      9  C   UNL A   1      36.661  33.897  29.255  1.00  0.00     0.010 A 
ATOM     10  C   UNL A   1      36.563  32.930  30.259  1.00  0.00    -0.014 A 
BRANCH  10  11
ATOM     11  C   UNL A   1      37.769  32.260  30.790  1.00  0.00     0.031 A 
ATOM     12  C   UNL A   1      38.306  32.697  32.116  1.00  0.00     0.074 A 
ATOM     13  C   UNL A   1      38.334  31.239  30.118  1.00  0.00     0.049 A 
ATOM     14  N   UNL A   1      39.254  32.159  32.837  1.00  0.00    -0.248 NA
ATOM     15  C   UNL A   1      37.669  33.873  32.729  1.00  0.00     0.031 C 
ATOM     16  C   UNL A   1      37.862  30.702  28.844  1.00  0.00     0.029 A 
ATOM     17  N   UNL A   1      39.428  30.467  30.416  1.00  0.00    -0.354 N 
ATOM     18  C   UNL A   1      39.276  32.887  34.018  1.00  0.00     0.074 A 
ATOM     19  C   UNL A   1      38.314  33.957  33.883  1.00  0.00     0.031 C 
ATOM     20  C   UNL A   1      38.690  29.722  28.442  1.00  0.00     0.029 A 
ATOM     21  C   UNL A   1      39.732  29.541  29.449  1.00  0.00     0.049 A 
ATOM     22  H   UNL A   1      39.947  30.568  31.247  1.00  0.00     0.167 HD
ATOM     23  C   UNL A   1      40.001  32.649  35.134  1.00  0.00     0.037 A 
ATOM     24  C   UNL A   1      40.730  28.639  29.397  1.00  0.00     0.037 A 
ATOM     25  C   UNL A   1      40.997  31.620  35.239  1.00  0.00     0.049 A 
ATOM     26  C   UNL A   1      41.626  28.489  30.601  1.00  0.00     0.074 A 
ATOM     27  C   UNL A   1      41.819  31.314  36.307  1.00  0.00     0.029 A 
ATOM     28  N   UNL A   1      41.319  30.736  34.217  1.00  0.00    -0.354 N 
ATOM     29  N   UNL A   1      41.584  29.129  31.746  1.00  0.00    -0.248 NA
ATOM     30  C   UNL A   1      42.679  27.467  30.524  1.00  0.00     0.031 C 
ATOM     31  C   UNL A   1      42.668  30.272  35.917  1.00  0.00     0.029 A 
ATOM     32  C   UNL A   1      42.345  29.900  34.620  1.00  0.00     0.049 A 
ATOM     33  H   UNL A   1      40.882  30.710  33.335  1.00  0.00     0.167 HD
ATOM     34  C   UNL A   1      42.572  28.560  32.538  1.00  0.00     0.074 A 
ATOM     35  C   UNL A   1      43.189  27.516  31.746  1.00  0.00     0.031 C 
ATOM     36  C   UNL A   1      42.932  28.864  33.811  1.00  0.00     0.037 A 
BRANCH  23  37
ATOM     37  C   UNL A   1      39.720  33.522  36.317  1.00  0.00     0.064 A 
ATOM     38  C   UNL A   1      38.808  33.121  37.307  1.00  0.00     0.173 A 
ATOM     39  C   UNL A   1      40.345  34.767  36.462  1.00  0.00     0.173 A 
ATOM     40  F   UNL A   1      38.167  31.948  37.199  1.00  0.00    -0.203 F 
ATOM     41  C   UNL A   1      38.513  33.949  38.386  1.00  0.00     0.198 A 
ATOM     42  C   UNL A   1      40.063  35.584  37.554  1.00  0.00     0.198 A 
ATOM     43  F   UNL A   1      41.218  35.197  35.539  1.00  0.00    -0.203 F 
ATOM     44  F   UNL A   1      37.603  33.568  39.293  1.00  0.00    -0.200 F 
ATOM     45  C   UNL A   1      39.143  35.178  38.510  1.00  0.00     0.200 A 
ATOM     46  F   UNL A   1      40.672  36.771  37.675  1.00  0.00    -0.200 F 
ATOM     47  F   UNL A   1      38.854  35.977  39.547  1.00  0.00    -0.200 F 
ENDBRANCH  23  37
BRANCH  24  48
ATOM     48  C   UNL A   1      40.927  27.797  28.187  1.00  0.00     0.064 A 
ATOM     49  C   UNL A   1      40.384  26.509  28.090  1.00  0.00     0.173 A 
ATOM     50  C   UNL A   1      41.706  28.256  27.114  1.00  0.00     0.173 A 
ATOM     51  F   UNL A   1      39.640  26.019  29.093  1.00  0.00    -0.203 F 
ATOM     52  C   UNL A   1      40.642  25.698  26.985  1.00  0.00     0.198 A 
ATOM     53  C   UNL A   1      41.944  27.453  25.999  1.00  0.00     0.198 A 
ATOM     54  F   UNL A   1      42.237  29.487  27.148  1.00  0.00    -0.203 F 
ATOM     55  F   UNL A   1      40.154  24.451  26.944  1.00  0.00    -0.200 F 
ATOM     56  C   UNL A   1      41.422  26.170  25.941  1.00  0.00     0.200 A 
ATOM     57  F   UNL A   1      42.685  27.921  24.986  1.00  0.00    -0.200 F 
ATOM     58  F   UNL A   1      41.676  25.388  24.883  1.00  0.00    -0.200 F 
ENDBRANCH  24  48
BRANCH  36  59
ATOM     59  C   UNL A   1      44.021  28.035  34.426  1.00  0.00     0.064 A 
ATOM     60  C   UNL A   1      45.361  28.444  34.396  1.00  0.00     0.173 A 
ATOM     61  C   UNL A   1      43.711  26.833  35.080  1.00  0.00     0.173 A 
ATOM     62  F   UNL A   1      45.707  29.577  33.767  1.00  0.00    -0.203 F 
ATOM     63  C   UNL A   1      46.358  27.666  34.976  1.00  0.00     0.198 A 
ATOM     64  C   UNL A   1      44.707  26.072  35.684  1.00  0.00     0.198 A 
ATOM     65  F   UNL A   1      42.442  26.403  35.140  1.00  0.00    -0.203 F 
ATOM     66  F   UNL A   1      47.639  28.049  34.891  1.00  0.00    -0.200 F 
ATOM     67  C   UNL A   1      46.029  26.484  35.624  1.00  0.00     0.200 A 
ATOM     68  F   UNL A   1      44.387  24.937  36.322  1.00  0.00    -0.200 F 
ATOM     69  F   UNL A   1      46.990  25.738  36.186  1.00  0.00    -0.200 F 
ENDBRANCH  36  59
ENDBRANCH  10  11
ENDBRANCH   3   5
ENDBRANCH   2   3
ENDBRANCH   1   2
BRANCH   1  70
ATOM     70  C   UNL A   1      31.353  32.075  26.912  1.00  0.00     0.275 C 
BRANCH  70  71
ATOM     71  O   UNL A   1      31.581  31.157  25.834  1.00  0.00    -0.458 OA
BRANCH  71  72
ATOM     72  C   UNL A   1      31.812  29.877  26.223  1.00  0.00     0.338 C 
ATOM     73  O   UNL A   1      32.081  29.480  27.337  1.00  0.00    -0.246 OA
BRANCH  72  74
ATOM     74  C   UNL A   1      31.515  28.978  25.097  1.00  0.00     0.062 A 
ATOM     75  C   UNL A   1      30.654  29.451  24.104  1.00  0.00     0.016 A 
ATOM     76  C   UNL A   1      32.030  27.679  25.042  1.00  0.00     0.041 A 
ATOM     77  C   UNL A   1      30.318  28.627  23.035  1.00  0.00     0.003 A 
ATOM     78  C   UNL A   1      31.674  26.838  23.980  1.00  0.00     0.039 A 
ATOM     79  C   UNL A   1      30.814  27.324  22.983  1.00  0.00     0.026 A 
BRANCH  78  80
ATOM     80  N   UNL A   1      31.958  25.449  24.021  1.00  0.00    -0.355 N 
ATOM     81  H   UNL A   1      32.356  24.998  23.242  1.00  0.00     0.167 HD
BRANCH  80  82
ATOM     82  C   UNL A   1      31.658  24.715  25.205  1.00  0.00     0.050 A 
ATOM     83  C   UNL A   1      30.327  24.655  25.629  1.00  0.00     0.047 A 
ATOM     84  C   UNL A   1      32.651  24.029  25.940  1.00  0.00     0.025 A 
ATOM     85  C   UNL A   1      30.011  23.855  26.702  1.00  0.00     0.114 A 
ATOM     86  C   UNL A   1      32.208  23.239  27.027  1.00  0.00     0.072 A 
ATOM     87  C   UNL A   1      34.033  24.066  25.637  1.00  0.00     0.033 A 
ATOM     88  N   UNL A   1      30.922  23.146  27.394  1.00  0.00    -0.256 NA
ATOM     89  C   UNL A   1      33.136  22.510  27.754  1.00  0.00     0.030 A 
ATOM     90  C   UNL A   1      34.944  23.336  26.399  1.00  0.00     0.041 A 
ATOM     91  C   UNL A   1      34.499  22.552  27.455  1.00  0.00     0.023 A 
ATOM     92  Cl  UNL A   1      36.623  23.400  26.035  1.00  0.00    -0.084 Cl
ENDBRANCH  80  82
ENDBRANCH  78  80
ENDBRANCH  72  74
ENDBRANCH  71  72
ENDBRANCH  70  71
ENDBRANCH   1  70
TORSDOF 13
ENDMDL
MODEL 3
REMARK VINA RESULT:     -11.5      1.659      2.632
REMARK SMILES O=C(OCCOC(=O)c1cccc(Nc2ccnc3ccc(Cl)cc23)c1)c1ccc(-c2c3nc(c(-c4c(F)c(F)c(F)c(F)c4F)c4ccc([nH]4)c(-c4c(F)c(F)c(F)c(F)c4F)c4nc(c(-c5c(F)c(F)c(F)c(F)c5F)c5ccc2[nH]5)C=C4)C=C3)cc1
REMARK SMILES IDX 4 1 3 2 2 3 1 4 27 5 28 6 89 7 29 8 88 9 30 10 31 11 32 12
REMARK SMILES IDX 82 13 33 14 87 15 81 16 83 17 34 18 86 19 80 20 79 21 35 23
REMARK SMILES IDX 67 24 47 25 66 26 48 27 51 28 65 29 84 30 49 31 50 32 64 34
REMARK SMILES IDX 85 35 52 36 36 37 37 38 45 39 38 40 39 41 43 42 46 43 40 44
REMARK SMILES IDX 41 45 44 46 42 47 68 48 69 49 77 50 70 51 71 52 75 53 78 54
REMARK SMILES IDX 72 55 73 56 76 57 74 58 53 59 54 60 62 61 55 62 56 63 60 64
REMARK SMILES IDX 63 65 57 66 58 67 61 68 59 69 5 70 6 71 7 72 8 73 9 74 10 75
REMARK SMILES IDX 26 76 11 77 13 78 12 79 14 80 15 82 16 83 25 84 17 85 19 86
REMARK SMILES IDX 24 87 18 88 20 89 22 90 21 91 23 92
REMARK H PARENT 83 22 51 33 14 81
REMARK Flexibility Score: inf
ROOT
ATOM      1  C   UNL A   1      32.599  31.899  27.374  1.00  0.00     0.275 C 
ENDROOT
BRANCH   1   2
ATOM      2  O   UNL A   1      33.887  31.449  27.838  1.00  0.00    -0.458 OA
BRANCH   2   3
ATOM      3  C   UNL A   1      34.376  30.182  27.825  1.00  0.00     0.338 C 
ATOM      4  O   UNL A   1      33.615  29.229  27.672  1.00  0.00    -0.246 OA
BRANCH   3   5
ATOM      5  C   UNL A   1      35.782  29.897  28.221  1.00  0.00     0.060 A 
ATOM      6  C   UNL A   1      36.181  29.443  29.478  1.00  0.00     0.016 A 
ATOM      7  C   UNL A   1      36.766  30.120  27.244  1.00  0.00     0.016 A 
ATOM      8  C   UNL A   1      37.509  29.081  29.710  1.00  0.00     0.010 A 
ATOM      9  C   UNL A   1      38.096  29.764  27.471  1.00  0.00     0.010 A 
ATOM     10  C   UNL A   1      38.469  29.217  28.703  1.00  0.00    -0.014 A 
BRANCH  10  11
ATOM     11  C   UNL A   1      39.882  28.891  28.993  1.00  0.00     0.031 A 
ATOM     12  C   UNL A   1      40.698  29.872  29.775  1.00  0.00     0.074 A 
ATOM     13  C   UNL A   1      40.402  27.709  28.611  1.00  0.00     0.049 A 
ATOM     14  N   UNL A   1      41.900  29.733  30.268  1.00  0.00    -0.248 NA
ATOM     15  C   UNL A   1      40.063  31.165  30.072  1.00  0.00     0.031 C 
ATOM     16  C   UNL A   1      39.681  26.662  27.889  1.00  0.00     0.029 A 
ATOM     17  N   UNL A   1      41.659  27.187  28.781  1.00  0.00    -0.354 N 
ATOM     18  C   UNL A   1      42.135  30.892  30.993  1.00  0.00     0.074 A 
ATOM     19  C   UNL A   1      40.994  31.759  30.803  1.00  0.00     0.031 C 
ATOM     20  C   UNL A   1      40.520  25.645  27.631  1.00  0.00     0.029 A 
ATOM     21  C   UNL A   1      41.829  25.954  28.200  1.00  0.00     0.049 A 
ATOM     22  H   UNL A   1      42.373  27.654  29.272  1.00  0.00     0.167 HD
ATOM     23  C   UNL A   1      43.190  31.183  31.787  1.00  0.00     0.037 A 
ATOM     24  C   UNL A   1      42.917  25.163  28.153  1.00  0.00     0.037 A 
ATOM     25  C   UNL A   1      44.346  30.341  31.924  1.00  0.00     0.049 A 
ATOM     26  C   UNL A   1      44.142  25.577  28.929  1.00  0.00     0.074 A 
ATOM     27  C   UNL A   1      45.491  30.554  32.669  1.00  0.00     0.029 A 
ATOM     28  N   UNL A   1      44.509  29.125  31.274  1.00  0.00    -0.354 N 
ATOM     29  N   UNL A   1      44.324  26.638  29.680  1.00  0.00    -0.248 NA
ATOM     30  C   UNL A   1      45.296  24.668  28.887  1.00  0.00     0.031 C 
ATOM     31  C   UNL A   1      46.365  29.486  32.438  1.00  0.00     0.029 A 
ATOM     32  C   UNL A   1      45.746  28.586  31.581  1.00  0.00     0.049 A 
ATOM     33  H   UNL A   1      43.843  28.708  30.681  1.00  0.00     0.167 HD
ATOM     34  C   UNL A   1      45.591  26.504  30.232  1.00  0.00     0.074 A 
ATOM     35  C   UNL A   1      46.128  25.253  29.737  1.00  0.00     0.031 C 
ATOM     36  C   UNL A   1      46.249  27.334  31.079  1.00  0.00     0.037 A 
BRANCH  23  37
ATOM     37  C   UNL A   1      43.116  32.460  32.564  1.00  0.00     0.064 A 
ATOM     38  C   UNL A   1      42.714  32.461  33.910  1.00  0.00     0.173 A 
ATOM     39  C   UNL A   1      43.428  33.688  31.969  1.00  0.00     0.173 A 
ATOM     40  F   UNL A   1      42.382  31.311  34.516  1.00  0.00    -0.203 F 
ATOM     41  C   UNL A   1      42.603  33.651  34.623  1.00  0.00     0.198 A 
ATOM     42  C   UNL A   1      43.336  34.875  32.692  1.00  0.00     0.198 A 
ATOM     43  F   UNL A   1      43.809  33.739  30.684  1.00  0.00    -0.203 F 
ATOM     44  F   UNL A   1      42.171  33.633  35.892  1.00  0.00    -0.200 F 
ATOM     45  C   UNL A   1      42.917  34.856  34.015  1.00  0.00     0.200 A 
ATOM     46  F   UNL A   1      43.640  36.040  32.104  1.00  0.00    -0.200 F 
ATOM     47  F   UNL A   1      42.805  36.002  34.700  1.00  0.00    -0.200 F 
ENDBRANCH  23  37
BRANCH  24  48
ATOM     48  C   UNL A   1      42.899  23.899  27.369  1.00  0.00     0.064 A 
ATOM     49  C   UNL A   1      42.501  22.683  27.942  1.00  0.00     0.173 A 
ATOM     50  C   UNL A   1      43.326  23.877  26.033  1.00  0.00     0.173 A 
ATOM     51  F   UNL A   1      42.094  22.647  29.221  1.00  0.00    -0.203 F 
ATOM     52  C   UNL A   1      42.565  21.490  27.223  1.00  0.00     0.198 A 
ATOM     53  C   UNL A   1      43.367  22.688  25.306  1.00  0.00     0.198 A 
ATOM     54  F   UNL A   1      43.703  25.014  25.431  1.00  0.00    -0.203 F 
ATOM     55  F   UNL A   1      42.228  20.336  27.813  1.00  0.00    -0.200 F 
ATOM     56  C   UNL A   1      42.998  21.493  25.905  1.00  0.00     0.200 A 
ATOM     57  F   UNL A   1      43.770  22.700  24.029  1.00  0.00    -0.200 F 
ATOM     58  F   UNL A   1      43.066  20.346  25.217  1.00  0.00    -0.200 F 
ENDBRANCH  24  48
BRANCH  36  59
ATOM     59  C   UNL A   1      47.606  26.894  31.544  1.00  0.00     0.064 A 
ATOM     60  C   UNL A   1      47.764  26.020  32.628  1.00  0.00     0.173 A 
ATOM     61  C   UNL A   1      48.759  27.330  30.874  1.00  0.00     0.173 A 
ATOM     62  F   UNL A   1      46.691  25.591  33.310  1.00  0.00    -0.203 F 
ATOM     63  C   UNL A   1      49.029  25.619  33.043  1.00  0.00     0.198 A 
ATOM     64  C   UNL A   1      50.021  26.903  31.273  1.00  0.00     0.198 A 
ATOM     65  F   UNL A   1      48.659  28.163  29.826  1.00  0.00    -0.203 F 
ATOM     66  F   UNL A   1      49.161  24.824  34.113  1.00  0.00    -0.200 F 
ATOM     67  C   UNL A   1      50.156  26.055  32.361  1.00  0.00     0.200 A 
ATOM     68  F   UNL A   1      51.109  27.315  30.605  1.00  0.00    -0.200 F 
ATOM     69  F   UNL A   1      51.374  25.664  32.760  1.00  0.00    -0.200 F 
ENDBRANCH  36  59
ENDBRANCH  10  11
ENDBRANCH   3   5
ENDBRANCH   2   3
ENDBRANCH   1   2
BRANCH   1  70
ATOM     70  C   UNL A   1      32.433  33.420  27.305  1.00  0.00     0.275 C 
BRANCH  70  71
ATOM     71  O   UNL A   1      32.472  34.025  28.605  1.00  0.00    -0.458 OA
BRANCH  71  72
ATOM     72  C   UNL A   1      33.472  34.927  28.776  1.00  0.00     0.338 C 
ATOM     73  O   UNL A   1      33.415  36.130  28.636  1.00  0.00    -0.246 OA
BRANCH  72  74
ATOM     74  C   UNL A   1      34.643  34.235  29.340  1.00  0.00     0.062 A 
ATOM     75  C   UNL A   1      35.802  34.192  28.562  1.00  0.00     0.016 A 
ATOM     76  C   UNL A   1      34.588  33.599  30.583  1.00  0.00     0.041 A 
ATOM     77  C   UNL A   1      36.926  33.524  29.038  1.00  0.00     0.003 A 
ATOM     78  C   UNL A   1      35.709  32.904  31.056  1.00  0.00     0.039 A 
ATOM     79  C   UNL A   1      36.872  32.872  30.270  1.00  0.00     0.026 A 
BRANCH  78  80
ATOM     80  N   UNL A   1      35.614  32.037  32.174  1.00  0.00    -0.355 N 
ATOM     81  H   UNL A   1      35.153  31.171  32.095  1.00  0.00     0.167 HD
BRANCH  80  82
ATOM     82  C   UNL A   1      36.195  32.438  33.412  1.00  0.00     0.050 A 
ATOM     83  C   UNL A   1      35.602  33.492  34.112  1.00  0.00     0.047 A 
ATOM     84  C   UNL A   1      37.323  31.787  33.962  1.00  0.00     0.025 A 
ATOM     85  C   UNL A   1      36.084  33.808  35.362  1.00  0.00     0.114 A 
ATOM     86  C   UNL A   1      37.731  32.200  35.252  1.00  0.00     0.072 A 
ATOM     87  C   UNL A   1      38.036  30.749  33.316  1.00  0.00     0.033 A 
ATOM     88  N   UNL A   1      37.123  33.178  35.939  1.00  0.00    -0.256 NA
ATOM     89  C   UNL A   1      38.804  31.564  35.856  1.00  0.00     0.030 A 
ATOM     90  C   UNL A   1      39.123  30.142  33.943  1.00  0.00     0.041 A 
ATOM     91  C   UNL A   1      39.508  30.543  35.216  1.00  0.00     0.023 A 
ATOM     92  Cl  UNL A   1      39.995  28.893  33.145  1.00  0.00    -0.084 Cl
ENDBRANCH  80  82
ENDBRANCH  78  80
ENDBRANCH  72  74
ENDBRANCH  71  72
ENDBRANCH  70  71
ENDBRANCH   1  70
TORSDOF 13
ENDMDL
