MODEL 1
REMARK VINA RESULT:     -11.5      0.000      0.000
REMARK SMILES CC(C)[C@H](NS(=O)(=O)N1C[C@@H](C)O[C@H](C)C1)C(=O)OCCOC(=O)c1ccc(-c2c3nc(c(-c4c(F)c(F)c(F)c(F)c4F)c4ccc([nH]4)c(-c4c(F)c(F)c(F)c(F)c4F)c4nc(c(-c5c(F)c(F)c(F)c(F)c5F)c5ccc2[nH]5)C=C4)C=C3)cc1
REMARK SMILES IDX 20 1 19 2 17 3 18 4 4 5 2 6 1 7 3 8 5 9 6 11 7 12 8 13 9 14
REMARK SMILES IDX 10 15 16 16 11 17 14 18 12 19 13 20 15 21 21 22 22 23 23 24
REMARK SMILES IDX 24 25 25 26 26 27 87 28 27 29 86 30 28 31 29 32 30 33 80 34
REMARK SMILES IDX 31 35 85 36 79 37 81 38 32 39 84 40 78 41 77 42 33 44 65 45
REMARK SMILES IDX 45 46 64 47 46 48 49 49 63 50 82 51 47 52 48 53 62 55 83 56
REMARK SMILES IDX 50 57 34 58 35 59 43 60 36 61 37 62 41 63 44 64 38 65 39 66
REMARK SMILES IDX 42 67 40 68 66 69 67 70 75 71 68 72 69 73 73 74 76 75 70 76
REMARK SMILES IDX 71 77 74 78 72 79 51 80 52 81 60 82 53 83 54 84 58 85 61 86
REMARK SMILES IDX 55 87 56 88 59 89 57 90
REMARK H PARENT 5 10 81 43 49 54
REMARK Flexibility Score: inf
ROOT
ATOM      1  C   UNL A   1      31.394  29.866  25.419  1.00  0.00     0.274 C 
ENDROOT
BRANCH   1   2
ATOM      2  O   UNL A   1      32.131  28.686  25.808  1.00  0.00    -0.461 OA
BRANCH   2   3
ATOM      3  C   UNL A   1      31.414  27.707  26.428  1.00  0.00     0.324 C 
ATOM      4  O   UNL A   1      31.099  27.732  27.614  1.00  0.00    -0.250 OA
BRANCH   3   5
ATOM      5  C   UNL A   1      31.090  26.512  25.515  1.00  0.00     0.183 C 
BRANCH   5   6
ATOM      6  C   UNL A   1      30.190  26.986  24.343  1.00  0.00     0.012 C 
ATOM      7  C   UNL A   1      30.872  26.995  22.967  1.00  0.00     0.009 C 
ATOM      8  C   UNL A   1      28.918  26.134  24.277  1.00  0.00     0.009 C 
ENDBRANCH   5   6
BRANCH   5   9
ATOM      9  N   UNL A   1      30.513  25.366  26.252  1.00  0.00    -0.188 NA
ATOM     10  H   UNL A   1      29.567  25.254  25.888  1.00  0.00     0.143 HD
BRANCH   9  11
ATOM     11  S   UNL A   1      31.172  23.834  26.270  1.00  0.00     0.280 S 
ATOM     12  O   UNL A   1      31.617  23.647  27.628  1.00  0.00    -0.195 OA
ATOM     13  O   UNL A   1      30.285  22.896  25.628  1.00  0.00    -0.195 OA
BRANCH  11  14
ATOM     14  N   UNL A   1      32.542  24.018  25.291  1.00  0.00    -0.184 NA
ATOM     15  C   UNL A   1      32.530  23.221  24.013  1.00  0.00     0.135 C 
ATOM     16  C   UNL A   1      33.841  23.709  25.996  1.00  0.00     0.135 C 
ATOM     17  C   UNL A   1      33.756  23.577  23.146  1.00  0.00     0.130 C 
ATOM     18  C   UNL A   1      35.006  24.167  25.102  1.00  0.00     0.130 C 
ATOM     19  C   UNL A   1      33.619  24.960  22.538  1.00  0.00     0.040 C 
ATOM     20  O   UNL A   1      34.995  23.449  23.857  1.00  0.00    -0.373 OA
ATOM     21  C   UNL A   1      36.354  23.912  25.760  1.00  0.00     0.040 C 
ENDBRANCH  11  14
ENDBRANCH   9  11
ENDBRANCH   5   9
ENDBRANCH   3   5
ENDBRANCH   2   3
ENDBRANCH   1   2
BRANCH   1  22
ATOM     22  C   UNL A   1      31.683  31.078  26.314  1.00  0.00     0.275 C 
BRANCH  22  23
ATOM     23  O   UNL A   1      32.793  30.852  27.202  1.00  0.00    -0.458 OA
BRANCH  23  24
ATOM     24  C   UNL A   1      33.513  31.959  27.485  1.00  0.00     0.338 C 
ATOM     25  O   UNL A   1      33.098  33.102  27.609  1.00  0.00    -0.246 OA
BRANCH  24  26
ATOM     26  C   UNL A   1      34.892  31.594  27.833  1.00  0.00     0.060 A 
ATOM     27  C   UNL A   1      35.120  30.252  28.112  1.00  0.00     0.016 A 
ATOM     28  C   UNL A   1      35.902  32.535  28.036  1.00  0.00     0.016 A 
ATOM     29  C   UNL A   1      36.330  29.854  28.653  1.00  0.00     0.010 A 
ATOM     30  C   UNL A   1      37.132  32.120  28.576  1.00  0.00     0.010 A 
ATOM     31  C   UNL A   1      37.339  30.778  28.935  1.00  0.00    -0.014 A 
BRANCH  31  32
ATOM     32  C   UNL A   1      38.518  30.291  29.710  1.00  0.00     0.031 A 
ATOM     33  C   UNL A   1      38.672  30.648  31.166  1.00  0.00     0.074 A 
ATOM     34  C   UNL A   1      39.361  29.394  29.158  1.00  0.00     0.049 A 
ATOM     35  N   UNL A   1      39.625  30.323  32.006  1.00  0.00    -0.248 NA
ATOM     36  C   UNL A   1      37.616  31.480  31.762  1.00  0.00     0.031 C 
ATOM     37  C   UNL A   1      39.273  28.888  27.785  1.00  0.00     0.029 A 
ATOM     38  N   UNL A   1      40.427  28.711  29.692  1.00  0.00    -0.354 N 
ATOM     39  C   UNL A   1      39.309  30.946  33.206  1.00  0.00     0.074 A 
ATOM     40  C   UNL A   1      38.080  31.679  32.986  1.00  0.00     0.031 C 
ATOM     41  C   UNL A   1      40.201  27.937  27.606  1.00  0.00     0.029 A 
ATOM     42  C   UNL A   1      41.013  27.834  28.813  1.00  0.00     0.049 A 
ATOM     43  H   UNL A   1      40.741  28.840  30.616  1.00  0.00     0.167 HD
ATOM     44  C   UNL A   1      39.981  30.912  34.383  1.00  0.00     0.037 A 
ATOM     45  C   UNL A   1      42.105  27.057  28.945  1.00  0.00     0.037 A 
ATOM     46  C   UNL A   1      41.181  30.146  34.611  1.00  0.00     0.049 A 
ATOM     47  C   UNL A   1      42.865  27.081  30.244  1.00  0.00     0.074 A 
ATOM     48  C   UNL A   1      41.941  30.054  35.765  1.00  0.00     0.029 A 
ATOM     49  N   UNL A   1      41.791  29.329  33.670  1.00  0.00    -0.354 N 
ATOM     50  N   UNL A   1      42.593  27.729  31.350  1.00  0.00    -0.248 NA
ATOM     51  C   UNL A   1      44.089  26.274  30.304  1.00  0.00     0.031 C 
ATOM     52  C   UNL A   1      43.040  29.227  35.503  1.00  0.00     0.029 A 
ATOM     53  C   UNL A   1      42.928  28.746  34.210  1.00  0.00     0.049 A 
ATOM     54  H   UNL A   1      41.464  29.184  32.751  1.00  0.00     0.167 HD
ATOM     55  C   UNL A   1      43.599  27.392  32.245  1.00  0.00     0.074 A 
ATOM     56  C   UNL A   1      44.470  26.460  31.558  1.00  0.00     0.031 C 
ATOM     57  C   UNL A   1      43.788  27.819  33.519  1.00  0.00     0.037 A 
BRANCH  44  58
ATOM     58  C   UNL A   1      39.467  31.771  35.507  1.00  0.00     0.064 A 
ATOM     59  C   UNL A   1      38.513  31.313  36.427  1.00  0.00     0.173 A 
ATOM     60  C   UNL A   1      39.966  33.073  35.679  1.00  0.00     0.173 A 
ATOM     61  F   UNL A   1      37.989  30.084  36.304  1.00  0.00    -0.203 F 
ATOM     62  C   UNL A   1      38.056  32.135  37.457  1.00  0.00     0.198 A 
ATOM     63  C   UNL A   1      39.533  33.878  36.729  1.00  0.00     0.198 A 
ATOM     64  F   UNL A   1      40.884  33.562  34.832  1.00  0.00    -0.203 F 
ATOM     65  F   UNL A   1      37.103  31.694  38.291  1.00  0.00    -0.200 F 
ATOM     66  C   UNL A   1      38.572  33.412  37.612  1.00  0.00     0.200 A 
ATOM     67  F   UNL A   1      40.045  35.107  36.884  1.00  0.00    -0.200 F 
ATOM     68  F   UNL A   1      38.137  34.198  38.606  1.00  0.00    -0.200 F 
ENDBRANCH  44  58
BRANCH  45  69
ATOM     69  C   UNL A   1      42.572  26.227  27.802  1.00  0.00     0.064 A 
ATOM     70  C   UNL A   1      43.524  26.706  26.892  1.00  0.00     0.173 A 
ATOM     71  C   UNL A   1      42.062  24.936  27.588  1.00  0.00     0.173 A 
ATOM     72  F   UNL A   1      44.025  27.943  27.035  1.00  0.00    -0.203 F 
ATOM     73  C   UNL A   1      43.936  25.935  25.806  1.00  0.00     0.198 A 
ATOM     74  C   UNL A   1      42.503  24.152  26.526  1.00  0.00     0.198 A 
ATOM     75  F   UNL A   1      41.145  24.429  28.425  1.00  0.00    -0.203 F 
ATOM     76  F   UNL A   1      44.807  26.439  24.922  1.00  0.00    -0.200 F 
ATOM     77  C   UNL A   1      43.431  24.655  25.629  1.00  0.00     0.200 A 
ATOM     78  F   UNL A   1      42.026  22.908  26.373  1.00  0.00    -0.200 F 
ATOM     79  F   UNL A   1      43.835  23.910  24.592  1.00  0.00    -0.200 F 
ENDBRANCH  45  69
BRANCH  57  80
ATOM     80  C   UNL A   1      44.957  27.240  34.265  1.00  0.00     0.064 A 
ATOM     81  C   UNL A   1      44.852  26.056  35.011  1.00  0.00     0.173 A 
ATOM     82  C   UNL A   1      46.203  27.888  34.241  1.00  0.00     0.173 A 
ATOM     83  F   UNL A   1      43.680  25.404  35.079  1.00  0.00    -0.203 F 
ATOM     84  C   UNL A   1      45.931  25.571  35.744  1.00  0.00     0.198 A 
ATOM     85  C   UNL A   1      47.291  27.379  34.944  1.00  0.00     0.198 A 
ATOM     86  F   UNL A   1      46.365  29.018  33.536  1.00  0.00    -0.203 F 
ATOM     87  F   UNL A   1      45.782  24.481  36.511  1.00  0.00    -0.200 F 
ATOM     88  C   UNL A   1      47.150  26.230  35.708  1.00  0.00     0.200 A 
ATOM     89  F   UNL A   1      48.473  28.009  34.894  1.00  0.00    -0.200 F 
ATOM     90  F   UNL A   1      48.187  25.766  36.419  1.00  0.00    -0.200 F 
ENDBRANCH  57  80
ENDBRANCH  31  32
ENDBRANCH  24  26
ENDBRANCH  23  24
ENDBRANCH  22  23
ENDBRANCH   1  22
TORSDOF 15
ENDMDL
MODEL 2
REMARK VINA RESULT:     -11.5      0.971      1.747
REMARK SMILES CC(C)[C@H](NS(=O)(=O)N1C[C@@H](C)O[C@H](C)C1)C(=O)OCCOC(=O)c1ccc(-c2c3nc(c(-c4c(F)c(F)c(F)c(F)c4F)c4ccc([nH]4)c(-c4c(F)c(F)c(F)c(F)c4F)c4nc(c(-c5c(F)c(F)c(F)c(F)c5F)c5ccc2[nH]5)C=C4)C=C3)cc1
REMARK SMILES IDX 20 1 19 2 17 3 18 4 4 5 2 6 1 7 3 8 5 9 6 11 7 12 8 13 9 14
REMARK SMILES IDX 10 15 16 16 11 17 14 18 12 19 13 20 15 21 21 22 22 23 23 24
REMARK SMILES IDX 24 25 25 26 26 27 87 28 27 29 86 30 28 31 29 32 30 33 80 34
REMARK SMILES IDX 31 35 85 36 79 37 81 38 32 39 84 40 78 41 77 42 33 44 65 45
REMARK SMILES IDX 45 46 64 47 46 48 49 49 63 50 82 51 47 52 48 53 62 55 83 56
REMARK SMILES IDX 50 57 34 58 35 59 43 60 36 61 37 62 41 63 44 64 38 65 39 66
REMARK SMILES IDX 42 67 40 68 66 69 67 70 75 71 68 72 69 73 73 74 76 75 70 76
REMARK SMILES IDX 71 77 74 78 72 79 51 80 52 81 60 82 53 83 54 84 58 85 61 86
REMARK SMILES IDX 55 87 56 88 59 89 57 90
REMARK H PARENT 5 10 81 43 49 54
REMARK Flexibility Score: inf
ROOT
ATOM      1  C   UNL A   1      31.775  29.790  25.620  1.00  0.00     0.274 C 
ENDROOT
BRANCH   1   2
ATOM      2  O   UNL A   1      30.809  29.703  24.550  1.00  0.00    -0.461 OA
BRANCH   2   3
ATOM      3  C   UNL A   1      30.764  28.520  23.875  1.00  0.00     0.324 C 
ATOM      4  O   UNL A   1      29.784  28.119  23.254  1.00  0.00    -0.250 OA
BRANCH   3   5
ATOM      5  C   UNL A   1      32.046  27.681  24.020  1.00  0.00     0.183 C 
BRANCH   5   6
ATOM      6  C   UNL A   1      32.818  27.681  22.675  1.00  0.00     0.012 C 
ATOM      7  C   UNL A   1      34.064  28.578  22.644  1.00  0.00     0.009 C 
ATOM      8  C   UNL A   1      33.211  26.249  22.293  1.00  0.00     0.009 C 
ENDBRANCH   5   6
BRANCH   5   9
ATOM      9  N   UNL A   1      31.785  26.318  24.531  1.00  0.00    -0.188 NA
ATOM     10  H   UNL A   1      32.100  25.685  23.797  1.00  0.00     0.143 HD
BRANCH   9  11
ATOM     11  S   UNL A   1      32.416  25.710  25.950  1.00  0.00     0.280 S 
ATOM     12  O   UNL A   1      33.343  26.720  26.397  1.00  0.00    -0.195 OA
ATOM     13  O   UNL A   1      31.360  25.221  26.803  1.00  0.00    -0.195 OA
BRANCH  11  14
ATOM     14  N   UNL A   1      33.312  24.380  25.407  1.00  0.00    -0.184 NA
ATOM     15  C   UNL A   1      32.864  23.043  25.936  1.00  0.00     0.135 C 
ATOM     16  C   UNL A   1      34.794  24.492  25.679  1.00  0.00     0.135 C 
ATOM     17  C   UNL A   1      33.661  21.905  25.265  1.00  0.00     0.130 C 
ATOM     18  C   UNL A   1      35.519  23.373  24.912  1.00  0.00     0.130 C 
ATOM     19  C   UNL A   1      33.242  21.715  23.820  1.00  0.00     0.040 C 
ATOM     20  O   UNL A   1      35.080  22.084  25.370  1.00  0.00    -0.373 OA
ATOM     21  C   UNL A   1      37.026  23.437  25.115  1.00  0.00     0.040 C 
ENDBRANCH  11  14
ENDBRANCH   9  11
ENDBRANCH   5   9
ENDBRANCH   3   5
ENDBRANCH   2   3
ENDBRANCH   1   2
BRANCH   1  22
ATOM     22  C   UNL A   1      31.758  31.144  26.339  1.00  0.00     0.275 C 
BRANCH  22  23
ATOM     23  O   UNL A   1      32.592  31.152  27.512  1.00  0.00    -0.458 OA
BRANCH  23  24
ATOM     24  C   UNL A   1      33.376  32.246  27.628  1.00  0.00     0.338 C 
ATOM     25  O   UNL A   1      33.023  33.416  27.622  1.00  0.00    -0.246 OA
BRANCH  24  26
ATOM     26  C   UNL A   1      34.748  31.854  27.973  1.00  0.00     0.060 A 
ATOM     27  C   UNL A   1      34.957  30.502  28.219  1.00  0.00     0.016 A 
ATOM     28  C   UNL A   1      35.770  32.776  28.204  1.00  0.00     0.016 A 
ATOM     29  C   UNL A   1      36.159  30.074  28.755  1.00  0.00     0.010 A 
ATOM     30  C   UNL A   1      36.992  32.330  28.739  1.00  0.00     0.010 A 
ATOM     31  C   UNL A   1      37.179  30.976  29.064  1.00  0.00    -0.014 A 
BRANCH  31  32
ATOM     32  C   UNL A   1      38.349  30.454  29.831  1.00  0.00     0.031 A 
ATOM     33  C   UNL A   1      38.506  30.781  31.294  1.00  0.00     0.074 A 
ATOM     34  C   UNL A   1      39.177  29.554  29.264  1.00  0.00     0.049 A 
ATOM     35  N   UNL A   1      39.451  30.423  32.129  1.00  0.00    -0.248 NA
ATOM     36  C   UNL A   1      37.463  31.620  31.904  1.00  0.00     0.031 C 
ATOM     37  C   UNL A   1      39.082  29.076  27.882  1.00  0.00     0.029 A 
ATOM     38  N   UNL A   1      40.229  28.842  29.786  1.00  0.00    -0.354 N 
ATOM     39  C   UNL A   1      39.144  31.029  33.341  1.00  0.00     0.074 A 
ATOM     40  C   UNL A   1      37.929  31.788  33.133  1.00  0.00     0.031 C 
ATOM     41  C   UNL A   1      39.994  28.112  27.686  1.00  0.00     0.029 A 
ATOM     42  C   UNL A   1      40.801  27.972  28.891  1.00  0.00     0.049 A 
ATOM     43  H   UNL A   1      40.543  28.948  30.713  1.00  0.00     0.167 HD
ATOM     44  C   UNL A   1      39.813  30.960  34.518  1.00  0.00     0.037 A 
ATOM     45  C   UNL A   1      41.880  27.173  29.011  1.00  0.00     0.037 A 
ATOM     46  C   UNL A   1      40.999  30.169  34.733  1.00  0.00     0.049 A 
ATOM     47  C   UNL A   1      42.637  27.160  30.310  1.00  0.00     0.074 A 
ATOM     48  C   UNL A   1      41.756  30.042  35.886  1.00  0.00     0.029 A 
ATOM     49  N   UNL A   1      41.596  29.360  33.777  1.00  0.00    -0.354 N 
ATOM     50  N   UNL A   1      42.375  27.791  31.429  1.00  0.00    -0.248 NA
ATOM     51  C   UNL A   1      43.847  26.330  30.357  1.00  0.00     0.031 C 
ATOM     52  C   UNL A   1      42.840  29.201  35.610  1.00  0.00     0.029 A 
ATOM     53  C   UNL A   1      42.722  28.747  34.307  1.00  0.00     0.049 A 
ATOM     54  H   UNL A   1      41.268  29.238  32.856  1.00  0.00     0.167 HD
ATOM     55  C   UNL A   1      43.373  27.419  32.318  1.00  0.00     0.074 A 
ATOM     56  C   UNL A   1      44.229  26.485  31.615  1.00  0.00     0.031 C 
ATOM     57  C   UNL A   1      43.567  27.819  33.600  1.00  0.00     0.037 A 
BRANCH  44  58
ATOM     58  C   UNL A   1      39.312  31.807  35.657  1.00  0.00     0.064 A 
ATOM     59  C   UNL A   1      38.395  31.327  36.603  1.00  0.00     0.173 A 
ATOM     60  C   UNL A   1      39.787  33.119  35.817  1.00  0.00     0.173 A 
ATOM     61  F   UNL A   1      37.895  30.087  36.492  1.00  0.00    -0.203 F 
ATOM     62  C   UNL A   1      37.950  32.137  37.646  1.00  0.00     0.198 A 
ATOM     63  C   UNL A   1      39.367  33.914  36.880  1.00  0.00     0.198 A 
ATOM     64  F   UNL A   1      40.670  33.630  34.945  1.00  0.00    -0.203 F 
ATOM     65  F   UNL A   1      37.031  31.675  38.506  1.00  0.00    -0.200 F 
ATOM     66  C   UNL A   1      38.441  33.426  37.789  1.00  0.00     0.200 A 
ATOM     67  F   UNL A   1      39.856  35.153  37.023  1.00  0.00    -0.200 F 
ATOM     68  F   UNL A   1      38.017  34.201  38.797  1.00  0.00    -0.200 F 
ENDBRANCH  44  58
BRANCH  45  69
ATOM     69  C   UNL A   1      42.334  26.357  27.852  1.00  0.00     0.064 A 
ATOM     70  C   UNL A   1      43.304  26.832  26.960  1.00  0.00     0.173 A 
ATOM     71  C   UNL A   1      41.793  25.085  27.606  1.00  0.00     0.173 A 
ATOM     72  F   UNL A   1      43.835  28.052  27.133  1.00  0.00    -0.203 F 
ATOM     73  C   UNL A   1      43.704  26.075  25.859  1.00  0.00     0.198 A 
ATOM     74  C   UNL A   1      42.222  24.313  26.530  1.00  0.00     0.198 A 
ATOM     75  F   UNL A   1      40.858  24.583  28.425  1.00  0.00    -0.203 F 
ATOM     76  F   UNL A   1      44.595  26.576  24.993  1.00  0.00    -0.200 F 
ATOM     77  C   UNL A   1      43.170  24.812  25.651  1.00  0.00     0.200 A 
ATOM     78  F   UNL A   1      41.716  23.086  26.346  1.00  0.00    -0.200 F 
ATOM     79  F   UNL A   1      43.562  24.081  24.600  1.00  0.00    -0.200 F 
ENDBRANCH  45  69
BRANCH  57  80
ATOM     80  C   UNL A   1      44.725  27.205  34.337  1.00  0.00     0.064 A 
ATOM     81  C   UNL A   1      45.997  27.797  34.349  1.00  0.00     0.173 A 
ATOM     82  C   UNL A   1      44.560  25.997  35.034  1.00  0.00     0.173 A 
ATOM     83  F   UNL A   1      46.213  28.945  33.686  1.00  0.00    -0.203 F 
ATOM     84  C   UNL A   1      47.070  27.180  34.985  1.00  0.00     0.198 A 
ATOM     85  C   UNL A   1      45.626  25.402  35.703  1.00  0.00     0.198 A 
ATOM     86  F   UNL A   1      43.364  25.392  35.065  1.00  0.00    -0.203 F 
ATOM     87  F   UNL A   1      48.293  27.726  34.916  1.00  0.00    -0.200 F 
ATOM     88  C   UNL A   1      46.884  25.985  35.664  1.00  0.00     0.200 A 
ATOM     89  F   UNL A   1      45.439  24.257  36.372  1.00  0.00    -0.200 F 
ATOM     90  F   UNL A   1      47.919  25.389  36.272  1.00  0.00    -0.200 F 
ENDBRANCH  57  80
ENDBRANCH  31  32
ENDBRANCH  24  26
ENDBRANCH  23  24
ENDBRANCH  22  23
ENDBRANCH   1  22
TORSDOF 15
ENDMDL
MODEL 3
REMARK VINA RESULT:     -11.5      4.279      9.759
REMARK SMILES CC(C)[C@H](NS(=O)(=O)N1C[C@@H](C)O[C@H](C)C1)C(=O)OCCOC(=O)c1ccc(-c2c3nc(c(-c4c(F)c(F)c(F)c(F)c4F)c4ccc([nH]4)c(-c4c(F)c(F)c(F)c(F)c4F)c4nc(c(-c5c(F)c(F)c(F)c(F)c5F)c5ccc2[nH]5)C=C4)C=C3)cc1
REMARK SMILES IDX 20 1 19 2 17 3 18 4 4 5 2 6 1 7 3 8 5 9 6 11 7 12 8 13 9 14
REMARK SMILES IDX 10 15 16 16 11 17 14 18 12 19 13 20 15 21 21 22 22 23 23 24
REMARK SMILES IDX 24 25 25 26 26 27 87 28 27 29 86 30 28 31 29 32 30 33 80 34
REMARK SMILES IDX 31 35 85 36 79 37 81 38 32 39 84 40 78 41 77 42 33 44 65 45
REMARK SMILES IDX 45 46 64 47 46 48 49 49 63 50 82 51 47 52 48 53 62 55 83 56
REMARK SMILES IDX 50 57 34 58 35 59 43 60 36 61 37 62 41 63 44 64 38 65 39 66
REMARK SMILES IDX 42 67 40 68 66 69 67 70 75 71 68 72 69 73 73 74 76 75 70 76
REMARK SMILES IDX 71 77 74 78 72 79 51 80 52 81 60 82 53 83 54 84 58 85 61 86
REMARK SMILES IDX 55 87 56 88 59 89 57 90
REMARK H PARENT 5 10 81 43 49 54
REMARK Flexibility Score: inf
ROOT
ATOM      1  C   UNL A   1      36.021  21.090  25.078  1.00  0.00     0.274 C 
ENDROOT
BRANCH   1   2
ATOM      2  O   UNL A   1      34.949  20.123  25.045  1.00  0.00    -0.461 OA
BRANCH   2   3
ATOM      3  C   UNL A   1      33.735  20.584  24.629  1.00  0.00     0.324 C 
ATOM      4  O   UNL A   1      32.916  19.907  24.015  1.00  0.00    -0.250 OA
BRANCH   3   5
ATOM      5  C   UNL A   1      33.507  22.074  24.938  1.00  0.00     0.183 C 
BRANCH   5   6
ATOM      6  C   UNL A   1      32.707  22.211  26.260  1.00  0.00     0.012 C 
ATOM      7  C   UNL A   1      33.565  22.270  27.532  1.00  0.00     0.009 C 
ATOM      8  C   UNL A   1      31.797  23.444  26.201  1.00  0.00     0.009 C 
ENDBRANCH   5   6
BRANCH   5   9
ATOM      9  N   UNL A   1      32.883  22.804  23.813  1.00  0.00    -0.188 NA
ATOM     10  H   UNL A   1      32.169  23.398  24.233  1.00  0.00     0.143 HD
BRANCH   9  11
ATOM     11  S   UNL A   1      33.717  23.786  22.753  1.00  0.00     0.280 S 
ATOM     12  O   UNL A   1      35.099  23.642  23.136  1.00  0.00    -0.195 OA
ATOM     13  O   UNL A   1      33.278  23.552  21.398  1.00  0.00    -0.195 OA
BRANCH  11  14
ATOM     14  N   UNL A   1      33.204  25.333  23.213  1.00  0.00    -0.184 NA
ATOM     15  C   UNL A   1      33.274  26.381  22.134  1.00  0.00     0.135 C 
ATOM     16  C   UNL A   1      33.931  25.883  24.416  1.00  0.00     0.135 C 
ATOM     17  C   UNL A   1      32.653  27.704  22.628  1.00  0.00     0.130 C 
ATOM     18  C   UNL A   1      33.203  27.152  24.892  1.00  0.00     0.130 C 
ATOM     19  C   UNL A   1      31.143  27.601  22.728  1.00  0.00     0.040 C 
ATOM     20  O   UNL A   1      33.221  28.156  23.864  1.00  0.00    -0.373 OA
ATOM     21  C   UNL A   1      33.864  27.752  26.124  1.00  0.00     0.040 C 
ENDBRANCH  11  14
ENDBRANCH   9  11
ENDBRANCH   5   9
ENDBRANCH   3   5
ENDBRANCH   2   3
ENDBRANCH   1   2
BRANCH   1  22
ATOM     22  C   UNL A   1      37.413  20.450  25.002  1.00  0.00     0.275 C 
BRANCH  22  23
ATOM     23  O   UNL A   1      38.469  21.415  25.156  1.00  0.00    -0.458 OA
BRANCH  23  24
ATOM     24  C   UNL A   1      39.393  21.083  26.084  1.00  0.00     0.338 C 
ATOM     25  O   UNL A   1      39.932  19.998  26.239  1.00  0.00    -0.246 OA
BRANCH  24  26
ATOM     26  C   UNL A   1      39.844  22.282  26.803  1.00  0.00     0.060 A 
ATOM     27  C   UNL A   1      39.262  23.484  26.420  1.00  0.00     0.016 A 
ATOM     28  C   UNL A   1      40.904  22.272  27.711  1.00  0.00     0.016 A 
ATOM     29  C   UNL A   1      39.774  24.681  26.888  1.00  0.00     0.010 A 
ATOM     30  C   UNL A   1      41.411  23.494  28.190  1.00  0.00     0.010 A 
ATOM     31  C   UNL A   1      40.879  24.714  27.742  1.00  0.00    -0.014 A 
BRANCH  31  32
ATOM     32  C   UNL A   1      41.490  26.047  28.023  1.00  0.00     0.031 A 
ATOM     33  C   UNL A   1      42.832  26.407  27.437  1.00  0.00     0.074 A 
ATOM     34  C   UNL A   1      40.772  26.995  28.660  1.00  0.00     0.049 A 
ATOM     35  N   UNL A   1      43.526  27.511  27.566  1.00  0.00    -0.248 NA
ATOM     36  C   UNL A   1      43.482  25.393  26.593  1.00  0.00     0.031 C 
ATOM     37  C   UNL A   1      39.421  26.811  29.196  1.00  0.00     0.029 A 
ATOM     38  N   UNL A   1      41.054  28.313  28.924  1.00  0.00    -0.354 N 
ATOM     39  C   UNL A   1      44.707  27.307  26.864  1.00  0.00     0.074 A 
ATOM     40  C   UNL A   1      44.643  25.969  26.318  1.00  0.00     0.031 C 
ATOM     41  C   UNL A   1      38.971  27.983  29.667  1.00  0.00     0.029 A 
ATOM     42  C   UNL A   1      40.033  28.976  29.559  1.00  0.00     0.049 A 
ATOM     43  H   UNL A   1      41.907  28.741  28.680  1.00  0.00     0.167 HD
ATOM     44  C   UNL A   1      45.749  28.157  26.692  1.00  0.00     0.037 A 
ATOM     45  C   UNL A   1      39.967  30.234  30.038  1.00  0.00     0.037 A 
ATOM     46  C   UNL A   1      45.791  29.506  27.201  1.00  0.00     0.049 A 
ATOM     47  C   UNL A   1      41.159  31.137  29.882  1.00  0.00     0.074 A 
ATOM     48  C   UNL A   1      46.806  30.441  27.087  1.00  0.00     0.029 A 
ATOM     49  N   UNL A   1      44.767  30.116  27.910  1.00  0.00    -0.354 N 
ATOM     50  N   UNL A   1      42.298  30.909  29.275  1.00  0.00    -0.248 NA
ATOM     51  C   UNL A   1      41.059  32.469  30.490  1.00  0.00     0.031 C 
ATOM     52  C   UNL A   1      46.418  31.596  27.776  1.00  0.00     0.029 A 
ATOM     53  C   UNL A   1      45.134  31.409  28.259  1.00  0.00     0.049 A 
ATOM     54  H   UNL A   1      43.905  29.695  28.134  1.00  0.00     0.167 HD
ATOM     55  C   UNL A   1      43.041  32.074  29.408  1.00  0.00     0.074 A 
ATOM     56  C   UNL A   1      42.210  33.015  30.131  1.00  0.00     0.031 C 
ATOM     57  C   UNL A   1      44.299  32.338  28.977  1.00  0.00     0.037 A 
BRANCH  44  58
ATOM     58  C   UNL A   1      46.961  27.639  25.965  1.00  0.00     0.064 A 
ATOM     59  C   UNL A   1      47.087  27.705  24.570  1.00  0.00     0.173 A 
ATOM     60  C   UNL A   1      48.031  27.089  26.690  1.00  0.00     0.173 A 
ATOM     61  F   UNL A   1      46.090  28.206  23.824  1.00  0.00    -0.203 F 
ATOM     62  C   UNL A   1      48.222  27.215  23.927  1.00  0.00     0.198 A 
ATOM     63  C   UNL A   1      49.178  26.632  26.048  1.00  0.00     0.198 A 
ATOM     64  F   UNL A   1      47.968  27.004  28.028  1.00  0.00    -0.203 F 
ATOM     65  F   UNL A   1      48.296  27.239  22.589  1.00  0.00    -0.200 F 
ATOM     66  C   UNL A   1      49.270  26.686  24.666  1.00  0.00     0.200 A 
ATOM     67  F   UNL A   1      50.195  26.136  26.767  1.00  0.00    -0.200 F 
ATOM     68  F   UNL A   1      50.363  26.221  24.047  1.00  0.00    -0.200 F 
ENDBRANCH  44  58
BRANCH  45  69
ATOM     69  C   UNL A   1      38.745  30.696  30.749  1.00  0.00     0.064 A 
ATOM     70  C   UNL A   1      38.647  30.638  32.146  1.00  0.00     0.173 A 
ATOM     71  C   UNL A   1      37.639  31.195  30.042  1.00  0.00     0.173 A 
ATOM     72  F   UNL A   1      39.664  30.144  32.870  1.00  0.00    -0.203 F 
ATOM     73  C   UNL A   1      37.488  31.045  32.806  1.00  0.00     0.198 A 
ATOM     74  C   UNL A   1      36.498  31.639  30.704  1.00  0.00     0.198 A 
ATOM     75  F   UNL A   1      37.676  31.269  28.703  1.00  0.00    -0.203 F 
ATOM     76  F   UNL A   1      37.402  30.929  34.138  1.00  0.00    -0.200 F 
ATOM     77  C   UNL A   1      36.418  31.554  32.084  1.00  0.00     0.200 A 
ATOM     78  F   UNL A   1      35.476  32.148  30.002  1.00  0.00    -0.200 F 
ATOM     79  F   UNL A   1      35.309  31.955  32.719  1.00  0.00    -0.200 F 
ENDBRANCH  45  69
BRANCH  57  80
ATOM     80  C   UNL A   1      44.831  33.721  29.234  1.00  0.00     0.064 A 
ATOM     81  C   UNL A   1      44.632  34.774  28.329  1.00  0.00     0.173 A 
ATOM     82  C   UNL A   1      45.560  33.992  30.403  1.00  0.00     0.173 A 
ATOM     83  F   UNL A   1      43.955  34.566  27.189  1.00  0.00    -0.203 F 
ATOM     84  C   UNL A   1      45.186  36.031  28.558  1.00  0.00     0.198 A 
ATOM     85  C   UNL A   1      46.079  35.260  30.648  1.00  0.00     0.198 A 
ATOM     86  F   UNL A   1      45.771  33.026  31.309  1.00  0.00    -0.203 F 
ATOM     87  F   UNL A   1      45.049  36.999  27.640  1.00  0.00    -0.200 F 
ATOM     88  C   UNL A   1      45.906  36.274  29.718  1.00  0.00     0.200 A 
ATOM     89  F   UNL A   1      46.760  35.497  31.778  1.00  0.00    -0.200 F 
ATOM     90  F   UNL A   1      46.443  37.483  29.935  1.00  0.00    -0.200 F 
ENDBRANCH  57  80
ENDBRANCH  31  32
ENDBRANCH  24  26
ENDBRANCH  23  24
ENDBRANCH  22  23
ENDBRANCH   1  22
TORSDOF 15
ENDMDL
