MODEL 1
REMARK VINA RESULT:     -11.9      0.000      0.000
REMARK SMILES O=C(OCCOC(=O)c1ccc(CN2CC(=O)N3CCCC[C@@H]3C2=O)o1)c1ccc(-c2c3nc(c(-c4c(F)c(F)c(F)c(F)c4F)c4ccc([nH]4)c(-c4c(F)c(F)c(F)c(F)c4F)c4nc(c(-c5c(F)c(F)c(F)c(F)c5F)c5ccc2[nH]5)C=C4)C=C3)cc1
REMARK SMILES IDX 4 1 3 2 2 3 1 4 27 5 28 6 89 7 29 8 88 9 30 10 31 11 32 12
REMARK SMILES IDX 82 13 33 14 87 15 81 16 83 17 34 18 86 19 80 20 79 21 35 23
REMARK SMILES IDX 67 24 47 25 66 26 48 27 51 28 65 29 84 30 49 31 50 32 64 34
REMARK SMILES IDX 85 35 52 36 36 37 37 38 45 39 38 40 39 41 43 42 46 43 40 44
REMARK SMILES IDX 41 45 44 46 42 47 68 48 69 49 77 50 70 51 71 52 75 53 78 54
REMARK SMILES IDX 72 55 73 56 76 57 74 58 53 59 54 60 62 61 55 62 56 63 60 64
REMARK SMILES IDX 63 65 57 66 58 67 61 68 59 69 5 70 6 71 7 72 8 73 9 74 10 75
REMARK SMILES IDX 26 76 11 77 12 78 13 79 14 80 15 81 24 82 16 83 23 84 25 85
REMARK SMILES IDX 17 86 18 87 22 88 19 89 21 90 20 91
REMARK H PARENT 83 22 51 33
REMARK Flexibility Score: inf
ROOT
ATOM      1  C   UNL A   1      40.921  21.224  26.222  1.00  0.00     0.275 C 
ENDROOT
BRANCH   1   2
ATOM      2  O   UNL A   1      39.802  21.779  26.935  1.00  0.00    -0.458 OA
BRANCH   2   3
ATOM      3  C   UNL A   1      39.045  22.835  26.547  1.00  0.00     0.338 C 
ATOM      4  O   UNL A   1      38.178  22.701  25.690  1.00  0.00    -0.246 OA
BRANCH   3   5
ATOM      5  C   UNL A   1      39.397  24.215  26.981  1.00  0.00     0.060 A 
ATOM      6  C   UNL A   1      40.085  25.138  26.191  1.00  0.00     0.016 A 
ATOM      7  C   UNL A   1      39.112  24.554  28.314  1.00  0.00     0.016 A 
ATOM      8  C   UNL A   1      40.420  26.398  26.694  1.00  0.00     0.010 A 
ATOM      9  C   UNL A   1      39.461  25.810  28.827  1.00  0.00     0.010 A 
ATOM     10  C   UNL A   1      40.117  26.742  28.015  1.00  0.00    -0.014 A 
BRANCH  10  11
ATOM     11  C   UNL A   1      40.592  28.039  28.549  1.00  0.00     0.031 A 
ATOM     12  C   UNL A   1      42.063  28.281  28.679  1.00  0.00     0.074 A 
ATOM     13  C   UNL A   1      39.716  29.018  28.841  1.00  0.00     0.049 A 
ATOM     14  N   UNL A   1      42.693  29.387  28.982  1.00  0.00    -0.248 NA
ATOM     15  C   UNL A   1      42.946  27.137  28.402  1.00  0.00     0.031 C 
ATOM     16  C   UNL A   1      38.268  28.911  28.705  1.00  0.00     0.029 A 
ATOM     17  N   UNL A   1      39.913  30.293  29.307  1.00  0.00    -0.354 N 
ATOM     18  C   UNL A   1      44.042  29.091  28.867  1.00  0.00     0.074 A 
ATOM     19  C   UNL A   1      44.145  27.683  28.547  1.00  0.00     0.031 C 
ATOM     20  C   UNL A   1      37.696  30.052  29.125  1.00  0.00     0.029 A 
ATOM     21  C   UNL A   1      38.745  30.982  29.530  1.00  0.00     0.049 A 
ATOM     22  H   UNL A   1      40.805  30.678  29.465  1.00  0.00     0.167 HD
ATOM     23  C   UNL A   1      45.098  29.931  28.977  1.00  0.00     0.037 A 
ATOM     24  C   UNL A   1      38.549  32.230  29.999  1.00  0.00     0.037 A 
ATOM     25  C   UNL A   1      44.996  31.314  29.352  1.00  0.00     0.049 A 
ATOM     26  C   UNL A   1      39.747  33.108  30.241  1.00  0.00     0.074 A 
ATOM     27  C   UNL A   1      46.007  32.240  29.540  1.00  0.00     0.029 A 
ATOM     28  N   UNL A   1      43.800  31.967  29.618  1.00  0.00    -0.354 N 
ATOM     29  N   UNL A   1      41.017  32.836  30.067  1.00  0.00    -0.248 NA
ATOM     30  C   UNL A   1      39.484  34.476  30.707  1.00  0.00     0.031 C 
ATOM     31  C   UNL A   1      45.424  33.443  29.954  1.00  0.00     0.029 A 
ATOM     32  C   UNL A   1      44.049  33.278  29.988  1.00  0.00     0.049 A 
ATOM     33  H   UNL A   1      42.907  31.558  29.553  1.00  0.00     0.167 HD
ATOM     34  C   UNL A   1      41.702  34.005  30.364  1.00  0.00     0.074 A 
ATOM     35  C   UNL A   1      40.704  34.992  30.725  1.00  0.00     0.031 C 
ATOM     36  C   UNL A   1      43.036  34.244  30.334  1.00  0.00     0.037 A 
BRANCH  23  37
ATOM     37  C   UNL A   1      46.448  29.356  28.675  1.00  0.00     0.064 A 
ATOM     38  C   UNL A   1      46.905  29.249  27.351  1.00  0.00     0.173 A 
ATOM     39  C   UNL A   1      47.285  28.897  29.700  1.00  0.00     0.173 A 
ATOM     40  F   UNL A   1      46.129  29.658  26.335  1.00  0.00    -0.203 F 
ATOM     41  C   UNL A   1      48.143  28.681  27.065  1.00  0.00     0.198 A 
ATOM     42  C   UNL A   1      48.531  28.347  29.411  1.00  0.00     0.198 A 
ATOM     43  F   UNL A   1      46.891  28.974  30.980  1.00  0.00    -0.203 F 
ATOM     44  F   UNL A   1      48.538  28.548  25.792  1.00  0.00    -0.200 F 
ATOM     45  C   UNL A   1      48.955  28.233  28.094  1.00  0.00     0.200 A 
ATOM     46  F   UNL A   1      49.318  27.917  30.406  1.00  0.00    -0.200 F 
ATOM     47  F   UNL A   1      50.144  27.679  27.818  1.00  0.00    -0.200 F 
ENDBRANCH  23  37
BRANCH  24  48
ATOM     48  C   UNL A   1      37.170  32.726  30.243  1.00  0.00     0.064 A 
ATOM     49  C   UNL A   1      36.421  33.337  29.228  1.00  0.00     0.173 A 
ATOM     50  C   UNL A   1      36.581  32.614  31.510  1.00  0.00     0.173 A 
ATOM     51  F   UNL A   1      36.947  33.481  28.003  1.00  0.00    -0.203 F 
ATOM     52  C   UNL A   1      35.145  33.840  29.479  1.00  0.00     0.198 A 
ATOM     53  C   UNL A   1      35.297  33.097  31.754  1.00  0.00     0.198 A 
ATOM     54  F   UNL A   1      37.252  32.030  32.514  1.00  0.00    -0.203 F 
ATOM     55  F   UNL A   1      34.468  34.459  28.501  1.00  0.00    -0.200 F 
ATOM     56  C   UNL A   1      34.583  33.717  30.740  1.00  0.00     0.200 A 
ATOM     57  F   UNL A   1      34.753  32.965  32.971  1.00  0.00    -0.200 F 
ATOM     58  F   UNL A   1      33.357  34.202  30.980  1.00  0.00    -0.200 F 
ENDBRANCH  24  48
BRANCH  36  59
ATOM     59  C   UNL A   1      43.486  35.634  30.670  1.00  0.00     0.064 A 
ATOM     60  C   UNL A   1      43.575  36.632  29.690  1.00  0.00     0.173 A 
ATOM     61  C   UNL A   1      43.802  35.976  31.993  1.00  0.00     0.173 A 
ATOM     62  F   UNL A   1      43.301  36.345  28.409  1.00  0.00    -0.203 F 
ATOM     63  C   UNL A   1      43.989  37.920  30.019  1.00  0.00     0.198 A 
ATOM     64  C   UNL A   1      44.190  37.271  32.322  1.00  0.00     0.198 A 
ATOM     65  F   UNL A   1      43.729  35.055  32.965  1.00  0.00    -0.203 F 
ATOM     66  F   UNL A   1      44.110  38.848  29.059  1.00  0.00    -0.200 F 
ATOM     67  C   UNL A   1      44.289  38.240  31.335  1.00  0.00     0.200 A 
ATOM     68  F   UNL A   1      44.473  37.581  33.595  1.00  0.00    -0.200 F 
ATOM     69  F   UNL A   1      44.684  39.481  31.650  1.00  0.00    -0.200 F 
ENDBRANCH  36  59
ENDBRANCH  10  11
ENDBRANCH   3   5
ENDBRANCH   2   3
ENDBRANCH   1   2
BRANCH   1  70
ATOM     70  C   UNL A   1      41.101  19.722  26.451  1.00  0.00     0.275 C 
BRANCH  70  71
ATOM     71  O   UNL A   1      41.834  19.076  25.400  1.00  0.00    -0.456 OA
BRANCH  71  72
ATOM     72  C   UNL A   1      43.017  18.512  25.795  1.00  0.00     0.374 C 
ATOM     73  O   UNL A   1      43.117  17.481  26.451  1.00  0.00    -0.242 OA
BRANCH  72  74
ATOM     74  C   UNL A   1      44.119  19.275  25.273  1.00  0.00     0.211 A 
ATOM     75  C   UNL A   1      45.489  19.105  25.284  1.00  0.00     0.058 A 
ATOM     76  O   UNL A   1      43.823  20.442  24.636  1.00  0.00    -0.452 OA
ATOM     77  C   UNL A   1      46.050  20.233  24.623  1.00  0.00     0.048 A 
ATOM     78  C   UNL A   1      44.992  21.042  24.268  1.00  0.00     0.124 A 
BRANCH  78  79
ATOM     79  C   UNL A   1      44.851  22.366  23.590  1.00  0.00     0.195 C 
BRANCH  79  80
ATOM     80  N   UNL A   1      44.901  23.383  24.620  1.00  0.00    -0.324 N 
ATOM     81  C   UNL A   1      43.732  23.699  25.410  1.00  0.00     0.220 C 
ATOM     82  C   UNL A   1      46.094  24.048  24.872  1.00  0.00     0.246 C 
ATOM     83  C   UNL A   1      43.999  23.804  26.909  1.00  0.00     0.242 C 
ATOM     84  C   UNL A   1      46.418  24.016  26.382  1.00  0.00     0.174 C 
ATOM     85  O   UNL A   1      46.926  24.271  23.996  1.00  0.00    -0.272 OA
ATOM     86  O   UNL A   1      43.075  23.682  27.715  1.00  0.00    -0.273 OA
ATOM     87  N   UNL A   1      45.267  24.268  27.268  1.00  0.00    -0.329 N 
ATOM     88  C   UNL A   1      47.611  24.918  26.701  1.00  0.00     0.035 C 
ATOM     89  C   UNL A   1      45.541  24.380  28.696  1.00  0.00     0.120 C 
ATOM     90  C   UNL A   1      47.961  24.843  28.182  1.00  0.00     0.004 C 
ATOM     91  C   UNL A   1      46.753  25.244  29.018  1.00  0.00     0.022 C 
ENDBRANCH  79  80
ENDBRANCH  78  79
ENDBRANCH  72  74
ENDBRANCH  71  72
ENDBRANCH  70  71
ENDBRANCH   1  70
TORSDOF 13
ENDMDL
MODEL 2
REMARK VINA RESULT:     -11.9      0.335      1.626
REMARK SMILES O=C(OCCOC(=O)c1ccc(CN2CC(=O)N3CCCC[C@@H]3C2=O)o1)c1ccc(-c2c3nc(c(-c4c(F)c(F)c(F)c(F)c4F)c4ccc([nH]4)c(-c4c(F)c(F)c(F)c(F)c4F)c4nc(c(-c5c(F)c(F)c(F)c(F)c5F)c5ccc2[nH]5)C=C4)C=C3)cc1
REMARK SMILES IDX 4 1 3 2 2 3 1 4 27 5 28 6 89 7 29 8 88 9 30 10 31 11 32 12
REMARK SMILES IDX 82 13 33 14 87 15 81 16 83 17 34 18 86 19 80 20 79 21 35 23
REMARK SMILES IDX 67 24 47 25 66 26 48 27 51 28 65 29 84 30 49 31 50 32 64 34
REMARK SMILES IDX 85 35 52 36 36 37 37 38 45 39 38 40 39 41 43 42 46 43 40 44
REMARK SMILES IDX 41 45 44 46 42 47 68 48 69 49 77 50 70 51 71 52 75 53 78 54
REMARK SMILES IDX 72 55 73 56 76 57 74 58 53 59 54 60 62 61 55 62 56 63 60 64
REMARK SMILES IDX 63 65 57 66 58 67 61 68 59 69 5 70 6 71 7 72 8 73 9 74 10 75
REMARK SMILES IDX 26 76 11 77 12 78 13 79 14 80 15 81 24 82 16 83 23 84 25 85
REMARK SMILES IDX 17 86 18 87 22 88 19 89 21 90 20 91
REMARK H PARENT 83 22 51 33
REMARK Flexibility Score: inf
ROOT
ATOM      1  C   UNL A   1      41.039  21.106  27.078  1.00  0.00     0.275 C 
ENDROOT
BRANCH   1   2
ATOM      2  O   UNL A   1      40.270  21.860  26.124  1.00  0.00    -0.458 OA
BRANCH   2   3
ATOM      3  C   UNL A   1      39.266  22.726  26.407  1.00  0.00     0.338 C 
ATOM      4  O   UNL A   1      38.104  22.448  26.127  1.00  0.00    -0.246 OA
BRANCH   3   5
ATOM      5  C   UNL A   1      39.569  24.115  26.848  1.00  0.00     0.060 A 
ATOM      6  C   UNL A   1      40.266  25.052  26.081  1.00  0.00     0.016 A 
ATOM      7  C   UNL A   1      39.226  24.452  28.168  1.00  0.00     0.016 A 
ATOM      8  C   UNL A   1      40.553  26.321  26.592  1.00  0.00     0.010 A 
ATOM      9  C   UNL A   1      39.526  25.718  28.689  1.00  0.00     0.010 A 
ATOM     10  C   UNL A   1      40.191  26.661  27.898  1.00  0.00    -0.014 A 
BRANCH  10  11
ATOM     11  C   UNL A   1      40.615  27.971  28.445  1.00  0.00     0.031 A 
ATOM     12  C   UNL A   1      42.072  28.232  28.668  1.00  0.00     0.074 A 
ATOM     13  C   UNL A   1      39.711  28.943  28.666  1.00  0.00     0.049 A 
ATOM     14  N   UNL A   1      42.668  29.350  28.997  1.00  0.00    -0.248 NA
ATOM     15  C   UNL A   1      42.984  27.096  28.465  1.00  0.00     0.031 C 
ATOM     16  C   UNL A   1      38.277  28.817  28.437  1.00  0.00     0.029 A 
ATOM     17  N   UNL A   1      39.863  30.225  29.127  1.00  0.00    -0.354 N 
ATOM     18  C   UNL A   1      44.026  29.068  28.974  1.00  0.00     0.074 A 
ATOM     19  C   UNL A   1      44.165  27.658  28.680  1.00  0.00     0.031 C 
ATOM     20  C   UNL A   1      37.666  29.955  28.804  1.00  0.00     0.029 A 
ATOM     21  C   UNL A   1      38.676  30.903  29.265  1.00  0.00     0.049 A 
ATOM     22  H   UNL A   1      40.738  30.623  29.338  1.00  0.00     0.167 HD
ATOM     23  C   UNL A   1      45.062  29.922  29.142  1.00  0.00     0.037 A 
ATOM     24  C   UNL A   1      38.436  32.154  29.702  1.00  0.00     0.037 A 
ATOM     25  C   UNL A   1      44.921  31.308  29.492  1.00  0.00     0.049 A 
ATOM     26  C   UNL A   1      39.604  33.050  30.011  1.00  0.00     0.074 A 
ATOM     27  C   UNL A   1      45.907  32.248  29.733  1.00  0.00     0.029 A 
ATOM     28  N   UNL A   1      43.702  31.951  29.670  1.00  0.00    -0.354 N 
ATOM     29  N   UNL A   1      40.887  32.791  29.924  1.00  0.00    -0.248 NA
ATOM     30  C   UNL A   1      39.296  34.420  30.441  1.00  0.00     0.031 C 
ATOM     31  C   UNL A   1      45.285  33.450  30.091  1.00  0.00     0.029 A 
ATOM     32  C   UNL A   1      43.912  33.269  30.038  1.00  0.00     0.049 A 
ATOM     33  H   UNL A   1      42.820  31.530  29.552  1.00  0.00     0.167 HD
ATOM     34  C   UNL A   1      41.537  33.972  30.249  1.00  0.00     0.074 A 
ATOM     35  C   UNL A   1      40.507  34.951  30.531  1.00  0.00     0.031 C 
ATOM     36  C   UNL A   1      42.868  34.227  30.303  1.00  0.00     0.037 A 
BRANCH  23  37
ATOM     37  C   UNL A   1      46.435  29.359  28.936  1.00  0.00     0.064 A 
ATOM     38  C   UNL A   1      47.210  28.934  30.027  1.00  0.00     0.173 A 
ATOM     39  C   UNL A   1      46.989  29.256  27.653  1.00  0.00     0.173 A 
ATOM     40  F   UNL A   1      46.728  29.032  31.276  1.00  0.00    -0.203 F 
ATOM     41  C   UNL A   1      48.500  28.446  29.842  1.00  0.00     0.198 A 
ATOM     42  C   UNL A   1      48.273  28.749  27.470  1.00  0.00     0.198 A 
ATOM     43  F   UNL A   1      46.289  29.653  26.580  1.00  0.00    -0.203 F 
ATOM     44  F   UNL A   1      49.238  28.088  30.901  1.00  0.00    -0.200 F 
ATOM     45  C   UNL A   1      49.030  28.353  28.564  1.00  0.00     0.200 A 
ATOM     46  F   UNL A   1      48.784  28.656  26.235  1.00  0.00    -0.200 F 
ATOM     47  F   UNL A   1      50.276  27.890  28.387  1.00  0.00    -0.200 F 
ENDBRANCH  23  37
BRANCH  24  48
ATOM     48  C   UNL A   1      37.038  32.637  29.849  1.00  0.00     0.064 A 
ATOM     49  C   UNL A   1      36.369  33.277  28.796  1.00  0.00     0.173 A 
ATOM     50  C   UNL A   1      36.348  32.483  31.060  1.00  0.00     0.173 A 
ATOM     51  F   UNL A   1      36.992  33.462  27.623  1.00  0.00    -0.203 F 
ATOM     52  C   UNL A   1      35.074  33.767  28.958  1.00  0.00     0.198 A 
ATOM     53  C   UNL A   1      35.046  32.952  31.214  1.00  0.00     0.198 A 
ATOM     54  F   UNL A   1      36.940  31.870  32.096  1.00  0.00    -0.203 F 
ATOM     55  F   UNL A   1      34.474  34.413  27.948  1.00  0.00    -0.200 F 
ATOM     56  C   UNL A   1      34.413  33.601  30.165  1.00  0.00     0.200 A 
ATOM     57  F   UNL A   1      34.406  32.779  32.378  1.00  0.00    -0.200 F 
ATOM     58  F   UNL A   1      33.168  34.074  30.320  1.00  0.00    -0.200 F 
ENDBRANCH  24  48
BRANCH  36  59
ATOM     59  C   UNL A   1      43.279  35.626  30.650  1.00  0.00     0.064 A 
ATOM     60  C   UNL A   1      43.515  36.011  31.977  1.00  0.00     0.173 A 
ATOM     61  C   UNL A   1      43.468  36.580  29.640  1.00  0.00     0.173 A 
ATOM     62  F   UNL A   1      43.329  35.137  32.977  1.00  0.00    -0.203 F 
ATOM     63  C   UNL A   1      43.903  37.313  32.283  1.00  0.00     0.198 A 
ATOM     64  C   UNL A   1      43.880  37.873  29.948  1.00  0.00     0.198 A 
ATOM     65  F   UNL A   1      43.256  36.257  28.356  1.00  0.00    -0.203 F 
ATOM     66  F   UNL A   1      44.080  37.674  33.562  1.00  0.00    -0.200 F 
ATOM     67  C   UNL A   1      44.091  38.240  31.268  1.00  0.00     0.200 A 
ATOM     68  F   UNL A   1      44.069  38.766  28.966  1.00  0.00    -0.200 F 
ATOM     69  F   UNL A   1      44.468  39.492  31.565  1.00  0.00    -0.200 F 
ENDBRANCH  36  59
ENDBRANCH  10  11
ENDBRANCH   3   5
ENDBRANCH   2   3
ENDBRANCH   1   2
BRANCH   1  70
ATOM     70  C   UNL A   1      41.040  19.601  26.800  1.00  0.00     0.275 C 
BRANCH  70  71
ATOM     71  O   UNL A   1      41.803  19.243  25.639  1.00  0.00    -0.456 OA
BRANCH  71  72
ATOM     72  C   UNL A   1      42.963  18.569  25.907  1.00  0.00     0.374 C 
ATOM     73  O   UNL A   1      43.031  17.495  26.494  1.00  0.00    -0.242 OA
BRANCH  72  74
ATOM     74  C   UNL A   1      44.080  19.279  25.342  1.00  0.00     0.211 A 
ATOM     75  C   UNL A   1      45.443  19.063  25.333  1.00  0.00     0.058 A 
ATOM     76  O   UNL A   1      43.811  20.435  24.673  1.00  0.00    -0.452 OA
ATOM     77  C   UNL A   1      46.029  20.152  24.627  1.00  0.00     0.048 A 
ATOM     78  C   UNL A   1      44.991  20.985  24.267  1.00  0.00     0.124 A 
BRANCH  78  79
ATOM     79  C   UNL A   1      44.882  22.291  23.550  1.00  0.00     0.195 C 
BRANCH  79  80
ATOM     80  N   UNL A   1      44.952  23.336  24.550  1.00  0.00    -0.324 N 
ATOM     81  C   UNL A   1      43.795  23.681  25.347  1.00  0.00     0.220 C 
ATOM     82  C   UNL A   1      46.152  24.001  24.767  1.00  0.00     0.246 C 
ATOM     83  C   UNL A   1      44.083  23.826  26.838  1.00  0.00     0.242 C 
ATOM     84  C   UNL A   1      46.497  24.008  26.274  1.00  0.00     0.174 C 
ATOM     85  O   UNL A   1      46.974  24.194  23.875  1.00  0.00    -0.272 OA
ATOM     86  O   UNL A   1      43.171  23.733  27.660  1.00  0.00    -0.273 OA
ATOM     87  N   UNL A   1      45.359  24.292  27.168  1.00  0.00    -0.329 N 
ATOM     88  C   UNL A   1      47.699  24.911  26.550  1.00  0.00     0.035 C 
ATOM     89  C   UNL A   1      45.654  24.443  28.588  1.00  0.00     0.120 C 
ATOM     90  C   UNL A   1      48.070  24.875  28.028  1.00  0.00     0.004 C 
ATOM     91  C   UNL A   1      46.875  25.307  28.869  1.00  0.00     0.022 C 
ENDBRANCH  79  80
ENDBRANCH  78  79
ENDBRANCH  72  74
ENDBRANCH  71  72
ENDBRANCH  70  71
ENDBRANCH   1  70
TORSDOF 13
ENDMDL
MODEL 3
REMARK VINA RESULT:     -11.7      5.281     12.337
REMARK SMILES O=C(OCCOC(=O)c1ccc(CN2CC(=O)N3CCCC[C@@H]3C2=O)o1)c1ccc(-c2c3nc(c(-c4c(F)c(F)c(F)c(F)c4F)c4ccc([nH]4)c(-c4c(F)c(F)c(F)c(F)c4F)c4nc(c(-c5c(F)c(F)c(F)c(F)c5F)c5ccc2[nH]5)C=C4)C=C3)cc1
REMARK SMILES IDX 4 1 3 2 2 3 1 4 27 5 28 6 89 7 29 8 88 9 30 10 31 11 32 12
REMARK SMILES IDX 82 13 33 14 87 15 81 16 83 17 34 18 86 19 80 20 79 21 35 23
REMARK SMILES IDX 67 24 47 25 66 26 48 27 51 28 65 29 84 30 49 31 50 32 64 34
REMARK SMILES IDX 85 35 52 36 36 37 37 38 45 39 38 40 39 41 43 42 46 43 40 44
REMARK SMILES IDX 41 45 44 46 42 47 68 48 69 49 77 50 70 51 71 52 75 53 78 54
REMARK SMILES IDX 72 55 73 56 76 57 74 58 53 59 54 60 62 61 55 62 56 63 60 64
REMARK SMILES IDX 63 65 57 66 58 67 61 68 59 69 5 70 6 71 7 72 8 73 9 74 10 75
REMARK SMILES IDX 26 76 11 77 12 78 13 79 14 80 15 81 24 82 16 83 23 84 25 85
REMARK SMILES IDX 17 86 18 87 22 88 19 89 21 90 20 91
REMARK H PARENT 83 22 51 33
REMARK Flexibility Score: inf
ROOT
ATOM      1  C   UNL A   1      34.030  33.007  28.567  1.00  0.00     0.275 C 
ENDROOT
BRANCH   1   2
ATOM      2  O   UNL A   1      34.611  32.161  27.560  1.00  0.00    -0.458 OA
BRANCH   2   3
ATOM      3  C   UNL A   1      34.707  30.809  27.603  1.00  0.00     0.338 C 
ATOM      4  O   UNL A   1      33.717  30.106  27.424  1.00  0.00    -0.246 OA
BRANCH   3   5
ATOM      5  C   UNL A   1      35.953  30.156  28.090  1.00  0.00     0.060 A 
ATOM      6  C   UNL A   1      36.099  29.582  29.355  1.00  0.00     0.016 A 
ATOM      7  C   UNL A   1      37.080  30.234  27.255  1.00  0.00     0.016 A 
ATOM      8  C   UNL A   1      37.322  29.034  29.752  1.00  0.00     0.010 A 
ATOM      9  C   UNL A   1      38.311  29.700  27.657  1.00  0.00     0.010 A 
ATOM     10  C   UNL A   1      38.437  29.093  28.910  1.00  0.00    -0.014 A 
BRANCH  10  11
ATOM     11  C   UNL A   1      39.744  28.608  29.411  1.00  0.00     0.031 A 
ATOM     12  C   UNL A   1      40.439  29.370  30.496  1.00  0.00     0.074 A 
ATOM     13  C   UNL A   1      40.265  27.456  28.952  1.00  0.00     0.049 A 
ATOM     14  N   UNL A   1      41.509  29.045  31.176  1.00  0.00    -0.248 NA
ATOM     15  C   UNL A   1      39.834  30.651  30.893  1.00  0.00     0.031 C 
ATOM     16  C   UNL A   1      39.653  26.609  27.935  1.00  0.00     0.029 A 
ATOM     17  N   UNL A   1      41.422  26.797  29.280  1.00  0.00    -0.354 N 
ATOM     18  C   UNL A   1      41.666  30.046  32.122  1.00  0.00     0.074 A 
ATOM     19  C   UNL A   1      40.633  31.030  31.880  1.00  0.00     0.031 C 
ATOM     20  C   UNL A   1      40.459  25.565  27.681  1.00  0.00     0.029 A 
ATOM     21  C   UNL A   1      41.632  25.656  28.544  1.00  0.00     0.049 A 
ATOM     22  H   UNL A   1      42.043  27.111  29.977  1.00  0.00     0.167 HD
ATOM     23  C   UNL A   1      42.567  30.113  33.130  1.00  0.00     0.037 A 
ATOM     24  C   UNL A   1      42.654  24.779  28.575  1.00  0.00     0.037 A 
ATOM     25  C   UNL A   1      43.628  29.164  33.332  1.00  0.00     0.049 A 
ATOM     26  C   UNL A   1      43.721  24.946  29.622  1.00  0.00     0.074 A 
ATOM     27  C   UNL A   1      44.624  29.167  34.292  1.00  0.00     0.029 A 
ATOM     28  N   UNL A   1      43.840  28.045  32.537  1.00  0.00    -0.354 N 
ATOM     29  N   UNL A   1      43.823  25.862  30.554  1.00  0.00    -0.248 NA
ATOM     30  C   UNL A   1      44.790  23.939  29.649  1.00  0.00     0.031 C 
ATOM     31  C   UNL A   1      45.458  28.068  34.057  1.00  0.00     0.029 A 
ATOM     32  C   UNL A   1      44.962  27.361  32.973  1.00  0.00     0.049 A 
ATOM     33  H   UNL A   1      43.275  27.778  31.776  1.00  0.00     0.167 HD
ATOM     34  C   UNL A   1      44.943  25.523  31.300  1.00  0.00     0.074 A 
ATOM     35  C   UNL A   1      45.483  24.312  30.715  1.00  0.00     0.031 C 
ATOM     36  C   UNL A   1      45.473  26.152  32.378  1.00  0.00     0.037 A 
BRANCH  23  37
ATOM     37  C   UNL A   1      42.422  31.257  34.086  1.00  0.00     0.064 A 
ATOM     38  C   UNL A   1      43.196  32.419  33.942  1.00  0.00     0.173 A 
ATOM     39  C   UNL A   1      41.521  31.193  35.157  1.00  0.00     0.173 A 
ATOM     40  F   UNL A   1      44.085  32.517  32.941  1.00  0.00    -0.203 F 
ATOM     41  C   UNL A   1      43.089  33.468  34.850  1.00  0.00     0.198 A 
ATOM     42  C   UNL A   1      41.403  32.252  36.054  1.00  0.00     0.198 A 
ATOM     43  F   UNL A   1      40.763  30.102  35.340  1.00  0.00    -0.203 F 
ATOM     44  F   UNL A   1      43.870  34.548  34.719  1.00  0.00    -0.200 F 
ATOM     45  C   UNL A   1      42.193  33.384  35.904  1.00  0.00     0.200 A 
ATOM     46  F   UNL A   1      40.534  32.173  37.071  1.00  0.00    -0.200 F 
ATOM     47  F   UNL A   1      42.096  34.391  36.783  1.00  0.00    -0.200 F 
ENDBRANCH  23  37
BRANCH  24  48
ATOM     48  C   UNL A   1      42.700  23.655  27.603  1.00  0.00     0.064 A 
ATOM     49  C   UNL A   1      42.194  22.388  27.922  1.00  0.00     0.173 A 
ATOM     50  C   UNL A   1      43.276  23.826  26.335  1.00  0.00     0.173 A 
ATOM     51  F   UNL A   1      41.648  22.171  29.128  1.00  0.00    -0.203 F 
ATOM     52  C   UNL A   1      42.283  21.329  27.021  1.00  0.00     0.198 A 
ATOM     53  C   UNL A   1      43.344  22.773  25.426  1.00  0.00     0.198 A 
ATOM     54  F   UNL A   1      43.768  25.021  25.977  1.00  0.00    -0.203 F 
ATOM     55  F   UNL A   1      41.828  20.117  27.368  1.00  0.00    -0.200 F 
ATOM     56  C   UNL A   1      42.855  21.523  25.773  1.00  0.00     0.200 A 
ATOM     57  F   UNL A   1      43.887  22.968  24.217  1.00  0.00    -0.200 F 
ATOM     58  F   UNL A   1      42.942  20.503  24.907  1.00  0.00    -0.200 F 
ENDBRANCH  24  48
BRANCH  36  59
ATOM     59  C   UNL A   1      46.679  25.523  33.008  1.00  0.00     0.064 A 
ATOM     60  C   UNL A   1      47.975  25.822  32.567  1.00  0.00     0.173 A 
ATOM     61  C   UNL A   1      46.535  24.634  34.083  1.00  0.00     0.173 A 
ATOM     62  F   UNL A   1      48.161  26.652  31.530  1.00  0.00    -0.203 F 
ATOM     63  C   UNL A   1      49.086  25.234  33.167  1.00  0.00     0.198 A 
ATOM     64  C   UNL A   1      47.648  24.068  34.696  1.00  0.00     0.198 A 
ATOM     65  F   UNL A   1      45.314  24.319  34.540  1.00  0.00    -0.203 F 
ATOM     66  F   UNL A   1      50.315  25.500  32.701  1.00  0.00    -0.200 F 
ATOM     67  C   UNL A   1      48.922  24.364  34.234  1.00  0.00     0.200 A 
ATOM     68  F   UNL A   1      47.489  23.233  35.732  1.00  0.00    -0.200 F 
ATOM     69  F   UNL A   1      49.993  23.802  34.812  1.00  0.00    -0.200 F 
ENDBRANCH  36  59
ENDBRANCH  10  11
ENDBRANCH   3   5
ENDBRANCH   2   3
ENDBRANCH   1   2
BRANCH   1  70
ATOM     70  C   UNL A   1      33.562  34.360  28.026  1.00  0.00     0.275 C 
BRANCH  70  71
ATOM     71  O   UNL A   1      32.553  34.974  28.840  1.00  0.00    -0.456 OA
BRANCH  71  72
ATOM     72  C   UNL A   1      32.907  36.188  29.364  1.00  0.00     0.374 C 
ATOM     73  O   UNL A   1      32.913  37.245  28.744  1.00  0.00    -0.242 OA
BRANCH  72  74
ATOM     74  C   UNL A   1      33.212  36.044  30.763  1.00  0.00     0.211 A 
ATOM     75  C   UNL A   1      33.457  36.940  31.784  1.00  0.00     0.058 A 
ATOM     76  O   UNL A   1      33.315  34.777  31.252  1.00  0.00    -0.452 OA
ATOM     77  C   UNL A   1      33.731  36.171  32.950  1.00  0.00     0.048 A 
ATOM     78  C   UNL A   1      33.662  34.848  32.569  1.00  0.00     0.124 A 
BRANCH  78  79
ATOM     79  C   UNL A   1      33.863  33.536  33.255  1.00  0.00     0.195 C 
BRANCH  79  80
ATOM     80  N   UNL A   1      35.254  33.173  33.087  1.00  0.00    -0.324 N 
ATOM     81  C   UNL A   1      35.718  32.547  31.869  1.00  0.00     0.220 C 
ATOM     82  C   UNL A   1      36.165  33.452  34.099  1.00  0.00     0.246 C 
ATOM     83  C   UNL A   1      37.002  33.148  31.305  1.00  0.00     0.242 C 
ATOM     84  C   UNL A   1      37.394  34.192  33.526  1.00  0.00     0.174 C 
ATOM     85  O   UNL A   1      35.854  33.456  35.288  1.00  0.00    -0.272 OA
ATOM     86  O   UNL A   1      37.293  32.992  30.118  1.00  0.00    -0.273 OA
ATOM     87  N   UNL A   1      37.899  33.657  32.248  1.00  0.00    -0.329 N 
ATOM     88  C   UNL A   1      38.492  34.320  34.583  1.00  0.00     0.035 C 
ATOM     89  C   UNL A   1      39.135  34.232  31.731  1.00  0.00     0.120 C 
ATOM     90  C   UNL A   1      39.682  35.096  34.031  1.00  0.00     0.004 C 
ATOM     91  C   UNL A   1      40.219  34.400  32.787  1.00  0.00     0.022 C 
ENDBRANCH  79  80
ENDBRANCH  78  79
ENDBRANCH  72  74
ENDBRANCH  71  72
ENDBRANCH  70  71
ENDBRANCH   1  70
TORSDOF 13
ENDMDL
