MODEL 1
REMARK VINA RESULT:     -11.6      0.000      0.000
REMARK SMILES CC(C)CCOc1ccc(C(=O)N2CCC[C@H](C(=O)OCCOC(=O)c3ccc(-c4c5nc(c(-c6c(F)c(F)c(F)c(F)c6F)c6ccc([nH]6)c(-c6c(F)c(F)c(F)c(F)c6F)c6nc(c(-c7c(F)c(F)c(F)c(F)c7F)c7ccc4[nH]7)C=C6)C=C5)cc3)C2)cc1
REMARK SMILES IDX 18 1 19 2 17 3 13 4 14 5 89 6 15 7 16 8 11 9 12 10 10 11
REMARK SMILES IDX 7 12 8 13 91 14 9 15 90 16 6 17 5 18 4 19 2 20 1 21 3 22
REMARK SMILES IDX 20 23 21 24 22 25 23 26 24 27 25 28 26 29 27 30 88 31 28 32
REMARK SMILES IDX 87 33 29 34 30 35 31 36 81 37 32 38 86 39 80 40 82 41 33 42
REMARK SMILES IDX 85 43 79 44 78 45 34 47 66 48 46 49 65 50 47 51 50 52 64 53
REMARK SMILES IDX 83 54 48 55 49 56 63 58 84 59 51 60 35 61 36 62 44 63 37 64
REMARK SMILES IDX 38 65 42 66 45 67 39 68 40 69 43 70 41 71 67 72 68 73 76 74
REMARK SMILES IDX 69 75 70 76 74 77 77 78 71 79 72 80 75 81 73 82 52 83 53 84
REMARK SMILES IDX 61 85 54 86 55 87 59 88 62 89 56 90 57 91 60 92 58 93
REMARK H PARENT 82 46 50 57
REMARK Flexibility Score: inf
ROOT
ATOM      1  C   UNL A   1      32.015  26.856  25.403  1.00  0.00     0.310 C 
ATOM      2  O   UNL A   1      32.215  26.303  26.481  1.00  0.00    -0.252 OA
ENDROOT
BRANCH   1   3
ATOM      3  C   UNL A   1      30.709  26.676  24.649  1.00  0.00     0.119 C 
ATOM      4  N   UNL A   1      31.606  25.803  22.529  1.00  0.00    -0.338 N 
ATOM      5  C   UNL A   1      31.028  26.904  21.760  1.00  0.00     0.120 C 
ATOM      6  C   UNL A   1      30.886  25.464  23.747  1.00  0.00     0.135 C 
ATOM      7  C   UNL A   1      30.879  28.170  22.593  1.00  0.00     0.022 C 
ATOM      8  C   UNL A   1      30.158  27.895  23.911  1.00  0.00     0.019 C 
BRANCH   4   9
ATOM      9  C   UNL A   1      32.875  25.343  22.173  1.00  0.00     0.253 C 
ATOM     10  O   UNL A   1      33.433  25.786  21.166  1.00  0.00    -0.269 OA
BRANCH   9  11
ATOM     11  C   UNL A   1      33.529  24.181  22.877  1.00  0.00     0.040 A 
ATOM     12  C   UNL A   1      34.133  21.960  24.471  1.00  0.00     0.119 A 
ATOM     13  C   UNL A   1      33.289  21.800  23.381  1.00  0.00     0.047 A 
ATOM     14  C   UNL A   1      34.826  23.144  24.659  1.00  0.00     0.047 A 
ATOM     15  C   UNL A   1      33.008  22.905  22.574  1.00  0.00     0.017 A 
ATOM     16  C   UNL A   1      34.465  24.266  23.914  1.00  0.00     0.017 A 
BRANCH  12  17
ATOM     17  O   UNL A   1      34.210  21.010  25.449  1.00  0.00    -0.494 OA
BRANCH  17  18
ATOM     18  C   UNL A   1      33.601  19.775  24.999  1.00  0.00     0.230 C 
BRANCH  18  19
ATOM     19  C   UNL A   1      34.635  18.692  24.625  1.00  0.00     0.044 C 
BRANCH  19  20
ATOM     20  C   UNL A   1      34.085  17.243  24.579  1.00  0.00    -0.014 C 
ATOM     21  C   UNL A   1      32.718  17.109  25.247  1.00  0.00     0.007 C 
ATOM     22  C   UNL A   1      34.017  16.744  23.133  1.00  0.00     0.007 C 
ENDBRANCH  19  20
ENDBRANCH  18  19
ENDBRANCH  17  18
ENDBRANCH  12  17
ENDBRANCH   9  11
ENDBRANCH   4   9
ENDBRANCH   1   3
BRANCH   1  23
ATOM     23  O   UNL A   1      32.910  27.637  24.759  1.00  0.00    -0.462 OA
BRANCH  23  24
ATOM     24  C   UNL A   1      33.601  28.610  25.560  1.00  0.00     0.274 C 
BRANCH  24  25
ATOM     25  C   UNL A   1      32.791  29.903  25.664  1.00  0.00     0.275 C 
BRANCH  25  26
ATOM     26  O   UNL A   1      32.677  30.353  27.028  1.00  0.00    -0.458 OA
BRANCH  26  27
ATOM     27  C   UNL A   1      33.331  31.502  27.315  1.00  0.00     0.338 C 
ATOM     28  O   UNL A   1      32.919  32.644  27.212  1.00  0.00    -0.246 OA
BRANCH  27  29
ATOM     29  C   UNL A   1      34.628  31.185  27.927  1.00  0.00     0.060 A 
ATOM     30  C   UNL A   1      34.797  29.925  28.506  1.00  0.00     0.016 A 
ATOM     31  C   UNL A   1      35.636  32.142  28.004  1.00  0.00     0.016 A 
ATOM     32  C   UNL A   1      35.974  29.606  29.169  1.00  0.00     0.010 A 
ATOM     33  C   UNL A   1      36.823  31.824  28.669  1.00  0.00     0.010 A 
ATOM     34  C   UNL A   1      36.992  30.558  29.259  1.00  0.00    -0.014 A 
BRANCH  34  35
ATOM     35  C   UNL A   1      38.220  30.247  30.020  1.00  0.00     0.031 A 
ATOM     36  C   UNL A   1      39.237  29.324  29.425  1.00  0.00     0.074 A 
ATOM     37  C   UNL A   1      38.411  30.796  31.232  1.00  0.00     0.049 A 
ATOM     38  N   UNL A   1      40.291  28.786  29.980  1.00  0.00    -0.248 NA
ATOM     39  C   UNL A   1      39.039  28.954  28.014  1.00  0.00     0.031 C 
ATOM     40  C   UNL A   1      37.520  31.765  31.871  1.00  0.00     0.029 A 
ATOM     41  N   UNL A   1      39.413  30.604  32.147  1.00  0.00    -0.354 N 
ATOM     42  C   UNL A   1      40.864  27.988  29.000  1.00  0.00     0.074 A 
ATOM     43  C   UNL A   1      40.042  28.111  27.815  1.00  0.00     0.031 C 
ATOM     44  C   UNL A   1      38.008  32.071  33.083  1.00  0.00     0.029 A 
ATOM     45  C   UNL A   1      39.209  31.276  33.326  1.00  0.00     0.049 A 
ATOM     46  H   UNL A   1      40.201  30.039  31.976  1.00  0.00     0.167 HD
ATOM     47  C   UNL A   1      41.973  27.219  29.092  1.00  0.00     0.037 A 
ATOM     48  C   UNL A   1      39.890  31.217  34.485  1.00  0.00     0.037 A 
ATOM     49  C   UNL A   1      42.789  27.122  30.274  1.00  0.00     0.049 A 
ATOM     50  C   UNL A   1      41.079  30.301  34.584  1.00  0.00     0.074 A 
ATOM     51  C   UNL A   1      43.937  26.378  30.474  1.00  0.00     0.029 A 
ATOM     52  N   UNL A   1      42.538  27.798  31.459  1.00  0.00    -0.354 N 
ATOM     53  N   UNL A   1      41.601  29.522  33.668  1.00  0.00    -0.248 NA
ATOM     54  C   UNL A   1      41.765  30.246  35.882  1.00  0.00     0.031 C 
ATOM     55  C   UNL A   1      44.360  26.574  31.792  1.00  0.00     0.029 A 
ATOM     56  C   UNL A   1      43.500  27.475  32.402  1.00  0.00     0.049 A 
ATOM     57  H   UNL A   1      41.787  28.418  31.608  1.00  0.00     0.167 HD
ATOM     58  C   UNL A   1      42.686  28.900  34.268  1.00  0.00     0.074 A 
ATOM     59  C   UNL A   1      42.755  29.400  35.627  1.00  0.00     0.031 C 
ATOM     60  C   UNL A   1      43.548  27.994  33.744  1.00  0.00     0.037 A 
BRANCH  47  61
ATOM     61  C   UNL A   1      42.344  26.394  27.898  1.00  0.00     0.064 A 
ATOM     62  C   UNL A   1      43.296  26.828  26.963  1.00  0.00     0.173 A 
ATOM     63  C   UNL A   1      41.754  25.136  27.700  1.00  0.00     0.173 A 
ATOM     64  F   UNL A   1      43.874  28.030  27.099  1.00  0.00    -0.203 F 
ATOM     65  C   UNL A   1      43.628  26.041  25.864  1.00  0.00     0.198 A 
ATOM     66  C   UNL A   1      42.106  24.341  26.612  1.00  0.00     0.198 A 
ATOM     67  F   UNL A   1      40.838  24.676  28.564  1.00  0.00    -0.203 F 
ATOM     68  F   UNL A   1      44.509  26.493  24.961  1.00  0.00    -0.200 F 
ATOM     69  C   UNL A   1      43.038  24.797  25.691  1.00  0.00     0.200 A 
ATOM     70  F   UNL A   1      41.540  23.137  26.452  1.00  0.00    -0.200 F 
ATOM     71  F   UNL A   1      43.362  24.040  24.635  1.00  0.00    -0.200 F 
ENDBRANCH  47  61
BRANCH  48  72
ATOM     72  C   UNL A   1      39.436  32.017  35.650  1.00  0.00     0.064 A 
ATOM     73  C   UNL A   1      39.956  33.294  35.894  1.00  0.00     0.173 A 
ATOM     74  C   UNL A   1      38.469  31.523  36.540  1.00  0.00     0.173 A 
ATOM     75  F   UNL A   1      40.900  33.797  35.086  1.00  0.00    -0.203 F 
ATOM     76  C   UNL A   1      39.534  34.044  36.990  1.00  0.00     0.198 A 
ATOM     77  C   UNL A   1      38.029  32.285  37.620  1.00  0.00     0.198 A 
ATOM     78  F   UNL A   1      37.942  30.304  36.351  1.00  0.00    -0.203 F 
ATOM     79  F   UNL A   1      40.075  35.249  37.222  1.00  0.00    -0.200 F 
ATOM     80  C   UNL A   1      38.565  33.542  37.847  1.00  0.00     0.200 A 
ATOM     81  F   UNL A   1      37.086  31.801  38.438  1.00  0.00    -0.200 F 
ATOM     82  F   UNL A   1      38.156  34.267  38.897  1.00  0.00    -0.200 F 
ENDBRANCH  48  72
BRANCH  60  83
ATOM     83  C   UNL A   1      44.658  27.514  34.631  1.00  0.00     0.064 A 
ATOM     84  C   UNL A   1      45.874  28.205  34.722  1.00  0.00     0.173 A 
ATOM     85  C   UNL A   1      44.481  26.377  35.432  1.00  0.00     0.173 A 
ATOM     86  F   UNL A   1      46.093  29.289  33.962  1.00  0.00    -0.203 F 
ATOM     87  C   UNL A   1      46.882  27.764  35.575  1.00  0.00     0.198 A 
ATOM     88  C   UNL A   1      45.482  25.953  36.301  1.00  0.00     0.198 A 
ATOM     89  F   UNL A   1      43.332  25.686  35.381  1.00  0.00    -0.203 F 
ATOM     90  F   UNL A   1      48.052  28.417  35.621  1.00  0.00    -0.200 F 
ATOM     91  C   UNL A   1      46.682  26.644  36.368  1.00  0.00     0.200 A 
ATOM     92  F   UNL A   1      45.283  24.877  37.075  1.00  0.00    -0.200 F 
ATOM     93  F   UNL A   1      47.651  26.225  37.195  1.00  0.00    -0.200 F 
ENDBRANCH  60  83
ENDBRANCH  34  35
ENDBRANCH  27  29
ENDBRANCH  26  27
ENDBRANCH  25  26
ENDBRANCH  24  25
ENDBRANCH  23  24
ENDBRANCH   1  23
TORSDOF 17
ENDMDL
MODEL 2
REMARK VINA RESULT:     -11.4      1.151      2.159
REMARK SMILES CC(C)CCOc1ccc(C(=O)N2CCC[C@H](C(=O)OCCOC(=O)c3ccc(-c4c5nc(c(-c6c(F)c(F)c(F)c(F)c6F)c6ccc([nH]6)c(-c6c(F)c(F)c(F)c(F)c6F)c6nc(c(-c7c(F)c(F)c(F)c(F)c7F)c7ccc4[nH]7)C=C6)C=C5)cc3)C2)cc1
REMARK SMILES IDX 18 1 19 2 17 3 13 4 14 5 89 6 15 7 16 8 11 9 12 10 10 11
REMARK SMILES IDX 7 12 8 13 91 14 9 15 90 16 6 17 5 18 4 19 2 20 1 21 3 22
REMARK SMILES IDX 20 23 21 24 22 25 23 26 24 27 25 28 26 29 27 30 88 31 28 32
REMARK SMILES IDX 87 33 29 34 30 35 31 36 81 37 32 38 86 39 80 40 82 41 33 42
REMARK SMILES IDX 85 43 79 44 78 45 34 47 66 48 46 49 65 50 47 51 50 52 64 53
REMARK SMILES IDX 83 54 48 55 49 56 63 58 84 59 51 60 35 61 36 62 44 63 37 64
REMARK SMILES IDX 38 65 42 66 45 67 39 68 40 69 43 70 41 71 67 72 68 73 76 74
REMARK SMILES IDX 69 75 70 76 74 77 77 78 71 79 72 80 75 81 73 82 52 83 53 84
REMARK SMILES IDX 61 85 54 86 55 87 59 88 62 89 56 90 57 91 60 92 58 93
REMARK H PARENT 82 46 50 57
REMARK Flexibility Score: inf
ROOT
ATOM      1  C   UNL A   1      32.423  29.220  25.153  1.00  0.00     0.310 C 
ATOM      2  O   UNL A   1      33.632  29.039  25.267  1.00  0.00    -0.252 OA
ENDROOT
BRANCH   1   3
ATOM      3  C   UNL A   1      31.684  28.867  23.874  1.00  0.00     0.119 C 
ATOM      4  N   UNL A   1      31.306  26.472  24.298  1.00  0.00    -0.338 N 
ATOM      5  C   UNL A   1      32.038  26.080  23.094  1.00  0.00     0.120 C 
ATOM      6  C   UNL A   1      30.679  27.783  24.233  1.00  0.00     0.135 C 
ATOM      7  C   UNL A   1      33.104  27.100  22.713  1.00  0.00     0.022 C 
ATOM      8  C   UNL A   1      32.533  28.515  22.655  1.00  0.00     0.019 C 
BRANCH   4   9
ATOM      9  C   UNL A   1      31.459  25.693  25.446  1.00  0.00     0.253 C 
ATOM     10  O   UNL A   1      31.150  26.150  26.549  1.00  0.00    -0.269 OA
BRANCH   9  11
ATOM     11  C   UNL A   1      32.163  24.359  25.417  1.00  0.00     0.040 A 
ATOM     12  C   UNL A   1      33.033  21.736  25.860  1.00  0.00     0.119 A 
ATOM     13  C   UNL A   1      31.799  21.947  25.262  1.00  0.00     0.047 A 
ATOM     14  C   UNL A   1      33.911  22.788  26.056  1.00  0.00     0.047 A 
ATOM     15  C   UNL A   1      31.378  23.257  25.022  1.00  0.00     0.017 A 
ATOM     16  C   UNL A   1      33.447  24.095  25.908  1.00  0.00     0.017 A 
BRANCH  12  17
ATOM     17  O   UNL A   1      33.367  20.519  26.382  1.00  0.00    -0.494 OA
BRANCH  17  18
ATOM     18  C   UNL A   1      32.913  19.456  25.507  1.00  0.00     0.230 C 
BRANCH  18  19
ATOM     19  C   UNL A   1      34.041  18.867  24.634  1.00  0.00     0.044 C 
BRANCH  19  20
ATOM     20  C   UNL A   1      34.099  17.319  24.587  1.00  0.00    -0.014 C 
ATOM     21  C   UNL A   1      32.996  16.661  25.414  1.00  0.00     0.007 C 
ATOM     22  C   UNL A   1      34.037  16.826  23.139  1.00  0.00     0.007 C 
ENDBRANCH  19  20
ENDBRANCH  18  19
ENDBRANCH  17  18
ENDBRANCH  12  17
ENDBRANCH   9  11
ENDBRANCH   4   9
ENDBRANCH   1   3
BRANCH   1  23
ATOM     23  O   UNL A   1      31.633  29.768  26.102  1.00  0.00    -0.462 OA
BRANCH  23  24
ATOM     24  C   UNL A   1      31.048  31.043  25.788  1.00  0.00     0.274 C 
BRANCH  24  25
ATOM     25  C   UNL A   1      31.614  32.138  26.694  1.00  0.00     0.275 C 
BRANCH  25  26
ATOM     26  O   UNL A   1      32.995  31.896  27.025  1.00  0.00    -0.458 OA
BRANCH  26  27
ATOM     27  C   UNL A   1      33.635  32.925  27.628  1.00  0.00     0.338 C 
ATOM     28  O   UNL A   1      33.245  34.070  27.768  1.00  0.00    -0.246 OA
BRANCH  27  29
ATOM     29  C   UNL A   1      34.875  32.433  28.243  1.00  0.00     0.060 A 
ATOM     30  C   UNL A   1      34.886  31.139  28.769  1.00  0.00     0.016 A 
ATOM     31  C   UNL A   1      35.985  33.263  28.378  1.00  0.00     0.016 A 
ATOM     32  C   UNL A   1      36.005  30.657  29.435  1.00  0.00     0.010 A 
ATOM     33  C   UNL A   1      37.114  32.781  29.045  1.00  0.00     0.010 A 
ATOM     34  C   UNL A   1      37.124  31.480  29.581  1.00  0.00    -0.014 A 
BRANCH  34  35
ATOM     35  C   UNL A   1      38.292  30.997  30.346  1.00  0.00     0.031 A 
ATOM     36  C   UNL A   1      39.247  30.042  29.700  1.00  0.00     0.074 A 
ATOM     37  C   UNL A   1      38.487  31.419  31.607  1.00  0.00     0.049 A 
ATOM     38  N   UNL A   1      40.230  29.366  30.234  1.00  0.00    -0.248 NA
ATOM     39  C   UNL A   1      39.069  29.814  28.257  1.00  0.00     0.031 C 
ATOM     40  C   UNL A   1      37.660  32.405  32.304  1.00  0.00     0.029 A 
ATOM     41  N   UNL A   1      39.435  31.061  32.529  1.00  0.00    -0.354 N 
ATOM     42  C   UNL A   1      40.767  28.608  29.203  1.00  0.00     0.074 A 
ATOM     43  C   UNL A   1      40.002  28.906  28.011  1.00  0.00     0.031 C 
ATOM     44  C   UNL A   1      38.128  32.560  33.552  1.00  0.00     0.029 A 
ATOM     45  C   UNL A   1      39.247  31.644  33.757  1.00  0.00     0.049 A 
ATOM     46  H   UNL A   1      40.177  30.446  32.331  1.00  0.00     0.167 HD
ATOM     47  C   UNL A   1      41.802  27.739  29.257  1.00  0.00     0.037 A 
ATOM     48  C   UNL A   1      39.878  31.425  34.925  1.00  0.00     0.037 A 
ATOM     49  C   UNL A   1      42.564  27.468  30.448  1.00  0.00     0.049 A 
ATOM     50  C   UNL A   1      40.980  30.402  34.975  1.00  0.00     0.074 A 
ATOM     51  C   UNL A   1      43.636  26.610  30.614  1.00  0.00     0.029 A 
ATOM     52  N   UNL A   1      42.329  28.059  31.682  1.00  0.00    -0.354 N 
ATOM     53  N   UNL A   1      41.466  29.662  34.008  1.00  0.00    -0.248 NA
ATOM     54  C   UNL A   1      41.611  30.174  36.282  1.00  0.00     0.031 C 
ATOM     55  C   UNL A   1      44.026  26.654  31.956  1.00  0.00     0.029 A 
ATOM     56  C   UNL A   1      43.226  27.571  32.619  1.00  0.00     0.049 A 
ATOM     57  H   UNL A   1      41.629  28.727  31.864  1.00  0.00     0.167 HD
ATOM     58  C   UNL A   1      42.471  28.896  34.581  1.00  0.00     0.074 A 
ATOM     59  C   UNL A   1      42.533  29.269  35.980  1.00  0.00     0.031 C 
ATOM     60  C   UNL A   1      43.270  27.966  34.002  1.00  0.00     0.037 A 
BRANCH  47  61
ATOM     61  C   UNL A   1      42.144  26.990  28.005  1.00  0.00     0.064 A 
ATOM     62  C   UNL A   1      43.075  27.481  27.079  1.00  0.00     0.173 A 
ATOM     63  C   UNL A   1      41.545  25.748  27.742  1.00  0.00     0.173 A 
ATOM     64  F   UNL A   1      43.660  28.671  27.277  1.00  0.00    -0.203 F 
ATOM     65  C   UNL A   1      43.380  26.765  25.924  1.00  0.00     0.198 A 
ATOM     66  C   UNL A   1      41.870  25.024  26.598  1.00  0.00     0.198 A 
ATOM     67  F   UNL A   1      40.647  25.236  28.596  1.00  0.00    -0.203 F 
ATOM     68  F   UNL A   1      44.241  27.272  25.032  1.00  0.00    -0.200 F 
ATOM     69  C   UNL A   1      42.782  25.535  25.687  1.00  0.00     0.200 A 
ATOM     70  F   UNL A   1      41.297  23.833  26.375  1.00  0.00    -0.200 F 
ATOM     71  F   UNL A   1      43.080  24.846  24.577  1.00  0.00    -0.200 F 
ENDBRANCH  47  61
BRANCH  48  72
ATOM     72  C   UNL A   1      39.453  32.158  36.143  1.00  0.00     0.064 A 
ATOM     73  C   UNL A   1      38.421  31.670  36.955  1.00  0.00     0.173 A 
ATOM     74  C   UNL A   1      40.073  33.358  36.524  1.00  0.00     0.173 A 
ATOM     75  F   UNL A   1      37.782  30.540  36.618  1.00  0.00    -0.203 F 
ATOM     76  C   UNL A   1      38.018  32.359  38.097  1.00  0.00     0.198 A 
ATOM     77  C   UNL A   1      39.687  34.032  37.680  1.00  0.00     0.198 A 
ATOM     78  F   UNL A   1      41.064  33.869  35.778  1.00  0.00    -0.203 F 
ATOM     79  F   UNL A   1      37.004  31.890  38.837  1.00  0.00    -0.200 F 
ATOM     80  C   UNL A   1      38.657  33.536  38.463  1.00  0.00     0.200 A 
ATOM     81  F   UNL A   1      40.314  35.162  38.035  1.00  0.00    -0.200 F 
ATOM     82  F   UNL A   1      38.273  34.194  39.564  1.00  0.00    -0.200 F 
ENDBRANCH  48  72
BRANCH  60  83
ATOM     83  C   UNL A   1      44.302  27.315  34.874  1.00  0.00     0.064 A 
ATOM     84  C   UNL A   1      44.058  26.087  35.504  1.00  0.00     0.173 A 
ATOM     85  C   UNL A   1      45.563  27.905  35.040  1.00  0.00     0.173 A 
ATOM     86  F   UNL A   1      42.860  25.494  35.387  1.00  0.00    -0.203 F 
ATOM     87  C   UNL A   1      45.038  25.479  36.284  1.00  0.00     0.198 A 
ATOM     88  C   UNL A   1      46.548  27.283  35.801  1.00  0.00     0.198 A 
ATOM     89  F   UNL A   1      45.843  29.079  34.452  1.00  0.00    -0.203 F 
ATOM     90  F   UNL A   1      44.773  24.323  36.909  1.00  0.00    -0.200 F 
ATOM     91  C   UNL A   1      46.283  26.074  36.425  1.00  0.00     0.200 A 
ATOM     92  F   UNL A   1      47.754  27.854  35.927  1.00  0.00    -0.200 F 
ATOM     93  F   UNL A   1      47.229  25.483  37.170  1.00  0.00    -0.200 F 
ENDBRANCH  60  83
ENDBRANCH  34  35
ENDBRANCH  27  29
ENDBRANCH  26  27
ENDBRANCH  25  26
ENDBRANCH  24  25
ENDBRANCH  23  24
ENDBRANCH   1  23
TORSDOF 17
ENDMDL
MODEL 3
REMARK VINA RESULT:     -11.2      9.557     14.370
REMARK SMILES CC(C)CCOc1ccc(C(=O)N2CCC[C@H](C(=O)OCCOC(=O)c3ccc(-c4c5nc(c(-c6c(F)c(F)c(F)c(F)c6F)c6ccc([nH]6)c(-c6c(F)c(F)c(F)c(F)c6F)c6nc(c(-c7c(F)c(F)c(F)c(F)c7F)c7ccc4[nH]7)C=C6)C=C5)cc3)C2)cc1
REMARK SMILES IDX 18 1 19 2 17 3 13 4 14 5 89 6 15 7 16 8 11 9 12 10 10 11
REMARK SMILES IDX 7 12 8 13 91 14 9 15 90 16 6 17 5 18 4 19 2 20 1 21 3 22
REMARK SMILES IDX 20 23 21 24 22 25 23 26 24 27 25 28 26 29 27 30 88 31 28 32
REMARK SMILES IDX 87 33 29 34 30 35 31 36 81 37 32 38 86 39 80 40 82 41 33 42
REMARK SMILES IDX 85 43 79 44 78 45 34 47 66 48 46 49 65 50 47 51 50 52 64 53
REMARK SMILES IDX 83 54 48 55 49 56 63 58 84 59 51 60 35 61 36 62 44 63 37 64
REMARK SMILES IDX 38 65 42 66 45 67 39 68 40 69 43 70 41 71 67 72 68 73 76 74
REMARK SMILES IDX 69 75 70 76 74 77 77 78 71 79 72 80 75 81 73 82 52 83 53 84
REMARK SMILES IDX 61 85 54 86 55 87 59 88 62 89 56 90 57 91 60 92 58 93
REMARK H PARENT 82 46 50 57
REMARK Flexibility Score: inf
ROOT
ATOM      1  C   UNL A   1      45.981  41.504  25.744  1.00  0.00     0.310 C 
ATOM      2  O   UNL A   1      47.111  41.962  25.893  1.00  0.00    -0.252 OA
ENDROOT
BRANCH   1   3
ATOM      3  C   UNL A   1      44.743  42.334  26.040  1.00  0.00     0.119 C 
ATOM      4  N   UNL A   1      44.176  43.009  23.741  1.00  0.00    -0.338 N 
ATOM      5  C   UNL A   1      44.288  44.431  24.066  1.00  0.00     0.120 C 
ATOM      6  C   UNL A   1      43.803  42.154  24.858  1.00  0.00     0.135 C 
ATOM      7  C   UNL A   1      45.265  44.684  25.208  1.00  0.00     0.022 C 
ATOM      8  C   UNL A   1      44.961  43.798  26.414  1.00  0.00     0.019 C 
BRANCH   4   9
ATOM      9  C   UNL A   1      44.646  42.577  22.500  1.00  0.00     0.253 C 
ATOM     10  O   UNL A   1      45.728  41.989  22.418  1.00  0.00    -0.269 OA
BRANCH   9  11
ATOM     11  C   UNL A   1      43.963  42.960  21.211  1.00  0.00     0.040 A 
ATOM     12  C   UNL A   1      42.610  44.263  19.136  1.00  0.00     0.119 A 
ATOM     13  C   UNL A   1      43.910  44.643  19.438  1.00  0.00     0.047 A 
ATOM     14  C   UNL A   1      42.054  43.131  19.707  1.00  0.00     0.047 A 
ATOM     15  C   UNL A   1      44.590  43.975  20.460  1.00  0.00     0.017 A 
ATOM     16  C   UNL A   1      42.697  42.534  20.792  1.00  0.00     0.017 A 
BRANCH  12  17
ATOM     17  O   UNL A   1      41.803  45.054  18.368  1.00  0.00    -0.494 OA
BRANCH  17  18
ATOM     18  C   UNL A   1      42.133  44.896  16.966  1.00  0.00     0.230 C 
BRANCH  18  19
ATOM     19  C   UNL A   1      41.596  46.043  16.085  1.00  0.00     0.044 C 
BRANCH  19  20
ATOM     20  C   UNL A   1      42.313  47.406  16.266  1.00  0.00    -0.014 C 
ATOM     21  C   UNL A   1      41.487  48.404  17.075  1.00  0.00     0.007 C 
ATOM     22  C   UNL A   1      43.684  47.206  16.917  1.00  0.00     0.007 C 
ENDBRANCH  19  20
ENDBRANCH  18  19
ENDBRANCH  17  18
ENDBRANCH  12  17
ENDBRANCH   9  11
ENDBRANCH   4   9
ENDBRANCH   1   3
BRANCH   1  23
ATOM     23  O   UNL A   1      45.706  40.242  25.348  1.00  0.00    -0.462 OA
BRANCH  23  24
ATOM     24  C   UNL A   1      46.838  39.400  25.069  1.00  0.00     0.274 C 
BRANCH  24  25
ATOM     25  C   UNL A   1      47.154  38.501  26.265  1.00  0.00     0.275 C 
BRANCH  25  26
ATOM     26  O   UNL A   1      45.979  37.816  26.743  1.00  0.00    -0.458 OA
BRANCH  26  27
ATOM     27  C   UNL A   1      46.061  37.338  28.006  1.00  0.00     0.338 C 
ATOM     28  O   UNL A   1      46.237  37.967  29.034  1.00  0.00    -0.246 OA
BRANCH  27  29
ATOM     29  C   UNL A   1      45.765  35.899  28.003  1.00  0.00     0.060 A 
ATOM     30  C   UNL A   1      44.918  35.400  27.011  1.00  0.00     0.016 A 
ATOM     31  C   UNL A   1      46.246  35.067  29.011  1.00  0.00     0.016 A 
ATOM     32  C   UNL A   1      44.541  34.063  27.013  1.00  0.00     0.010 A 
ATOM     33  C   UNL A   1      45.871  33.722  29.015  1.00  0.00     0.010 A 
ATOM     34  C   UNL A   1      45.012  33.218  28.020  1.00  0.00    -0.014 A 
BRANCH  34  35
ATOM     35  C   UNL A   1      44.561  31.812  28.066  1.00  0.00     0.031 A 
ATOM     36  C   UNL A   1      45.339  30.769  27.326  1.00  0.00     0.074 A 
ATOM     37  C   UNL A   1      43.463  31.484  28.769  1.00  0.00     0.049 A 
ATOM     38  N   UNL A   1      45.034  29.520  27.092  1.00  0.00    -0.248 NA
ATOM     39  C   UNL A   1      46.637  31.189  26.774  1.00  0.00     0.031 C 
ATOM     40  C   UNL A   1      42.677  32.409  29.585  1.00  0.00     0.029 A 
ATOM     41  N   UNL A   1      42.815  30.284  28.898  1.00  0.00    -0.354 N 
ATOM     42  C   UNL A   1      46.081  29.014  26.336  1.00  0.00     0.074 A 
ATOM     43  C   UNL A   1      47.033  30.089  26.151  1.00  0.00     0.031 C 
ATOM     44  C   UNL A   1      41.639  31.745  30.117  1.00  0.00     0.029 A 
ATOM     45  C   UNL A   1      41.658  30.368  29.632  1.00  0.00     0.049 A 
ATOM     46  H   UNL A   1      43.144  29.446  28.502  1.00  0.00     0.167 HD
ATOM     47  C   UNL A   1      46.226  27.763  25.840  1.00  0.00     0.037 A 
ATOM     48  C   UNL A   1      40.701  29.447  29.846  1.00  0.00     0.037 A 
ATOM     49  C   UNL A   1      45.278  26.701  26.048  1.00  0.00     0.049 A 
ATOM     50  C   UNL A   1      40.850  28.084  29.225  1.00  0.00     0.074 A 
ATOM     51  C   UNL A   1      45.328  25.395  25.596  1.00  0.00     0.029 A 
ATOM     52  N   UNL A   1      44.103  26.828  26.777  1.00  0.00    -0.354 N 
ATOM     53  N   UNL A   1      41.825  27.616  28.484  1.00  0.00    -0.248 NA
ATOM     54  C   UNL A   1      39.759  27.128  29.459  1.00  0.00     0.031 C 
ATOM     55  C   UNL A   1      44.166  24.742  26.019  1.00  0.00     0.029 A 
ATOM     56  C   UNL A   1      43.411  25.628  26.772  1.00  0.00     0.049 A 
ATOM     57  H   UNL A   1      43.807  27.649  27.232  1.00  0.00     0.167 HD
ATOM     58  C   UNL A   1      41.479  26.308  28.179  1.00  0.00     0.074 A 
ATOM     59  C   UNL A   1      40.207  26.052  28.825  1.00  0.00     0.031 C 
ATOM     60  C   UNL A   1      42.151  25.399  27.431  1.00  0.00     0.037 A 
BRANCH  47  61
ATOM     61  C   UNL A   1      47.430  27.490  24.991  1.00  0.00     0.064 A 
ATOM     62  C   UNL A   1      48.596  26.918  25.521  1.00  0.00     0.173 A 
ATOM     63  C   UNL A   1      47.406  27.784  23.619  1.00  0.00     0.173 A 
ATOM     64  F   UNL A   1      48.673  26.636  26.829  1.00  0.00    -0.203 F 
ATOM     65  C   UNL A   1      49.701  26.669  24.712  1.00  0.00     0.198 A 
ATOM     66  C   UNL A   1      48.505  27.512  22.808  1.00  0.00     0.198 A 
ATOM     67  F   UNL A   1      46.316  28.333  23.064  1.00  0.00    -0.203 F 
ATOM     68  F   UNL A   1      50.819  26.160  25.247  1.00  0.00    -0.200 F 
ATOM     69  C   UNL A   1      49.654  26.960  23.356  1.00  0.00     0.200 A 
ATOM     70  F   UNL A   1      48.453  27.787  21.498  1.00  0.00    -0.200 F 
ATOM     71  F   UNL A   1      50.717  26.716  22.578  1.00  0.00    -0.200 F 
ENDBRANCH  47  61
BRANCH  48  72
ATOM     72  C   UNL A   1      39.503  29.799  30.649  1.00  0.00     0.064 A 
ATOM     73  C   UNL A   1      39.499  29.649  32.041  1.00  0.00     0.173 A 
ATOM     74  C   UNL A   1      38.341  30.297  30.041  1.00  0.00     0.173 A 
ATOM     75  F   UNL A   1      40.578  29.152  32.664  1.00  0.00    -0.203 F 
ATOM     76  C   UNL A   1      38.374  29.975  32.796  1.00  0.00     0.198 A 
ATOM     77  C   UNL A   1      37.226  30.648  30.799  1.00  0.00     0.198 A 
ATOM     78  F   UNL A   1      38.293  30.456  28.710  1.00  0.00    -0.203 F 
ATOM     79  F   UNL A   1      38.383  29.787  34.123  1.00  0.00    -0.200 F 
ATOM     80  C   UNL A   1      37.241  30.481  32.175  1.00  0.00     0.200 A 
ATOM     81  F   UNL A   1      36.138  31.147  30.197  1.00  0.00    -0.200 F 
ATOM     82  F   UNL A   1      36.162  30.800  32.902  1.00  0.00    -0.200 F 
ENDBRANCH  48  72
BRANCH  60  83
ATOM     83  C   UNL A   1      41.541  24.036  27.299  1.00  0.00     0.064 A 
ATOM     84  C   UNL A   1      40.371  23.825  26.557  1.00  0.00     0.173 A 
ATOM     85  C   UNL A   1      42.162  22.923  27.886  1.00  0.00     0.173 A 
ATOM     86  F   UNL A   1      39.734  24.863  25.992  1.00  0.00    -0.203 F 
ATOM     87  C   UNL A   1      39.835  22.548  26.418  1.00  0.00     0.198 A 
ATOM     88  C   UNL A   1      41.636  21.645  27.724  1.00  0.00     0.198 A 
ATOM     89  F   UNL A   1      43.286  23.076  28.602  1.00  0.00    -0.203 F 
ATOM     90  F   UNL A   1      38.695  22.373  25.734  1.00  0.00    -0.200 F 
ATOM     91  C   UNL A   1      40.472  21.460  26.995  1.00  0.00     0.200 A 
ATOM     92  F   UNL A   1      42.259  20.593  28.274  1.00  0.00    -0.200 F 
ATOM     93  F   UNL A   1      39.958  20.229  26.854  1.00  0.00    -0.200 F 
ENDBRANCH  60  83
ENDBRANCH  34  35
ENDBRANCH  27  29
ENDBRANCH  26  27
ENDBRANCH  25  26
ENDBRANCH  24  25
ENDBRANCH  23  24
ENDBRANCH   1  23
TORSDOF 17
ENDMDL
