MODEL 1
REMARK VINA RESULT:     -12.3      0.000      0.000
REMARK SMILES CC(C)(CCc1ccc(Cl)c2ccccc12)C(=O)OCCOC(=O)c1ccc(-c2c3nc(c(-c4c(F)c(F)c(F)c(F)c4F)c4ccc([nH]4)c(-c4c(F)c(F)c(F)c(F)c4F)c4nc(c(-c5c(F)c(F)c(F)c(F)c5F)c5ccc2[nH]5)C=C4)C=C3)cc1
REMARK SMILES IDX 20 1 19 2 17 3 18 4 2 5 1 6 3 7 4 8 5 9 6 10 7 11 16 12 8 13
REMARK SMILES IDX 11 14 15 15 9 16 12 17 14 18 10 19 13 20 21 21 22 22 23 23
REMARK SMILES IDX 24 24 25 25 26 26 87 27 27 28 86 29 28 30 29 31 30 32 80 33
REMARK SMILES IDX 31 34 85 35 79 36 81 37 32 38 84 39 78 40 77 41 33 43 65 44
REMARK SMILES IDX 45 45 64 46 46 47 49 48 63 49 82 50 47 51 48 52 62 54 83 55
REMARK SMILES IDX 50 56 34 57 35 58 43 59 36 60 37 61 41 62 44 63 38 64 39 65
REMARK SMILES IDX 42 66 40 67 66 68 67 69 75 70 68 71 69 72 73 73 76 74 70 75
REMARK SMILES IDX 71 76 74 77 72 78 51 79 52 80 60 81 53 82 54 83 58 84 61 85
REMARK SMILES IDX 55 86 56 87 59 88 57 89
REMARK H PARENT 81 42 49 53
REMARK Flexibility Score: inf
ROOT
ATOM      1  C   UNL A   1      31.032  30.958  25.627  1.00  0.00     0.274 C 
ENDROOT
BRANCH   1   2
ATOM      2  O   UNL A   1      32.075  30.037  25.239  1.00  0.00    -0.462 OA
BRANCH   2   3
ATOM      3  C   UNL A   1      31.688  28.736  25.181  1.00  0.00     0.311 C 
ATOM      4  O   UNL A   1      30.770  28.329  24.473  1.00  0.00    -0.252 OA
BRANCH   3   5
ATOM      5  C   UNL A   1      32.382  27.825  26.198  1.00  0.00     0.063 C 
ATOM      6  C   UNL A   1      31.838  28.132  27.606  1.00  0.00     0.023 C 
ATOM      7  C   UNL A   1      33.855  28.300  26.154  1.00  0.00     0.023 C 
BRANCH   5   8
ATOM      8  C   UNL A   1      32.380  26.296  25.909  1.00  0.00     0.023 C 
BRANCH   8   9
ATOM      9  C   UNL A   1      33.727  25.532  25.849  1.00  0.00     0.037 C 
BRANCH   9  10
ATOM     10  C   UNL A   1      33.750  24.069  25.431  1.00  0.00    -0.040 A 
ATOM     11  C   UNL A   1      32.546  23.432  25.091  1.00  0.00     0.006 A 
ATOM     12  C   UNL A   1      34.982  23.342  25.297  1.00  0.00    -0.014 A 
ATOM     13  C   UNL A   1      32.515  22.087  24.751  1.00  0.00     0.021 A 
ATOM     14  C   UNL A   1      34.946  21.955  24.969  1.00  0.00     0.001 A 
ATOM     15  C   UNL A   1      36.261  23.927  25.494  1.00  0.00     0.009 A 
ATOM     16  C   UNL A   1      33.694  21.349  24.716  1.00  0.00     0.048 A 
ATOM     17  C   UNL A   1      36.161  21.224  24.941  1.00  0.00     0.010 A 
ATOM     18  C   UNL A   1      37.443  23.183  25.448  1.00  0.00     0.001 A 
ATOM     19  Cl  UNL A   1      33.529  19.660  24.346  1.00  0.00    -0.084 Cl
ATOM     20  C   UNL A   1      37.392  21.825  25.192  1.00  0.00     0.001 A 
ENDBRANCH   9  10
ENDBRANCH   8   9
ENDBRANCH   5   8
ENDBRANCH   3   5
ENDBRANCH   2   3
ENDBRANCH   1   2
BRANCH   1  21
ATOM     21  C   UNL A   1      31.500  31.992  26.648  1.00  0.00     0.275 C 
BRANCH  21  22
ATOM     22  O   UNL A   1      32.717  31.557  27.275  1.00  0.00    -0.458 OA
BRANCH  22  23
ATOM     23  C   UNL A   1      33.500  32.568  27.717  1.00  0.00     0.338 C 
ATOM     24  O   UNL A   1      33.224  33.752  27.689  1.00  0.00    -0.246 OA
BRANCH  23  25
ATOM     25  C   UNL A   1      34.815  32.089  28.173  1.00  0.00     0.060 A 
ATOM     26  C   UNL A   1      35.911  32.937  28.328  1.00  0.00     0.016 A 
ATOM     27  C   UNL A   1      34.951  30.718  28.405  1.00  0.00     0.016 A 
ATOM     28  C   UNL A   1      37.147  32.416  28.708  1.00  0.00     0.010 A 
ATOM     29  C   UNL A   1      36.159  30.206  28.872  1.00  0.00     0.010 A 
ATOM     30  C   UNL A   1      37.258  31.059  29.048  1.00  0.00    -0.014 A 
BRANCH  30  31
ATOM     31  C   UNL A   1      38.439  30.585  29.803  1.00  0.00     0.031 A 
ATOM     32  C   UNL A   1      39.396  29.589  29.233  1.00  0.00     0.074 A 
ATOM     33  C   UNL A   1      38.585  31.046  31.061  1.00  0.00     0.049 A 
ATOM     34  N   UNL A   1      40.390  28.978  29.825  1.00  0.00    -0.248 NA
ATOM     35  C   UNL A   1      39.217  29.225  27.820  1.00  0.00     0.031 C 
ATOM     36  C   UNL A   1      37.697  32.019  31.704  1.00  0.00     0.029 A 
ATOM     37  N   UNL A   1      39.516  30.761  32.023  1.00  0.00    -0.354 N 
ATOM     38  C   UNL A   1      40.949  28.146  28.866  1.00  0.00     0.074 A 
ATOM     39  C   UNL A   1      40.181  28.328  27.650  1.00  0.00     0.031 C 
ATOM     40  C   UNL A   1      38.137  32.268  32.943  1.00  0.00     0.029 A 
ATOM     41  C   UNL A   1      39.285  31.414  33.209  1.00  0.00     0.049 A 
ATOM     42  H   UNL A   1      40.273  30.149  31.880  1.00  0.00     0.167 HD
ATOM     43  C   UNL A   1      42.006  27.310  29.004  1.00  0.00     0.037 A 
ATOM     44  C   UNL A   1      39.899  31.303  34.400  1.00  0.00     0.037 A 
ATOM     45  C   UNL A   1      42.757  27.150  30.224  1.00  0.00     0.049 A 
ATOM     46  C   UNL A   1      41.024  30.328  34.537  1.00  0.00     0.074 A 
ATOM     47  C   UNL A   1      43.869  26.361  30.461  1.00  0.00     0.029 A 
ATOM     48  N   UNL A   1      42.463  27.791  31.421  1.00  0.00    -0.354 N 
ATOM     49  N   UNL A   1      41.542  29.540  33.626  1.00  0.00    -0.248 NA
ATOM     50  C   UNL A   1      41.632  30.204  35.866  1.00  0.00     0.031 C 
ATOM     51  C   UNL A   1      44.224  26.496  31.808  1.00  0.00     0.029 A 
ATOM     52  C   UNL A   1      43.354  27.392  32.405  1.00  0.00     0.049 A 
ATOM     53  H   UNL A   1      41.729  28.435  31.551  1.00  0.00     0.167 HD
ATOM     54  C   UNL A   1      42.527  28.814  34.271  1.00  0.00     0.074 A 
ATOM     55  C   UNL A   1      42.555  29.277  35.646  1.00  0.00     0.031 C 
ATOM     56  C   UNL A   1      43.331  27.843  33.773  1.00  0.00     0.037 A 
BRANCH  43  57
ATOM     57  C   UNL A   1      42.401  26.480  27.820  1.00  0.00     0.064 A 
ATOM     58  C   UNL A   1      41.786  25.250  27.544  1.00  0.00     0.173 A 
ATOM     59  C   UNL A   1      43.363  26.953  26.913  1.00  0.00     0.173 A 
ATOM     60  F   UNL A   1      40.868  24.752  28.385  1.00  0.00    -0.203 F 
ATOM     61  C   UNL A   1      42.126  24.519  26.407  1.00  0.00     0.198 A 
ATOM     62  C   UNL A   1      43.688  26.226  25.770  1.00  0.00     0.198 A 
ATOM     63  F   UNL A   1      43.977  28.125  27.130  1.00  0.00    -0.203 F 
ATOM     64  F   UNL A   1      41.542  23.335  26.175  1.00  0.00    -0.200 F 
ATOM     65  C   UNL A   1      43.071  25.010  25.519  1.00  0.00     0.200 A 
ATOM     66  F   UNL A   1      44.596  26.706  24.909  1.00  0.00    -0.200 F 
ATOM     67  F   UNL A   1      43.390  24.309  24.422  1.00  0.00    -0.200 F 
ENDBRANCH  43  57
BRANCH  44  68
ATOM     68  C   UNL A   1      39.405  32.109  35.542  1.00  0.00     0.064 A 
ATOM     69  C   UNL A   1      38.486  31.578  36.453  1.00  0.00     0.173 A 
ATOM     70  C   UNL A   1      39.910  33.394  35.789  1.00  0.00     0.173 A 
ATOM     71  F   UNL A   1      37.964  30.360  36.246  1.00  0.00    -0.203 F 
ATOM     72  C   UNL A   1      38.095  32.301  37.577  1.00  0.00     0.198 A 
ATOM     73  C   UNL A   1      39.539  34.104  36.927  1.00  0.00     0.198 A 
ATOM     74  F   UNL A   1      40.802  33.940  34.948  1.00  0.00    -0.203 F 
ATOM     75  F   UNL A   1      37.205  31.778  38.431  1.00  0.00    -0.200 F 
ATOM     76  C   UNL A   1      38.631  33.558  37.820  1.00  0.00     0.200 A 
ATOM     77  F   UNL A   1      40.074  35.309  37.167  1.00  0.00    -0.200 F 
ATOM     78  F   UNL A   1      38.274  34.241  38.917  1.00  0.00    -0.200 F 
ENDBRANCH  44  68
BRANCH  56  79
ATOM     79  C   UNL A   1      44.280  27.211  34.740  1.00  0.00     0.064 A 
ATOM     80  C   UNL A   1      43.936  26.037  35.426  1.00  0.00     0.173 A 
ATOM     81  C   UNL A   1      45.538  27.778  34.984  1.00  0.00     0.173 A 
ATOM     82  F   UNL A   1      42.732  25.476  35.239  1.00  0.00    -0.203 F 
ATOM     83  C   UNL A   1      44.812  25.465  36.342  1.00  0.00     0.198 A 
ATOM     84  C   UNL A   1      46.420  27.192  35.886  1.00  0.00     0.198 A 
ATOM     85  F   UNL A   1      45.906  28.902  34.351  1.00  0.00    -0.203 F 
ATOM     86  F   UNL A   1      44.448  24.367  37.020  1.00  0.00    -0.200 F 
ATOM     87  C   UNL A   1      46.054  26.039  36.568  1.00  0.00     0.200 A 
ATOM     88  F   UNL A   1      47.620  27.746  36.104  1.00  0.00    -0.200 F 
ATOM     89  F   UNL A   1      46.896  25.490  37.455  1.00  0.00    -0.200 F 
ENDBRANCH  56  79
ENDBRANCH  30  31
ENDBRANCH  23  25
ENDBRANCH  22  23
ENDBRANCH  21  22
ENDBRANCH   1  21
TORSDOF 14
ENDMDL
MODEL 2
REMARK VINA RESULT:     -12.2      4.676     10.156
REMARK SMILES CC(C)(CCc1ccc(Cl)c2ccccc12)C(=O)OCCOC(=O)c1ccc(-c2c3nc(c(-c4c(F)c(F)c(F)c(F)c4F)c4ccc([nH]4)c(-c4c(F)c(F)c(F)c(F)c4F)c4nc(c(-c5c(F)c(F)c(F)c(F)c5F)c5ccc2[nH]5)C=C4)C=C3)cc1
REMARK SMILES IDX 20 1 19 2 17 3 18 4 2 5 1 6 3 7 4 8 5 9 6 10 7 11 16 12 8 13
REMARK SMILES IDX 11 14 15 15 9 16 12 17 14 18 10 19 13 20 21 21 22 22 23 23
REMARK SMILES IDX 24 24 25 25 26 26 87 27 27 28 86 29 28 30 29 31 30 32 80 33
REMARK SMILES IDX 31 34 85 35 79 36 81 37 32 38 84 39 78 40 77 41 33 43 65 44
REMARK SMILES IDX 45 45 64 46 46 47 49 48 63 49 82 50 47 51 48 52 62 54 83 55
REMARK SMILES IDX 50 56 34 57 35 58 43 59 36 60 37 61 41 62 44 63 38 64 39 65
REMARK SMILES IDX 42 66 40 67 66 68 67 69 75 70 68 71 69 72 73 73 76 74 70 75
REMARK SMILES IDX 71 76 74 77 72 78 51 79 52 80 60 81 53 82 54 83 58 84 61 85
REMARK SMILES IDX 55 86 56 87 59 88 57 89
REMARK H PARENT 81 42 49 53
REMARK Flexibility Score: inf
ROOT
ATOM      1  C   UNL A   1      36.609  22.300  23.880  1.00  0.00     0.274 C 
ENDROOT
BRANCH   1   2
ATOM      2  O   UNL A   1      35.248  22.508  24.317  1.00  0.00    -0.462 OA
BRANCH   2   3
ATOM      3  C   UNL A   1      34.506  23.298  23.498  1.00  0.00     0.311 C 
ATOM      4  O   UNL A   1      34.682  23.378  22.285  1.00  0.00    -0.252 OA
BRANCH   3   5
ATOM      5  C   UNL A   1      33.524  24.219  24.230  1.00  0.00     0.063 C 
ATOM      6  C   UNL A   1      33.354  23.726  25.679  1.00  0.00     0.023 C 
ATOM      7  C   UNL A   1      32.185  23.968  23.492  1.00  0.00     0.023 C 
BRANCH   5   8
ATOM      8  C   UNL A   1      33.803  25.748  24.178  1.00  0.00     0.023 C 
BRANCH   8   9
ATOM      9  C   UNL A   1      34.029  26.525  25.501  1.00  0.00     0.037 C 
BRANCH   9  10
ATOM     10  C   UNL A   1      33.308  27.845  25.736  1.00  0.00    -0.040 A 
ATOM     11  C   UNL A   1      32.004  28.013  25.245  1.00  0.00     0.006 A 
ATOM     12  C   UNL A   1      33.897  28.896  26.517  1.00  0.00    -0.014 A 
ATOM     13  C   UNL A   1      31.328  29.217  25.395  1.00  0.00     0.021 A 
ATOM     14  C   UNL A   1      33.212  30.139  26.651  1.00  0.00     0.001 A 
ATOM     15  C   UNL A   1      35.157  28.779  27.163  1.00  0.00     0.009 A 
ATOM     16  C   UNL A   1      31.933  30.276  26.065  1.00  0.00     0.048 A 
ATOM     17  C   UNL A   1      33.849  31.204  27.337  1.00  0.00     0.010 A 
ATOM     18  C   UNL A   1      35.755  29.844  27.844  1.00  0.00     0.001 A 
ATOM     19  Cl  UNL A   1      31.025  31.755  26.133  1.00  0.00    -0.084 Cl
ATOM     20  C   UNL A   1      35.109  31.065  27.913  1.00  0.00     0.001 A 
ENDBRANCH   9  10
ENDBRANCH   8   9
ENDBRANCH   5   8
ENDBRANCH   3   5
ENDBRANCH   2   3
ENDBRANCH   1   2
BRANCH   1  21
ATOM     21  C   UNL A   1      37.303  21.158  24.619  1.00  0.00     0.275 C 
BRANCH  21  22
ATOM     22  O   UNL A   1      37.734  21.595  25.919  1.00  0.00    -0.458 OA
BRANCH  22  23
ATOM     23  C   UNL A   1      39.068  21.499  26.117  1.00  0.00     0.338 C 
ATOM     24  O   UNL A   1      39.755  20.518  25.906  1.00  0.00    -0.246 OA
BRANCH  23  25
ATOM     25  C   UNL A   1      39.625  22.719  26.724  1.00  0.00     0.060 A 
ATOM     26  C   UNL A   1      40.657  22.687  27.663  1.00  0.00     0.016 A 
ATOM     27  C   UNL A   1      39.045  23.936  26.361  1.00  0.00     0.016 A 
ATOM     28  C   UNL A   1      41.103  23.871  28.246  1.00  0.00     0.010 A 
ATOM     29  C   UNL A   1      39.550  25.129  26.873  1.00  0.00     0.010 A 
ATOM     30  C   UNL A   1      40.599  25.103  27.802  1.00  0.00    -0.014 A 
BRANCH  30  31
ATOM     31  C   UNL A   1      41.320  26.353  28.128  1.00  0.00     0.031 A 
ATOM     32  C   UNL A   1      40.674  27.465  28.888  1.00  0.00     0.074 A 
ATOM     33  C   UNL A   1      42.575  26.475  27.653  1.00  0.00     0.049 A 
ATOM     34  N   UNL A   1      41.131  28.668  29.125  1.00  0.00    -0.248 NA
ATOM     35  C   UNL A   1      39.345  27.201  29.456  1.00  0.00     0.031 C 
ATOM     36  C   UNL A   1      43.288  25.442  26.895  1.00  0.00     0.029 A 
ATOM     37  N   UNL A   1      43.470  27.509  27.725  1.00  0.00    -0.354 N 
ATOM     38  C   UNL A   1      40.143  29.313  29.855  1.00  0.00     0.074 A 
ATOM     39  C   UNL A   1      39.057  28.367  30.022  1.00  0.00     0.031 C 
ATOM     40  C   UNL A   1      44.515  25.882  26.593  1.00  0.00     0.029 A 
ATOM     41  C   UNL A   1      44.645  27.254  27.062  1.00  0.00     0.049 A 
ATOM     42  H   UNL A   1      43.289  28.350  28.203  1.00  0.00     0.167 HD
ATOM     43  C   UNL A   1      40.155  30.581  30.332  1.00  0.00     0.037 A 
ATOM     44  C   UNL A   1      45.697  28.053  26.812  1.00  0.00     0.037 A 
ATOM     45  C   UNL A   1      41.250  31.501  30.156  1.00  0.00     0.049 A 
ATOM     46  C   UNL A   1      45.655  29.465  27.301  1.00  0.00     0.074 A 
ATOM     47  C   UNL A   1      41.381  32.794  30.633  1.00  0.00     0.029 A 
ATOM     48  N   UNL A   1      42.405  31.225  29.434  1.00  0.00    -0.354 N 
ATOM     49  N   UNL A   1      44.714  30.069  27.985  1.00  0.00    -0.248 NA
ATOM     50  C   UNL A   1      46.802  30.315  26.964  1.00  0.00     0.031 C 
ATOM     51  C   UNL A   1      42.597  33.311  30.170  1.00  0.00     0.029 A 
ATOM     52  C   UNL A   1      43.238  32.332  29.429  1.00  0.00     0.049 A 
ATOM     53  H   UNL A   1      42.601  30.367  28.992  1.00  0.00     0.167 HD
ATOM     54  C   UNL A   1      45.143  31.373  28.150  1.00  0.00     0.074 A 
ATOM     55  C   UNL A   1      46.446  31.466  27.518  1.00  0.00     0.031 C 
ATOM     56  C   UNL A   1      44.511  32.406  28.760  1.00  0.00     0.037 A 
BRANCH  43  57
ATOM     57  C   UNL A   1      38.941  31.063  31.067  1.00  0.00     0.064 A 
ATOM     58  C   UNL A   1      37.895  31.726  30.408  1.00  0.00     0.173 A 
ATOM     59  C   UNL A   1      38.792  30.799  32.438  1.00  0.00     0.173 A 
ATOM     60  F   UNL A   1      37.995  32.008  29.101  1.00  0.00    -0.203 F 
ATOM     61  C   UNL A   1      36.749  32.117  31.097  1.00  0.00     0.198 A 
ATOM     62  C   UNL A   1      37.637  31.178  33.119  1.00  0.00     0.198 A 
ATOM     63  F   UNL A   1      39.761  30.165  33.113  1.00  0.00    -0.203 F 
ATOM     64  F   UNL A   1      35.771  32.769  30.452  1.00  0.00    -0.200 F 
ATOM     65  C   UNL A   1      36.618  31.837  32.449  1.00  0.00     0.200 A 
ATOM     66  F   UNL A   1      37.509  30.899  34.425  1.00  0.00    -0.200 F 
ATOM     67  F   UNL A   1      35.511  32.206  33.108  1.00  0.00    -0.200 F 
ENDBRANCH  43  57
BRANCH  44  68
ATOM     68  C   UNL A   1      46.831  27.523  26.019  1.00  0.00     0.064 A 
ATOM     69  C   UNL A   1      46.870  27.672  24.628  1.00  0.00     0.173 A 
ATOM     70  C   UNL A   1      47.938  26.932  26.648  1.00  0.00     0.173 A 
ATOM     71  F   UNL A   1      45.827  28.216  23.984  1.00  0.00    -0.203 F 
ATOM     72  C   UNL A   1      47.979  27.258  23.895  1.00  0.00     0.198 A 
ATOM     73  C   UNL A   1      49.057  26.543  25.917  1.00  0.00     0.198 A 
ATOM     74  F   UNL A   1      47.950  26.777  27.981  1.00  0.00    -0.203 F 
ATOM     75  F   UNL A   1      47.990  27.401  22.563  1.00  0.00    -0.200 F 
ATOM     76  C   UNL A   1      49.077  26.706  24.541  1.00  0.00     0.200 A 
ATOM     77  F   UNL A   1      50.121  26.028  26.547  1.00  0.00    -0.200 F 
ATOM     78  F   UNL A   1      50.154  26.333  23.836  1.00  0.00    -0.200 F 
ENDBRANCH  44  68
BRANCH  56  79
ATOM     79  C   UNL A   1      45.223  33.720  28.739  1.00  0.00     0.064 A 
ATOM     80  C   UNL A   1      44.981  34.656  27.723  1.00  0.00     0.173 A 
ATOM     81  C   UNL A   1      46.151  34.048  29.738  1.00  0.00     0.173 A 
ATOM     82  F   UNL A   1      44.118  34.371  26.736  1.00  0.00    -0.203 F 
ATOM     83  C   UNL A   1      45.662  35.868  27.696  1.00  0.00     0.198 A 
ATOM     84  C   UNL A   1      46.815  35.270  29.717  1.00  0.00     0.198 A 
ATOM     85  F   UNL A   1      46.415  33.181  30.726  1.00  0.00    -0.203 F 
ATOM     86  F   UNL A   1      45.449  36.732  26.693  1.00  0.00    -0.200 F 
ATOM     87  C   UNL A   1      46.575  36.176  28.694  1.00  0.00     0.200 A 
ATOM     88  F   UNL A   1      47.697  35.568  30.681  1.00  0.00    -0.200 F 
ATOM     89  F   UNL A   1      47.235  37.342  28.662  1.00  0.00    -0.200 F 
ENDBRANCH  56  79
ENDBRANCH  30  31
ENDBRANCH  23  25
ENDBRANCH  22  23
ENDBRANCH  21  22
ENDBRANCH   1  21
TORSDOF 14
ENDMDL
MODEL 3
REMARK VINA RESULT:     -12.2      4.649     10.071
REMARK SMILES CC(C)(CCc1ccc(Cl)c2ccccc12)C(=O)OCCOC(=O)c1ccc(-c2c3nc(c(-c4c(F)c(F)c(F)c(F)c4F)c4ccc([nH]4)c(-c4c(F)c(F)c(F)c(F)c4F)c4nc(c(-c5c(F)c(F)c(F)c(F)c5F)c5ccc2[nH]5)C=C4)C=C3)cc1
REMARK SMILES IDX 20 1 19 2 17 3 18 4 2 5 1 6 3 7 4 8 5 9 6 10 7 11 16 12 8 13
REMARK SMILES IDX 11 14 15 15 9 16 12 17 14 18 10 19 13 20 21 21 22 22 23 23
REMARK SMILES IDX 24 24 25 25 26 26 87 27 27 28 86 29 28 30 29 31 30 32 80 33
REMARK SMILES IDX 31 34 85 35 79 36 81 37 32 38 84 39 78 40 77 41 33 43 65 44
REMARK SMILES IDX 45 45 64 46 46 47 49 48 63 49 82 50 47 51 48 52 62 54 83 55
REMARK SMILES IDX 50 56 34 57 35 58 43 59 36 60 37 61 41 62 44 63 38 64 39 65
REMARK SMILES IDX 42 66 40 67 66 68 67 69 75 70 68 71 69 72 73 73 76 74 70 75
REMARK SMILES IDX 71 76 74 77 72 78 51 79 52 80 60 81 53 82 54 83 58 84 61 85
REMARK SMILES IDX 55 86 56 87 59 88 57 89
REMARK H PARENT 81 42 49 53
REMARK Flexibility Score: inf
ROOT
ATOM      1  C   UNL A   1      35.784  20.509  24.986  1.00  0.00     0.274 C 
ENDROOT
BRANCH   1   2
ATOM      2  O   UNL A   1      35.339  21.774  25.523  1.00  0.00    -0.462 OA
BRANCH   2   3
ATOM      3  C   UNL A   1      34.159  22.219  25.018  1.00  0.00     0.311 C 
ATOM      4  O   UNL A   1      33.338  21.492  24.463  1.00  0.00    -0.252 OA
BRANCH   3   5
ATOM      5  C   UNL A   1      33.993  23.742  25.048  1.00  0.00     0.063 C 
ATOM      6  C   UNL A   1      35.340  24.389  25.423  1.00  0.00     0.023 C 
ATOM      7  C   UNL A   1      33.021  23.970  26.231  1.00  0.00     0.023 C 
BRANCH   5   8
ATOM      8  C   UNL A   1      33.366  24.418  23.795  1.00  0.00     0.023 C 
BRANCH   8   9
ATOM      9  C   UNL A   1      33.743  25.883  23.454  1.00  0.00     0.037 C 
BRANCH   9  10
ATOM     10  C   UNL A   1      32.710  26.988  23.619  1.00  0.00    -0.040 A 
ATOM     11  C   UNL A   1      31.722  27.159  22.637  1.00  0.00     0.006 A 
ATOM     12  C   UNL A   1      32.671  27.813  24.794  1.00  0.00    -0.014 A 
ATOM     13  C   UNL A   1      30.790  28.184  22.723  1.00  0.00     0.021 A 
ATOM     14  C   UNL A   1      31.728  28.880  24.871  1.00  0.00     0.001 A 
ATOM     15  C   UNL A   1      33.544  27.642  25.901  1.00  0.00     0.009 A 
ATOM     16  C   UNL A   1      30.808  29.052  23.811  1.00  0.00     0.048 A 
ATOM     17  C   UNL A   1      31.767  29.752  25.989  1.00  0.00     0.010 A 
ATOM     18  C   UNL A   1      33.551  28.510  26.996  1.00  0.00     0.001 A 
ATOM     19  Cl  UNL A   1      29.643  30.339  23.782  1.00  0.00    -0.084 Cl
ATOM     20  C   UNL A   1      32.675  29.580  27.030  1.00  0.00     0.001 A 
ENDBRANCH   9  10
ENDBRANCH   8   9
ENDBRANCH   5   8
ENDBRANCH   3   5
ENDBRANCH   2   3
ENDBRANCH   1   2
BRANCH   1  21
ATOM     21  C   UNL A   1      37.303  20.356  25.006  1.00  0.00     0.275 C 
BRANCH  21  22
ATOM     22  O   UNL A   1      37.917  21.541  25.539  1.00  0.00    -0.458 OA
BRANCH  22  23
ATOM     23  C   UNL A   1      39.160  21.342  26.031  1.00  0.00     0.338 C 
ATOM     24  O   UNL A   1      39.769  20.288  26.037  1.00  0.00    -0.246 OA
BRANCH  23  25
ATOM     25  C   UNL A   1      39.702  22.553  26.669  1.00  0.00     0.060 A 
ATOM     26  C   UNL A   1      40.768  22.516  27.567  1.00  0.00     0.016 A 
ATOM     27  C   UNL A   1      39.071  23.765  26.379  1.00  0.00     0.016 A 
ATOM     28  C   UNL A   1      41.199  23.689  28.184  1.00  0.00     0.010 A 
ATOM     29  C   UNL A   1      39.558  24.952  26.922  1.00  0.00     0.010 A 
ATOM     30  C   UNL A   1      40.641  24.921  27.811  1.00  0.00    -0.014 A 
BRANCH  30  31
ATOM     31  C   UNL A   1      41.335  26.179  28.163  1.00  0.00     0.031 A 
ATOM     32  C   UNL A   1      40.655  27.275  28.918  1.00  0.00     0.074 A 
ATOM     33  C   UNL A   1      42.598  26.325  27.717  1.00  0.00     0.049 A 
ATOM     34  N   UNL A   1      41.086  28.483  29.174  1.00  0.00    -0.248 NA
ATOM     35  C   UNL A   1      39.317  26.985  29.454  1.00  0.00     0.031 C 
ATOM     36  C   UNL A   1      43.344  25.310  26.967  1.00  0.00     0.029 A 
ATOM     37  N   UNL A   1      43.474  27.372  27.818  1.00  0.00    -0.354 N 
ATOM     38  C   UNL A   1      40.073  29.105  29.887  1.00  0.00     0.074 A 
ATOM     39  C   UNL A   1      38.998  28.141  30.023  1.00  0.00     0.031 C 
ATOM     40  C   UNL A   1      44.570  25.772  26.696  1.00  0.00     0.029 A 
ATOM     41  C   UNL A   1      44.668  27.142  27.179  1.00  0.00     0.049 A 
ATOM     42  H   UNL A   1      43.270  28.206  28.298  1.00  0.00     0.167 HD
ATOM     43  C   UNL A   1      40.053  30.369  30.375  1.00  0.00     0.037 A 
ATOM     44  C   UNL A   1      45.712  27.960  26.959  1.00  0.00     0.037 A 
ATOM     45  C   UNL A   1      41.138  31.308  30.231  1.00  0.00     0.049 A 
ATOM     46  C   UNL A   1      45.637  29.366  27.459  1.00  0.00     0.074 A 
ATOM     47  C   UNL A   1      41.238  32.599  30.722  1.00  0.00     0.029 A 
ATOM     48  N   UNL A   1      42.312  31.057  29.533  1.00  0.00    -0.354 N 
ATOM     49  N   UNL A   1      44.671  29.949  28.127  1.00  0.00    -0.248 NA
ATOM     50  C   UNL A   1      46.777  30.237  27.155  1.00  0.00     0.031 C 
ATOM     51  C   UNL A   1      42.455  33.139  30.290  1.00  0.00     0.029 A 
ATOM     52  C   UNL A   1      43.128  32.177  29.556  1.00  0.00     0.049 A 
ATOM     53  H   UNL A   1      42.532  30.206  29.088  1.00  0.00     0.167 HD
ATOM     54  C   UNL A   1      45.076  31.259  28.312  1.00  0.00     0.074 A 
ATOM     55  C   UNL A   1      46.391  31.378  27.710  1.00  0.00     0.031 C 
ATOM     56  C   UNL A   1      44.414  32.276  28.917  1.00  0.00     0.037 A 
BRANCH  43  57
ATOM     57  C   UNL A   1      38.816  30.826  31.087  1.00  0.00     0.064 A 
ATOM     58  C   UNL A   1      38.698  30.749  32.483  1.00  0.00     0.173 A 
ATOM     59  C   UNL A   1      37.759  31.408  30.369  1.00  0.00     0.173 A 
ATOM     60  F   UNL A   1      39.677  30.193  33.212  1.00  0.00    -0.203 F 
ATOM     61  C   UNL A   1      37.563  31.231  33.132  1.00  0.00     0.198 A 
ATOM     62  C   UNL A   1      36.634  31.902  31.024  1.00  0.00     0.198 A 
ATOM     63  F   UNL A   1      37.825  31.508  29.033  1.00  0.00    -0.203 F 
ATOM     64  F   UNL A   1      37.462  31.128  34.465  1.00  0.00    -0.200 F 
ATOM     65  C   UNL A   1      36.537  31.812  32.404  1.00  0.00     0.200 A 
ATOM     66  F   UNL A   1      35.646  32.471  30.319  1.00  0.00    -0.200 F 
ATOM     67  F   UNL A   1      35.450  32.283  33.032  1.00  0.00    -0.200 F 
ENDBRANCH  43  57
BRANCH  44  68
ATOM     68  C   UNL A   1      46.872  27.454  26.188  1.00  0.00     0.064 A 
ATOM     69  C   UNL A   1      46.931  27.600  24.798  1.00  0.00     0.173 A 
ATOM     70  C   UNL A   1      47.982  26.891  26.838  1.00  0.00     0.173 A 
ATOM     71  F   UNL A   1      45.887  28.117  24.134  1.00  0.00    -0.203 F 
ATOM     72  C   UNL A   1      48.062  27.210  24.085  1.00  0.00     0.198 A 
ATOM     73  C   UNL A   1      49.122  26.527  26.127  1.00  0.00     0.198 A 
ATOM     74  F   UNL A   1      47.974  26.740  28.171  1.00  0.00    -0.203 F 
ATOM     75  F   UNL A   1      48.093  27.350  22.753  1.00  0.00    -0.200 F 
ATOM     76  C   UNL A   1      49.161  26.686  24.751  1.00  0.00     0.200 A 
ATOM     77  F   UNL A   1      50.187  26.039  26.778  1.00  0.00    -0.200 F 
ATOM     78  F   UNL A   1      50.259  26.337  24.066  1.00  0.00    -0.200 F 
ENDBRANCH  44  68
BRANCH  56  79
ATOM     79  C   UNL A   1      45.106  33.602  28.923  1.00  0.00     0.064 A 
ATOM     80  C   UNL A   1      46.000  33.944  29.947  1.00  0.00     0.173 A 
ATOM     81  C   UNL A   1      44.875  34.534  27.902  1.00  0.00     0.173 A 
ATOM     82  F   UNL A   1      46.231  33.089  30.954  1.00  0.00    -0.203 F 
ATOM     83  C   UNL A   1      46.625  35.187  29.960  1.00  0.00     0.198 A 
ATOM     84  C   UNL A   1      45.517  35.768  27.909  1.00  0.00     0.198 A 
ATOM     85  F   UNL A   1      44.025  34.248  26.905  1.00  0.00    -0.203 F 
ATOM     86  F   UNL A   1      47.444  35.512  30.970  1.00  0.00    -0.200 F 
ATOM     87  C   UNL A   1      46.387  36.095  28.940  1.00  0.00     0.200 A 
ATOM     88  F   UNL A   1      45.287  36.647  26.924  1.00  0.00    -0.200 F 
ATOM     89  F   UNL A   1      46.984  37.295  28.957  1.00  0.00    -0.200 F 
ENDBRANCH  56  79
ENDBRANCH  30  31
ENDBRANCH  23  25
ENDBRANCH  22  23
ENDBRANCH  21  22
ENDBRANCH   1  21
TORSDOF 14
ENDMDL
