MODEL 1
REMARK VINA RESULT:     -12.1      0.000      0.000
REMARK SMILES C[C@H]1[C@H](C(=O)OCCOC(=O)c2ccc(-c3c4nc(c(-c5c(F)c(F)c(F)c(F)c5F)c5ccc([nH]5)c(-c5c(F)c(F)c(F)c(F)c5F)c5nc(c(-c6c(F)c(F)c(F)c(F)c6F)c6ccc3[nH]6)C=C5)C=C4)cc2)CCN1C(=O)NCc1cnn(C)c1
REMARK SMILES IDX 7 1 6 2 4 3 5 4 3 5 1 6 2 7 77 8 75 9 76 10 78 11 79 12
REMARK SMILES IDX 80 13 81 15 82 16 83 17 87 18 84 19 85 20 86 21 8 22 9 23
REMARK SMILES IDX 10 24 11 25 12 26 13 27 74 28 14 29 73 30 15 31 16 32 17 33
REMARK SMILES IDX 67 34 18 35 72 36 66 37 68 38 19 39 71 40 65 41 64 42 20 44
REMARK SMILES IDX 52 45 32 46 51 47 33 48 36 49 50 50 69 51 34 52 35 53 49 55
REMARK SMILES IDX 70 56 37 57 21 58 22 59 30 60 23 61 24 62 28 63 31 64 25 65
REMARK SMILES IDX 26 66 29 67 27 68 53 69 54 70 62 71 55 72 56 73 60 74 63 75
REMARK SMILES IDX 57 76 58 77 61 78 59 79 38 80 39 81 47 82 40 83 41 84 45 85
REMARK SMILES IDX 48 86 42 87 43 88 46 89 44 90
REMARK H PARENT 80 14 68 43 36 54
REMARK Flexibility Score: inf
ROOT
ATOM      1  C   UNL A   1      35.419  20.689  25.102  1.00  0.00     0.274 C 
ENDROOT
BRANCH   1   2
ATOM      2  O   UNL A   1      34.773  21.964  24.905  1.00  0.00    -0.462 OA
BRANCH   2   3
ATOM      3  C   UNL A   1      33.551  21.940  24.319  1.00  0.00     0.311 C 
ATOM      4  O   UNL A   1      33.057  20.959  23.772  1.00  0.00    -0.252 OA
BRANCH   3   5
ATOM      5  C   UNL A   1      32.835  23.271  24.365  1.00  0.00     0.123 C 
ATOM      6  C   UNL A   1      34.025  25.445  24.861  1.00  0.00     0.032 C 
ATOM      7  C   UNL A   1      33.607  24.464  23.757  1.00  0.00     0.098 C 
ATOM      8  N   UNL A   1      32.658  25.107  22.848  1.00  0.00    -0.321 N 
ATOM      9  C   UNL A   1      31.519  23.205  23.596  1.00  0.00     0.039 C 
ATOM     10  C   UNL A   1      31.315  24.631  23.132  1.00  0.00     0.122 C 
BRANCH   8  11
ATOM     11  C   UNL A   1      32.848  25.980  21.826  1.00  0.00     0.317 C 
ATOM     12  O   UNL A   1      33.183  25.584  20.705  1.00  0.00    -0.249 OA
ATOM     13  N   UNL A   1      32.701  27.307  21.941  1.00  0.00    -0.334 N 
ATOM     14  H   UNL A   1      32.934  27.764  21.101  1.00  0.00     0.165 HD
BRANCH  13  15
ATOM     15  C   UNL A   1      32.294  28.255  22.956  1.00  0.00     0.157 C 
BRANCH  15  16
ATOM     16  C   UNL A   1      30.871  28.619  22.752  1.00  0.00     0.009 A 
ATOM     17  C   UNL A   1      30.368  29.703  21.994  1.00  0.00     0.140 A 
ATOM     18  C   UNL A   1      29.738  28.031  23.279  1.00  0.00     0.113 A 
ATOM     19  N   UNL A   1      29.036  29.791  22.039  1.00  0.00    -0.181 NA
ATOM     20  N   UNL A   1      28.678  28.760  22.824  1.00  0.00    -0.275 N 
ATOM     21  C   UNL A   1      27.284  28.544  23.125  1.00  0.00     0.173 C 
ENDBRANCH  15  16
ENDBRANCH  13  15
ENDBRANCH   8  11
ENDBRANCH   3   5
ENDBRANCH   2   3
ENDBRANCH   1   2
BRANCH   1  22
ATOM     22  C   UNL A   1      36.932  20.780  24.884  1.00  0.00     0.275 C 
BRANCH  22  23
ATOM     23  O   UNL A   1      37.544  21.733  25.774  1.00  0.00    -0.458 OA
BRANCH  23  24
ATOM     24  C   UNL A   1      38.826  21.467  26.109  1.00  0.00     0.338 C 
ATOM     25  O   UNL A   1      39.448  20.437  25.920  1.00  0.00    -0.246 OA
BRANCH  24  26
ATOM     26  C   UNL A   1      39.453  22.681  26.649  1.00  0.00     0.060 A 
ATOM     27  C   UNL A   1      39.036  23.921  26.155  1.00  0.00     0.016 A 
ATOM     28  C   UNL A   1      40.510  22.595  27.553  1.00  0.00     0.016 A 
ATOM     29  C   UNL A   1      39.695  25.084  26.534  1.00  0.00     0.010 A 
ATOM     30  C   UNL A   1      41.159  23.766  27.952  1.00  0.00     0.010 A 
ATOM     31  C   UNL A   1      40.764  25.014  27.433  1.00  0.00    -0.014 A 
BRANCH  31  32
ATOM     32  C   UNL A   1      41.504  26.239  27.807  1.00  0.00     0.031 A 
ATOM     33  C   UNL A   1      40.812  27.310  28.593  1.00  0.00     0.074 A 
ATOM     34  C   UNL A   1      42.785  26.390  27.425  1.00  0.00     0.049 A 
ATOM     35  N   UNL A   1      41.201  28.530  28.852  1.00  0.00    -0.248 NA
ATOM     36  C   UNL A   1      39.501  26.959  29.163  1.00  0.00     0.031 C 
ATOM     37  C   UNL A   1      43.580  25.386  26.721  1.00  0.00     0.029 A 
ATOM     38  N   UNL A   1      43.634  27.459  27.561  1.00  0.00    -0.354 N 
ATOM     39  C   UNL A   1      40.172  29.106  29.583  1.00  0.00     0.074 A 
ATOM     40  C   UNL A   1      39.140  28.102  29.731  1.00  0.00     0.031 C 
ATOM     41  C   UNL A   1      44.798  25.892  26.470  1.00  0.00     0.029 A 
ATOM     42  C   UNL A   1      44.844  27.273  26.940  1.00  0.00     0.049 A 
ATOM     43  H   UNL A   1      43.399  28.277  28.056  1.00  0.00     0.167 HD
ATOM     44  C   UNL A   1      40.099  30.365  30.076  1.00  0.00     0.037 A 
ATOM     45  C   UNL A   1      45.852  28.140  26.727  1.00  0.00     0.037 A 
ATOM     46  C   UNL A   1      41.141  31.347  29.937  1.00  0.00     0.049 A 
ATOM     47  C   UNL A   1      45.719  29.553  27.225  1.00  0.00     0.074 A 
ATOM     48  C   UNL A   1      41.166  32.652  30.398  1.00  0.00     0.029 A 
ATOM     49  N   UNL A   1      42.348  31.126  29.289  1.00  0.00    -0.354 N 
ATOM     50  N   UNL A   1      44.729  30.107  27.884  1.00  0.00    -0.248 NA
ATOM     51  C   UNL A   1      46.834  30.466  26.940  1.00  0.00     0.031 C 
ATOM     52  C   UNL A   1      42.376  33.231  30.000  1.00  0.00     0.029 A 
ATOM     53  C   UNL A   1      43.119  32.275  29.325  1.00  0.00     0.049 A 
ATOM     54  H   UNL A   1      42.615  30.279  28.866  1.00  0.00     0.167 HD
ATOM     55  C   UNL A   1      45.110  31.421  28.112  1.00  0.00     0.074 A 
ATOM     56  C   UNL A   1      46.424  31.583  27.523  1.00  0.00     0.031 C 
ATOM     57  C   UNL A   1      44.433  32.405  28.750  1.00  0.00     0.037 A 
BRANCH  44  58
ATOM     58  C   UNL A   1      38.835  30.763  30.775  1.00  0.00     0.064 A 
ATOM     59  C   UNL A   1      38.702  30.678  32.167  1.00  0.00     0.173 A 
ATOM     60  C   UNL A   1      37.752  31.271  30.040  1.00  0.00     0.173 A 
ATOM     61  F   UNL A   1      39.702  30.185  32.912  1.00  0.00    -0.203 F 
ATOM     62  C   UNL A   1      37.523  31.071  32.798  1.00  0.00     0.198 A 
ATOM     63  C   UNL A   1      36.585  31.683  30.675  1.00  0.00     0.198 A 
ATOM     64  F   UNL A   1      37.832  31.373  28.705  1.00  0.00    -0.203 F 
ATOM     65  F   UNL A   1      37.403  30.946  34.127  1.00  0.00    -0.200 F 
ATOM     66  C   UNL A   1      36.469  31.578  32.053  1.00  0.00     0.200 A 
ATOM     67  F   UNL A   1      35.571  32.180  29.953  1.00  0.00    -0.200 F 
ATOM     68  F   UNL A   1      35.338  31.960  32.662  1.00  0.00    -0.200 F 
ENDBRANCH  44  58
BRANCH  45  69
ATOM     69  C   UNL A   1      47.053  27.702  25.975  1.00  0.00     0.064 A 
ATOM     70  C   UNL A   1      48.185  27.219  26.641  1.00  0.00     0.173 A 
ATOM     71  C   UNL A   1      47.088  27.747  24.573  1.00  0.00     0.173 A 
ATOM     72  F   UNL A   1      48.207  27.180  27.982  1.00  0.00    -0.203 F 
ATOM     73  C   UNL A   1      49.313  26.803  25.935  1.00  0.00     0.198 A 
ATOM     74  C   UNL A   1      48.206  27.307  23.866  1.00  0.00     0.198 A 
ATOM     75  F   UNL A   1      46.029  28.202  23.888  1.00  0.00    -0.203 F 
ATOM     76  F   UNL A   1      50.396  26.377  26.598  1.00  0.00    -0.200 F 
ATOM     77  C   UNL A   1      49.318  26.841  24.548  1.00  0.00     0.200 A 
ATOM     78  F   UNL A   1      48.202  27.335  22.527  1.00  0.00    -0.200 F 
ATOM     79  F   UNL A   1      50.400  26.435  23.870  1.00  0.00    -0.200 F 
ENDBRANCH  45  69
BRANCH  57  80
ATOM     80  C   UNL A   1      45.116  33.731  28.892  1.00  0.00     0.064 A 
ATOM     81  C   UNL A   1      45.972  34.003  29.967  1.00  0.00     0.173 A 
ATOM     82  C   UNL A   1      44.963  34.712  27.901  1.00  0.00     0.173 A 
ATOM     83  F   UNL A   1      46.135  33.101  30.946  1.00  0.00    -0.203 F 
ATOM     84  C   UNL A   1      46.647  35.218  30.050  1.00  0.00     0.198 A 
ATOM     85  C   UNL A   1      45.657  35.916  27.976  1.00  0.00     0.198 A 
ATOM     86  F   UNL A   1      44.159  34.493  26.851  1.00  0.00    -0.203 F 
ATOM     87  F   UNL A   1      47.443  35.470  31.099  1.00  0.00    -0.200 F 
ATOM     88  C   UNL A   1      46.496  36.168  29.051  1.00  0.00     0.200 A 
ATOM     89  F   UNL A   1      45.518  36.830  27.005  1.00  0.00    -0.200 F 
ATOM     90  F   UNL A   1      47.158  37.331  29.125  1.00  0.00    -0.200 F 
ENDBRANCH  57  80
ENDBRANCH  31  32
ENDBRANCH  24  26
ENDBRANCH  23  24
ENDBRANCH  22  23
ENDBRANCH   1  22
TORSDOF 14
ENDMDL
MODEL 2
REMARK VINA RESULT:     -12.1      0.236      1.625
REMARK SMILES C[C@H]1[C@H](C(=O)OCCOC(=O)c2ccc(-c3c4nc(c(-c5c(F)c(F)c(F)c(F)c5F)c5ccc([nH]5)c(-c5c(F)c(F)c(F)c(F)c5F)c5nc(c(-c6c(F)c(F)c(F)c(F)c6F)c6ccc3[nH]6)C=C5)C=C4)cc2)CCN1C(=O)NCc1cnn(C)c1
REMARK SMILES IDX 7 1 6 2 4 3 5 4 3 5 1 6 2 7 77 8 75 9 76 10 78 11 79 12
REMARK SMILES IDX 80 13 81 15 82 16 83 17 87 18 84 19 85 20 86 21 8 22 9 23
REMARK SMILES IDX 10 24 11 25 12 26 13 27 74 28 14 29 73 30 15 31 16 32 17 33
REMARK SMILES IDX 67 34 18 35 72 36 66 37 68 38 19 39 71 40 65 41 64 42 20 44
REMARK SMILES IDX 52 45 32 46 51 47 33 48 36 49 50 50 69 51 34 52 35 53 49 55
REMARK SMILES IDX 70 56 37 57 21 58 22 59 30 60 23 61 24 62 28 63 31 64 25 65
REMARK SMILES IDX 26 66 29 67 27 68 53 69 54 70 62 71 55 72 56 73 60 74 63 75
REMARK SMILES IDX 57 76 58 77 61 78 59 79 38 80 39 81 47 82 40 83 41 84 45 85
REMARK SMILES IDX 48 86 42 87 43 88 46 89 44 90
REMARK H PARENT 80 14 68 43 36 54
REMARK Flexibility Score: inf
ROOT
ATOM      1  C   UNL A   1      35.239  20.792  25.229  1.00  0.00     0.274 C 
ENDROOT
BRANCH   1   2
ATOM      2  O   UNL A   1      34.637  22.062  24.903  1.00  0.00    -0.462 OA
BRANCH   2   3
ATOM      3  C   UNL A   1      33.373  22.026  24.414  1.00  0.00     0.311 C 
ATOM      4  O   UNL A   1      32.820  21.021  23.977  1.00  0.00    -0.252 OA
BRANCH   3   5
ATOM      5  C   UNL A   1      32.687  23.374  24.417  1.00  0.00     0.123 C 
ATOM      6  C   UNL A   1      33.910  25.526  24.928  1.00  0.00     0.032 C 
ATOM      7  C   UNL A   1      33.509  24.540  23.822  1.00  0.00     0.098 C 
ATOM      8  N   UNL A   1      32.608  25.193  22.871  1.00  0.00    -0.321 N 
ATOM      9  C   UNL A   1      31.399  23.327  23.602  1.00  0.00     0.039 C 
ATOM     10  C   UNL A   1      31.245  24.752  23.112  1.00  0.00     0.122 C 
BRANCH   8  11
ATOM     11  C   UNL A   1      32.855  26.047  21.846  1.00  0.00     0.317 C 
ATOM     12  O   UNL A   1      33.230  25.629  20.745  1.00  0.00    -0.249 OA
ATOM     13  N   UNL A   1      32.726  27.377  21.936  1.00  0.00    -0.334 N 
ATOM     14  H   UNL A   1      33.002  27.818  21.100  1.00  0.00     0.165 HD
BRANCH  13  15
ATOM     15  C   UNL A   1      32.293  28.348  22.919  1.00  0.00     0.157 C 
BRANCH  15  16
ATOM     16  C   UNL A   1      30.864  28.675  22.696  1.00  0.00     0.009 A 
ATOM     17  C   UNL A   1      30.341  29.663  21.830  1.00  0.00     0.140 A 
ATOM     18  C   UNL A   1      29.744  28.140  23.303  1.00  0.00     0.113 A 
ATOM     19  N   UNL A   1      29.008  29.745  21.884  1.00  0.00    -0.181 NA
ATOM     20  N   UNL A   1      28.671  28.805  22.784  1.00  0.00    -0.275 N 
ATOM     21  C   UNL A   1      27.283  28.613  23.128  1.00  0.00     0.173 C 
ENDBRANCH  15  16
ENDBRANCH  13  15
ENDBRANCH   8  11
ENDBRANCH   3   5
ENDBRANCH   2   3
ENDBRANCH   1   2
BRANCH   1  22
ATOM     22  C   UNL A   1      36.745  20.790  24.952  1.00  0.00     0.275 C 
BRANCH  22  23
ATOM     23  O   UNL A   1      37.434  21.776  25.745  1.00  0.00    -0.458 OA
BRANCH  23  24
ATOM     24  C   UNL A   1      38.711  21.467  26.064  1.00  0.00     0.338 C 
ATOM     25  O   UNL A   1      39.302  20.423  25.849  1.00  0.00    -0.246 OA
BRANCH  24  26
ATOM     26  C   UNL A   1      39.377  22.652  26.623  1.00  0.00     0.060 A 
ATOM     27  C   UNL A   1      38.959  23.914  26.192  1.00  0.00     0.016 A 
ATOM     28  C   UNL A   1      40.467  22.518  27.480  1.00  0.00     0.016 A 
ATOM     29  C   UNL A   1      39.649  25.053  26.586  1.00  0.00     0.010 A 
ATOM     30  C   UNL A   1      41.148  23.665  27.896  1.00  0.00     0.010 A 
ATOM     31  C   UNL A   1      40.751  24.936  27.438  1.00  0.00    -0.014 A 
BRANCH  31  32
ATOM     32  C   UNL A   1      41.523  26.136  27.827  1.00  0.00     0.031 A 
ATOM     33  C   UNL A   1      40.863  27.209  28.639  1.00  0.00     0.074 A 
ATOM     34  C   UNL A   1      42.804  26.265  27.436  1.00  0.00     0.049 A 
ATOM     35  N   UNL A   1      41.283  28.415  28.916  1.00  0.00    -0.248 NA
ATOM     36  C   UNL A   1      39.550  26.879  29.214  1.00  0.00     0.031 C 
ATOM     37  C   UNL A   1      43.569  25.255  26.707  1.00  0.00     0.029 A 
ATOM     38  N   UNL A   1      43.679  27.311  27.583  1.00  0.00    -0.354 N 
ATOM     39  C   UNL A   1      40.275  29.002  29.666  1.00  0.00     0.074 A 
ATOM     40  C   UNL A   1      39.222  28.019  29.806  1.00  0.00     0.031 C 
ATOM     41  C   UNL A   1      44.796  25.736  26.453  1.00  0.00     0.029 A 
ATOM     42  C   UNL A   1      44.879  27.108  26.947  1.00  0.00     0.049 A 
ATOM     43  H   UNL A   1      43.468  28.125  28.095  1.00  0.00     0.167 HD
ATOM     44  C   UNL A   1      40.236  30.253  30.182  1.00  0.00     0.037 A 
ATOM     45  C   UNL A   1      45.905  27.954  26.741  1.00  0.00     0.037 A 
ATOM     46  C   UNL A   1      41.300  31.213  30.051  1.00  0.00     0.049 A 
ATOM     47  C   UNL A   1      45.810  29.361  27.265  1.00  0.00     0.074 A 
ATOM     48  C   UNL A   1      41.360  32.507  30.535  1.00  0.00     0.029 A 
ATOM     49  N   UNL A   1      42.495  30.975  29.388  1.00  0.00    -0.354 N 
ATOM     50  N   UNL A   1      44.839  29.926  27.943  1.00  0.00    -0.248 NA
ATOM     51  C   UNL A   1      46.944  30.252  26.986  1.00  0.00     0.031 C 
ATOM     52  C   UNL A   1      42.580  33.066  30.136  1.00  0.00     0.029 A 
ATOM     53  C   UNL A   1      43.294  32.105  29.437  1.00  0.00     0.049 A 
ATOM     54  H   UNL A   1      42.739  30.130  28.948  1.00  0.00     0.167 HD
ATOM     55  C   UNL A   1      45.253  31.226  28.191  1.00  0.00     0.074 A 
ATOM     56  C   UNL A   1      46.565  31.368  27.593  1.00  0.00     0.031 C 
ATOM     57  C   UNL A   1      44.605  32.215  28.853  1.00  0.00     0.037 A 
BRANCH  44  58
ATOM     58  C   UNL A   1      38.988  30.668  30.900  1.00  0.00     0.064 A 
ATOM     59  C   UNL A   1      37.898  31.230  30.222  1.00  0.00     0.173 A 
ATOM     60  C   UNL A   1      38.870  30.468  32.284  1.00  0.00     0.173 A 
ATOM     61  F   UNL A   1      37.968  31.456  28.901  1.00  0.00    -0.203 F 
ATOM     62  C   UNL A   1      36.740  31.593  30.906  1.00  0.00     0.198 A 
ATOM     63  C   UNL A   1      37.704  30.811  32.961  1.00  0.00     0.198 A 
ATOM     64  F   UNL A   1      39.886  29.932  32.977  1.00  0.00    -0.203 F 
ATOM     65  F   UNL A   1      35.724  32.164  30.245  1.00  0.00    -0.200 F 
ATOM     66  C   UNL A   1      36.642  31.378  32.273  1.00  0.00     0.200 A 
ATOM     67  F   UNL A   1      37.609  30.594  34.280  1.00  0.00    -0.200 F 
ATOM     68  F   UNL A   1      35.526  31.723  32.929  1.00  0.00    -0.200 F 
ENDBRANCH  44  58
BRANCH  45  69
ATOM     69  C   UNL A   1      47.089  27.502  25.970  1.00  0.00     0.064 A 
ATOM     70  C   UNL A   1      47.137  27.637  24.578  1.00  0.00     0.173 A 
ATOM     71  C   UNL A   1      48.201  26.935  26.612  1.00  0.00     0.173 A 
ATOM     72  F   UNL A   1      46.088  28.150  23.918  1.00  0.00    -0.203 F 
ATOM     73  C   UNL A   1      48.250  27.216  23.853  1.00  0.00     0.198 A 
ATOM     74  C   UNL A   1      49.324  26.539  25.889  1.00  0.00     0.198 A 
ATOM     75  F   UNL A   1      48.203  26.783  27.944  1.00  0.00    -0.203 F 
ATOM     76  F   UNL A   1      48.258  27.325  22.517  1.00  0.00    -0.200 F 
ATOM     77  C   UNL A   1      49.345  26.675  24.510  1.00  0.00     0.200 A 
ATOM     78  F   UNL A   1      50.383  26.026  26.530  1.00  0.00    -0.200 F 
ATOM     79  F   UNL A   1      50.418  26.277  23.813  1.00  0.00    -0.200 F 
ENDBRANCH  45  69
BRANCH  57  80
ATOM     80  C   UNL A   1      45.320  33.521  29.012  1.00  0.00     0.064 A 
ATOM     81  C   UNL A   1      46.168  33.765  30.100  1.00  0.00     0.173 A 
ATOM     82  C   UNL A   1      45.207  34.511  28.024  1.00  0.00     0.173 A 
ATOM     83  F   UNL A   1      46.294  32.853  31.075  1.00  0.00    -0.203 F 
ATOM     84  C   UNL A   1      46.874  34.961  30.199  1.00  0.00     0.198 A 
ATOM     85  C   UNL A   1      45.931  35.696  28.116  1.00  0.00     0.198 A 
ATOM     86  F   UNL A   1      44.412  34.319  26.962  1.00  0.00    -0.203 F 
ATOM     87  F   UNL A   1      47.661  35.186  31.261  1.00  0.00    -0.200 F 
ATOM     88  C   UNL A   1      46.761  35.921  29.204  1.00  0.00     0.200 A 
ATOM     89  F   UNL A   1      45.829  36.619  27.149  1.00  0.00    -0.200 F 
ATOM     90  F   UNL A   1      47.452  37.066  29.294  1.00  0.00    -0.200 F 
ENDBRANCH  57  80
ENDBRANCH  31  32
ENDBRANCH  24  26
ENDBRANCH  23  24
ENDBRANCH  22  23
ENDBRANCH   1  22
TORSDOF 14
ENDMDL
MODEL 3
REMARK VINA RESULT:     -12.0      1.218      1.714
REMARK SMILES C[C@H]1[C@H](C(=O)OCCOC(=O)c2ccc(-c3c4nc(c(-c5c(F)c(F)c(F)c(F)c5F)c5ccc([nH]5)c(-c5c(F)c(F)c(F)c(F)c5F)c5nc(c(-c6c(F)c(F)c(F)c(F)c6F)c6ccc3[nH]6)C=C5)C=C4)cc2)CCN1C(=O)NCc1cnn(C)c1
REMARK SMILES IDX 7 1 6 2 4 3 5 4 3 5 1 6 2 7 77 8 75 9 76 10 78 11 79 12
REMARK SMILES IDX 80 13 81 15 82 16 83 17 87 18 84 19 85 20 86 21 8 22 9 23
REMARK SMILES IDX 10 24 11 25 12 26 13 27 74 28 14 29 73 30 15 31 16 32 17 33
REMARK SMILES IDX 67 34 18 35 72 36 66 37 68 38 19 39 71 40 65 41 64 42 20 44
REMARK SMILES IDX 52 45 32 46 51 47 33 48 36 49 50 50 69 51 34 52 35 53 49 55
REMARK SMILES IDX 70 56 37 57 21 58 22 59 30 60 23 61 24 62 28 63 31 64 25 65
REMARK SMILES IDX 26 66 29 67 27 68 53 69 54 70 62 71 55 72 56 73 60 74 63 75
REMARK SMILES IDX 57 76 58 77 61 78 59 79 38 80 39 81 47 82 40 83 41 84 45 85
REMARK SMILES IDX 48 86 42 87 43 88 46 89 44 90
REMARK H PARENT 80 14 68 43 36 54
REMARK Flexibility Score: inf
ROOT
ATOM      1  C   UNL A   1      36.618  23.084  23.757  1.00  0.00     0.274 C 
ENDROOT
BRANCH   1   2
ATOM      2  O   UNL A   1      35.663  22.932  22.687  1.00  0.00    -0.462 OA
BRANCH   2   3
ATOM      3  C   UNL A   1      34.403  23.366  22.933  1.00  0.00     0.311 C 
ATOM      4  O   UNL A   1      33.797  24.181  22.244  1.00  0.00    -0.252 OA
BRANCH   3   5
ATOM      5  C   UNL A   1      33.795  22.774  24.185  1.00  0.00     0.123 C 
ATOM      6  C   UNL A   1      34.096  23.811  26.471  1.00  0.00     0.032 C 
ATOM      7  C   UNL A   1      33.234  23.796  25.200  1.00  0.00     0.098 C 
ATOM      8  N   UNL A   1      31.888  23.319  25.514  1.00  0.00    -0.321 N 
ATOM      9  C   UNL A   1      32.624  21.861  23.838  1.00  0.00     0.039 C 
ATOM     10  C   UNL A   1      31.742  21.944  25.066  1.00  0.00     0.122 C 
BRANCH   8  11
ATOM     11  C   UNL A   1      30.823  23.946  26.077  1.00  0.00     0.317 C 
ATOM     12  O   UNL A   1      30.499  23.721  27.248  1.00  0.00    -0.249 OA
ATOM     13  N   UNL A   1      30.051  24.829  25.432  1.00  0.00    -0.334 N 
ATOM     14  H   UNL A   1      29.304  25.128  25.999  1.00  0.00     0.165 HD
BRANCH  13  15
ATOM     15  C   UNL A   1      30.008  25.467  24.133  1.00  0.00     0.157 C 
BRANCH  15  16
ATOM     16  C   UNL A   1      30.412  26.888  24.265  1.00  0.00     0.009 A 
ATOM     17  C   UNL A   1      29.925  27.986  23.518  1.00  0.00     0.140 A 
ATOM     18  C   UNL A   1      31.368  27.448  25.092  1.00  0.00     0.113 A 
ATOM     19  N   UNL A   1      30.519  29.137  23.844  1.00  0.00    -0.181 NA
ATOM     20  N   UNL A   1      31.389  28.781  24.805  1.00  0.00    -0.275 N 
ATOM     21  C   UNL A   1      32.244  29.781  25.397  1.00  0.00     0.173 C 
ENDBRANCH  15  16
ENDBRANCH  13  15
ENDBRANCH   8  11
ENDBRANCH   3   5
ENDBRANCH   2   3
ENDBRANCH   1   2
BRANCH   1  22
ATOM     22  C   UNL A   1      37.042  21.731  24.336  1.00  0.00     0.275 C 
BRANCH  22  23
ATOM     23  O   UNL A   1      37.405  21.836  25.726  1.00  0.00    -0.458 OA
BRANCH  23  24
ATOM     24  C   UNL A   1      38.698  21.556  26.006  1.00  0.00     0.338 C 
ATOM     25  O   UNL A   1      39.311  20.533  25.755  1.00  0.00    -0.246 OA
BRANCH  24  26
ATOM     26  C   UNL A   1      39.347  22.748  26.570  1.00  0.00     0.060 A 
ATOM     27  C   UNL A   1      38.950  24.004  26.103  1.00  0.00     0.016 A 
ATOM     28  C   UNL A   1      40.403  22.624  27.470  1.00  0.00     0.016 A 
ATOM     29  C   UNL A   1      39.629  25.148  26.505  1.00  0.00     0.010 A 
ATOM     30  C   UNL A   1      41.072  23.776  27.892  1.00  0.00     0.010 A 
ATOM     31  C   UNL A   1      40.698  25.041  27.400  1.00  0.00    -0.014 A 
BRANCH  31  32
ATOM     32  C   UNL A   1      41.459  26.245  27.798  1.00  0.00     0.031 A 
ATOM     33  C   UNL A   1      40.782  27.317  28.596  1.00  0.00     0.074 A 
ATOM     34  C   UNL A   1      42.745  26.377  27.428  1.00  0.00     0.049 A 
ATOM     35  N   UNL A   1      41.193  28.526  28.878  1.00  0.00    -0.248 NA
ATOM     36  C   UNL A   1      39.461  26.983  29.152  1.00  0.00     0.031 C 
ATOM     37  C   UNL A   1      43.525  25.369  26.713  1.00  0.00     0.029 A 
ATOM     38  N   UNL A   1      43.614  27.427  27.586  1.00  0.00    -0.354 N 
ATOM     39  C   UNL A   1      40.171  29.110  29.610  1.00  0.00     0.074 A 
ATOM     40  C   UNL A   1      39.119  28.124  29.736  1.00  0.00     0.031 C 
ATOM     41  C   UNL A   1      44.755  25.855  26.478  1.00  0.00     0.029 A 
ATOM     42  C   UNL A   1      44.824  27.227  26.970  1.00  0.00     0.049 A 
ATOM     43  H   UNL A   1      43.391  28.242  28.092  1.00  0.00     0.167 HD
ATOM     44  C   UNL A   1      40.118  30.362  30.123  1.00  0.00     0.037 A 
ATOM     45  C   UNL A   1      45.851  28.077  26.778  1.00  0.00     0.037 A 
ATOM     46  C   UNL A   1      41.181  31.326  30.007  1.00  0.00     0.049 A 
ATOM     47  C   UNL A   1      45.742  29.485  27.298  1.00  0.00     0.074 A 
ATOM     48  C   UNL A   1      41.228  32.622  30.489  1.00  0.00     0.029 A 
ATOM     49  N   UNL A   1      42.387  31.091  29.363  1.00  0.00    -0.354 N 
ATOM     50  N   UNL A   1      44.758  30.047  27.958  1.00  0.00    -0.248 NA
ATOM     51  C   UNL A   1      46.877  30.380  27.035  1.00  0.00     0.031 C 
ATOM     52  C   UNL A   1      42.452  33.184  30.107  1.00  0.00     0.029 A 
ATOM     53  C   UNL A   1      43.181  32.224  29.422  1.00  0.00     0.049 A 
ATOM     54  H   UNL A   1      42.641  30.246  28.929  1.00  0.00     0.167 HD
ATOM     55  C   UNL A   1      45.163  31.350  28.209  1.00  0.00     0.074 A 
ATOM     56  C   UNL A   1      46.484  31.495  27.633  1.00  0.00     0.031 C 
ATOM     57  C   UNL A   1      44.501  32.337  28.859  1.00  0.00     0.037 A 
BRANCH  44  58
ATOM     58  C   UNL A   1      38.858  30.774  30.819  1.00  0.00     0.064 A 
ATOM     59  C   UNL A   1      38.713  30.669  32.209  1.00  0.00     0.173 A 
ATOM     60  C   UNL A   1      37.791  31.315  30.085  1.00  0.00     0.173 A 
ATOM     61  F   UNL A   1      39.698  30.143  32.953  1.00  0.00    -0.203 F 
ATOM     62  C   UNL A   1      37.538  31.075  32.838  1.00  0.00     0.198 A 
ATOM     63  C   UNL A   1      36.627  31.740  30.719  1.00  0.00     0.198 A 
ATOM     64  F   UNL A   1      37.882  31.437  28.753  1.00  0.00    -0.203 F 
ATOM     65  F   UNL A   1      37.405  30.931  34.164  1.00  0.00    -0.200 F 
ATOM     66  C   UNL A   1      36.499  31.615  32.094  1.00  0.00     0.200 A 
ATOM     67  F   UNL A   1      35.629  32.270  29.999  1.00  0.00    -0.200 F 
ATOM     68  F   UNL A   1      35.372  32.009  32.701  1.00  0.00    -0.200 F 
ENDBRANCH  44  58
BRANCH  45  69
ATOM     69  C   UNL A   1      47.049  27.627  26.027  1.00  0.00     0.064 A 
ATOM     70  C   UNL A   1      48.161  27.101  26.693  1.00  0.00     0.173 A 
ATOM     71  C   UNL A   1      47.099  27.705  24.627  1.00  0.00     0.173 A 
ATOM     72  F   UNL A   1      48.169  27.029  28.032  1.00  0.00    -0.203 F 
ATOM     73  C   UNL A   1      49.285  26.674  25.987  1.00  0.00     0.198 A 
ATOM     74  C   UNL A   1      48.212  27.255  23.921  1.00  0.00     0.198 A 
ATOM     75  F   UNL A   1      46.058  28.203  23.943  1.00  0.00    -0.203 F 
ATOM     76  F   UNL A   1      50.351  26.206  26.650  1.00  0.00    -0.200 F 
ATOM     77  C   UNL A   1      49.306  26.745  24.602  1.00  0.00     0.200 A 
ATOM     78  F   UNL A   1      48.223  27.315  22.583  1.00  0.00    -0.200 F 
ATOM     79  F   UNL A   1      50.384  26.328  23.925  1.00  0.00    -0.200 F 
ENDBRANCH  45  69
BRANCH  57  80
ATOM     80  C   UNL A   1      45.209  33.647  29.026  1.00  0.00     0.064 A 
ATOM     81  C   UNL A   1      46.057  33.888  30.115  1.00  0.00     0.173 A 
ATOM     82  C   UNL A   1      45.088  34.644  28.046  1.00  0.00     0.173 A 
ATOM     83  F   UNL A   1      46.190  32.970  31.084  1.00  0.00    -0.203 F 
ATOM     84  C   UNL A   1      46.755  35.088  30.222  1.00  0.00     0.198 A 
ATOM     85  C   UNL A   1      45.805  35.832  28.145  1.00  0.00     0.198 A 
ATOM     86  F   UNL A   1      44.292  34.455  26.984  1.00  0.00    -0.203 F 
ATOM     87  F   UNL A   1      47.543  35.310  31.283  1.00  0.00    -0.200 F 
ATOM     88  C   UNL A   1      46.636  36.054  29.233  1.00  0.00     0.200 A 
ATOM     89  F   UNL A   1      45.696  36.761  27.185  1.00  0.00    -0.200 F 
ATOM     90  F   UNL A   1      47.320  37.202  29.331  1.00  0.00    -0.200 F 
ENDBRANCH  57  80
ENDBRANCH  31  32
ENDBRANCH  24  26
ENDBRANCH  23  24
ENDBRANCH  22  23
ENDBRANCH   1  22
TORSDOF 14
ENDMDL
