MODEL 1
REMARK VINA RESULT:     -10.4      0.000      0.000
REMARK SMILES C[C@H](Cc1cccs1)N(C)C(=O)[C@@H]([NH3+])CCC(=O)OCCOC(=O)c1ccc(-c2c3nc(c(-c4c(F)c(F)c(F)c(F)c4F)c4ccc([nH]4)c(-c4c(F)c(F)c(F)c(F)c4F)c4nc(c(-c5c(F)c(F)c(F)c(F)c5F)c5ccc2[nH]5)C=C4)C=C3)cc1
REMARK SMILES IDX 17 1 18 2 16 3 15 4 13 5 11 6 12 7 9 8 10 9 2 10 1 11 3 12
REMARK SMILES IDX 4 13 5 14 8 15 6 16 7 17 14 18 19 22 20 23 21 24 22 25 23 26
REMARK SMILES IDX 24 27 25 28 26 29 87 30 27 31 86 32 28 33 29 34 30 35 80 36
REMARK SMILES IDX 31 37 85 38 79 39 81 40 32 41 84 42 78 43 77 44 33 46 65 47
REMARK SMILES IDX 45 48 64 49 46 50 49 51 63 52 82 53 47 54 48 55 62 57 83 58
REMARK SMILES IDX 50 59 34 60 35 61 43 62 36 63 37 64 41 65 44 66 38 67 39 68
REMARK SMILES IDX 42 69 40 70 66 71 67 72 75 73 68 74 69 75 73 76 76 77 70 78
REMARK SMILES IDX 71 79 74 80 72 81 51 82 52 83 60 84 53 85 54 86 58 87 61 88
REMARK SMILES IDX 55 89 56 90 59 91 57 92
REMARK H PARENT 14 19 14 20 14 21 81 45 49 56
REMARK Flexibility Score: inf
ROOT
ATOM      1  C   UNL A   1      33.055  27.939  23.342  1.00  0.00     0.306 C 
ATOM      2  O   UNL A   1      33.600  27.715  22.268  1.00  0.00    -0.252 OA
ENDROOT
BRANCH   1   3
ATOM      3  C   UNL A   1      32.611  26.836  24.269  1.00  0.00     0.129 C 
BRANCH   3   4
ATOM      4  C   UNL A   1      31.741  25.744  23.645  1.00  0.00     0.087 C 
BRANCH   4   5
ATOM      5  C   UNL A   1      30.628  25.200  24.554  1.00  0.00     0.271 C 
BRANCH   5   6
ATOM      6  C   UNL A   1      31.029  24.920  26.031  1.00  0.00     0.280 C 
ATOM      7  O   UNL A   1      31.125  25.893  26.782  1.00  0.00    -0.268 OA
BRANCH   6   8
ATOM      8  N   UNL A   1      31.273  23.619  26.463  1.00  0.00    -0.338 N 
ATOM      9  C   UNL A   1      30.196  22.712  26.854  1.00  0.00     0.147 C 
BRANCH   8  10
ATOM     10  C   UNL A   1      32.648  23.059  26.577  1.00  0.00     0.087 C 
ATOM     11  C   UNL A   1      32.946  22.574  28.001  1.00  0.00     0.031 C 
BRANCH  10  12
ATOM     12  C   UNL A   1      33.817  23.781  25.867  1.00  0.00     0.071 C 
BRANCH  12  13
ATOM     13  C   UNL A   1      34.959  23.050  25.191  1.00  0.00     0.007 A 
ATOM     14  C   UNL A   1      35.647  23.535  24.088  1.00  0.00     0.015 A 
ATOM     15  S   UNL A   1      35.599  21.538  25.670  1.00  0.00    -0.149 S 
ATOM     16  C   UNL A   1      36.685  22.668  23.646  1.00  0.00     0.012 A 
ATOM     17  C   UNL A   1      36.765  21.538  24.424  1.00  0.00     0.065 A 
ENDBRANCH  12  13
ENDBRANCH  10  12
ENDBRANCH   8  10
ENDBRANCH   6   8
ENDBRANCH   5   6
BRANCH   5  18
ATOM     18  N   UNL A   1      29.423  26.058  24.497  1.00  0.00    -0.347 N 
ATOM     19  H   UNL A   1      29.137  26.306  25.444  1.00  0.00     0.345 HD
ATOM     20  H   UNL A   1      28.667  25.552  24.035  1.00  0.00     0.345 HD
ATOM     21  H   UNL A   1      29.635  26.907  23.971  1.00  0.00     0.345 HD
ENDBRANCH   5  18
ENDBRANCH   4   5
ENDBRANCH   3   4
ENDBRANCH   1   3
BRANCH   1  22
ATOM     22  O   UNL A   1      32.743  29.167  23.818  1.00  0.00    -0.462 OA
BRANCH  22  23
ATOM     23  C   UNL A   1      31.513  29.276  24.555  1.00  0.00     0.274 C 
BRANCH  23  24
ATOM     24  C   UNL A   1      31.721  30.037  25.865  1.00  0.00     0.275 C 
BRANCH  24  25
ATOM     25  O   UNL A   1      33.121  30.254  26.122  1.00  0.00    -0.458 OA
BRANCH  25  26
ATOM     26  C   UNL A   1      33.405  31.238  27.006  1.00  0.00     0.338 C 
ATOM     27  O   UNL A   1      32.713  32.192  27.312  1.00  0.00    -0.246 OA
BRANCH  26  28
ATOM     28  C   UNL A   1      34.698  30.950  27.643  1.00  0.00     0.060 A 
ATOM     29  C   UNL A   1      35.001  29.633  28.005  1.00  0.00     0.016 A 
ATOM     30  C   UNL A   1      35.568  31.994  27.953  1.00  0.00     0.016 A 
ATOM     31  C   UNL A   1      36.183  29.354  28.688  1.00  0.00     0.010 A 
ATOM     32  C   UNL A   1      36.751  31.713  28.636  1.00  0.00     0.010 A 
ATOM     33  C   UNL A   1      37.060  30.394  29.019  1.00  0.00    -0.014 A 
BRANCH  33  34
ATOM     34  C   UNL A   1      38.274  30.140  29.826  1.00  0.00     0.031 A 
ATOM     35  C   UNL A   1      39.338  29.231  29.285  1.00  0.00     0.074 A 
ATOM     36  C   UNL A   1      38.408  30.690  31.045  1.00  0.00     0.049 A 
ATOM     37  N   UNL A   1      40.368  28.704  29.893  1.00  0.00    -0.248 NA
ATOM     38  C   UNL A   1      39.220  28.865  27.864  1.00  0.00     0.031 C 
ATOM     39  C   UNL A   1      37.478  31.642  31.651  1.00  0.00     0.029 A 
ATOM     40  N   UNL A   1      39.375  30.507  32.003  1.00  0.00    -0.354 N 
ATOM     41  C   UNL A   1      41.008  27.923  28.939  1.00  0.00     0.074 A 
ATOM     42  C   UNL A   1      40.249  28.043  27.712  1.00  0.00     0.031 C 
ATOM     43  C   UNL A   1      37.909  31.945  32.887  1.00  0.00     0.029 A 
ATOM     44  C   UNL A   1      39.112  31.169  33.177  1.00  0.00     0.049 A 
ATOM     45  H   UNL A   1      40.177  29.954  31.863  1.00  0.00     0.167 HD
ATOM     46  C   UNL A   1      42.124  27.172  29.082  1.00  0.00     0.037 A 
ATOM     47  C   UNL A   1      39.748  31.117  34.362  1.00  0.00     0.037 A 
ATOM     48  C   UNL A   1      42.875  27.062  30.304  1.00  0.00     0.049 A 
ATOM     49  C   UNL A   1      40.945  30.216  34.518  1.00  0.00     0.074 A 
ATOM     50  C   UNL A   1      44.001  26.300  30.563  1.00  0.00     0.029 A 
ATOM     51  N   UNL A   1      42.576  27.746  31.473  1.00  0.00    -0.354 N 
ATOM     52  N   UNL A   1      41.518  29.441  33.629  1.00  0.00    -0.248 NA
ATOM     53  C   UNL A   1      41.576  30.175  35.844  1.00  0.00     0.031 C 
ATOM     54  C   UNL A   1      44.370  26.505  31.897  1.00  0.00     0.029 A 
ATOM     55  C   UNL A   1      43.495  27.422  32.456  1.00  0.00     0.049 A 
ATOM     56  H   UNL A   1      41.823  28.369  31.585  1.00  0.00     0.167 HD
ATOM     57  C   UNL A   1      42.591  28.846  34.277  1.00  0.00     0.074 A 
ATOM     58  C   UNL A   1      42.593  29.349  35.635  1.00  0.00     0.031 C 
ATOM     59  C   UNL A   1      43.495  27.961  33.792  1.00  0.00     0.037 A 
BRANCH  46  60
ATOM     60  C   UNL A   1      42.584  26.385  27.893  1.00  0.00     0.064 A 
ATOM     61  C   UNL A   1      42.101  25.094  27.636  1.00  0.00     0.173 A 
ATOM     62  C   UNL A   1      43.495  26.942  26.982  1.00  0.00     0.173 A 
ATOM     63  F   UNL A   1      41.242  24.514  28.487  1.00  0.00    -0.203 F 
ATOM     64  C   UNL A   1      42.525  24.382  26.517  1.00  0.00     0.198 A 
ATOM     65  C   UNL A   1      43.900  26.235  25.852  1.00  0.00     0.198 A 
ATOM     66  F   UNL A   1      43.985  28.173  27.184  1.00  0.00    -0.203 F 
ATOM     67  F   UNL A   1      42.077  23.137  26.309  1.00  0.00    -0.200 F 
ATOM     68  C   UNL A   1      43.418  24.955  25.623  1.00  0.00     0.200 A 
ATOM     69  F   UNL A   1      44.757  26.793  24.986  1.00  0.00    -0.200 F 
ATOM     70  F   UNL A   1      43.820  24.271  24.544  1.00  0.00    -0.200 F 
ENDBRANCH  46  60
BRANCH  47  71
ATOM     71  C   UNL A   1      39.249  31.916  35.510  1.00  0.00     0.064 A 
ATOM     72  C   UNL A   1      38.381  31.353  36.454  1.00  0.00     0.173 A 
ATOM     73  C   UNL A   1      39.616  33.260  35.678  1.00  0.00     0.173 A 
ATOM     74  F   UNL A   1      37.980  30.080  36.320  1.00  0.00    -0.203 F 
ATOM     75  C   UNL A   1      37.886  32.108  37.515  1.00  0.00     0.198 A 
ATOM     76  C   UNL A   1      39.140  34.006  36.753  1.00  0.00     0.198 A 
ATOM     77  F   UNL A   1      40.440  33.847  34.797  1.00  0.00    -0.203 F 
ATOM     78  F   UNL A   1      37.021  31.558  38.379  1.00  0.00    -0.200 F 
ATOM     79  C   UNL A   1      38.269  33.432  37.667  1.00  0.00     0.200 A 
ATOM     80  F   UNL A   1      39.518  35.282  36.900  1.00  0.00    -0.200 F 
ATOM     81  F   UNL A   1      37.792  34.157  38.687  1.00  0.00    -0.200 F 
ENDBRANCH  47  71
BRANCH  59  82
ATOM     82  C   UNL A   1      44.597  27.528  34.710  1.00  0.00     0.064 A 
ATOM     83  C   UNL A   1      44.481  26.382  35.509  1.00  0.00     0.173 A 
ATOM     84  C   UNL A   1      45.804  28.243  34.747  1.00  0.00     0.173 A 
ATOM     85  F   UNL A   1      43.340  25.678  35.517  1.00  0.00    -0.203 F 
ATOM     86  C   UNL A   1      45.534  25.973  36.323  1.00  0.00     0.198 A 
ATOM     87  C   UNL A   1      46.860  27.818  35.546  1.00  0.00     0.198 A 
ATOM     88  F   UNL A   1      45.961  29.342  33.996  1.00  0.00    -0.203 F 
ATOM     89  F   UNL A   1      45.394  24.892  37.103  1.00  0.00    -0.200 F 
ATOM     90  C   UNL A   1      46.724  26.687  36.337  1.00  0.00     0.200 A 
ATOM     91  F   UNL A   1      48.013  28.503  35.551  1.00  0.00    -0.200 F 
ATOM     92  F   UNL A   1      47.738  26.286  37.115  1.00  0.00    -0.200 F 
ENDBRANCH  59  82
ENDBRANCH  33  34
ENDBRANCH  26  28
ENDBRANCH  25  26
ENDBRANCH  24  25
ENDBRANCH  23  24
ENDBRANCH  22  23
ENDBRANCH   1  22
TORSDOF 19
ENDMDL
MODEL 2
REMARK VINA RESULT:     -10.4      4.588      9.818
REMARK SMILES C[C@H](Cc1cccs1)N(C)C(=O)[C@@H]([NH3+])CCC(=O)OCCOC(=O)c1ccc(-c2c3nc(c(-c4c(F)c(F)c(F)c(F)c4F)c4ccc([nH]4)c(-c4c(F)c(F)c(F)c(F)c4F)c4nc(c(-c5c(F)c(F)c(F)c(F)c5F)c5ccc2[nH]5)C=C4)C=C3)cc1
REMARK SMILES IDX 17 1 18 2 16 3 15 4 13 5 11 6 12 7 9 8 10 9 2 10 1 11 3 12
REMARK SMILES IDX 4 13 5 14 8 15 6 16 7 17 14 18 19 22 20 23 21 24 22 25 23 26
REMARK SMILES IDX 24 27 25 28 26 29 87 30 27 31 86 32 28 33 29 34 30 35 80 36
REMARK SMILES IDX 31 37 85 38 79 39 81 40 32 41 84 42 78 43 77 44 33 46 65 47
REMARK SMILES IDX 45 48 64 49 46 50 49 51 63 52 82 53 47 54 48 55 62 57 83 58
REMARK SMILES IDX 50 59 34 60 35 61 43 62 36 63 37 64 41 65 44 66 38 67 39 68
REMARK SMILES IDX 42 69 40 70 66 71 67 72 75 73 68 74 69 75 73 76 76 77 70 78
REMARK SMILES IDX 71 79 74 80 72 81 51 82 52 83 60 84 53 85 54 86 58 87 61 88
REMARK SMILES IDX 55 89 56 90 59 91 57 92
REMARK H PARENT 14 19 14 20 14 21 81 45 49 56
REMARK Flexibility Score: inf
ROOT
ATOM      1  C   UNL A   1      34.056  22.723  23.223  1.00  0.00     0.306 C 
ATOM      2  O   UNL A   1      34.386  23.547  22.379  1.00  0.00    -0.252 OA
ENDROOT
BRANCH   1   3
ATOM      3  C   UNL A   1      32.651  22.185  23.323  1.00  0.00     0.129 C 
BRANCH   3   4
ATOM      4  C   UNL A   1      31.855  22.614  24.556  1.00  0.00     0.087 C 
BRANCH   4   5
ATOM      5  C   UNL A   1      30.931  23.823  24.348  1.00  0.00     0.271 C 
BRANCH   5   6
ATOM      6  C   UNL A   1      31.240  25.075  25.217  1.00  0.00     0.280 C 
ATOM      7  O   UNL A   1      30.818  25.075  26.375  1.00  0.00    -0.268 OA
BRANCH   6   8
ATOM      8  N   UNL A   1      31.956  26.145  24.687  1.00  0.00    -0.338 N 
ATOM      9  C   UNL A   1      33.404  26.097  24.497  1.00  0.00     0.147 C 
BRANCH   8  10
ATOM     10  C   UNL A   1      31.307  27.425  24.289  1.00  0.00     0.087 C 
ATOM     11  C   UNL A   1      31.315  28.444  25.434  1.00  0.00     0.031 C 
BRANCH  10  12
ATOM     12  C   UNL A   1      30.006  27.381  23.453  1.00  0.00     0.071 C 
BRANCH  12  13
ATOM     13  C   UNL A   1      29.378  28.609  22.826  1.00  0.00     0.007 A 
ATOM     14  C   UNL A   1      30.079  29.544  22.078  1.00  0.00     0.015 A 
ATOM     15  S   UNL A   1      27.725  29.041  22.916  1.00  0.00    -0.149 S 
ATOM     16  C   UNL A   1      29.261  30.601  21.589  1.00  0.00     0.012 A 
ATOM     17  C   UNL A   1      27.951  30.448  21.977  1.00  0.00     0.065 A 
ENDBRANCH  12  13
ENDBRANCH  10  12
ENDBRANCH   8  10
ENDBRANCH   6   8
ENDBRANCH   5   6
BRANCH   5  18
ATOM     18  N   UNL A   1      30.847  24.192  22.916  1.00  0.00    -0.347 N 
ATOM     19  H   UNL A   1      29.871  24.198  22.623  1.00  0.00     0.345 HD
ATOM     20  H   UNL A   1      31.366  23.511  22.360  1.00  0.00     0.345 HD
ATOM     21  H   UNL A   1      31.250  25.119  22.781  1.00  0.00     0.345 HD
ENDBRANCH   5  18
ENDBRANCH   4   5
ENDBRANCH   3   4
ENDBRANCH   1   3
BRANCH   1  22
ATOM     22  O   UNL A   1      34.867  22.224  24.185  1.00  0.00    -0.462 OA
BRANCH  22  23
ATOM     23  C   UNL A   1      36.281  22.403  23.989  1.00  0.00     0.274 C 
BRANCH  23  24
ATOM     24  C   UNL A   1      37.077  21.293  24.676  1.00  0.00     0.275 C 
BRANCH  24  25
ATOM     25  O   UNL A   1      37.610  21.740  25.937  1.00  0.00    -0.458 OA
BRANCH  25  26
ATOM     26  C   UNL A   1      38.928  21.505  26.129  1.00  0.00     0.338 C 
ATOM     27  O   UNL A   1      39.554  20.494  25.865  1.00  0.00    -0.246 OA
BRANCH  26  28
ATOM     28  C   UNL A   1      39.559  22.723  26.655  1.00  0.00     0.060 A 
ATOM     29  C   UNL A   1      39.162  23.968  26.156  1.00  0.00     0.016 A 
ATOM     30  C   UNL A   1      40.598  22.623  27.580  1.00  0.00     0.016 A 
ATOM     31  C   UNL A   1      39.810  25.127  26.579  1.00  0.00     0.010 A 
ATOM     32  C   UNL A   1      41.245  23.785  28.004  1.00  0.00     0.010 A 
ATOM     33  C   UNL A   1      40.864  25.041  27.497  1.00  0.00    -0.014 A 
BRANCH  33  34
ATOM     34  C   UNL A   1      41.631  26.244  27.891  1.00  0.00     0.031 A 
ATOM     35  C   UNL A   1      40.954  27.316  28.692  1.00  0.00     0.074 A 
ATOM     36  C   UNL A   1      42.911  26.390  27.508  1.00  0.00     0.049 A 
ATOM     37  N   UNL A   1      41.357  28.530  28.963  1.00  0.00    -0.248 NA
ATOM     38  C   UNL A   1      39.641  26.972  29.262  1.00  0.00     0.031 C 
ATOM     39  C   UNL A   1      43.698  25.390  26.788  1.00  0.00     0.029 A 
ATOM     40  N   UNL A   1      43.768  27.452  27.654  1.00  0.00    -0.354 N 
ATOM     41  C   UNL A   1      40.338  29.105  29.711  1.00  0.00     0.074 A 
ATOM     42  C   UNL A   1      39.297  28.109  29.850  1.00  0.00     0.031 C 
ATOM     43  C   UNL A   1      44.918  25.894  26.538  1.00  0.00     0.029 A 
ATOM     44  C   UNL A   1      44.978  27.267  27.031  1.00  0.00     0.049 A 
ATOM     45  H   UNL A   1      43.538  28.267  28.156  1.00  0.00     0.167 HD
ATOM     46  C   UNL A   1      40.280  30.354  30.229  1.00  0.00     0.037 A 
ATOM     47  C   UNL A   1      45.997  28.127  26.845  1.00  0.00     0.037 A 
ATOM     48  C   UNL A   1      41.321  31.337  30.090  1.00  0.00     0.049 A 
ATOM     49  C   UNL A   1      45.878  29.535  27.367  1.00  0.00     0.074 A 
ATOM     50  C   UNL A   1      41.346  32.643  30.547  1.00  0.00     0.029 A 
ATOM     51  N   UNL A   1      42.531  31.113  29.450  1.00  0.00    -0.354 N 
ATOM     52  N   UNL A   1      44.894  30.091  28.030  1.00  0.00    -0.248 NA
ATOM     53  C   UNL A   1      47.008  30.438  27.102  1.00  0.00     0.031 C 
ATOM     54  C   UNL A   1      42.563  33.217  30.162  1.00  0.00     0.029 A 
ATOM     55  C   UNL A   1      43.309  32.257  29.499  1.00  0.00     0.049 A 
ATOM     56  H   UNL A   1      42.797  30.266  29.025  1.00  0.00     0.167 HD
ATOM     57  C   UNL A   1      45.296  31.394  28.289  1.00  0.00     0.074 A 
ATOM     58  C   UNL A   1      46.616  31.548  27.712  1.00  0.00     0.031 C 
ATOM     59  C   UNL A   1      44.633  32.376  28.945  1.00  0.00     0.037 A 
BRANCH  46  60
ATOM     60  C   UNL A   1      39.035  30.739  30.968  1.00  0.00     0.064 A 
ATOM     61  C   UNL A   1      38.938  30.607  32.361  1.00  0.00     0.173 A 
ATOM     62  C   UNL A   1      37.937  31.276  30.278  1.00  0.00     0.173 A 
ATOM     63  F   UNL A   1      39.954  30.083  33.061  1.00  0.00    -0.203 F 
ATOM     64  C   UNL A   1      37.781  30.986  33.035  1.00  0.00     0.198 A 
ATOM     65  C   UNL A   1      36.790  31.674  30.959  1.00  0.00     0.198 A 
ATOM     66  F   UNL A   1      37.982  31.422  28.946  1.00  0.00    -0.203 F 
ATOM     67  F   UNL A   1      37.695  30.820  34.362  1.00  0.00    -0.200 F 
ATOM     68  C   UNL A   1      36.711  31.525  32.335  1.00  0.00     0.200 A 
ATOM     69  F   UNL A   1      35.760  32.202  30.282  1.00  0.00    -0.200 F 
ATOM     70  F   UNL A   1      35.599  31.894  32.987  1.00  0.00    -0.200 F 
ENDBRANCH  46  60
BRANCH  47  71
ATOM     71  C   UNL A   1      47.209  27.695  26.104  1.00  0.00     0.064 A 
ATOM     72  C   UNL A   1      47.262  27.774  24.706  1.00  0.00     0.173 A 
ATOM     73  C   UNL A   1      48.329  27.180  26.773  1.00  0.00     0.173 A 
ATOM     74  F   UNL A   1      46.204  28.233  24.021  1.00  0.00    -0.203 F 
ATOM     75  C   UNL A   1      48.384  27.341  24.004  1.00  0.00     0.198 A 
ATOM     76  C   UNL A   1      49.460  26.771  26.071  1.00  0.00     0.198 A 
ATOM     77  F   UNL A   1      48.325  27.079  28.111  1.00  0.00    -0.203 F 
ATOM     78  F   UNL A   1      48.392  27.386  22.664  1.00  0.00    -0.200 F 
ATOM     79  C   UNL A   1      49.485  26.845  24.686  1.00  0.00     0.200 A 
ATOM     80  F   UNL A   1      50.524  26.299  26.735  1.00  0.00    -0.200 F 
ATOM     81  F   UNL A   1      50.563  26.427  24.011  1.00  0.00    -0.200 F 
ENDBRANCH  47  71
BRANCH  59  82
ATOM     82  C   UNL A   1      45.343  33.682  29.132  1.00  0.00     0.064 A 
ATOM     83  C   UNL A   1      45.206  34.732  28.214  1.00  0.00     0.173 A 
ATOM     84  C   UNL A   1      46.128  33.899  30.275  1.00  0.00     0.173 A 
ATOM     85  F   UNL A   1      44.478  34.564  27.100  1.00  0.00    -0.203 F 
ATOM     86  C   UNL A   1      45.840  35.952  28.429  1.00  0.00     0.198 A 
ATOM     87  C   UNL A   1      46.743  35.127  30.495  1.00  0.00     0.198 A 
ATOM     88  F   UNL A   1      46.284  32.924  31.182  1.00  0.00    -0.203 F 
ATOM     89  F   UNL A   1      45.722  36.935  27.525  1.00  0.00    -0.200 F 
ATOM     90  C   UNL A   1      46.603  36.151  29.571  1.00  0.00     0.200 A 
ATOM     91  F   UNL A   1      47.472  35.321  31.604  1.00  0.00    -0.200 F 
ATOM     92  F   UNL A   1      47.206  37.330  29.778  1.00  0.00    -0.200 F 
ENDBRANCH  59  82
ENDBRANCH  33  34
ENDBRANCH  26  28
ENDBRANCH  25  26
ENDBRANCH  24  25
ENDBRANCH  23  24
ENDBRANCH  22  23
ENDBRANCH   1  22
TORSDOF 19
ENDMDL
MODEL 3
REMARK VINA RESULT:     -10.3      1.779      2.633
REMARK SMILES C[C@H](Cc1cccs1)N(C)C(=O)[C@@H]([NH3+])CCC(=O)OCCOC(=O)c1ccc(-c2c3nc(c(-c4c(F)c(F)c(F)c(F)c4F)c4ccc([nH]4)c(-c4c(F)c(F)c(F)c(F)c4F)c4nc(c(-c5c(F)c(F)c(F)c(F)c5F)c5ccc2[nH]5)C=C4)C=C3)cc1
REMARK SMILES IDX 17 1 18 2 16 3 15 4 13 5 11 6 12 7 9 8 10 9 2 10 1 11 3 12
REMARK SMILES IDX 4 13 5 14 8 15 6 16 7 17 14 18 19 22 20 23 21 24 22 25 23 26
REMARK SMILES IDX 24 27 25 28 26 29 87 30 27 31 86 32 28 33 29 34 30 35 80 36
REMARK SMILES IDX 31 37 85 38 79 39 81 40 32 41 84 42 78 43 77 44 33 46 65 47
REMARK SMILES IDX 45 48 64 49 46 50 49 51 63 52 82 53 47 54 48 55 62 57 83 58
REMARK SMILES IDX 50 59 34 60 35 61 43 62 36 63 37 64 41 65 44 66 38 67 39 68
REMARK SMILES IDX 42 69 40 70 66 71 67 72 75 73 68 74 69 75 73 76 76 77 70 78
REMARK SMILES IDX 71 79 74 80 72 81 51 82 52 83 60 84 53 85 54 86 58 87 61 88
REMARK SMILES IDX 55 89 56 90 59 91 57 92
REMARK H PARENT 14 19 14 20 14 21 81 45 49 56
REMARK Flexibility Score: inf
ROOT
ATOM      1  C   UNL A   1      32.580  27.692  24.229  1.00  0.00     0.306 C 
ATOM      2  O   UNL A   1      33.701  28.179  24.146  1.00  0.00    -0.252 OA
ENDROOT
BRANCH   1   3
ATOM      3  C   UNL A   1      32.190  26.432  23.500  1.00  0.00     0.129 C 
BRANCH   3   4
ATOM      4  C   UNL A   1      32.068  25.171  24.357  1.00  0.00     0.087 C 
BRANCH   4   5
ATOM      5  C   UNL A   1      33.356  24.344  24.484  1.00  0.00     0.271 C 
BRANCH   5   6
ATOM      6  C   UNL A   1      33.589  23.269  23.384  1.00  0.00     0.280 C 
ATOM      7  O   UNL A   1      34.336  23.570  22.450  1.00  0.00    -0.268 OA
BRANCH   6   8
ATOM      8  N   UNL A   1      32.963  22.028  23.464  1.00  0.00    -0.338 N 
ATOM      9  C   UNL A   1      32.067  21.537  22.419  1.00  0.00     0.147 C 
BRANCH   8  10
ATOM     10  C   UNL A   1      33.143  21.114  24.626  1.00  0.00     0.087 C 
ATOM     11  C   UNL A   1      34.624  20.838  24.906  1.00  0.00     0.031 C 
BRANCH  10  12
ATOM     12  C   UNL A   1      32.204  19.894  24.778  1.00  0.00     0.071 C 
BRANCH  12  13
ATOM     13  C   UNL A   1      32.682  18.459  24.691  1.00  0.00     0.007 A 
ATOM     14  C   UNL A   1      32.779  17.605  25.780  1.00  0.00     0.015 A 
ATOM     15  S   UNL A   1      33.160  17.652  23.260  1.00  0.00    -0.149 S 
ATOM     16  C   UNL A   1      33.243  16.306  25.436  1.00  0.00     0.012 A 
ATOM     17  C   UNL A   1      33.491  16.197  24.088  1.00  0.00     0.065 A 
ENDBRANCH  12  13
ENDBRANCH  10  12
ENDBRANCH   8  10
ENDBRANCH   6   8
ENDBRANCH   5   6
BRANCH   5  18
ATOM     18  N   UNL A   1      34.544  25.219  24.613  1.00  0.00    -0.347 N 
ATOM     19  H   UNL A   1      35.146  24.868  25.357  1.00  0.00     0.345 HD
ATOM     20  H   UNL A   1      34.243  26.168  24.837  1.00  0.00     0.345 HD
ATOM     21  H   UNL A   1      35.059  25.224  23.732  1.00  0.00     0.345 HD
ENDBRANCH   5  18
ENDBRANCH   4   5
ENDBRANCH   3   4
ENDBRANCH   1   3
BRANCH   1  22
ATOM     22  O   UNL A   1      31.549  28.221  24.930  1.00  0.00    -0.462 OA
BRANCH  22  23
ATOM     23  C   UNL A   1      31.417  29.653  24.895  1.00  0.00     0.274 C 
BRANCH  23  24
ATOM     24  C   UNL A   1      31.783  30.273  26.243  1.00  0.00     0.275 C 
BRANCH  24  25
ATOM     25  O   UNL A   1      33.182  30.609  26.298  1.00  0.00    -0.458 OA
BRANCH  25  26
ATOM     26  C   UNL A   1      33.517  31.570  27.189  1.00  0.00     0.338 C 
ATOM     27  O   UNL A   1      32.862  32.541  27.523  1.00  0.00    -0.246 OA
BRANCH  26  28
ATOM     28  C   UNL A   1      34.812  31.232  27.794  1.00  0.00     0.060 A 
ATOM     29  C   UNL A   1      35.026  29.933  28.265  1.00  0.00     0.016 A 
ATOM     30  C   UNL A   1      35.778  32.222  27.966  1.00  0.00     0.016 A 
ATOM     31  C   UNL A   1      36.215  29.616  28.920  1.00  0.00     0.010 A 
ATOM     32  C   UNL A   1      36.969  31.904  28.621  1.00  0.00     0.010 A 
ATOM     33  C   UNL A   1      37.189  30.604  29.112  1.00  0.00    -0.014 A 
BRANCH  33  34
ATOM     34  C   UNL A   1      38.418  30.321  29.887  1.00  0.00     0.031 A 
ATOM     35  C   UNL A   1      39.456  29.406  29.308  1.00  0.00     0.074 A 
ATOM     36  C   UNL A   1      38.589  30.851  31.111  1.00  0.00     0.049 A 
ATOM     37  N   UNL A   1      40.493  28.856  29.883  1.00  0.00    -0.248 NA
ATOM     38  C   UNL A   1      39.300  29.063  27.885  1.00  0.00     0.031 C 
ATOM     39  C   UNL A   1      37.686  31.806  31.752  1.00  0.00     0.029 A 
ATOM     40  N   UNL A   1      39.575  30.641  32.042  1.00  0.00    -0.354 N 
ATOM     41  C   UNL A   1      41.099  28.080  28.904  1.00  0.00     0.074 A 
ATOM     42  C   UNL A   1      40.313  28.229  27.697  1.00  0.00     0.031 C 
ATOM     43  C   UNL A   1      38.150  32.086  32.981  1.00  0.00     0.029 A 
ATOM     44  C   UNL A   1      39.349  31.289  33.232  1.00  0.00     0.049 A 
ATOM     45  H   UNL A   1      40.366  30.080  31.875  1.00  0.00     0.167 HD
ATOM     46  C   UNL A   1      42.208  27.313  29.008  1.00  0.00     0.037 A 
ATOM     47  C   UNL A   1      40.012  31.211  34.400  1.00  0.00     0.037 A 
ATOM     48  C   UNL A   1      42.986  27.174  30.210  1.00  0.00     0.049 A 
ATOM     49  C   UNL A   1      41.200  30.292  34.514  1.00  0.00     0.074 A 
ATOM     50  C   UNL A   1      44.107  26.393  30.432  1.00  0.00     0.029 A 
ATOM     51  N   UNL A   1      42.724  27.845  31.396  1.00  0.00    -0.354 N 
ATOM     52  N   UNL A   1      41.740  29.522  33.601  1.00  0.00    -0.248 NA
ATOM     53  C   UNL A   1      41.861  30.222  35.825  1.00  0.00     0.031 C 
ATOM     54  C   UNL A   1      44.510  26.573  31.760  1.00  0.00     0.029 A 
ATOM     55  C   UNL A   1      43.661  27.494  32.353  1.00  0.00     0.049 A 
ATOM     56  H   UNL A   1      41.982  28.476  31.536  1.00  0.00     0.167 HD
ATOM     57  C   UNL A   1      42.820  28.902  34.215  1.00  0.00     0.074 A 
ATOM     58  C   UNL A   1      42.861  29.386  35.580  1.00  0.00     0.031 C 
ATOM     59  C   UNL A   1      43.700  28.013  33.695  1.00  0.00     0.037 A 
BRANCH  46  60
ATOM     60  C   UNL A   1      42.629  26.537  27.797  1.00  0.00     0.064 A 
ATOM     61  C   UNL A   1      43.570  27.046  26.891  1.00  0.00     0.173 A 
ATOM     62  C   UNL A   1      42.108  25.255  27.559  1.00  0.00     0.173 A 
ATOM     63  F   UNL A   1      44.082  28.272  27.068  1.00  0.00    -0.203 F 
ATOM     64  C   UNL A   1      43.964  26.305  25.780  1.00  0.00     0.198 A 
ATOM     65  C   UNL A   1      42.522  24.509  26.459  1.00  0.00     0.198 A 
ATOM     66  F   UNL A   1      41.206  24.726  28.398  1.00  0.00    -0.203 F 
ATOM     67  F   UNL A   1      44.838  26.824  24.907  1.00  0.00    -0.200 F 
ATOM     68  C   UNL A   1      43.445  25.036  25.569  1.00  0.00     0.200 A 
ATOM     69  F   UNL A   1      42.025  23.280  26.260  1.00  0.00    -0.200 F 
ATOM     70  F   UNL A   1      43.830  24.322  24.502  1.00  0.00    -0.200 F 
ENDBRANCH  46  60
BRANCH  47  71
ATOM     71  C   UNL A   1      39.551  32.000  35.571  1.00  0.00     0.064 A 
ATOM     72  C   UNL A   1      38.579  31.492  36.442  1.00  0.00     0.173 A 
ATOM     73  C   UNL A   1      40.060  33.280  35.834  1.00  0.00     0.173 A 
ATOM     74  F   UNL A   1      38.042  30.283  36.215  1.00  0.00    -0.203 F 
ATOM     75  C   UNL A   1      38.121  32.241  37.524  1.00  0.00     0.198 A 
ATOM     76  C   UNL A   1      39.620  34.018  36.930  1.00  0.00     0.198 A 
ATOM     77  F   UNL A   1      40.989  33.813  35.026  1.00  0.00    -0.203 F 
ATOM     78  F   UNL A   1      37.158  31.750  38.316  1.00  0.00    -0.200 F 
ATOM     79  C   UNL A   1      38.645  33.501  37.771  1.00  0.00     0.200 A 
ATOM     80  F   UNL A   1      40.134  35.231  37.169  1.00  0.00    -0.200 F 
ATOM     81  F   UNL A   1      38.204  34.221  38.810  1.00  0.00    -0.200 F 
ENDBRANCH  47  71
BRANCH  59  82
ATOM     82  C   UNL A   1      44.817  27.551  34.581  1.00  0.00     0.064 A 
ATOM     83  C   UNL A   1      46.016  28.269  34.687  1.00  0.00     0.173 A 
ATOM     84  C   UNL A   1      44.659  26.403  35.373  1.00  0.00     0.173 A 
ATOM     85  F   UNL A   1      46.216  29.363  33.938  1.00  0.00    -0.203 F 
ATOM     86  C   UNL A   1      47.024  27.846  35.549  1.00  0.00     0.198 A 
ATOM     87  C   UNL A   1      45.661  25.997  36.247  1.00  0.00     0.198 A 
ATOM     88  F   UNL A   1      43.527  25.688  35.306  1.00  0.00    -0.203 F 
ATOM     89  F   UNL A   1      48.176  28.529  35.616  1.00  0.00    -0.200 F 
ATOM     90  C   UNL A   1      46.844  26.715  36.333  1.00  0.00     0.200 A 
ATOM     91  F   UNL A   1      45.482  24.909  37.011  1.00  0.00    -0.200 F 
ATOM     92  F   UNL A   1      47.813  26.316  37.167  1.00  0.00    -0.200 F 
ENDBRANCH  59  82
ENDBRANCH  33  34
ENDBRANCH  26  28
ENDBRANCH  25  26
ENDBRANCH  24  25
ENDBRANCH  23  24
ENDBRANCH  22  23
ENDBRANCH   1  22
TORSDOF 19
ENDMDL
