MODEL 1
REMARK VINA RESULT:     -13.3      0.000      0.000
REMARK SMILES Cc1cccc([C@H]2[C@@H](C(=O)OCCOC(=O)c3ccc(-c4c5nc(c(-c6c(F)c(F)c(F)c(F)c6F)c6ccc([nH]6)c(-c6c(F)c(F)c(F)c(F)c6F)c6nc(c(-c7c(F)c(F)c(F)c(F)c7F)c7ccc4[nH]7)C=C6)C=C5)cc3)CC(=O)N2C)c1
REMARK SMILES IDX 13 1 12 2 11 3 9 4 10 5 8 6 7 7 83 8 80 9 81 10 84 11 82 12
REMARK SMILES IDX 6 13 1 14 2 15 3 16 85 17 4 18 5 19 14 20 15 21 16 22 17 23
REMARK SMILES IDX 18 24 79 25 19 26 78 27 20 28 21 29 22 30 72 31 23 32 77 33
REMARK SMILES IDX 71 34 73 35 24 36 76 37 70 38 69 39 25 41 57 42 37 43 56 44
REMARK SMILES IDX 38 45 41 46 55 47 74 48 39 49 40 50 54 52 75 53 42 54 26 55
REMARK SMILES IDX 27 56 35 57 28 58 29 59 33 60 36 61 30 62 31 63 34 64 32 65
REMARK SMILES IDX 58 66 59 67 67 68 60 69 61 70 65 71 68 72 62 73 63 74 66 75
REMARK SMILES IDX 64 76 43 77 44 78 52 79 45 80 46 81 50 82 53 83 47 84 48 85
REMARK SMILES IDX 51 86 49 87
REMARK H PARENT 73 40 41 51
REMARK Flexibility Score: inf
ROOT
ATOM      1  C   UNL A   1      31.902  30.864  26.772  1.00  0.00     0.275 C 
ENDROOT
BRANCH   1   2
ATOM      2  C   UNL A   1      31.752  30.040  25.470  1.00  0.00     0.274 C 
BRANCH   2   3
ATOM      3  O   UNL A   1      32.923  29.270  25.147  1.00  0.00    -0.462 OA
BRANCH   3   4
ATOM      4  C   UNL A   1      32.808  27.921  25.203  1.00  0.00     0.312 C 
ATOM      5  O   UNL A   1      32.468  27.313  26.207  1.00  0.00    -0.252 OA
BRANCH   4   6
ATOM      6  C   UNL A   1      33.346  27.301  23.938  1.00  0.00     0.135 C 
ATOM      7  C   UNL A   1      32.438  27.194  22.708  1.00  0.00     0.130 C 
ATOM      8  N   UNL A   1      32.894  25.962  22.070  1.00  0.00    -0.338 N 
ATOM      9  C   UNL A   1      33.890  25.899  24.188  1.00  0.00     0.118 C 
ATOM     10  C   UNL A   1      33.714  25.198  22.877  1.00  0.00     0.223 C 
ATOM     11  C   UNL A   1      32.650  25.637  20.677  1.00  0.00     0.147 C 
ATOM     12  O   UNL A   1      34.228  24.131  22.583  1.00  0.00    -0.275 OA
BRANCH   7  13
ATOM     13  C   UNL A   1      30.929  27.290  22.863  1.00  0.00    -0.024 A 
ATOM     14  C   UNL A   1      28.189  29.937  22.708  1.00  0.00     0.044 C 
ATOM     15  C   UNL A   1      28.872  28.616  22.909  1.00  0.00    -0.051 A 
ATOM     16  C   UNL A   1      28.221  27.598  23.608  1.00  0.00     0.003 A 
ATOM     17  C   UNL A   1      30.203  28.436  22.504  1.00  0.00     0.009 A 
ATOM     18  C   UNL A   1      28.894  26.422  23.908  1.00  0.00     0.001 A 
ATOM     19  C   UNL A   1      30.237  26.281  23.554  1.00  0.00     0.006 A 
ENDBRANCH   7  13
ENDBRANCH   4   6
ENDBRANCH   3   4
ENDBRANCH   2   3
ENDBRANCH   1   2
BRANCH   1  20
ATOM     20  O   UNL A   1      33.187  30.823  27.458  1.00  0.00    -0.458 OA
BRANCH  20  21
ATOM     21  C   UNL A   1      33.837  31.982  27.761  1.00  0.00     0.338 C 
ATOM     22  O   UNL A   1      33.308  33.066  27.947  1.00  0.00    -0.246 OA
BRANCH  21  23
ATOM     23  C   UNL A   1      35.293  31.720  27.911  1.00  0.00     0.060 A 
ATOM     24  C   UNL A   1      36.246  32.747  28.061  1.00  0.00     0.016 A 
ATOM     25  C   UNL A   1      35.623  30.420  28.238  1.00  0.00     0.016 A 
ATOM     26  C   UNL A   1      37.486  32.470  28.673  1.00  0.00     0.010 A 
ATOM     27  C   UNL A   1      36.665  30.238  29.096  1.00  0.00     0.010 A 
ATOM     28  C   UNL A   1      37.670  31.210  29.237  1.00  0.00    -0.014 A 
BRANCH  28  29
ATOM     29  C   UNL A   1      38.884  30.584  29.781  1.00  0.00     0.031 A 
ATOM     30  C   UNL A   1      39.570  29.431  29.158  1.00  0.00     0.074 A 
ATOM     31  C   UNL A   1      39.547  31.482  30.550  1.00  0.00     0.049 A 
ATOM     32  N   UNL A   1      40.790  29.477  28.726  1.00  0.00    -0.248 NA
ATOM     33  C   UNL A   1      38.927  28.126  28.957  1.00  0.00     0.031 C 
ATOM     34  C   UNL A   1      40.954  31.633  30.860  1.00  0.00     0.029 A 
ATOM     35  N   UNL A   1      38.954  32.553  31.248  1.00  0.00    -0.354 N 
ATOM     36  C   UNL A   1      41.156  28.199  28.337  1.00  0.00     0.074 A 
ATOM     37  C   UNL A   1      39.928  27.413  28.414  1.00  0.00     0.031 C 
ATOM     38  C   UNL A   1      41.069  32.434  31.938  1.00  0.00     0.029 A 
ATOM     39  C   UNL A   1      39.719  32.727  32.405  1.00  0.00     0.049 A 
ATOM     40  H   UNL A   1      38.164  33.073  30.977  1.00  0.00     0.167 HD
ATOM     41  C   UNL A   1      42.370  27.705  28.716  1.00  0.00     0.037 A 
ATOM     42  C   UNL A   1      39.139  32.296  33.563  1.00  0.00     0.037 A 
ATOM     43  C   UNL A   1      42.818  28.328  29.935  1.00  0.00     0.049 A 
ATOM     44  C   UNL A   1      39.857  31.065  34.047  1.00  0.00     0.074 A 
ATOM     45  C   UNL A   1      43.628  29.400  30.250  1.00  0.00     0.029 A 
ATOM     46  N   UNL A   1      42.172  27.944  31.093  1.00  0.00    -0.354 N 
ATOM     47  N   UNL A   1      40.403  30.171  33.265  1.00  0.00    -0.248 NA
ATOM     48  C   UNL A   1      40.145  30.847  35.455  1.00  0.00     0.031 C 
ATOM     49  C   UNL A   1      43.447  29.668  31.635  1.00  0.00     0.029 A 
ATOM     50  C   UNL A   1      42.538  28.749  32.142  1.00  0.00     0.049 A 
ATOM     51  H   UNL A   1      41.536  27.194  31.157  1.00  0.00     0.167 HD
ATOM     52  C   UNL A   1      41.213  29.364  34.022  1.00  0.00     0.074 A 
ATOM     53  C   UNL A   1      40.983  29.800  35.387  1.00  0.00     0.031 C 
ATOM     54  C   UNL A   1      42.072  28.451  33.482  1.00  0.00     0.037 A 
BRANCH  41  55
ATOM     55  C   UNL A   1      43.242  26.855  27.830  1.00  0.00     0.064 A 
ATOM     56  C   UNL A   1      43.951  27.440  26.754  1.00  0.00     0.173 A 
ATOM     57  C   UNL A   1      43.359  25.457  27.935  1.00  0.00     0.173 A 
ATOM     58  F   UNL A   1      43.948  28.764  26.553  1.00  0.00    -0.203 F 
ATOM     59  C   UNL A   1      44.669  26.682  25.825  1.00  0.00     0.198 A 
ATOM     60  C   UNL A   1      44.079  24.698  27.001  1.00  0.00     0.198 A 
ATOM     61  F   UNL A   1      42.784  24.791  28.943  1.00  0.00    -0.203 F 
ATOM     62  F   UNL A   1      45.289  27.293  24.805  1.00  0.00    -0.200 F 
ATOM     63  C   UNL A   1      44.722  25.309  25.940  1.00  0.00     0.200 A 
ATOM     64  F   UNL A   1      44.135  23.365  27.130  1.00  0.00    -0.200 F 
ATOM     65  F   UNL A   1      45.387  24.579  25.034  1.00  0.00    -0.200 F 
ENDBRANCH  41  55
BRANCH  42  66
ATOM     66  C   UNL A   1      37.654  32.556  33.551  1.00  0.00     0.064 A 
ATOM     67  C   UNL A   1      37.241  33.883  33.832  1.00  0.00     0.173 A 
ATOM     68  C   UNL A   1      36.744  31.750  32.852  1.00  0.00     0.173 A 
ATOM     69  F   UNL A   1      38.072  34.713  34.486  1.00  0.00    -0.203 F 
ATOM     70  C   UNL A   1      36.068  34.418  33.301  1.00  0.00     0.198 A 
ATOM     71  C   UNL A   1      35.543  32.283  32.356  1.00  0.00     0.198 A 
ATOM     72  F   UNL A   1      37.059  30.488  32.531  1.00  0.00    -0.203 F 
ATOM     73  F   UNL A   1      35.803  35.726  33.445  1.00  0.00    -0.200 F 
ATOM     74  C   UNL A   1      35.232  33.623  32.541  1.00  0.00     0.200 A 
ATOM     75  F   UNL A   1      34.731  31.519  31.609  1.00  0.00    -0.200 F 
ATOM     76  F   UNL A   1      34.155  34.158  31.945  1.00  0.00    -0.200 F 
ENDBRANCH  42  66
BRANCH  54  77
ATOM     77  C   UNL A   1      42.642  27.239  34.189  1.00  0.00     0.064 A 
ATOM     78  C   UNL A   1      41.851  26.219  34.740  1.00  0.00     0.173 A 
ATOM     79  C   UNL A   1      44.038  26.970  34.177  1.00  0.00     0.173 A 
ATOM     80  F   UNL A   1      40.515  26.247  34.666  1.00  0.00    -0.203 F 
ATOM     81  C   UNL A   1      42.405  25.078  35.322  1.00  0.00     0.198 A 
ATOM     82  C   UNL A   1      44.581  25.793  34.689  1.00  0.00     0.198 A 
ATOM     83  F   UNL A   1      44.922  27.809  33.620  1.00  0.00    -0.203 F 
ATOM     84  F   UNL A   1      41.596  24.169  35.883  1.00  0.00    -0.200 F 
ATOM     85  C   UNL A   1      43.767  24.859  35.288  1.00  0.00     0.200 A 
ATOM     86  F   UNL A   1      45.896  25.562  34.565  1.00  0.00    -0.200 F 
ATOM     87  F   UNL A   1      44.287  23.736  35.795  1.00  0.00    -0.200 F 
ENDBRANCH  54  77
ENDBRANCH  28  29
ENDBRANCH  21  23
ENDBRANCH  20  21
ENDBRANCH   1  20
TORSDOF 12
ENDMDL
MODEL 2
REMARK VINA RESULT:     -13.1      3.444      9.327
REMARK SMILES Cc1cccc([C@H]2[C@@H](C(=O)OCCOC(=O)c3ccc(-c4c5nc(c(-c6c(F)c(F)c(F)c(F)c6F)c6ccc([nH]6)c(-c6c(F)c(F)c(F)c(F)c6F)c6nc(c(-c7c(F)c(F)c(F)c(F)c7F)c7ccc4[nH]7)C=C6)C=C5)cc3)CC(=O)N2C)c1
REMARK SMILES IDX 13 1 12 2 11 3 9 4 10 5 8 6 7 7 83 8 80 9 81 10 84 11 82 12
REMARK SMILES IDX 6 13 1 14 2 15 3 16 85 17 4 18 5 19 14 20 15 21 16 22 17 23
REMARK SMILES IDX 18 24 79 25 19 26 78 27 20 28 21 29 22 30 72 31 23 32 77 33
REMARK SMILES IDX 71 34 73 35 24 36 76 37 70 38 69 39 25 41 57 42 37 43 56 44
REMARK SMILES IDX 38 45 41 46 55 47 74 48 39 49 40 50 54 52 75 53 42 54 26 55
REMARK SMILES IDX 27 56 35 57 28 58 29 59 33 60 36 61 30 62 31 63 34 64 32 65
REMARK SMILES IDX 58 66 59 67 67 68 60 69 61 70 65 71 68 72 62 73 63 74 66 75
REMARK SMILES IDX 64 76 43 77 44 78 52 79 45 80 46 81 50 82 53 83 47 84 48 85
REMARK SMILES IDX 51 86 49 87
REMARK H PARENT 73 40 41 51
REMARK Flexibility Score: inf
ROOT
ATOM      1  C   UNL A   1      37.687  21.732  25.063  1.00  0.00     0.275 C 
ENDROOT
BRANCH   1   2
ATOM      2  C   UNL A   1      36.154  21.554  25.180  1.00  0.00     0.274 C 
BRANCH   2   3
ATOM      3  O   UNL A   1      35.542  22.494  26.080  1.00  0.00    -0.462 OA
BRANCH   3   4
ATOM      4  C   UNL A   1      34.768  23.461  25.529  1.00  0.00     0.312 C 
ATOM      5  O   UNL A   1      35.110  24.133  24.568  1.00  0.00    -0.252 OA
BRANCH   4   6
ATOM      6  C   UNL A   1      33.553  23.707  26.388  1.00  0.00     0.135 C 
ATOM      7  C   UNL A   1      32.369  22.738  26.309  1.00  0.00     0.130 C 
ATOM      8  N   UNL A   1      31.218  23.605  26.549  1.00  0.00    -0.338 N 
ATOM      9  C   UNL A   1      32.979  25.100  26.161  1.00  0.00     0.118 C 
ATOM     10  C   UNL A   1      31.520  24.951  26.468  1.00  0.00     0.223 C 
ATOM     11  C   UNL A   1      29.921  23.123  26.984  1.00  0.00     0.147 C 
ATOM     12  O   UNL A   1      30.744  25.877  26.630  1.00  0.00    -0.275 OA
BRANCH   7  13
ATOM     13  C   UNL A   1      32.213  21.820  25.107  1.00  0.00    -0.024 A 
ATOM     14  C   UNL A   1      33.167  18.282  24.054  1.00  0.00     0.044 C 
ATOM     15  C   UNL A   1      32.632  19.682  23.991  1.00  0.00    -0.051 A 
ATOM     16  C   UNL A   1      32.366  20.267  22.751  1.00  0.00     0.003 A 
ATOM     17  C   UNL A   1      32.510  20.449  25.159  1.00  0.00     0.009 A 
ATOM     18  C   UNL A   1      31.994  21.602  22.681  1.00  0.00     0.001 A 
ATOM     19  C   UNL A   1      31.937  22.370  23.845  1.00  0.00     0.006 A 
ENDBRANCH   7  13
ENDBRANCH   4   6
ENDBRANCH   3   4
ENDBRANCH   2   3
ENDBRANCH   1   2
BRANCH   1  20
ATOM     20  O   UNL A   1      38.332  22.685  25.957  1.00  0.00    -0.458 OA
BRANCH  20  21
ATOM     21  C   UNL A   1      39.550  22.397  26.497  1.00  0.00     0.338 C 
ATOM     22  O   UNL A   1      40.073  21.295  26.526  1.00  0.00    -0.246 OA
BRANCH  21  23
ATOM     23  C   UNL A   1      40.195  23.645  26.982  1.00  0.00     0.060 A 
ATOM     24  C   UNL A   1      40.858  24.550  26.129  1.00  0.00     0.016 A 
ATOM     25  C   UNL A   1      39.818  24.045  28.250  1.00  0.00     0.016 A 
ATOM     26  C   UNL A   1      41.011  25.897  26.515  1.00  0.00     0.010 A 
ATOM     27  C   UNL A   1      39.689  25.383  28.469  1.00  0.00     0.010 A 
ATOM     28  C   UNL A   1      40.375  26.321  27.679  1.00  0.00    -0.014 A 
BRANCH  28  29
ATOM     29  C   UNL A   1      40.486  27.591  28.410  1.00  0.00     0.031 A 
ATOM     30  C   UNL A   1      39.443  28.640  28.405  1.00  0.00     0.074 A 
ATOM     31  C   UNL A   1      41.346  27.440  29.446  1.00  0.00     0.049 A 
ATOM     32  N   UNL A   1      38.828  29.037  29.474  1.00  0.00    -0.248 NA
ATOM     33  C   UNL A   1      38.996  29.325  27.185  1.00  0.00     0.031 C 
ATOM     34  C   UNL A   1      41.424  28.093  30.737  1.00  0.00     0.029 A 
ATOM     35  N   UNL A   1      42.418  26.526  29.489  1.00  0.00    -0.354 N 
ATOM     36  C   UNL A   1      38.028  30.116  29.134  1.00  0.00     0.074 A 
ATOM     37  C   UNL A   1      38.098  30.195  27.677  1.00  0.00     0.031 C 
ATOM     38  C   UNL A   1      42.648  27.865  31.256  1.00  0.00     0.029 A 
ATOM     39  C   UNL A   1      43.416  27.143  30.248  1.00  0.00     0.049 A 
ATOM     40  H   UNL A   1      42.456  25.637  29.071  1.00  0.00     0.167 HD
ATOM     41  C   UNL A   1      38.022  31.223  29.930  1.00  0.00     0.037 A 
ATOM     42  C   UNL A   1      44.488  27.610  29.542  1.00  0.00     0.037 A 
ATOM     43  C   UNL A   1      39.266  31.346  30.646  1.00  0.00     0.049 A 
ATOM     44  C   UNL A   1      44.458  29.114  29.537  1.00  0.00     0.074 A 
ATOM     45  C   UNL A   1      39.723  30.969  31.893  1.00  0.00     0.029 A 
ATOM     46  N   UNL A   1      40.362  31.743  29.907  1.00  0.00    -0.354 N 
ATOM     47  N   UNL A   1      43.366  29.834  29.544  1.00  0.00    -0.248 NA
ATOM     48  C   UNL A   1      45.667  29.907  29.689  1.00  0.00     0.031 C 
ATOM     49  C   UNL A   1      41.135  31.137  31.889  1.00  0.00     0.029 A 
ATOM     50  C   UNL A   1      41.513  31.621  30.643  1.00  0.00     0.049 A 
ATOM     51  H   UNL A   1      40.322  32.071  28.979  1.00  0.00     0.167 HD
ATOM     52  C   UNL A   1      43.699  31.131  29.837  1.00  0.00     0.074 A 
ATOM     53  C   UNL A   1      45.149  31.132  29.876  1.00  0.00     0.031 C 
ATOM     54  C   UNL A   1      42.773  32.097  30.104  1.00  0.00     0.037 A 
BRANCH  41  55
ATOM     55  C   UNL A   1      36.785  32.027  30.237  1.00  0.00     0.064 A 
ATOM     56  C   UNL A   1      36.382  33.073  29.374  1.00  0.00     0.173 A 
ATOM     57  C   UNL A   1      36.004  31.872  31.396  1.00  0.00     0.173 A 
ATOM     58  F   UNL A   1      37.022  33.314  28.223  1.00  0.00    -0.203 F 
ATOM     59  C   UNL A   1      35.322  33.932  29.677  1.00  0.00     0.198 A 
ATOM     60  C   UNL A   1      34.941  32.735  31.698  1.00  0.00     0.198 A 
ATOM     61  F   UNL A   1      36.245  30.882  32.264  1.00  0.00    -0.203 F 
ATOM     62  F   UNL A   1      35.013  34.930  28.835  1.00  0.00    -0.200 F 
ATOM     63  C   UNL A   1      34.610  33.772  30.846  1.00  0.00     0.200 A 
ATOM     64  F   UNL A   1      34.245  32.562  32.831  1.00  0.00    -0.200 F 
ATOM     65  F   UNL A   1      33.610  34.611  31.149  1.00  0.00    -0.200 F 
ENDBRANCH  41  55
BRANCH  42  66
ATOM     66  C   UNL A   1      44.821  26.688  28.396  1.00  0.00     0.064 A 
ATOM     67  C   UNL A   1      44.529  27.166  27.094  1.00  0.00     0.173 A 
ATOM     68  C   UNL A   1      45.780  25.669  28.491  1.00  0.00     0.173 A 
ATOM     69  F   UNL A   1      43.631  28.153  26.934  1.00  0.00    -0.203 F 
ATOM     70  C   UNL A   1      45.269  26.768  25.980  1.00  0.00     0.198 A 
ATOM     71  C   UNL A   1      46.491  25.242  27.360  1.00  0.00     0.198 A 
ATOM     72  F   UNL A   1      46.126  25.170  29.686  1.00  0.00    -0.203 F 
ATOM     73  F   UNL A   1      45.077  27.375  24.798  1.00  0.00    -0.200 F 
ATOM     74  C   UNL A   1      46.269  25.825  26.119  1.00  0.00     0.200 A 
ATOM     75  F   UNL A   1      47.470  24.333  27.488  1.00  0.00    -0.200 F 
ATOM     76  F   UNL A   1      47.049  25.514  25.073  1.00  0.00    -0.200 F 
ENDBRANCH  42  66
BRANCH  54  77
ATOM     77  C   UNL A   1      42.985  33.592  29.985  1.00  0.00     0.064 A 
ATOM     78  C   UNL A   1      43.030  34.459  31.087  1.00  0.00     0.173 A 
ATOM     79  C   UNL A   1      43.336  34.188  28.743  1.00  0.00     0.173 A 
ATOM     80  F   UNL A   1      42.895  34.012  32.341  1.00  0.00    -0.203 F 
ATOM     81  C   UNL A   1      43.300  35.822  30.952  1.00  0.00     0.198 A 
ATOM     82  C   UNL A   1      43.681  35.532  28.625  1.00  0.00     0.198 A 
ATOM     83  F   UNL A   1      43.414  33.479  27.607  1.00  0.00    -0.203 F 
ATOM     84  F   UNL A   1      43.270  36.607  32.037  1.00  0.00    -0.200 F 
ATOM     85  C   UNL A   1      43.635  36.357  29.725  1.00  0.00     0.200 A 
ATOM     86  F   UNL A   1      44.090  36.010  27.440  1.00  0.00    -0.200 F 
ATOM     87  F   UNL A   1      43.949  37.653  29.613  1.00  0.00    -0.200 F 
ENDBRANCH  54  77
ENDBRANCH  28  29
ENDBRANCH  21  23
ENDBRANCH  20  21
ENDBRANCH   1  20
TORSDOF 12
ENDMDL
MODEL 3
REMARK VINA RESULT:     -13.0      5.313     10.687
REMARK SMILES Cc1cccc([C@H]2[C@@H](C(=O)OCCOC(=O)c3ccc(-c4c5nc(c(-c6c(F)c(F)c(F)c(F)c6F)c6ccc([nH]6)c(-c6c(F)c(F)c(F)c(F)c6F)c6nc(c(-c7c(F)c(F)c(F)c(F)c7F)c7ccc4[nH]7)C=C6)C=C5)cc3)CC(=O)N2C)c1
REMARK SMILES IDX 13 1 12 2 11 3 9 4 10 5 8 6 7 7 83 8 80 9 81 10 84 11 82 12
REMARK SMILES IDX 6 13 1 14 2 15 3 16 85 17 4 18 5 19 14 20 15 21 16 22 17 23
REMARK SMILES IDX 18 24 79 25 19 26 78 27 20 28 21 29 22 30 72 31 23 32 77 33
REMARK SMILES IDX 71 34 73 35 24 36 76 37 70 38 69 39 25 41 57 42 37 43 56 44
REMARK SMILES IDX 38 45 41 46 55 47 74 48 39 49 40 50 54 52 75 53 42 54 26 55
REMARK SMILES IDX 27 56 35 57 28 58 29 59 33 60 36 61 30 62 31 63 34 64 32 65
REMARK SMILES IDX 58 66 59 67 67 68 60 69 61 70 65 71 68 72 62 73 63 74 66 75
REMARK SMILES IDX 64 76 43 77 44 78 52 79 45 80 46 81 50 82 53 83 47 84 48 85
REMARK SMILES IDX 51 86 49 87
REMARK H PARENT 73 40 41 51
REMARK Flexibility Score: inf
ROOT
ATOM      1  C   UNL A   1      44.609  26.776  26.359  1.00  0.00     0.275 C 
ENDROOT
BRANCH   1   2
ATOM      2  C   UNL A   1      45.640  26.447  25.252  1.00  0.00     0.274 C 
BRANCH   2   3
ATOM      3  O   UNL A   1      45.413  25.173  24.626  1.00  0.00    -0.462 OA
BRANCH   3   4
ATOM      4  C   UNL A   1      45.921  24.081  25.246  1.00  0.00     0.312 C 
ATOM      5  O   UNL A   1      46.953  24.095  25.900  1.00  0.00    -0.252 OA
BRANCH   4   6
ATOM      6  C   UNL A   1      45.151  22.849  24.843  1.00  0.00     0.135 C 
ATOM      7  C   UNL A   1      43.861  22.492  25.589  1.00  0.00     0.130 C 
ATOM      8  N   UNL A   1      43.856  21.031  25.556  1.00  0.00    -0.338 N 
ATOM      9  C   UNL A   1      46.027  21.601  24.886  1.00  0.00     0.118 C 
ATOM     10  C   UNL A   1      45.065  20.488  25.169  1.00  0.00     0.223 C 
ATOM     11  C   UNL A   1      42.667  20.224  25.752  1.00  0.00     0.147 C 
ATOM     12  O   UNL A   1      45.322  19.301  25.057  1.00  0.00    -0.275 OA
BRANCH   7  13
ATOM     13  C   UNL A   1      43.586  23.081  26.963  1.00  0.00    -0.024 A 
ATOM     14  C   UNL A   1      41.469  25.836  28.533  1.00  0.00     0.044 C 
ATOM     15  C   UNL A   1      42.466  24.724  28.390  1.00  0.00    -0.051 A 
ATOM     16  C   UNL A   1      43.409  24.506  29.397  1.00  0.00     0.003 A 
ATOM     17  C   UNL A   1      42.535  23.980  27.203  1.00  0.00     0.009 A 
ATOM     18  C   UNL A   1      44.413  23.565  29.214  1.00  0.00     0.001 A 
ATOM     19  C   UNL A   1      44.507  22.876  28.003  1.00  0.00     0.006 A 
ENDBRANCH   7  13
ENDBRANCH   4   6
ENDBRANCH   3   4
ENDBRANCH   2   3
ENDBRANCH   1   2
BRANCH   1  20
ATOM     20  O   UNL A   1      43.931  28.064  26.297  1.00  0.00    -0.458 OA
BRANCH  20  21
ATOM     21  C   UNL A   1      42.721  28.170  25.679  1.00  0.00     0.338 C 
ATOM     22  O   UNL A   1      42.412  27.637  24.626  1.00  0.00    -0.246 OA
BRANCH  21  23
ATOM     23  C   UNL A   1      41.793  28.971  26.520  1.00  0.00     0.060 A 
ATOM     24  C   UNL A   1      40.401  28.754  26.548  1.00  0.00     0.016 A 
ATOM     25  C   UNL A   1      42.396  29.704  27.523  1.00  0.00     0.016 A 
ATOM     26  C   UNL A   1      39.649  29.165  27.668  1.00  0.00     0.010 A 
ATOM     27  C   UNL A   1      41.732  29.805  28.708  1.00  0.00     0.010 A 
ATOM     28  C   UNL A   1      40.337  29.652  28.776  1.00  0.00    -0.014 A 
BRANCH  28  29
ATOM     29  C   UNL A   1      39.832  30.299  29.995  1.00  0.00     0.031 A 
ATOM     30  C   UNL A   1      38.923  31.466  29.995  1.00  0.00     0.074 A 
ATOM     31  C   UNL A   1      39.860  29.412  31.020  1.00  0.00     0.049 A 
ATOM     32  N   UNL A   1      37.736  31.444  30.514  1.00  0.00    -0.248 NA
ATOM     33  C   UNL A   1      39.274  32.759  29.395  1.00  0.00     0.031 C 
ATOM     34  C   UNL A   1      39.042  29.288  32.209  1.00  0.00     0.029 A 
ATOM     35  N   UNL A   1      40.754  28.329  31.137  1.00  0.00    -0.354 N 
ATOM     36  C   UNL A   1      37.222  32.729  30.466  1.00  0.00     0.074 A 
ATOM     37  C   UNL A   1      38.183  33.492  29.674  1.00  0.00     0.031 C 
ATOM     38  C   UNL A   1      39.683  28.487  33.084  1.00  0.00     0.029 A 
ATOM     39  C   UNL A   1      40.983  28.168  32.506  1.00  0.00     0.049 A 
ATOM     40  H   UNL A   1      41.138  27.796  30.405  1.00  0.00     0.167 HD
ATOM     41  C   UNL A   1      36.602  33.245  31.566  1.00  0.00     0.037 A 
ATOM     42  C   UNL A   1      42.205  28.586  32.950  1.00  0.00     0.037 A 
ATOM     43  C   UNL A   1      37.099  32.628  32.769  1.00  0.00     0.049 A 
ATOM     44  C   UNL A   1      42.030  29.829  33.780  1.00  0.00     0.074 A 
ATOM     45  C   UNL A   1      36.707  31.571  33.565  1.00  0.00     0.029 A 
ATOM     46  N   UNL A   1      38.367  32.998  33.169  1.00  0.00    -0.354 N 
ATOM     47  N   UNL A   1      41.109  30.735  33.572  1.00  0.00    -0.248 NA
ATOM     48  C   UNL A   1      42.785  30.050  35.002  1.00  0.00     0.031 C 
ATOM     49  C   UNL A   1      37.781  31.297  34.456  1.00  0.00     0.029 A 
ATOM     50  C   UNL A   1      38.805  32.198  34.194  1.00  0.00     0.049 A 
ATOM     51  H   UNL A   1      38.886  33.736  32.773  1.00  0.00     0.167 HD
ATOM     52  C   UNL A   1      41.048  31.555  34.668  1.00  0.00     0.074 A 
ATOM     53  C   UNL A   1      42.141  31.112  35.513  1.00  0.00     0.031 C 
ATOM     54  C   UNL A   1      40.066  32.485  34.851  1.00  0.00     0.037 A 
BRANCH  41  55
ATOM     55  C   UNL A   1      35.373  34.113  31.505  1.00  0.00     0.064 A 
ATOM     56  C   UNL A   1      34.545  34.097  30.357  1.00  0.00     0.173 A 
ATOM     57  C   UNL A   1      34.999  35.035  32.499  1.00  0.00     0.173 A 
ATOM     58  F   UNL A   1      34.770  33.249  29.345  1.00  0.00    -0.203 F 
ATOM     59  C   UNL A   1      33.469  34.974  30.193  1.00  0.00     0.198 A 
ATOM     60  C   UNL A   1      33.921  35.914  32.333  1.00  0.00     0.198 A 
ATOM     61  F   UNL A   1      35.666  35.107  33.658  1.00  0.00    -0.203 F 
ATOM     62  F   UNL A   1      32.745  34.935  29.064  1.00  0.00    -0.200 F 
ATOM     63  C   UNL A   1      33.165  35.892  31.175  1.00  0.00     0.200 A 
ATOM     64  F   UNL A   1      33.624  36.794  33.300  1.00  0.00    -0.200 F 
ATOM     65  F   UNL A   1      32.150  36.751  31.007  1.00  0.00    -0.200 F 
ENDBRANCH  41  55
BRANCH  42  66
ATOM     66  C   UNL A   1      43.277  28.298  31.930  1.00  0.00     0.064 A 
ATOM     67  C   UNL A   1      43.909  29.423  31.342  1.00  0.00     0.173 A 
ATOM     68  C   UNL A   1      43.981  27.086  31.884  1.00  0.00     0.173 A 
ATOM     69  F   UNL A   1      43.295  30.618  31.365  1.00  0.00    -0.203 F 
ATOM     70  C   UNL A   1      45.228  29.374  30.891  1.00  0.00     0.198 A 
ATOM     71  C   UNL A   1      45.293  27.035  31.388  1.00  0.00     0.198 A 
ATOM     72  F   UNL A   1      43.463  25.977  32.429  1.00  0.00    -0.203 F 
ATOM     73  F   UNL A   1      45.845  30.502  30.505  1.00  0.00    -0.200 F 
ATOM     74  C   UNL A   1      45.928  28.185  30.938  1.00  0.00     0.200 A 
ATOM     75  F   UNL A   1      45.983  25.885  31.440  1.00  0.00    -0.200 F 
ATOM     76  F   UNL A   1      47.226  28.155  30.600  1.00  0.00    -0.200 F 
ENDBRANCH  42  66
BRANCH  54  77
ATOM     77  C   UNL A   1      40.150  33.707  35.743  1.00  0.00     0.064 A 
ATOM     78  C   UNL A   1      40.645  34.947  35.313  1.00  0.00     0.173 A 
ATOM     79  C   UNL A   1      39.557  33.716  37.035  1.00  0.00     0.173 A 
ATOM     80  F   UNL A   1      41.074  35.139  34.060  1.00  0.00    -0.203 F 
ATOM     81  C   UNL A   1      40.644  36.075  36.136  1.00  0.00     0.198 A 
ATOM     82  C   UNL A   1      39.488  34.864  37.822  1.00  0.00     0.198 A 
ATOM     83  F   UNL A   1      38.972  32.630  37.560  1.00  0.00    -0.203 F 
ATOM     84  F   UNL A   1      41.186  37.215  35.686  1.00  0.00    -0.200 F 
ATOM     85  C   UNL A   1      40.058  36.037  37.384  1.00  0.00     0.200 A 
ATOM     86  F   UNL A   1      38.835  34.826  38.992  1.00  0.00    -0.200 F 
ATOM     87  F   UNL A   1      40.008  37.137  38.144  1.00  0.00    -0.200 F 
ENDBRANCH  54  77
ENDBRANCH  28  29
ENDBRANCH  21  23
ENDBRANCH  20  21
ENDBRANCH   1  20
TORSDOF 12
ENDMDL
