MODEL 1
REMARK VINA RESULT:     -12.6      0.000      0.000
REMARK SMILES CC[C@@H]1CCC[C@@](C[C@@H]2CSc3ccccc32)(C(=O)OCCOC(=O)c2ccc(-c3c4nc(c(-c5c(F)c(F)c(F)c(F)c5F)c5ccc([nH]5)c(-c5c(F)c(F)c(F)c(F)c5F)c5nc(c(-c6c(F)c(F)c(F)c(F)c6F)c6ccc3[nH]6)C=C5)C=C4)cc2)C1
REMARK SMILES IDX 21 1 20 2 18 3 19 4 7 5 3 6 4 7 89 8 5 9 6 10 2 11 1 12 8 13
REMARK SMILES IDX 9 14 10 15 17 16 11 17 12 18 16 19 13 20 15 21 14 22 22 23
REMARK SMILES IDX 23 24 24 25 25 26 26 27 27 28 88 29 28 30 87 31 29 32 30 33
REMARK SMILES IDX 31 34 81 35 32 36 86 37 80 38 82 39 33 40 85 41 79 42 78 43
REMARK SMILES IDX 34 45 66 46 46 47 65 48 47 49 50 50 64 51 83 52 48 53 49 54
REMARK SMILES IDX 63 56 84 57 51 58 35 59 36 60 44 61 37 62 38 63 42 64 45 65
REMARK SMILES IDX 39 66 40 67 43 68 41 69 67 70 68 71 76 72 69 73 70 74 74 75
REMARK SMILES IDX 77 76 71 77 72 78 75 79 73 80 52 81 53 82 61 83 54 84 55 85
REMARK SMILES IDX 59 86 62 87 56 88 57 89 60 90 58 91
REMARK H PARENT 82 44 50 55
REMARK Flexibility Score: inf
ROOT
ATOM      1  C   UNL A   1      31.586  28.935  27.422  1.00  0.00     0.274 C 
ENDROOT
BRANCH   1   2
ATOM      2  O   UNL A   1      32.464  27.835  27.091  1.00  0.00    -0.462 OA
BRANCH   2   3
ATOM      3  C   UNL A   1      31.965  26.871  26.275  1.00  0.00     0.312 C 
ATOM      4  O   UNL A   1      30.802  26.478  26.310  1.00  0.00    -0.252 OA
BRANCH   3   5
ATOM      5  C   UNL A   1      33.026  26.220  25.370  1.00  0.00     0.069 C 
ATOM      6  C   UNL A   1      32.151  26.916  22.983  1.00  0.00    -0.010 C 
ATOM      7  C   UNL A   1      33.464  27.649  22.723  1.00  0.00     0.003 C 
ATOM      8  C   UNL A   1      32.343  25.796  24.024  1.00  0.00     0.022 C 
ATOM      9  C   UNL A   1      33.991  28.221  24.028  1.00  0.00     0.001 C 
ATOM     10  C   UNL A   1      34.240  27.121  25.054  1.00  0.00     0.019 C 
BRANCH   6  11
ATOM     11  C   UNL A   1      31.531  26.343  21.694  1.00  0.00     0.000 C 
ATOM     12  C   UNL A   1      32.527  25.587  20.824  1.00  0.00     0.004 C 
ENDBRANCH   6  11
BRANCH   5  13
ATOM     13  C   UNL A   1      33.443  24.874  26.085  1.00  0.00     0.028 C 
BRANCH  13  14
ATOM     14  C   UNL A   1      33.280  23.475  25.432  1.00  0.00     0.032 C 
ATOM     15  C   UNL A   1      32.596  22.392  26.289  1.00  0.00     0.083 C 
ATOM     16  C   UNL A   1      34.554  22.893  24.881  1.00  0.00    -0.030 A 
ATOM     17  S   UNL A   1      33.815  21.099  26.675  1.00  0.00    -0.125 SA
ATOM     18  C   UNL A   1      34.969  21.705  25.486  1.00  0.00     0.011 A 
ATOM     19  C   UNL A   1      35.347  23.494  23.905  1.00  0.00     0.005 A 
ATOM     20  C   UNL A   1      36.204  21.147  25.194  1.00  0.00     0.015 A 
ATOM     21  C   UNL A   1      36.589  22.935  23.601  1.00  0.00     0.000 A 
ATOM     22  C   UNL A   1      37.023  21.775  24.253  1.00  0.00     0.001 A 
ENDBRANCH  13  14
ENDBRANCH   5  13
ENDBRANCH   3   5
ENDBRANCH   2   3
ENDBRANCH   1   2
BRANCH   1  23
ATOM     23  C   UNL A   1      31.736  30.073  26.424  1.00  0.00     0.275 C 
BRANCH  23  24
ATOM     24  O   UNL A   1      33.124  30.423  26.346  1.00  0.00    -0.458 OA
BRANCH  24  25
ATOM     25  C   UNL A   1      33.534  31.382  27.202  1.00  0.00     0.338 C 
ATOM     26  O   UNL A   1      32.928  32.368  27.577  1.00  0.00    -0.246 OA
BRANCH  25  27
ATOM     27  C   UNL A   1      34.884  31.038  27.668  1.00  0.00     0.060 A 
ATOM     28  C   UNL A   1      35.777  32.051  28.004  1.00  0.00     0.016 A 
ATOM     29  C   UNL A   1      35.210  29.704  27.898  1.00  0.00     0.016 A 
ATOM     30  C   UNL A   1      37.001  31.712  28.582  1.00  0.00     0.010 A 
ATOM     31  C   UNL A   1      36.372  29.382  28.589  1.00  0.00     0.010 A 
ATOM     32  C   UNL A   1      37.293  30.378  28.927  1.00  0.00    -0.014 A 
BRANCH  32  33
ATOM     33  C   UNL A   1      38.538  30.048  29.671  1.00  0.00     0.031 A 
ATOM     34  C   UNL A   1      38.755  30.517  31.084  1.00  0.00     0.074 A 
ATOM     35  C   UNL A   1      39.500  29.334  29.052  1.00  0.00     0.049 A 
ATOM     36  N   UNL A   1      39.710  30.189  31.921  1.00  0.00    -0.248 NA
ATOM     37  C   UNL A   1      37.817  31.515  31.620  1.00  0.00     0.031 C 
ATOM     38  C   UNL A   1      39.493  28.948  27.638  1.00  0.00     0.029 A 
ATOM     39  N   UNL A   1      40.657  28.777  29.540  1.00  0.00    -0.354 N 
ATOM     40  C   UNL A   1      39.485  30.942  33.065  1.00  0.00     0.074 A 
ATOM     41  C   UNL A   1      38.365  31.811  32.788  1.00  0.00     0.031 C 
ATOM     42  C   UNL A   1      40.543  28.149  27.395  1.00  0.00     0.029 A 
ATOM     43  C   UNL A   1      41.297  27.969  28.630  1.00  0.00     0.049 A 
ATOM     44  H   UNL A   1      40.994  28.941  30.449  1.00  0.00     0.167 HD
ATOM     45  C   UNL A   1      40.115  30.875  34.262  1.00  0.00     0.037 A 
ATOM     46  C   UNL A   1      42.340  27.135  28.791  1.00  0.00     0.037 A 
ATOM     47  C   UNL A   1      41.185  29.963  34.554  1.00  0.00     0.049 A 
ATOM     48  C   UNL A   1      42.958  26.987  30.152  1.00  0.00     0.074 A 
ATOM     49  C   UNL A   1      41.818  29.730  35.761  1.00  0.00     0.029 A 
ATOM     50  N   UNL A   1      41.774  29.124  33.621  1.00  0.00    -0.354 N 
ATOM     51  N   UNL A   1      42.644  27.594  31.270  1.00  0.00    -0.248 NA
ATOM     52  C   UNL A   1      44.061  26.024  30.279  1.00  0.00     0.031 C 
ATOM     53  C   UNL A   1      42.803  28.758  35.555  1.00  0.00     0.029 A 
ATOM     54  C   UNL A   1      42.767  28.373  34.224  1.00  0.00     0.049 A 
ATOM     55  H   UNL A   1      41.523  29.071  32.670  1.00  0.00     0.167 HD
ATOM     56  C   UNL A   1      43.494  27.077  32.236  1.00  0.00     0.074 A 
ATOM     57  C   UNL A   1      44.329  26.093  31.577  1.00  0.00     0.031 C 
ATOM     58  C   UNL A   1      43.579  27.393  33.551  1.00  0.00     0.037 A 
BRANCH  45  59
ATOM     59  C   UNL A   1      39.613  31.769  35.357  1.00  0.00     0.064 A 
ATOM     60  C   UNL A   1      40.085  33.085  35.493  1.00  0.00     0.173 A 
ATOM     61  C   UNL A   1      38.641  31.323  36.264  1.00  0.00     0.173 A 
ATOM     62  F   UNL A   1      41.021  33.555  34.654  1.00  0.00    -0.203 F 
ATOM     63  C   UNL A   1      39.632  33.907  36.519  1.00  0.00     0.198 A 
ATOM     64  C   UNL A   1      38.171  32.159  37.273  1.00  0.00     0.198 A 
ATOM     65  F   UNL A   1      38.151  30.078  36.173  1.00  0.00    -0.203 F 
ATOM     66  F   UNL A   1      40.140  35.139  36.661  1.00  0.00    -0.200 F 
ATOM     67  C   UNL A   1      38.672  33.446  37.406  1.00  0.00     0.200 A 
ATOM     68  F   UNL A   1      37.234  31.718  38.126  1.00  0.00    -0.200 F 
ATOM     69  F   UNL A   1      38.236  34.239  38.394  1.00  0.00    -0.200 F 
ENDBRANCH  45  59
BRANCH  46  70
ATOM     70  C   UNL A   1      42.780  26.287  27.654  1.00  0.00     0.064 A 
ATOM     71  C   UNL A   1      42.165  25.051  27.411  1.00  0.00     0.173 A 
ATOM     72  C   UNL A   1      43.789  26.702  26.775  1.00  0.00     0.173 A 
ATOM     73  F   UNL A   1      41.202  24.610  28.233  1.00  0.00    -0.203 F 
ATOM     74  C   UNL A   1      42.553  24.255  26.336  1.00  0.00     0.198 A 
ATOM     75  C   UNL A   1      44.164  25.913  25.690  1.00  0.00     0.198 A 
ATOM     76  F   UNL A   1      44.400  27.881  26.963  1.00  0.00    -0.203 F 
ATOM     77  F   UNL A   1      41.966  23.065  26.140  1.00  0.00    -0.200 F 
ATOM     78  C   UNL A   1      43.547  24.688  25.473  1.00  0.00     0.200 A 
ATOM     79  F   UNL A   1      45.118  26.338  24.851  1.00  0.00    -0.200 F 
ATOM     80  F   UNL A   1      43.916  23.925  24.436  1.00  0.00    -0.200 F 
ENDBRANCH  46  70
BRANCH  58  81
ATOM     81  C   UNL A   1      44.603  26.672  34.370  1.00  0.00     0.064 A 
ATOM     82  C   UNL A   1      44.304  25.450  34.988  1.00  0.00     0.173 A 
ATOM     83  C   UNL A   1      45.914  27.161  34.464  1.00  0.00     0.173 A 
ATOM     84  F   UNL A   1      43.060  24.952  34.932  1.00  0.00    -0.203 F 
ATOM     85  C   UNL A   1      45.283  24.744  35.679  1.00  0.00     0.198 A 
ATOM     86  C   UNL A   1      46.895  26.442  35.139  1.00  0.00     0.198 A 
ATOM     87  F   UNL A   1      46.246  28.323  33.882  1.00  0.00    -0.203 F 
ATOM     88  F   UNL A   1      44.974  23.587  36.280  1.00  0.00    -0.200 F 
ATOM     89  C   UNL A   1      46.579  25.235  35.746  1.00  0.00     0.200 A 
ATOM     90  F   UNL A   1      48.150  26.911  35.195  1.00  0.00    -0.200 F 
ATOM     91  F   UNL A   1      47.525  24.544  36.398  1.00  0.00    -0.200 F 
ENDBRANCH  58  81
ENDBRANCH  32  33
ENDBRANCH  25  27
ENDBRANCH  24  25
ENDBRANCH  23  24
ENDBRANCH   1  23
TORSDOF 14
ENDMDL
MODEL 2
REMARK VINA RESULT:     -12.3      4.391      9.805
REMARK SMILES CC[C@@H]1CCC[C@@](C[C@@H]2CSc3ccccc32)(C(=O)OCCOC(=O)c2ccc(-c3c4nc(c(-c5c(F)c(F)c(F)c(F)c5F)c5ccc([nH]5)c(-c5c(F)c(F)c(F)c(F)c5F)c5nc(c(-c6c(F)c(F)c(F)c(F)c6F)c6ccc3[nH]6)C=C5)C=C4)cc2)C1
REMARK SMILES IDX 21 1 20 2 18 3 19 4 7 5 3 6 4 7 89 8 5 9 6 10 2 11 1 12 8 13
REMARK SMILES IDX 9 14 10 15 17 16 11 17 12 18 16 19 13 20 15 21 14 22 22 23
REMARK SMILES IDX 23 24 24 25 25 26 26 27 27 28 88 29 28 30 87 31 29 32 30 33
REMARK SMILES IDX 31 34 81 35 32 36 86 37 80 38 82 39 33 40 85 41 79 42 78 43
REMARK SMILES IDX 34 45 66 46 46 47 65 48 47 49 50 50 64 51 83 52 48 53 49 54
REMARK SMILES IDX 63 56 84 57 51 58 35 59 36 60 44 61 37 62 38 63 42 64 45 65
REMARK SMILES IDX 39 66 40 67 43 68 41 69 67 70 68 71 76 72 69 73 70 74 74 75
REMARK SMILES IDX 77 76 71 77 72 78 75 79 73 80 52 81 53 82 61 83 54 84 55 85
REMARK SMILES IDX 59 86 62 87 56 88 57 89 60 90 58 91
REMARK H PARENT 82 44 50 55
REMARK Flexibility Score: inf
ROOT
ATOM      1  C   UNL A   1      36.731  21.971  23.640  1.00  0.00     0.274 C 
ENDROOT
BRANCH   1   2
ATOM      2  O   UNL A   1      36.218  23.174  24.257  1.00  0.00    -0.462 OA
BRANCH   2   3
ATOM      3  C   UNL A   1      34.910  23.467  24.046  1.00  0.00     0.312 C 
ATOM      4  O   UNL A   1      34.329  23.277  22.980  1.00  0.00    -0.252 OA
BRANCH   3   5
ATOM      5  C   UNL A   1      34.238  24.177  25.234  1.00  0.00     0.069 C 
ATOM      6  C   UNL A   1      32.341  22.452  25.847  1.00  0.00    -0.010 C 
ATOM      7  C   UNL A   1      32.938  22.302  27.242  1.00  0.00     0.003 C 
ATOM      8  C   UNL A   1      32.712  23.817  25.234  1.00  0.00     0.022 C 
ATOM      9  C   UNL A   1      34.447  22.458  27.167  1.00  0.00     0.001 C 
ATOM     10  C   UNL A   1      34.835  23.824  26.613  1.00  0.00     0.019 C 
BRANCH   6  11
ATOM     11  C   UNL A   1      30.812  22.264  25.836  1.00  0.00     0.000 C 
ATOM     12  C   UNL A   1      30.101  22.994  26.968  1.00  0.00     0.004 C 
ENDBRANCH   6  11
BRANCH   5  13
ATOM     13  C   UNL A   1      34.316  25.723  24.919  1.00  0.00     0.028 C 
BRANCH  13  14
ATOM     14  C   UNL A   1      33.113  26.548  24.389  1.00  0.00     0.032 C 
ATOM     15  C   UNL A   1      33.308  27.257  23.035  1.00  0.00     0.083 C 
ATOM     16  C   UNL A   1      32.570  27.558  25.365  1.00  0.00    -0.030 A 
ATOM     17  S   UNL A   1      33.290  29.054  23.310  1.00  0.00    -0.125 SA
ATOM     18  C   UNL A   1      32.668  28.887  24.952  1.00  0.00     0.011 A 
ATOM     19  C   UNL A   1      32.080  27.254  26.635  1.00  0.00     0.005 A 
ATOM     20  C   UNL A   1      32.361  29.929  25.815  1.00  0.00     0.015 A 
ATOM     21  C   UNL A   1      31.763  28.297  27.507  1.00  0.00     0.000 A 
ATOM     22  C   UNL A   1      31.918  29.628  27.104  1.00  0.00     0.001 A 
ENDBRANCH  13  14
ENDBRANCH   5  13
ENDBRANCH   3   5
ENDBRANCH   2   3
ENDBRANCH   1   2
BRANCH   1  23
ATOM     23  C   UNL A   1      37.310  21.026  24.682  1.00  0.00     0.275 C 
BRANCH  23  24
ATOM     24  O   UNL A   1      37.769  21.808  25.792  1.00  0.00    -0.458 OA
BRANCH  24  25
ATOM     25  C   UNL A   1      39.040  21.580  26.181  1.00  0.00     0.338 C 
ATOM     26  O   UNL A   1      39.706  20.571  26.034  1.00  0.00    -0.246 OA
BRANCH  25  27
ATOM     27  C   UNL A   1      39.553  22.798  26.822  1.00  0.00     0.060 A 
ATOM     28  C   UNL A   1      40.667  22.725  27.651  1.00  0.00     0.016 A 
ATOM     29  C   UNL A   1      39.003  24.032  26.484  1.00  0.00     0.016 A 
ATOM     30  C   UNL A   1      41.231  23.906  28.136  1.00  0.00     0.010 A 
ATOM     31  C   UNL A   1      39.644  25.206  26.864  1.00  0.00     0.010 A 
ATOM     32  C   UNL A   1      40.756  25.162  27.709  1.00  0.00    -0.014 A 
BRANCH  32  33
ATOM     33  C   UNL A   1      41.455  26.410  28.119  1.00  0.00     0.031 A 
ATOM     34  C   UNL A   1      42.849  26.721  27.644  1.00  0.00     0.074 A 
ATOM     35  C   UNL A   1      40.831  27.264  28.955  1.00  0.00     0.049 A 
ATOM     36  N   UNL A   1      43.536  27.829  27.784  1.00  0.00    -0.248 NA
ATOM     37  C   UNL A   1      43.592  25.646  26.969  1.00  0.00     0.031 C 
ATOM     38  C   UNL A   1      39.546  27.017  29.615  1.00  0.00     0.029 A 
ATOM     39  N   UNL A   1      41.176  28.528  29.366  1.00  0.00    -0.354 N 
ATOM     40  C   UNL A   1      44.780  27.577  27.222  1.00  0.00     0.074 A 
ATOM     41  C   UNL A   1      44.791  26.188  26.824  1.00  0.00     0.031 C 
ATOM     42  C   UNL A   1      39.172  28.123  30.277  1.00  0.00     0.029 A 
ATOM     43  C   UNL A   1      40.188  29.153  30.090  1.00  0.00     0.049 A 
ATOM     44  H   UNL A   1      42.044  28.944  29.163  1.00  0.00     0.167 HD
ATOM     45  C   UNL A   1      45.801  28.437  27.002  1.00  0.00     0.037 A 
ATOM     46  C   UNL A   1      40.090  30.429  30.507  1.00  0.00     0.037 A 
ATOM     47  C   UNL A   1      45.761  29.832  27.339  1.00  0.00     0.049 A 
ATOM     48  C   UNL A   1      41.181  31.401  30.158  1.00  0.00     0.074 A 
ATOM     49  C   UNL A   1      46.689  30.818  27.059  1.00  0.00     0.029 A 
ATOM     50  N   UNL A   1      44.722  30.440  28.028  1.00  0.00    -0.354 N 
ATOM     51  N   UNL A   1      42.291  31.190  29.494  1.00  0.00    -0.248 NA
ATOM     52  C   UNL A   1      40.995  32.791  30.595  1.00  0.00     0.031 C 
ATOM     53  C   UNL A   1      46.219  32.023  27.592  1.00  0.00     0.029 A 
ATOM     54  C   UNL A   1      44.988  31.789  28.186  1.00  0.00     0.049 A 
ATOM     55  H   UNL A   1      43.916  29.981  28.355  1.00  0.00     0.167 HD
ATOM     56  C   UNL A   1      42.928  32.419  29.419  1.00  0.00     0.074 A 
ATOM     57  C   UNL A   1      42.073  33.377  30.090  1.00  0.00     0.031 C 
ATOM     58  C   UNL A   1      44.119  32.725  28.849  1.00  0.00     0.037 A 
BRANCH  45  59
ATOM     59  C   UNL A   1      47.018  27.900  26.306  1.00  0.00     0.064 A 
ATOM     60  C   UNL A   1      47.075  27.820  24.906  1.00  0.00     0.173 A 
ATOM     61  C   UNL A   1      48.139  27.481  27.035  1.00  0.00     0.173 A 
ATOM     62  F   UNL A   1      46.024  28.202  24.164  1.00  0.00    -0.203 F 
ATOM     63  C   UNL A   1      48.196  27.306  24.262  1.00  0.00     0.198 A 
ATOM     64  C   UNL A   1      49.270  26.992  26.385  1.00  0.00     0.198 A 
ATOM     65  F   UNL A   1      48.139  27.544  28.375  1.00  0.00    -0.203 F 
ATOM     66  F   UNL A   1      48.204  27.189  22.927  1.00  0.00    -0.200 F 
ATOM     67  C   UNL A   1      49.294  26.896  25.002  1.00  0.00     0.200 A 
ATOM     68  F   UNL A   1      50.337  26.605  27.098  1.00  0.00    -0.200 F 
ATOM     69  F   UNL A   1      50.373  26.400  24.380  1.00  0.00    -0.200 F 
ENDBRANCH  45  59
BRANCH  46  70
ATOM     70  C   UNL A   1      38.854  30.879  31.195  1.00  0.00     0.064 A 
ATOM     71  C   UNL A   1      38.769  30.849  32.594  1.00  0.00     0.173 A 
ATOM     72  C   UNL A   1      37.755  31.376  30.482  1.00  0.00     0.173 A 
ATOM     73  F   UNL A   1      39.794  30.372  33.316  1.00  0.00    -0.203 F 
ATOM     74  C   UNL A   1      37.625  31.288  33.255  1.00  0.00     0.198 A 
ATOM     75  C   UNL A   1      36.617  31.832  31.145  1.00  0.00     0.198 A 
ATOM     76  F   UNL A   1      37.793  31.433  29.143  1.00  0.00    -0.203 F 
ATOM     77  F   UNL A   1      37.560  31.225  34.593  1.00  0.00    -0.200 F 
ATOM     78  C   UNL A   1      36.552  31.784  32.531  1.00  0.00     0.200 A 
ATOM     79  F   UNL A   1      35.585  32.320  30.444  1.00  0.00    -0.200 F 
ATOM     80  F   UNL A   1      35.453  32.212  33.167  1.00  0.00    -0.200 F 
ENDBRANCH  46  70
BRANCH  58  81
ATOM     81  C   UNL A   1      44.571  34.150  28.919  1.00  0.00     0.064 A 
ATOM     82  C   UNL A   1      45.400  34.595  29.958  1.00  0.00     0.173 A 
ATOM     83  C   UNL A   1      44.246  35.052  27.895  1.00  0.00     0.173 A 
ATOM     84  F   UNL A   1      45.726  33.769  30.962  1.00  0.00    -0.203 F 
ATOM     85  C   UNL A   1      45.884  35.900  29.973  1.00  0.00     0.198 A 
ATOM     86  C   UNL A   1      44.749  36.349  27.903  1.00  0.00     0.198 A 
ATOM     87  F   UNL A   1      43.462  34.666  26.878  1.00  0.00    -0.203 F 
ATOM     88  F   UNL A   1      46.659  36.313  30.984  1.00  0.00    -0.200 F 
ATOM     89  C   UNL A   1      45.567  36.772  28.941  1.00  0.00     0.200 A 
ATOM     90  F   UNL A   1      44.450  37.188  26.902  1.00  0.00    -0.200 F 
ATOM     91  F   UNL A   1      46.048  38.022  28.949  1.00  0.00    -0.200 F 
ENDBRANCH  58  81
ENDBRANCH  32  33
ENDBRANCH  25  27
ENDBRANCH  24  25
ENDBRANCH  23  24
ENDBRANCH   1  23
TORSDOF 14
ENDMDL
MODEL 3
REMARK VINA RESULT:     -12.3      0.995      2.336
REMARK SMILES CC[C@@H]1CCC[C@@](C[C@@H]2CSc3ccccc32)(C(=O)OCCOC(=O)c2ccc(-c3c4nc(c(-c5c(F)c(F)c(F)c(F)c5F)c5ccc([nH]5)c(-c5c(F)c(F)c(F)c(F)c5F)c5nc(c(-c6c(F)c(F)c(F)c(F)c6F)c6ccc3[nH]6)C=C5)C=C4)cc2)C1
REMARK SMILES IDX 21 1 20 2 18 3 19 4 7 5 3 6 4 7 89 8 5 9 6 10 2 11 1 12 8 13
REMARK SMILES IDX 9 14 10 15 17 16 11 17 12 18 16 19 13 20 15 21 14 22 22 23
REMARK SMILES IDX 23 24 24 25 25 26 26 27 27 28 88 29 28 30 87 31 29 32 30 33
REMARK SMILES IDX 31 34 81 35 32 36 86 37 80 38 82 39 33 40 85 41 79 42 78 43
REMARK SMILES IDX 34 45 66 46 46 47 65 48 47 49 50 50 64 51 83 52 48 53 49 54
REMARK SMILES IDX 63 56 84 57 51 58 35 59 36 60 44 61 37 62 38 63 42 64 45 65
REMARK SMILES IDX 39 66 40 67 43 68 41 69 67 70 68 71 76 72 69 73 70 74 74 75
REMARK SMILES IDX 77 76 71 77 72 78 75 79 73 80 52 81 53 82 61 83 54 84 55 85
REMARK SMILES IDX 59 86 62 87 56 88 57 89 60 90 58 91
REMARK H PARENT 82 44 50 55
REMARK Flexibility Score: inf
ROOT
ATOM      1  C   UNL A   1      31.810  28.642  27.316  1.00  0.00     0.274 C 
ENDROOT
BRANCH   1   2
ATOM      2  O   UNL A   1      32.481  27.695  26.453  1.00  0.00    -0.462 OA
BRANCH   2   3
ATOM      3  C   UNL A   1      31.720  26.717  25.899  1.00  0.00     0.312 C 
ATOM      4  O   UNL A   1      30.917  26.034  26.530  1.00  0.00    -0.252 OA
BRANCH   3   5
ATOM      5  C   UNL A   1      32.039  26.452  24.417  1.00  0.00     0.069 C 
ATOM      6  C   UNL A   1      31.289  28.730  23.324  1.00  0.00    -0.010 C 
ATOM      7  C   UNL A   1      32.711  28.946  22.815  1.00  0.00     0.003 C 
ATOM      8  C   UNL A   1      31.002  27.231  23.536  1.00  0.00     0.022 C 
ATOM      9  C   UNL A   1      33.698  28.352  23.805  1.00  0.00     0.001 C 
ATOM     10  C   UNL A   1      33.465  26.856  23.987  1.00  0.00     0.019 C 
BRANCH   6  11
ATOM     11  C   UNL A   1      30.229  29.347  22.391  1.00  0.00     0.000 C 
ATOM     12  C   UNL A   1      28.804  28.925  22.726  1.00  0.00     0.004 C 
ENDBRANCH   6  11
BRANCH   5  13
ATOM     13  C   UNL A   1      31.746  24.919  24.175  1.00  0.00     0.028 C 
BRANCH  13  14
ATOM     14  C   UNL A   1      32.851  23.882  23.839  1.00  0.00     0.032 C 
ATOM     15  C   UNL A   1      32.513  22.845  22.751  1.00  0.00     0.083 C 
ATOM     16  C   UNL A   1      33.392  23.140  25.032  1.00  0.00    -0.030 A 
ATOM     17  S   UNL A   1      32.430  21.199  23.519  1.00  0.00    -0.125 SA
ATOM     18  C   UNL A   1      33.177  21.761  25.015  1.00  0.00     0.011 A 
ATOM     19  C   UNL A   1      33.991  23.740  26.139  1.00  0.00     0.005 A 
ATOM     20  C   UNL A   1      33.474  20.977  26.119  1.00  0.00     0.015 A 
ATOM     21  C   UNL A   1      34.298  22.957  27.252  1.00  0.00     0.000 A 
ATOM     22  C   UNL A   1      34.027  21.584  27.249  1.00  0.00     0.001 A 
ENDBRANCH  13  14
ENDBRANCH   5  13
ENDBRANCH   3   5
ENDBRANCH   2   3
ENDBRANCH   1   2
BRANCH   1  23
ATOM     23  C   UNL A   1      31.777  30.026  26.687  1.00  0.00     0.275 C 
BRANCH  23  24
ATOM     24  O   UNL A   1      33.127  30.448  26.457  1.00  0.00    -0.458 OA
BRANCH  24  25
ATOM     25  C   UNL A   1      33.581  31.423  27.270  1.00  0.00     0.338 C 
ATOM     26  O   UNL A   1      33.011  32.439  27.623  1.00  0.00    -0.246 OA
BRANCH  25  27
ATOM     27  C   UNL A   1      34.930  31.057  27.722  1.00  0.00     0.060 A 
ATOM     28  C   UNL A   1      35.861  32.054  27.995  1.00  0.00     0.016 A 
ATOM     29  C   UNL A   1      35.219  29.723  28.004  1.00  0.00     0.016 A 
ATOM     30  C   UNL A   1      37.087  31.701  28.561  1.00  0.00     0.010 A 
ATOM     31  C   UNL A   1      36.386  29.394  28.684  1.00  0.00     0.010 A 
ATOM     32  C   UNL A   1      37.345  30.374  28.957  1.00  0.00    -0.014 A 
BRANCH  32  33
ATOM     33  C   UNL A   1      38.595  30.036  29.688  1.00  0.00     0.031 A 
ATOM     34  C   UNL A   1      38.825  30.495  31.103  1.00  0.00     0.074 A 
ATOM     35  C   UNL A   1      39.551  29.325  29.056  1.00  0.00     0.049 A 
ATOM     36  N   UNL A   1      39.786  30.159  31.930  1.00  0.00    -0.248 NA
ATOM     37  C   UNL A   1      37.894  31.491  31.654  1.00  0.00     0.031 C 
ATOM     38  C   UNL A   1      39.531  28.949  27.640  1.00  0.00     0.029 A 
ATOM     39  N   UNL A   1      40.710  28.762  29.530  1.00  0.00    -0.354 N 
ATOM     40  C   UNL A   1      39.573  30.904  33.081  1.00  0.00     0.074 A 
ATOM     41  C   UNL A   1      38.452  31.777  32.820  1.00  0.00     0.031 C 
ATOM     42  C   UNL A   1      40.576  28.149  27.382  1.00  0.00     0.029 A 
ATOM     43  C   UNL A   1      41.341  27.959  28.610  1.00  0.00     0.049 A 
ATOM     44  H   UNL A   1      41.055  28.919  30.438  1.00  0.00     0.167 HD
ATOM     45  C   UNL A   1      40.213  30.828  34.271  1.00  0.00     0.037 A 
ATOM     46  C   UNL A   1      42.384  27.121  28.756  1.00  0.00     0.037 A 
ATOM     47  C   UNL A   1      41.284  29.912  34.548  1.00  0.00     0.049 A 
ATOM     48  C   UNL A   1      43.013  26.963  30.111  1.00  0.00     0.074 A 
ATOM     49  C   UNL A   1      41.926  29.669  35.748  1.00  0.00     0.029 A 
ATOM     50  N   UNL A   1      41.863  29.078  33.604  1.00  0.00    -0.354 N 
ATOM     51  N   UNL A   1      42.709  27.562  31.236  1.00  0.00    -0.248 NA
ATOM     52  C   UNL A   1      44.115  25.996  30.222  1.00  0.00     0.031 C 
ATOM     53  C   UNL A   1      42.908  28.696  35.527  1.00  0.00     0.029 A 
ATOM     54  C   UNL A   1      42.860  28.321  34.193  1.00  0.00     0.049 A 
ATOM     55  H   UNL A   1      41.604  29.032  32.656  1.00  0.00     0.167 HD
ATOM     56  C   UNL A   1      43.567  27.037  32.190  1.00  0.00     0.074 A 
ATOM     57  C   UNL A   1      44.394  26.056  31.517  1.00  0.00     0.031 C 
ATOM     58  C   UNL A   1      43.664  27.344  33.506  1.00  0.00     0.037 A 
BRANCH  45  59
ATOM     59  C   UNL A   1      39.722  31.716  35.377  1.00  0.00     0.064 A 
ATOM     60  C   UNL A   1      38.716  31.287  36.258  1.00  0.00     0.173 A 
ATOM     61  C   UNL A   1      40.268  32.992  35.574  1.00  0.00     0.173 A 
ATOM     62  F   UNL A   1      38.156  30.077  36.105  1.00  0.00    -0.203 F 
ATOM     63  C   UNL A   1      38.248  32.117  37.271  1.00  0.00     0.198 A 
ATOM     64  C   UNL A   1      39.816  33.809  36.607  1.00  0.00     0.198 A 
ATOM     65  F   UNL A   1      41.237  33.446  34.766  1.00  0.00    -0.203 F 
ATOM     66  F   UNL A   1      37.249  31.706  38.063  1.00  0.00    -0.200 F 
ATOM     67  C   UNL A   1      38.801  33.376  37.448  1.00  0.00     0.200 A 
ATOM     68  F   UNL A   1      40.357  35.022  36.786  1.00  0.00    -0.200 F 
ATOM     69  F   UNL A   1      38.350  34.175  38.425  1.00  0.00    -0.200 F 
ENDBRANCH  45  59
BRANCH  46  70
ATOM     70  C   UNL A   1      42.812  26.281  27.609  1.00  0.00     0.064 A 
ATOM     71  C   UNL A   1      43.802  26.736  26.727  1.00  0.00     0.173 A 
ATOM     72  C   UNL A   1      42.274  25.006  27.390  1.00  0.00     0.173 A 
ATOM     73  F   UNL A   1      44.338  27.955  26.893  1.00  0.00    -0.203 F 
ATOM     74  C   UNL A   1      44.230  25.951  25.659  1.00  0.00     0.198 A 
ATOM     75  C   UNL A   1      42.716  24.214  26.332  1.00  0.00     0.198 A 
ATOM     76  F   UNL A   1      41.332  24.525  28.213  1.00  0.00    -0.203 F 
ATOM     77  F   UNL A   1      45.160  26.420  24.816  1.00  0.00    -0.200 F 
ATOM     78  C   UNL A   1      43.690  24.689  25.466  1.00  0.00     0.200 A 
ATOM     79  F   UNL A   1      42.200  22.991  26.152  1.00  0.00    -0.200 F 
ATOM     80  F   UNL A   1      44.106  23.931  24.442  1.00  0.00    -0.200 F 
ENDBRANCH  46  70
BRANCH  58  81
ATOM     81  C   UNL A   1      44.693  26.615  34.312  1.00  0.00     0.064 A 
ATOM     82  C   UNL A   1      45.993  27.121  34.451  1.00  0.00     0.173 A 
ATOM     83  C   UNL A   1      44.353  25.452  35.017  1.00  0.00     0.173 A 
ATOM     84  F   UNL A   1      46.363  28.224  33.785  1.00  0.00    -0.203 F 
ATOM     85  C   UNL A   1      46.921  26.482  35.268  1.00  0.00     0.198 A 
ATOM     86  C   UNL A   1      45.278  24.827  35.848  1.00  0.00     0.198 A 
ATOM     87  F   UNL A   1      43.119  24.936  34.917  1.00  0.00    -0.203 F 
ATOM     88  F   UNL A   1      48.165  26.969  35.374  1.00  0.00    -0.200 F 
ATOM     89  C   UNL A   1      46.560  25.342  35.972  1.00  0.00     0.200 A 
ATOM     90  F   UNL A   1      44.927  23.732  36.536  1.00  0.00    -0.200 F 
ATOM     91  F   UNL A   1      47.451  24.738  36.771  1.00  0.00    -0.200 F 
ENDBRANCH  58  81
ENDBRANCH  32  33
ENDBRANCH  25  27
ENDBRANCH  24  25
ENDBRANCH  23  24
ENDBRANCH   1  23
TORSDOF 14
ENDMDL
