MODEL 1
REMARK VINA RESULT:     -12.9      0.000      0.000
REMARK SMILES CCN1C(=O)c2ccccc2[S@@](=O)c2ccc(C(=O)OCCOC(=O)c3ccc(-c4c5nc(c(-c6c(F)c(F)c(F)c(F)c6F)c6ccc([nH]6)c(-c6c(F)c(F)c(F)c(F)c6F)c6nc(c(-c7c(F)c(F)c(F)c(F)c7F)c7ccc4[nH]7)C=C6)C=C5)cc3)cc21
REMARK SMILES IDX 22 1 21 2 20 3 18 4 19 5 17 6 3 7 4 8 90 9 5 10 6 11 14 12
REMARK SMILES IDX 89 13 7 14 11 15 12 16 15 17 8 18 10 19 13 20 16 21 9 22
REMARK SMILES IDX 2 23 1 24 23 25 24 26 25 27 26 28 27 29 88 30 28 31 87 32
REMARK SMILES IDX 29 33 30 34 31 35 81 36 32 37 86 38 80 39 82 40 33 41 85 42
REMARK SMILES IDX 79 43 78 44 34 46 66 47 46 48 65 49 47 50 50 51 64 52 83 53
REMARK SMILES IDX 48 54 49 55 63 57 84 58 51 59 35 60 36 61 44 62 37 63 38 64
REMARK SMILES IDX 42 65 45 66 39 67 40 68 43 69 41 70 67 71 68 72 76 73 69 74
REMARK SMILES IDX 70 75 74 76 77 77 71 78 72 79 75 80 73 81 52 82 53 83 61 84
REMARK SMILES IDX 54 85 55 86 59 87 62 88 56 89 57 90 60 91 58 92
REMARK H PARENT 82 45 50 56
REMARK Flexibility Score: inf
ROOT
ATOM      1  C   UNL A   1      31.538  31.630  26.323  1.00  0.00     0.275 C 
ENDROOT
BRANCH   1   2
ATOM      2  C   UNL A   1      31.166  30.419  25.465  1.00  0.00     0.275 C 
BRANCH   2   3
ATOM      3  O   UNL A   1      32.235  29.452  25.421  1.00  0.00    -0.458 OA
BRANCH   3   4
ATOM      4  C   UNL A   1      32.050  28.311  26.134  1.00  0.00     0.338 C 
ATOM      5  O   UNL A   1      31.435  28.204  27.176  1.00  0.00    -0.246 OA
BRANCH   4   6
ATOM      6  C   UNL A   1      32.651  27.139  25.434  1.00  0.00     0.062 A 
ATOM      7  N   UNL A   1      32.976  23.430  26.021  1.00  0.00    -0.307 N 
ATOM      8  C   UNL A   1      33.378  22.196  25.468  1.00  0.00     0.259 C 
ATOM      9  C   UNL A   1      33.195  24.719  25.377  1.00  0.00     0.061 A 
ATOM     10  O   UNL A   1      32.721  21.158  25.556  1.00  0.00    -0.269 OA
ATOM     11  C   UNL A   1      34.770  22.047  25.036  1.00  0.00     0.056 A 
ATOM     12  C   UNL A   1      33.684  24.912  24.059  1.00  0.00     0.068 A 
ATOM     13  C   UNL A   1      32.784  25.890  26.050  1.00  0.00     0.043 A 
ATOM     14  C   UNL A   1      35.545  21.094  25.717  1.00  0.00     0.015 A 
ATOM     15  C   UNL A   1      35.292  22.742  23.959  1.00  0.00     0.057 A 
ATOM     16  S   UNL A   1      34.248  23.680  22.869  1.00  0.00     0.088 S 
ATOM     17  C   UNL A   1      33.614  26.195  23.460  1.00  0.00     0.021 A 
ATOM     18  C   UNL A   1      36.870  20.876  25.352  1.00  0.00     0.001 A 
ATOM     19  C   UNL A   1      36.638  22.542  23.614  1.00  0.00     0.019 A 
ATOM     20  O   UNL A   1      33.044  22.833  22.595  1.00  0.00    -0.249 OA
ATOM     21  C   UNL A   1      33.041  27.277  24.111  1.00  0.00     0.017 A 
ATOM     22  C   UNL A   1      37.424  21.619  24.313  1.00  0.00     0.001 A 
BRANCH   7  23
ATOM     23  C   UNL A   1      31.944  23.247  27.068  1.00  0.00     0.122 C 
ATOM     24  C   UNL A   1      30.458  23.324  26.728  1.00  0.00     0.028 C 
ENDBRANCH   7  23
ENDBRANCH   4   6
ENDBRANCH   3   4
ENDBRANCH   2   3
ENDBRANCH   1   2
BRANCH   1  25
ATOM     25  O   UNL A   1      32.751  31.382  27.059  1.00  0.00    -0.458 OA
BRANCH  25  26
ATOM     26  C   UNL A   1      33.421  32.486  27.462  1.00  0.00     0.338 C 
ATOM     27  O   UNL A   1      33.008  33.633  27.520  1.00  0.00    -0.246 OA
BRANCH  26  28
ATOM     28  C   UNL A   1      34.708  32.074  28.037  1.00  0.00     0.060 A 
ATOM     29  C   UNL A   1      35.787  32.939  28.175  1.00  0.00     0.016 A 
ATOM     30  C   UNL A   1      34.785  30.775  28.529  1.00  0.00     0.016 A 
ATOM     31  C   UNL A   1      36.958  32.465  28.785  1.00  0.00     0.010 A 
ATOM     32  C   UNL A   1      35.927  30.312  29.165  1.00  0.00     0.010 A 
ATOM     33  C   UNL A   1      37.037  31.148  29.286  1.00  0.00    -0.014 A 
BRANCH  33  34
ATOM     34  C   UNL A   1      38.245  30.652  29.996  1.00  0.00     0.031 A 
ATOM     35  C   UNL A   1      38.542  31.062  31.414  1.00  0.00     0.074 A 
ATOM     36  C   UNL A   1      39.118  29.878  29.326  1.00  0.00     0.049 A 
ATOM     37  N   UNL A   1      39.520  30.675  32.196  1.00  0.00    -0.248 NA
ATOM     38  C   UNL A   1      37.653  32.063  32.024  1.00  0.00     0.031 C 
ATOM     39  C   UNL A   1      39.005  29.516  27.913  1.00  0.00     0.029 A 
ATOM     40  N   UNL A   1      40.261  29.243  29.742  1.00  0.00    -0.354 N 
ATOM     41  C   UNL A   1      39.357  31.378  33.384  1.00  0.00     0.074 A 
ATOM     42  C   UNL A   1      38.243  32.278  33.192  1.00  0.00     0.031 C 
ATOM     43  C   UNL A   1      39.986  28.658  27.600  1.00  0.00     0.029 A 
ATOM     44  C   UNL A   1      40.814  28.432  28.782  1.00  0.00     0.049 A 
ATOM     45  H   UNL A   1      40.647  29.358  30.641  1.00  0.00     0.167 HD
ATOM     46  C   UNL A   1      40.046  31.249  34.544  1.00  0.00     0.037 A 
ATOM     47  C   UNL A   1      41.850  27.576  28.856  1.00  0.00     0.037 A 
ATOM     48  C   UNL A   1      41.140  30.333  34.733  1.00  0.00     0.049 A 
ATOM     49  C   UNL A   1      42.578  27.420  30.161  1.00  0.00     0.074 A 
ATOM     50  C   UNL A   1      41.864  30.075  35.885  1.00  0.00     0.029 A 
ATOM     51  N   UNL A   1      41.667  29.520  33.739  1.00  0.00    -0.354 N 
ATOM     52  N   UNL A   1      42.353  28.013  31.308  1.00  0.00    -0.248 NA
ATOM     53  C   UNL A   1      43.699  26.470  30.185  1.00  0.00     0.031 C 
ATOM     54  C   UNL A   1      42.852  29.134  35.579  1.00  0.00     0.029 A 
ATOM     55  C   UNL A   1      42.714  28.769  34.248  1.00  0.00     0.049 A 
ATOM     56  H   UNL A   1      41.344  29.482  32.811  1.00  0.00     0.167 HD
ATOM     57  C   UNL A   1      43.290  27.500  32.194  1.00  0.00     0.074 A 
ATOM     58  C   UNL A   1      44.073  26.530  31.455  1.00  0.00     0.031 C 
ATOM     59  C   UNL A   1      43.484  27.808  33.499  1.00  0.00     0.037 A 
BRANCH  46  60
ATOM     60  C   UNL A   1      39.608  32.086  35.715  1.00  0.00     0.064 A 
ATOM     61  C   UNL A   1      40.168  33.352  35.953  1.00  0.00     0.173 A 
ATOM     62  C   UNL A   1      38.586  31.654  36.573  1.00  0.00     0.173 A 
ATOM     63  F   UNL A   1      41.150  33.815  35.164  1.00  0.00    -0.203 F 
ATOM     64  C   UNL A   1      39.746  34.137  37.022  1.00  0.00     0.198 A 
ATOM     65  C   UNL A   1      38.143  32.457  37.624  1.00  0.00     0.198 A 
ATOM     66  F   UNL A   1      38.004  30.460  36.387  1.00  0.00    -0.203 F 
ATOM     67  F   UNL A   1      40.333  35.319  37.255  1.00  0.00    -0.200 F 
ATOM     68  C   UNL A   1      38.729  33.693  37.852  1.00  0.00     0.200 A 
ATOM     69  F   UNL A   1      37.146  32.035  38.414  1.00  0.00    -0.200 F 
ATOM     70  F   UNL A   1      38.315  34.455  38.873  1.00  0.00    -0.200 F 
ENDBRANCH  46  60
BRANCH  47  71
ATOM     71  C   UNL A   1      42.177  26.729  27.681  1.00  0.00     0.064 A 
ATOM     72  C   UNL A   1      43.190  27.111  26.790  1.00  0.00     0.173 A 
ATOM     73  C   UNL A   1      41.541  25.498  27.458  1.00  0.00     0.173 A 
ATOM     74  F   UNL A   1      43.818  28.284  26.956  1.00  0.00    -0.203 F 
ATOM     75  C   UNL A   1      43.552  26.297  25.720  1.00  0.00     0.198 A 
ATOM     76  C   UNL A   1      41.923  24.674  26.403  1.00  0.00     0.198 A 
ATOM     77  F   UNL A   1      40.575  25.082  28.290  1.00  0.00    -0.203 F 
ATOM     78  F   UNL A   1      44.511  26.696  24.873  1.00  0.00    -0.200 F 
ATOM     79  C   UNL A   1      42.927  25.074  25.533  1.00  0.00     0.200 A 
ATOM     80  F   UNL A   1      41.329  23.484  26.237  1.00  0.00    -0.200 F 
ATOM     81  F   UNL A   1      43.291  24.281  24.517  1.00  0.00    -0.200 F 
ENDBRANCH  47  71
BRANCH  59  82
ATOM     82  C   UNL A   1      44.582  27.088  34.226  1.00  0.00     0.064 A 
ATOM     83  C   UNL A   1      45.870  27.631  34.327  1.00  0.00     0.173 A 
ATOM     84  C   UNL A   1      44.321  25.882  34.895  1.00  0.00     0.173 A 
ATOM     85  F   UNL A   1      46.172  28.775  33.693  1.00  0.00    -0.203 F 
ATOM     86  C   UNL A   1      46.862  26.987  35.061  1.00  0.00     0.198 A 
ATOM     87  C   UNL A   1      45.307  25.257  35.652  1.00  0.00     0.198 A 
ATOM     88  F   UNL A   1      43.101  25.326  34.836  1.00  0.00    -0.203 F 
ATOM     89  F   UNL A   1      48.095  27.508  35.117  1.00  0.00    -0.200 F 
ATOM     90  C   UNL A   1      46.577  25.808  35.732  1.00  0.00     0.200 A 
ATOM     91  F   UNL A   1      45.026  24.125  36.313  1.00  0.00    -0.200 F 
ATOM     92  F   UNL A   1      47.528  25.200  36.454  1.00  0.00    -0.200 F 
ENDBRANCH  59  82
ENDBRANCH  33  34
ENDBRANCH  26  28
ENDBRANCH  25  26
ENDBRANCH   1  25
TORSDOF 12
ENDMDL
MODEL 2
REMARK VINA RESULT:     -12.9      1.045      1.977
REMARK SMILES CCN1C(=O)c2ccccc2[S@@](=O)c2ccc(C(=O)OCCOC(=O)c3ccc(-c4c5nc(c(-c6c(F)c(F)c(F)c(F)c6F)c6ccc([nH]6)c(-c6c(F)c(F)c(F)c(F)c6F)c6nc(c(-c7c(F)c(F)c(F)c(F)c7F)c7ccc4[nH]7)C=C6)C=C5)cc3)cc21
REMARK SMILES IDX 22 1 21 2 20 3 18 4 19 5 17 6 3 7 4 8 90 9 5 10 6 11 14 12
REMARK SMILES IDX 89 13 7 14 11 15 12 16 15 17 8 18 10 19 13 20 16 21 9 22
REMARK SMILES IDX 2 23 1 24 23 25 24 26 25 27 26 28 27 29 88 30 28 31 87 32
REMARK SMILES IDX 29 33 30 34 31 35 81 36 32 37 86 38 80 39 82 40 33 41 85 42
REMARK SMILES IDX 79 43 78 44 34 46 66 47 46 48 65 49 47 50 50 51 64 52 83 53
REMARK SMILES IDX 48 54 49 55 63 57 84 58 51 59 35 60 36 61 44 62 37 63 38 64
REMARK SMILES IDX 42 65 45 66 39 67 40 68 43 69 41 70 67 71 68 72 76 73 69 74
REMARK SMILES IDX 70 75 74 76 77 77 71 78 72 79 75 80 73 81 52 82 53 83 61 84
REMARK SMILES IDX 54 85 55 86 59 87 62 88 56 89 57 90 60 91 58 92
REMARK H PARENT 82 45 50 56
REMARK Flexibility Score: inf
ROOT
ATOM      1  C   UNL A   1      31.658  29.796  26.042  1.00  0.00     0.275 C 
ENDROOT
BRANCH   1   2
ATOM      2  C   UNL A   1      31.100  29.839  24.618  1.00  0.00     0.275 C 
BRANCH   2   3
ATOM      3  O   UNL A   1      30.408  28.619  24.283  1.00  0.00    -0.458 OA
BRANCH   3   4
ATOM      4  C   UNL A   1      30.563  28.164  23.013  1.00  0.00     0.338 C 
ATOM      5  O   UNL A   1      30.152  28.694  22.001  1.00  0.00    -0.246 OA
BRANCH   4   6
ATOM      6  C   UNL A   1      31.392  26.923  22.988  1.00  0.00     0.062 A 
ATOM      7  N   UNL A   1      32.522  24.297  25.444  1.00  0.00    -0.307 N 
ATOM      8  C   UNL A   1      33.171  23.055  25.601  1.00  0.00     0.259 C 
ATOM      9  C   UNL A   1      32.446  25.019  24.181  1.00  0.00     0.061 A 
ATOM     10  O   UNL A   1      32.756  22.150  26.327  1.00  0.00    -0.269 OA
ATOM     11  C   UNL A   1      34.555  22.929  25.136  1.00  0.00     0.056 A 
ATOM     12  C   UNL A   1      32.859  24.523  22.917  1.00  0.00     0.068 A 
ATOM     13  C   UNL A   1      31.802  26.277  24.159  1.00  0.00     0.043 A 
ATOM     14  C   UNL A   1      35.529  22.668  26.113  1.00  0.00     0.015 A 
ATOM     15  C   UNL A   1      34.896  22.979  23.796  1.00  0.00     0.057 A 
ATOM     16  S   UNL A   1      33.654  22.953  22.524  1.00  0.00     0.088 S 
ATOM     17  C   UNL A   1      32.502  25.217  21.734  1.00  0.00     0.021 A 
ATOM     18  C   UNL A   1      36.864  22.512  25.750  1.00  0.00     0.001 A 
ATOM     19  C   UNL A   1      36.247  22.852  23.437  1.00  0.00     0.019 A 
ATOM     20  O   UNL A   1      32.657  21.909  22.919  1.00  0.00    -0.249 OA
ATOM     21  C   UNL A   1      31.719  26.362  21.764  1.00  0.00     0.017 A 
ATOM     22  C   UNL A   1      37.226  22.628  24.410  1.00  0.00     0.001 A 
BRANCH   7  23
ATOM     23  C   UNL A   1      31.573  24.558  26.550  1.00  0.00     0.122 C 
ATOM     24  C   UNL A   1      30.142  24.028  26.501  1.00  0.00     0.028 C 
ENDBRANCH   7  23
ENDBRANCH   4   6
ENDBRANCH   3   4
ENDBRANCH   2   3
ENDBRANCH   1   2
BRANCH   1  25
ATOM     25  O   UNL A   1      33.030  30.235  26.068  1.00  0.00    -0.458 OA
BRANCH  25  26
ATOM     26  C   UNL A   1      33.299  31.246  26.924  1.00  0.00     0.338 C 
ATOM     27  O   UNL A   1      32.554  32.145  27.279  1.00  0.00    -0.246 OA
BRANCH  26  28
ATOM     28  C   UNL A   1      34.601  30.997  27.556  1.00  0.00     0.060 A 
ATOM     29  C   UNL A   1      35.489  32.014  27.888  1.00  0.00     0.016 A 
ATOM     30  C   UNL A   1      34.888  29.679  27.896  1.00  0.00     0.016 A 
ATOM     31  C   UNL A   1      36.687  31.678  28.537  1.00  0.00     0.010 A 
ATOM     32  C   UNL A   1      36.054  29.346  28.568  1.00  0.00     0.010 A 
ATOM     33  C   UNL A   1      36.979  30.342  28.883  1.00  0.00    -0.014 A 
BRANCH  33  34
ATOM     34  C   UNL A   1      38.210  29.979  29.631  1.00  0.00     0.031 A 
ATOM     35  C   UNL A   1      38.462  30.496  31.022  1.00  0.00     0.074 A 
ATOM     36  C   UNL A   1      39.144  29.228  29.018  1.00  0.00     0.049 A 
ATOM     37  N   UNL A   1      39.456  30.230  31.834  1.00  0.00    -0.248 NA
ATOM     38  C   UNL A   1      37.497  31.469  31.561  1.00  0.00     0.031 C 
ATOM     39  C   UNL A   1      39.072  28.771  27.629  1.00  0.00     0.029 A 
ATOM     40  N   UNL A   1      40.324  28.703  29.480  1.00  0.00    -0.354 N 
ATOM     41  C   UNL A   1      39.231  30.993  32.973  1.00  0.00     0.074 A 
ATOM     42  C   UNL A   1      38.058  31.798  32.717  1.00  0.00     0.031 C 
ATOM     43  C   UNL A   1      40.115  27.967  27.378  1.00  0.00     0.029 A 
ATOM     44  C   UNL A   1      40.943  27.875  28.577  1.00  0.00     0.049 A 
ATOM     45  H   UNL A   1      40.690  28.902  30.373  1.00  0.00     0.167 HD
ATOM     46  C   UNL A   1      39.913  30.987  34.144  1.00  0.00     0.037 A 
ATOM     47  C   UNL A   1      42.036  27.101  28.713  1.00  0.00     0.037 A 
ATOM     48  C   UNL A   1      41.067  30.164  34.398  1.00  0.00     0.049 A 
ATOM     49  C   UNL A   1      42.758  27.079  30.030  1.00  0.00     0.074 A 
ATOM     50  C   UNL A   1      41.795  30.031  35.569  1.00  0.00     0.029 A 
ATOM     51  N   UNL A   1      41.662  29.330  33.462  1.00  0.00    -0.354 N 
ATOM     52  N   UNL A   1      42.480  27.726  31.135  1.00  0.00    -0.248 NA
ATOM     53  C   UNL A   1      43.943  26.216  30.121  1.00  0.00     0.031 C 
ATOM     54  C   UNL A   1      42.850  29.145  35.329  1.00  0.00     0.029 A 
ATOM     55  C   UNL A   1      42.754  28.689  34.024  1.00  0.00     0.049 A 
ATOM     56  H   UNL A   1      41.353  29.210  32.535  1.00  0.00     0.167 HD
ATOM     57  C   UNL A   1      43.440  27.337  32.058  1.00  0.00     0.074 A 
ATOM     58  C   UNL A   1      44.298  26.381  31.388  1.00  0.00     0.031 C 
ATOM     59  C   UNL A   1      43.598  27.740  33.342  1.00  0.00     0.037 A 
BRANCH  46  60
ATOM     60  C   UNL A   1      39.405  31.862  35.256  1.00  0.00     0.064 A 
ATOM     61  C   UNL A   1      38.554  31.352  36.251  1.00  0.00     0.173 A 
ATOM     62  C   UNL A   1      39.809  33.200  35.369  1.00  0.00     0.173 A 
ATOM     63  F   UNL A   1      38.135  30.078  36.192  1.00  0.00    -0.203 F 
ATOM     64  C   UNL A   1      38.102  32.155  37.295  1.00  0.00     0.198 A 
ATOM     65  C   UNL A   1      39.381  33.993  36.434  1.00  0.00     0.198 A 
ATOM     66  F   UNL A   1      40.631  33.739  34.457  1.00  0.00    -0.203 F 
ATOM     67  F   UNL A   1      37.252  31.656  38.202  1.00  0.00    -0.200 F 
ATOM     68  C   UNL A   1      38.522  33.472  37.389  1.00  0.00     0.200 A 
ATOM     69  F   UNL A   1      39.803  35.261  36.535  1.00  0.00    -0.200 F 
ATOM     70  F   UNL A   1      38.097  34.241  38.402  1.00  0.00    -0.200 F 
ENDBRANCH  46  60
BRANCH  47  71
ATOM     71  C   UNL A   1      42.435  26.207  27.596  1.00  0.00     0.064 A 
ATOM     72  C   UNL A   1      43.431  26.603  26.692  1.00  0.00     0.173 A 
ATOM     73  C   UNL A   1      41.888  24.925  27.445  1.00  0.00     0.173 A 
ATOM     74  F   UNL A   1      43.975  27.824  26.788  1.00  0.00    -0.203 F 
ATOM     75  C   UNL A   1      43.862  25.751  25.677  1.00  0.00     0.198 A 
ATOM     76  C   UNL A   1      42.338  24.064  26.447  1.00  0.00     0.198 A 
ATOM     77  F   UNL A   1      40.941  24.495  28.293  1.00  0.00    -0.203 F 
ATOM     78  F   UNL A   1      44.802  26.162  24.815  1.00  0.00    -0.200 F 
ATOM     79  C   UNL A   1      43.323  24.478  25.562  1.00  0.00     0.200 A 
ATOM     80  F   UNL A   1      41.829  22.828  26.351  1.00  0.00    -0.200 F 
ATOM     81  F   UNL A   1      43.754  23.651  24.601  1.00  0.00    -0.200 F 
ENDBRANCH  47  71
BRANCH  59  82
ATOM     82  C   UNL A   1      44.735  27.146  34.121  1.00  0.00     0.064 A 
ATOM     83  C   UNL A   1      44.596  25.929  34.803  1.00  0.00     0.173 A 
ATOM     84  C   UNL A   1      45.997  27.759  34.117  1.00  0.00     0.173 A 
ATOM     85  F   UNL A   1      43.406  25.312  34.847  1.00  0.00    -0.203 F 
ATOM     86  C   UNL A   1      45.677  25.354  35.465  1.00  0.00     0.198 A 
ATOM     87  C   UNL A   1      47.082  27.166  34.755  1.00  0.00     0.198 A 
ATOM     88  F   UNL A   1      46.183  28.921  33.471  1.00  0.00    -0.203 F 
ATOM     89  F   UNL A   1      45.514  24.207  36.138  1.00  0.00    -0.200 F 
ATOM     90  C   UNL A   1      46.921  25.966  35.431  1.00  0.00     0.200 A 
ATOM     91  F   UNL A   1      48.287  27.751  34.708  1.00  0.00    -0.200 F 
ATOM     92  F   UNL A   1      47.964  25.401  36.053  1.00  0.00    -0.200 F 
ENDBRANCH  59  82
ENDBRANCH  33  34
ENDBRANCH  26  28
ENDBRANCH  25  26
ENDBRANCH   1  25
TORSDOF 12
ENDMDL
MODEL 3
REMARK VINA RESULT:     -12.9      1.324      2.485
REMARK SMILES CCN1C(=O)c2ccccc2[S@@](=O)c2ccc(C(=O)OCCOC(=O)c3ccc(-c4c5nc(c(-c6c(F)c(F)c(F)c(F)c6F)c6ccc([nH]6)c(-c6c(F)c(F)c(F)c(F)c6F)c6nc(c(-c7c(F)c(F)c(F)c(F)c7F)c7ccc4[nH]7)C=C6)C=C5)cc3)cc21
REMARK SMILES IDX 22 1 21 2 20 3 18 4 19 5 17 6 3 7 4 8 90 9 5 10 6 11 14 12
REMARK SMILES IDX 89 13 7 14 11 15 12 16 15 17 8 18 10 19 13 20 16 21 9 22
REMARK SMILES IDX 2 23 1 24 23 25 24 26 25 27 26 28 27 29 88 30 28 31 87 32
REMARK SMILES IDX 29 33 30 34 31 35 81 36 32 37 86 38 80 39 82 40 33 41 85 42
REMARK SMILES IDX 79 43 78 44 34 46 66 47 46 48 65 49 47 50 50 51 64 52 83 53
REMARK SMILES IDX 48 54 49 55 63 57 84 58 51 59 35 60 36 61 44 62 37 63 38 64
REMARK SMILES IDX 42 65 45 66 39 67 40 68 43 69 41 70 67 71 68 72 76 73 69 74
REMARK SMILES IDX 70 75 74 76 77 77 71 78 72 79 75 80 73 81 52 82 53 83 61 84
REMARK SMILES IDX 54 85 55 86 59 87 62 88 56 89 57 90 60 91 58 92
REMARK H PARENT 82 45 50 56
REMARK Flexibility Score: inf
ROOT
ATOM      1  C   UNL A   1      32.253  29.870  25.233  1.00  0.00     0.275 C 
ENDROOT
BRANCH   1   2
ATOM      2  C   UNL A   1      33.166  28.874  24.514  1.00  0.00     0.275 C 
BRANCH   2   3
ATOM      3  O   UNL A   1      32.562  28.382  23.301  1.00  0.00    -0.458 OA
BRANCH   3   4
ATOM      4  C   UNL A   1      33.221  27.384  22.658  1.00  0.00     0.338 C 
ATOM      5  O   UNL A   1      34.027  27.514  21.759  1.00  0.00    -0.246 OA
BRANCH   4   6
ATOM      6  C   UNL A   1      32.887  26.055  23.248  1.00  0.00     0.062 A 
ATOM      7  N   UNL A   1      34.676  23.343  25.160  1.00  0.00    -0.307 N 
ATOM      8  C   UNL A   1      34.533  22.134  25.871  1.00  0.00     0.259 C 
ATOM      9  C   UNL A   1      33.593  23.991  24.431  1.00  0.00     0.061 A 
ATOM     10  O   UNL A   1      35.090  21.898  26.944  1.00  0.00    -0.269 OA
ATOM     11  C   UNL A   1      33.952  20.983  25.175  1.00  0.00     0.056 A 
ATOM     12  C   UNL A   1      32.229  23.601  24.459  1.00  0.00     0.068 A 
ATOM     13  C   UNL A   1      33.871  25.181  23.722  1.00  0.00     0.043 A 
ATOM     14  C   UNL A   1      34.783  19.864  25.001  1.00  0.00     0.015 A 
ATOM     15  C   UNL A   1      32.628  20.947  24.775  1.00  0.00     0.057 A 
ATOM     16  S   UNL A   1      31.471  22.193  25.292  1.00  0.00     0.088 S 
ATOM     17  C   UNL A   1      31.238  24.457  23.913  1.00  0.00     0.021 A 
ATOM     18  C   UNL A   1      34.300  18.722  24.370  1.00  0.00     0.001 A 
ATOM     19  C   UNL A   1      32.153  19.805  24.111  1.00  0.00     0.019 A 
ATOM     20  O   UNL A   1      31.720  22.431  26.749  1.00  0.00    -0.249 OA
ATOM     21  C   UNL A   1      31.555  25.697  23.380  1.00  0.00     0.017 A 
ATOM     22  C   UNL A   1      32.988  18.701  23.904  1.00  0.00     0.001 A 
BRANCH   7  23
ATOM     23  C   UNL A   1      35.879  24.091  25.595  1.00  0.00     0.122 C 
ATOM     24  C   UNL A   1      37.274  23.662  25.150  1.00  0.00     0.028 C 
ENDBRANCH   7  23
ENDBRANCH   4   6
ENDBRANCH   3   4
ENDBRANCH   2   3
ENDBRANCH   1   2
BRANCH   1  25
ATOM     25  O   UNL A   1      32.609  29.979  26.625  1.00  0.00    -0.458 OA
BRANCH  25  26
ATOM     26  C   UNL A   1      33.128  31.170  26.999  1.00  0.00     0.338 C 
ATOM     27  O   UNL A   1      32.576  32.258  27.008  1.00  0.00    -0.246 OA
BRANCH  26  28
ATOM     28  C   UNL A   1      34.443  30.940  27.610  1.00  0.00     0.060 A 
ATOM     29  C   UNL A   1      35.344  31.965  27.875  1.00  0.00     0.016 A 
ATOM     30  C   UNL A   1      34.731  29.636  28.001  1.00  0.00     0.016 A 
ATOM     31  C   UNL A   1      36.555  31.651  28.510  1.00  0.00     0.010 A 
ATOM     32  C   UNL A   1      35.911  29.326  28.660  1.00  0.00     0.010 A 
ATOM     33  C   UNL A   1      36.848  30.329  28.909  1.00  0.00    -0.014 A 
BRANCH  33  34
ATOM     34  C   UNL A   1      38.095  29.992  29.643  1.00  0.00     0.031 A 
ATOM     35  C   UNL A   1      38.350  30.511  31.033  1.00  0.00     0.074 A 
ATOM     36  C   UNL A   1      39.039  29.263  29.018  1.00  0.00     0.049 A 
ATOM     37  N   UNL A   1      39.358  30.265  31.834  1.00  0.00    -0.248 NA
ATOM     38  C   UNL A   1      37.370  31.460  31.584  1.00  0.00     0.031 C 
ATOM     39  C   UNL A   1      38.963  28.808  27.629  1.00  0.00     0.029 A 
ATOM     40  N   UNL A   1      40.235  28.764  29.467  1.00  0.00    -0.354 N 
ATOM     41  C   UNL A   1      39.128  31.020  32.977  1.00  0.00     0.074 A 
ATOM     42  C   UNL A   1      37.935  31.799  32.735  1.00  0.00     0.031 C 
ATOM     43  C   UNL A   1      40.021  28.028  27.365  1.00  0.00     0.029 A 
ATOM     44  C   UNL A   1      40.863  27.951  28.555  1.00  0.00     0.049 A 
ATOM     45  H   UNL A   1      40.606  28.968  30.356  1.00  0.00     0.167 HD
ATOM     46  C   UNL A   1      39.823  31.026  34.141  1.00  0.00     0.037 A 
ATOM     47  C   UNL A   1      41.974  27.201  28.677  1.00  0.00     0.037 A 
ATOM     48  C   UNL A   1      40.997  30.228  34.381  1.00  0.00     0.049 A 
ATOM     49  C   UNL A   1      42.710  27.192  29.987  1.00  0.00     0.074 A 
ATOM     50  C   UNL A   1      41.739  30.108  35.543  1.00  0.00     0.029 A 
ATOM     51  N   UNL A   1      41.600  29.410  33.436  1.00  0.00    -0.354 N 
ATOM     52  N   UNL A   1      42.429  27.830  31.096  1.00  0.00    -0.248 NA
ATOM     53  C   UNL A   1      43.915  26.355  30.063  1.00  0.00     0.031 C 
ATOM     54  C   UNL A   1      42.812  29.247  35.291  1.00  0.00     0.029 A 
ATOM     55  C   UNL A   1      42.712  28.792  33.985  1.00  0.00     0.049 A 
ATOM     56  H   UNL A   1      41.284  29.286  32.512  1.00  0.00     0.167 HD
ATOM     57  C   UNL A   1      43.407  27.460  32.009  1.00  0.00     0.074 A 
ATOM     58  C   UNL A   1      44.280  26.525  31.327  1.00  0.00     0.031 C 
ATOM     59  C   UNL A   1      43.569  27.863  33.292  1.00  0.00     0.037 A 
BRANCH  46  60
ATOM     60  C   UNL A   1      39.306  31.887  35.261  1.00  0.00     0.064 A 
ATOM     61  C   UNL A   1      38.463  31.359  36.253  1.00  0.00     0.173 A 
ATOM     62  C   UNL A   1      39.696  33.229  35.383  1.00  0.00     0.173 A 
ATOM     63  F   UNL A   1      38.059  30.082  36.186  1.00  0.00    -0.203 F 
ATOM     64  C   UNL A   1      38.005  32.150  37.304  1.00  0.00     0.198 A 
ATOM     65  C   UNL A   1      39.261  34.009  36.454  1.00  0.00     0.198 A 
ATOM     66  F   UNL A   1      40.509  33.784  34.472  1.00  0.00    -0.203 F 
ATOM     67  F   UNL A   1      37.162  31.634  38.208  1.00  0.00    -0.200 F 
ATOM     68  C   UNL A   1      38.409  33.470  37.407  1.00  0.00     0.200 A 
ATOM     69  F   UNL A   1      39.668  35.280  36.564  1.00  0.00    -0.200 F 
ATOM     70  F   UNL A   1      37.978  34.227  38.426  1.00  0.00    -0.200 F 
ENDBRANCH  46  60
BRANCH  47  71
ATOM     71  C   UNL A   1      42.381  26.319  27.554  1.00  0.00     0.064 A 
ATOM     72  C   UNL A   1      43.392  26.719  26.669  1.00  0.00     0.173 A 
ATOM     73  C   UNL A   1      41.826  25.043  27.379  1.00  0.00     0.173 A 
ATOM     74  F   UNL A   1      43.945  27.934  26.789  1.00  0.00    -0.203 F 
ATOM     75  C   UNL A   1      43.830  25.877  25.649  1.00  0.00     0.198 A 
ATOM     76  C   UNL A   1      42.283  24.193  26.375  1.00  0.00     0.198 A 
ATOM     77  F   UNL A   1      40.865  24.610  28.208  1.00  0.00    -0.203 F 
ATOM     78  F   UNL A   1      44.785  26.292  24.805  1.00  0.00    -0.200 F 
ATOM     79  C   UNL A   1      43.283  24.611  25.509  1.00  0.00     0.200 A 
ATOM     80  F   UNL A   1      41.766  22.962  26.255  1.00  0.00    -0.200 F 
ATOM     81  F   UNL A   1      43.721  23.793  24.543  1.00  0.00    -0.200 F 
ENDBRANCH  47  71
BRANCH  59  82
ATOM     82  C   UNL A   1      44.727  27.293  34.057  1.00  0.00     0.064 A 
ATOM     83  C   UNL A   1      44.641  26.045  34.690  1.00  0.00     0.173 A 
ATOM     84  C   UNL A   1      45.959  27.964  34.090  1.00  0.00     0.173 A 
ATOM     85  F   UNL A   1      43.481  25.371  34.698  1.00  0.00    -0.203 F 
ATOM     86  C   UNL A   1      45.743  25.495  35.339  1.00  0.00     0.198 A 
ATOM     87  C   UNL A   1      47.067  27.398  34.714  1.00  0.00     0.198 A 
ATOM     88  F   UNL A   1      46.095  29.158  33.491  1.00  0.00    -0.203 F 
ATOM     89  F   UNL A   1      45.629  24.315  35.965  1.00  0.00    -0.200 F 
ATOM     90  C   UNL A   1      46.957  26.166  35.340  1.00  0.00     0.200 A 
ATOM     91  F   UNL A   1      48.243  28.039  34.701  1.00  0.00    -0.200 F 
ATOM     92  F   UNL A   1      48.021  25.625  35.949  1.00  0.00    -0.200 F 
ENDBRANCH  59  82
ENDBRANCH  33  34
ENDBRANCH  26  28
ENDBRANCH  25  26
ENDBRANCH   1  25
TORSDOF 12
ENDMDL
