MODEL 1
REMARK VINA RESULT:     -12.1      0.000      0.000
REMARK SMILES Cc1ccc(NS(=O)(=O)c2cc(C(=O)OCCOC(=O)c3ccc(-c4c5nc(c(-c6c(F)c(F)c(F)c(F)c6F)c6ccc([nH]6)c(-c6c(F)c(F)c(F)c(F)c6F)c6nc(c(-c7c(F)c(F)c(F)c(F)c7F)c7ccc4[nH]7)C=C6)C=C5)cc3)ccc2Cl)nc1
REMARK SMILES IDX 16 1 15 2 13 3 14 4 12 5 10 6 11 7 86 8 85 9 87 10 84 11
REMARK SMILES IDX 7 12 8 13 9 14 6 15 5 17 1 18 2 19 3 20 89 21 4 22 88 23
REMARK SMILES IDX 17 24 18 25 19 26 20 27 21 28 22 29 83 30 23 31 82 32 24 33
REMARK SMILES IDX 25 34 26 35 76 36 27 37 81 38 75 39 77 40 28 41 80 42 74 43
REMARK SMILES IDX 73 44 29 46 61 47 41 48 60 49 42 50 45 51 59 52 78 53 43 54
REMARK SMILES IDX 44 55 58 57 79 58 46 59 30 60 31 61 39 62 32 63 33 64 37 65
REMARK SMILES IDX 40 66 34 67 35 68 38 69 36 70 62 71 63 72 71 73 64 74 65 75
REMARK SMILES IDX 69 76 72 77 66 78 67 79 70 80 68 81 47 82 48 83 56 84 49 85
REMARK SMILES IDX 50 86 54 87 57 88 51 89 52 90 55 91 53 92
REMARK H PARENT 6 16 77 45 45 56
REMARK Flexibility Score: inf
ROOT
ATOM      1  C   UNL A   1      31.734  29.729  24.681  1.00  0.00     0.275 C 
ENDROOT
BRANCH   1   2
ATOM      2  O   UNL A   1      33.145  29.486  24.488  1.00  0.00    -0.458 OA
BRANCH   2   3
ATOM      3  C   UNL A   1      33.411  28.508  23.597  1.00  0.00     0.338 C 
ATOM      4  O   UNL A   1      33.423  28.610  22.380  1.00  0.00    -0.246 OA
BRANCH   3   5
ATOM      5  C   UNL A   1      33.645  27.195  24.227  1.00  0.00     0.061 A 
ATOM      6  C   UNL A   1      33.112  24.824  24.043  1.00  0.00     0.107 A 
ATOM      7  C   UNL A   1      33.473  26.046  23.452  1.00  0.00     0.039 A 
ATOM      8  C   UNL A   1      32.951  24.765  25.426  1.00  0.00     0.061 A 
ATOM      9  C   UNL A   1      33.308  25.881  26.208  1.00  0.00     0.023 A 
ATOM     10  Cl  UNL A   1      32.195  23.466  26.272  1.00  0.00    -0.083 Cl
ATOM     11  C   UNL A   1      33.642  27.102  25.614  1.00  0.00     0.017 A 
BRANCH   6  12
ATOM     12  S   UNL A   1      32.812  23.498  22.898  1.00  0.00     0.264 S 
ATOM     13  O   UNL A   1      33.206  23.967  21.584  1.00  0.00    -0.201 OA
ATOM     14  O   UNL A   1      31.434  23.099  23.125  1.00  0.00    -0.201 OA
BRANCH  12  15
ATOM     15  N   UNL A   1      33.720  22.159  23.255  1.00  0.00    -0.263 N 
ATOM     16  H   UNL A   1      33.357  21.273  23.027  1.00  0.00     0.182 HD
BRANCH  15  17
ATOM     17  C   UNL A   1      34.983  22.228  23.865  1.00  0.00     0.139 A 
ATOM     18  C   UNL A   1      38.156  23.748  26.165  1.00  0.00     0.046 C 
ATOM     19  C   UNL A   1      37.121  23.051  25.341  1.00  0.00    -0.033 A 
ATOM     20  C   UNL A   1      36.171  22.215  25.927  1.00  0.00     0.009 A 
ATOM     21  C   UNL A   1      36.985  23.328  23.986  1.00  0.00     0.117 A 
ATOM     22  C   UNL A   1      35.091  21.775  25.172  1.00  0.00     0.048 A 
ATOM     23  N   UNL A   1      35.938  22.925  23.234  1.00  0.00    -0.238 NA
ENDBRANCH  15  17
ENDBRANCH  12  15
ENDBRANCH   6  12
ENDBRANCH   3   5
ENDBRANCH   2   3
ENDBRANCH   1   2
BRANCH   1  24
ATOM     24  C   UNL A   1      31.449  30.684  25.842  1.00  0.00     0.275 C 
BRANCH  24  25
ATOM     25  O   UNL A   1      32.394  30.512  26.915  1.00  0.00    -0.458 OA
BRANCH  25  26
ATOM     26  C   UNL A   1      33.085  31.623  27.251  1.00  0.00     0.338 C 
ATOM     27  O   UNL A   1      32.682  32.778  27.237  1.00  0.00    -0.246 OA
BRANCH  26  28
ATOM     28  C   UNL A   1      34.440  31.281  27.703  1.00  0.00     0.060 A 
ATOM     29  C   UNL A   1      34.731  29.953  27.998  1.00  0.00     0.016 A 
ATOM     30  C   UNL A   1      35.344  32.286  28.045  1.00  0.00     0.016 A 
ATOM     31  C   UNL A   1      35.847  29.635  28.762  1.00  0.00     0.010 A 
ATOM     32  C   UNL A   1      36.535  31.946  28.698  1.00  0.00     0.010 A 
ATOM     33  C   UNL A   1      36.779  30.622  29.108  1.00  0.00    -0.014 A 
BRANCH  33  34
ATOM     34  C   UNL A   1      37.980  30.267  29.915  1.00  0.00     0.031 A 
ATOM     35  C   UNL A   1      39.069  29.409  29.328  1.00  0.00     0.074 A 
ATOM     36  C   UNL A   1      38.113  30.729  31.175  1.00  0.00     0.049 A 
ATOM     37  N   UNL A   1      40.088  28.837  29.921  1.00  0.00    -0.248 NA
ATOM     38  C   UNL A   1      38.992  29.141  27.884  1.00  0.00     0.031 C 
ATOM     39  C   UNL A   1      37.165  31.612  31.856  1.00  0.00     0.029 A 
ATOM     40  N   UNL A   1      39.104  30.531  32.104  1.00  0.00    -0.354 N 
ATOM     41  C   UNL A   1      40.731  28.093  28.940  1.00  0.00     0.074 A 
ATOM     42  C   UNL A   1      39.986  28.282  27.713  1.00  0.00     0.031 C 
ATOM     43  C   UNL A   1      37.642  31.919  33.071  1.00  0.00     0.029 A 
ATOM     44  C   UNL A   1      38.876  31.177  33.294  1.00  0.00     0.049 A 
ATOM     45  H   UNL A   1      39.902  29.980  31.933  1.00  0.00     0.167 HD
ATOM     46  C   UNL A   1      41.839  27.320  29.058  1.00  0.00     0.037 A 
ATOM     47  C   UNL A   1      39.556  31.143  34.457  1.00  0.00     0.037 A 
ATOM     48  C   UNL A   1      42.618  27.197  30.263  1.00  0.00     0.049 A 
ATOM     49  C   UNL A   1      40.773  30.273  34.567  1.00  0.00     0.074 A 
ATOM     50  C   UNL A   1      43.771  26.461  30.478  1.00  0.00     0.029 A 
ATOM     51  N   UNL A   1      42.335  27.849  31.456  1.00  0.00    -0.354 N 
ATOM     52  N   UNL A   1      41.333  29.515  33.656  1.00  0.00    -0.248 NA
ATOM     53  C   UNL A   1      41.441  30.235  35.874  1.00  0.00     0.031 C 
ATOM     54  C   UNL A   1      44.164  26.638  31.808  1.00  0.00     0.029 A 
ATOM     55  C   UNL A   1      43.282  27.520  32.413  1.00  0.00     0.049 A 
ATOM     56  H   UNL A   1      41.572  28.454  31.601  1.00  0.00     0.167 HD
ATOM     57  C   UNL A   1      42.419  28.916  34.273  1.00  0.00     0.074 A 
ATOM     58  C   UNL A   1      42.456  29.417  35.633  1.00  0.00     0.031 C 
ATOM     59  C   UNL A   1      43.303  28.025  33.762  1.00  0.00     0.037 A 
BRANCH  46  60
ATOM     60  C   UNL A   1      42.253  26.513  27.861  1.00  0.00     0.064 A 
ATOM     61  C   UNL A   1      43.246  26.947  26.971  1.00  0.00     0.173 A 
ATOM     62  C   UNL A   1      41.659  25.263  27.619  1.00  0.00     0.173 A 
ATOM     63  F   UNL A   1      43.842  28.135  27.152  1.00  0.00    -0.203 F 
ATOM     64  C   UNL A   1      43.605  26.177  25.866  1.00  0.00     0.198 A 
ATOM     65  C   UNL A   1      42.042  24.483  26.530  1.00  0.00     0.198 A 
ATOM     66  F   UNL A   1      40.712  24.793  28.444  1.00  0.00    -0.203 F 
ATOM     67  F   UNL A   1      44.521  26.634  25.001  1.00  0.00    -0.200 F 
ATOM     68  C   UNL A   1      43.007  24.945  25.649  1.00  0.00     0.200 A 
ATOM     69  F   UNL A   1      41.473  23.285  26.334  1.00  0.00    -0.200 F 
ATOM     70  F   UNL A   1      43.357  24.203  24.590  1.00  0.00    -0.200 F 
ENDBRANCH  46  60
BRANCH  47  71
ATOM     71  C   UNL A   1      39.062  31.932  35.615  1.00  0.00     0.064 A 
ATOM     72  C   UNL A   1      38.237  31.350  36.586  1.00  0.00     0.173 A 
ATOM     73  C   UNL A   1      39.434  33.274  35.792  1.00  0.00     0.173 A 
ATOM     74  F   UNL A   1      37.831  30.080  36.445  1.00  0.00    -0.203 F 
ATOM     75  C   UNL A   1      37.803  32.079  37.691  1.00  0.00     0.198 A 
ATOM     76  C   UNL A   1      39.025  33.993  36.913  1.00  0.00     0.198 A 
ATOM     77  F   UNL A   1      40.221  33.879  34.889  1.00  0.00    -0.203 F 
ATOM     78  F   UNL A   1      36.989  31.510  38.589  1.00  0.00    -0.200 F 
ATOM     79  C   UNL A   1      38.207  33.396  37.859  1.00  0.00     0.200 A 
ATOM     80  F   UNL A   1      39.431  35.259  37.078  1.00  0.00    -0.200 F 
ATOM     81  F   UNL A   1      37.802  34.091  38.931  1.00  0.00    -0.200 F 
ENDBRANCH  47  71
BRANCH  59  82
ATOM     82  C   UNL A   1      44.397  27.554  34.672  1.00  0.00     0.064 A 
ATOM     83  C   UNL A   1      44.256  26.395  35.450  1.00  0.00     0.173 A 
ATOM     84  C   UNL A   1      45.610  28.254  34.747  1.00  0.00     0.173 A 
ATOM     85  F   UNL A   1      43.108  25.702  35.425  1.00  0.00    -0.203 F 
ATOM     86  C   UNL A   1      45.281  25.968  36.289  1.00  0.00     0.198 A 
ATOM     87  C   UNL A   1      46.643  27.810  35.567  1.00  0.00     0.198 A 
ATOM     88  F   UNL A   1      45.795  29.366  34.020  1.00  0.00    -0.203 F 
ATOM     89  F   UNL A   1      45.109  24.884  37.058  1.00  0.00    -0.200 F 
ATOM     90  C   UNL A   1      46.475  26.672  36.342  1.00  0.00     0.200 A 
ATOM     91  F   UNL A   1      47.799  28.486  35.612  1.00  0.00    -0.200 F 
ATOM     92  F   UNL A   1      47.463  26.258  37.148  1.00  0.00    -0.200 F 
ENDBRANCH  59  82
ENDBRANCH  33  34
ENDBRANCH  26  28
ENDBRANCH  25  26
ENDBRANCH  24  25
ENDBRANCH   1  24
TORSDOF 14
ENDMDL
MODEL 2
REMARK VINA RESULT:     -12.1      1.336      2.022
REMARK SMILES Cc1ccc(NS(=O)(=O)c2cc(C(=O)OCCOC(=O)c3ccc(-c4c5nc(c(-c6c(F)c(F)c(F)c(F)c6F)c6ccc([nH]6)c(-c6c(F)c(F)c(F)c(F)c6F)c6nc(c(-c7c(F)c(F)c(F)c(F)c7F)c7ccc4[nH]7)C=C6)C=C5)cc3)ccc2Cl)nc1
REMARK SMILES IDX 16 1 15 2 13 3 14 4 12 5 10 6 11 7 86 8 85 9 87 10 84 11
REMARK SMILES IDX 7 12 8 13 9 14 6 15 5 17 1 18 2 19 3 20 89 21 4 22 88 23
REMARK SMILES IDX 17 24 18 25 19 26 20 27 21 28 22 29 83 30 23 31 82 32 24 33
REMARK SMILES IDX 25 34 26 35 76 36 27 37 81 38 75 39 77 40 28 41 80 42 74 43
REMARK SMILES IDX 73 44 29 46 61 47 41 48 60 49 42 50 45 51 59 52 78 53 43 54
REMARK SMILES IDX 44 55 58 57 79 58 46 59 30 60 31 61 39 62 32 63 33 64 37 65
REMARK SMILES IDX 40 66 34 67 35 68 38 69 36 70 62 71 63 72 71 73 64 74 65 75
REMARK SMILES IDX 69 76 72 77 66 78 67 79 70 80 68 81 47 82 48 83 56 84 49 85
REMARK SMILES IDX 50 86 54 87 57 88 51 89 52 90 55 91 53 92
REMARK H PARENT 6 16 77 45 45 56
REMARK Flexibility Score: inf
ROOT
ATOM      1  C   UNL A   1      32.361  29.128  25.129  1.00  0.00     0.275 C 
ENDROOT
BRANCH   1   2
ATOM      2  O   UNL A   1      31.425  28.054  25.368  1.00  0.00    -0.458 OA
BRANCH   2   3
ATOM      3  C   UNL A   1      30.626  27.785  24.314  1.00  0.00     0.338 C 
ATOM      4  O   UNL A   1      29.954  28.585  23.683  1.00  0.00    -0.246 OA
BRANCH   3   5
ATOM      5  C   UNL A   1      30.563  26.349  23.984  1.00  0.00     0.061 A 
ATOM      6  C   UNL A   1      31.032  24.126  24.869  1.00  0.00     0.107 A 
ATOM      7  C   UNL A   1      30.529  25.428  25.034  1.00  0.00     0.039 A 
ATOM      8  C   UNL A   1      31.545  23.754  23.628  1.00  0.00     0.061 A 
ATOM      9  C   UNL A   1      31.403  24.630  22.534  1.00  0.00     0.023 A 
ATOM     10  Cl  UNL A   1      32.496  22.343  23.342  1.00  0.00    -0.083 Cl
ATOM     11  C   UNL A   1      30.925  25.932  22.709  1.00  0.00     0.017 A 
BRANCH   6  12
ATOM     12  S   UNL A   1      31.026  23.129  26.340  1.00  0.00     0.264 S 
ATOM     13  O   UNL A   1      30.907  21.746  25.921  1.00  0.00    -0.201 OA
ATOM     14  O   UNL A   1      29.999  23.703  27.190  1.00  0.00    -0.201 OA
BRANCH  12  15
ATOM     15  N   UNL A   1      32.438  23.282  27.193  1.00  0.00    -0.263 N 
ATOM     16  H   UNL A   1      32.386  23.381  28.171  1.00  0.00     0.182 HD
BRANCH  15  17
ATOM     17  C   UNL A   1      33.706  23.277  26.589  1.00  0.00     0.139 A 
ATOM     18  C   UNL A   1      36.618  22.951  23.576  1.00  0.00     0.046 C 
ATOM     19  C   UNL A   1      35.715  23.132  24.753  1.00  0.00    -0.033 A 
ATOM     20  C   UNL A   1      35.154  24.374  25.051  1.00  0.00     0.009 A 
ATOM     21  C   UNL A   1      35.295  22.040  25.503  1.00  0.00     0.117 A 
ATOM     22  C   UNL A   1      34.143  24.455  26.002  1.00  0.00     0.048 A 
ATOM     23  N   UNL A   1      34.306  22.090  26.422  1.00  0.00    -0.238 NA
ENDBRANCH  15  17
ENDBRANCH  12  15
ENDBRANCH   6  12
ENDBRANCH   3   5
ENDBRANCH   2   3
ENDBRANCH   1   2
BRANCH   1  24
ATOM     24  C   UNL A   1      31.917  30.452  25.754  1.00  0.00     0.275 C 
BRANCH  24  25
ATOM     25  O   UNL A   1      32.414  30.598  27.099  1.00  0.00    -0.458 OA
BRANCH  25  26
ATOM     26  C   UNL A   1      33.164  31.700  27.314  1.00  0.00     0.338 C 
ATOM     27  O   UNL A   1      32.812  32.867  27.213  1.00  0.00    -0.246 OA
BRANCH  26  28
ATOM     28  C   UNL A   1      34.519  31.336  27.749  1.00  0.00     0.060 A 
ATOM     29  C   UNL A   1      34.779  30.012  28.086  1.00  0.00     0.016 A 
ATOM     30  C   UNL A   1      35.457  32.326  28.036  1.00  0.00     0.016 A 
ATOM     31  C   UNL A   1      35.903  29.689  28.837  1.00  0.00     0.010 A 
ATOM     32  C   UNL A   1      36.653  31.976  28.675  1.00  0.00     0.010 A 
ATOM     33  C   UNL A   1      36.869  30.660  29.127  1.00  0.00    -0.014 A 
BRANCH  33  34
ATOM     34  C   UNL A   1      38.078  30.300  29.921  1.00  0.00     0.031 A 
ATOM     35  C   UNL A   1      39.136  29.403  29.337  1.00  0.00     0.074 A 
ATOM     36  C   UNL A   1      38.243  30.792  31.166  1.00  0.00     0.049 A 
ATOM     37  N   UNL A   1      40.154  28.824  29.926  1.00  0.00    -0.248 NA
ATOM     38  C   UNL A   1      39.026  29.100  27.902  1.00  0.00     0.031 C 
ATOM     39  C   UNL A   1      37.329  31.712  31.841  1.00  0.00     0.029 A 
ATOM     40  N   UNL A   1      39.248  30.596  32.082  1.00  0.00    -0.354 N 
ATOM     41  C   UNL A   1      40.761  28.041  28.953  1.00  0.00     0.074 A 
ATOM     42  C   UNL A   1      39.998  28.215  27.736  1.00  0.00     0.031 C 
ATOM     43  C   UNL A   1      37.835  32.040  33.038  1.00  0.00     0.029 A 
ATOM     44  C   UNL A   1      39.057  31.276  33.259  1.00  0.00     0.049 A 
ATOM     45  H   UNL A   1      40.030  30.023  31.911  1.00  0.00     0.167 HD
ATOM     46  C   UNL A   1      41.855  27.248  29.071  1.00  0.00     0.037 A 
ATOM     47  C   UNL A   1      39.757  31.258  34.409  1.00  0.00     0.037 A 
ATOM     48  C   UNL A   1      42.654  27.139  30.265  1.00  0.00     0.049 A 
ATOM     49  C   UNL A   1      40.957  30.364  34.519  1.00  0.00     0.074 A 
ATOM     50  C   UNL A   1      43.795  26.383  30.477  1.00  0.00     0.029 A 
ATOM     51  N   UNL A   1      42.407  27.827  31.445  1.00  0.00    -0.354 N 
ATOM     52  N   UNL A   1      41.483  29.571  33.619  1.00  0.00    -0.248 NA
ATOM     53  C   UNL A   1      41.649  30.346  35.815  1.00  0.00     0.031 C 
ATOM     54  C   UNL A   1      44.217  26.586  31.795  1.00  0.00     0.029 A 
ATOM     55  C   UNL A   1      43.365  27.502  32.392  1.00  0.00     0.049 A 
ATOM     56  H   UNL A   1      41.661  28.452  31.588  1.00  0.00     0.167 HD
ATOM     57  C   UNL A   1      42.568  28.964  34.231  1.00  0.00     0.074 A 
ATOM     58  C   UNL A   1      42.641  29.499  35.577  1.00  0.00     0.031 C 
ATOM     59  C   UNL A   1      43.422  28.041  33.727  1.00  0.00     0.037 A 
BRANCH  46  60
ATOM     60  C   UNL A   1      42.229  26.401  27.888  1.00  0.00     0.064 A 
ATOM     61  C   UNL A   1      41.621  25.165  27.628  1.00  0.00     0.173 A 
ATOM     62  C   UNL A   1      43.200  26.856  26.980  1.00  0.00     0.173 A 
ATOM     63  F   UNL A   1      40.692  24.680  28.467  1.00  0.00    -0.203 F 
ATOM     64  C   UNL A   1      41.993  24.400  26.525  1.00  0.00     0.198 A 
ATOM     65  C   UNL A   1      43.548  26.101  25.862  1.00  0.00     0.198 A 
ATOM     66  F   UNL A   1      43.806  28.037  27.172  1.00  0.00    -0.203 F 
ATOM     67  F   UNL A   1      41.435  23.198  26.325  1.00  0.00    -0.200 F 
ATOM     68  C   UNL A   1      42.953  24.870  25.640  1.00  0.00     0.200 A 
ATOM     69  F   UNL A   1      44.463  26.568  25.000  1.00  0.00    -0.200 F 
ATOM     70  F   UNL A   1      43.305  24.136  24.577  1.00  0.00    -0.200 F 
ENDBRANCH  46  60
BRANCH  47  71
ATOM     71  C   UNL A   1      39.303  32.088  35.555  1.00  0.00     0.064 A 
ATOM     72  C   UNL A   1      38.428  31.570  36.518  1.00  0.00     0.173 A 
ATOM     73  C   UNL A   1      39.762  33.403  35.728  1.00  0.00     0.173 A 
ATOM     74  F   UNL A   1      37.939  30.328  36.381  1.00  0.00    -0.203 F 
ATOM     75  C   UNL A   1      38.029  32.335  37.612  1.00  0.00     0.198 A 
ATOM     76  C   UNL A   1      39.387  34.156  36.838  1.00  0.00     0.198 A 
ATOM     77  F   UNL A   1      40.599  33.946  34.832  1.00  0.00    -0.203 F 
ATOM     78  F   UNL A   1      37.167  31.828  38.503  1.00  0.00    -0.200 F 
ATOM     79  C   UNL A   1      38.518  33.622  37.778  1.00  0.00     0.200 A 
ATOM     80  F   UNL A   1      39.875  35.393  37.000  1.00  0.00    -0.200 F 
ATOM     81  F   UNL A   1      38.147  34.352  38.838  1.00  0.00    -0.200 F 
ENDBRANCH  47  71
BRANCH  59  82
ATOM     82  C   UNL A   1      44.523  27.569  34.629  1.00  0.00     0.064 A 
ATOM     83  C   UNL A   1      44.372  26.435  35.439  1.00  0.00     0.173 A 
ATOM     84  C   UNL A   1      45.752  28.245  34.665  1.00  0.00     0.173 A 
ATOM     85  F   UNL A   1      43.210  25.765  35.453  1.00  0.00    -0.203 F 
ATOM     86  C   UNL A   1      45.403  26.007  36.269  1.00  0.00     0.198 A 
ATOM     87  C   UNL A   1      46.790  27.800  35.477  1.00  0.00     0.198 A 
ATOM     88  F   UNL A   1      45.947  29.335  33.906  1.00  0.00    -0.203 F 
ATOM     89  F   UNL A   1      45.223  24.946  37.069  1.00  0.00    -0.200 F 
ATOM     90  C   UNL A   1      46.613  26.686  36.283  1.00  0.00     0.200 A 
ATOM     91  F   UNL A   1      47.961  28.452  35.483  1.00  0.00    -0.200 F 
ATOM     92  F   UNL A   1      47.607  26.271  37.082  1.00  0.00    -0.200 F 
ENDBRANCH  59  82
ENDBRANCH  33  34
ENDBRANCH  26  28
ENDBRANCH  25  26
ENDBRANCH  24  25
ENDBRANCH   1  24
TORSDOF 14
ENDMDL
MODEL 3
REMARK VINA RESULT:     -12.0      4.422      9.671
REMARK SMILES Cc1ccc(NS(=O)(=O)c2cc(C(=O)OCCOC(=O)c3ccc(-c4c5nc(c(-c6c(F)c(F)c(F)c(F)c6F)c6ccc([nH]6)c(-c6c(F)c(F)c(F)c(F)c6F)c6nc(c(-c7c(F)c(F)c(F)c(F)c7F)c7ccc4[nH]7)C=C6)C=C5)cc3)ccc2Cl)nc1
REMARK SMILES IDX 16 1 15 2 13 3 14 4 12 5 10 6 11 7 86 8 85 9 87 10 84 11
REMARK SMILES IDX 7 12 8 13 9 14 6 15 5 17 1 18 2 19 3 20 89 21 4 22 88 23
REMARK SMILES IDX 17 24 18 25 19 26 20 27 21 28 22 29 83 30 23 31 82 32 24 33
REMARK SMILES IDX 25 34 26 35 76 36 27 37 81 38 75 39 77 40 28 41 80 42 74 43
REMARK SMILES IDX 73 44 29 46 61 47 41 48 60 49 42 50 45 51 59 52 78 53 43 54
REMARK SMILES IDX 44 55 58 57 79 58 46 59 30 60 31 61 39 62 32 63 33 64 37 65
REMARK SMILES IDX 40 66 34 67 35 68 38 69 36 70 62 71 63 72 71 73 64 74 65 75
REMARK SMILES IDX 69 76 72 77 66 78 67 79 70 80 68 81 47 82 48 83 56 84 49 85
REMARK SMILES IDX 50 86 54 87 57 88 51 89 52 90 55 91 53 92
REMARK H PARENT 6 16 77 45 45 56
REMARK Flexibility Score: inf
ROOT
ATOM      1  C   UNL A   1      35.571  20.606  24.999  1.00  0.00     0.275 C 
ENDROOT
BRANCH   1   2
ATOM      2  O   UNL A   1      35.124  21.759  24.251  1.00  0.00    -0.458 OA
BRANCH   2   3
ATOM      3  C   UNL A   1      34.454  22.663  24.996  1.00  0.00     0.338 C 
ATOM      4  O   UNL A   1      34.788  23.108  26.083  1.00  0.00    -0.246 OA
BRANCH   3   5
ATOM      5  C   UNL A   1      33.167  23.067  24.399  1.00  0.00     0.061 A 
ATOM      6  C   UNL A   1      32.099  24.809  23.070  1.00  0.00     0.107 A 
ATOM      7  C   UNL A   1      33.185  23.954  23.320  1.00  0.00     0.039 A 
ATOM      8  C   UNL A   1      30.983  24.743  23.903  1.00  0.00     0.061 A 
ATOM      9  C   UNL A   1      30.905  23.720  24.868  1.00  0.00     0.023 A 
ATOM     10  Cl  UNL A   1      29.727  25.925  23.957  1.00  0.00    -0.083 Cl
ATOM     11  C   UNL A   1      31.998  22.888  25.130  1.00  0.00     0.017 A 
BRANCH   6  12
ATOM     12  S   UNL A   1      32.342  25.958  21.737  1.00  0.00     0.264 S 
ATOM     13  O   UNL A   1      31.029  26.330  21.246  1.00  0.00    -0.201 OA
ATOM     14  O   UNL A   1      33.278  25.311  20.837  1.00  0.00    -0.201 OA
BRANCH  12  15
ATOM     15  N   UNL A   1      33.105  27.338  22.245  1.00  0.00    -0.263 N 
ATOM     16  H   UNL A   1      33.683  27.815  21.607  1.00  0.00     0.182 HD
BRANCH  15  17
ATOM     17  C   UNL A   1      32.966  27.861  23.541  1.00  0.00     0.139 A 
ATOM     18  C   UNL A   1      31.644  28.204  27.516  1.00  0.00     0.046 C 
ATOM     19  C   UNL A   1      32.233  28.213  26.143  1.00  0.00    -0.033 A 
ATOM     20  C   UNL A   1      33.409  27.520  25.854  1.00  0.00     0.009 A 
ATOM     21  C   UNL A   1      31.552  28.794  25.079  1.00  0.00     0.117 A 
ATOM     22  C   UNL A   1      33.797  27.357  24.530  1.00  0.00     0.048 A 
ATOM     23  N   UNL A   1      31.901  28.638  23.784  1.00  0.00    -0.238 NA
ENDBRANCH  15  17
ENDBRANCH  12  15
ENDBRANCH   6  12
ENDBRANCH   3   5
ENDBRANCH   2   3
ENDBRANCH   1   2
BRANCH   1  24
ATOM     24  C   UNL A   1      37.094  20.455  25.003  1.00  0.00     0.275 C 
BRANCH  24  25
ATOM     25  O   UNL A   1      37.744  21.645  25.492  1.00  0.00    -0.458 OA
BRANCH  25  26
ATOM     26  C   UNL A   1      38.952  21.442  26.061  1.00  0.00     0.338 C 
ATOM     27  O   UNL A   1      39.613  20.413  26.050  1.00  0.00    -0.246 OA
BRANCH  26  28
ATOM     28  C   UNL A   1      39.443  22.670  26.700  1.00  0.00     0.060 A 
ATOM     29  C   UNL A   1      38.977  23.896  26.237  1.00  0.00     0.016 A 
ATOM     30  C   UNL A   1      40.515  22.622  27.590  1.00  0.00     0.016 A 
ATOM     31  C   UNL A   1      39.665  25.065  26.540  1.00  0.00     0.010 A 
ATOM     32  C   UNL A   1      41.123  23.815  28.000  1.00  0.00     0.010 A 
ATOM     33  C   UNL A   1      40.736  25.048  27.443  1.00  0.00    -0.014 A 
BRANCH  33  34
ATOM     34  C   UNL A   1      41.458  26.310  27.771  1.00  0.00     0.031 A 
ATOM     35  C   UNL A   1      40.789  27.380  28.593  1.00  0.00     0.074 A 
ATOM     36  C   UNL A   1      42.725  26.496  27.352  1.00  0.00     0.049 A 
ATOM     37  N   UNL A   1      41.171  28.613  28.822  1.00  0.00    -0.248 NA
ATOM     38  C   UNL A   1      39.510  27.024  29.226  1.00  0.00     0.031 C 
ATOM     39  C   UNL A   1      43.518  25.527  26.594  1.00  0.00     0.029 A 
ATOM     40  N   UNL A   1      43.577  27.561  27.515  1.00  0.00    -0.354 N 
ATOM     41  C   UNL A   1      40.152  29.195  29.566  1.00  0.00     0.074 A 
ATOM     42  C   UNL A   1      39.134  28.182  29.748  1.00  0.00     0.031 C 
ATOM     43  C   UNL A   1      44.750  26.018  26.401  1.00  0.00     0.029 A 
ATOM     44  C   UNL A   1      44.806  27.374  26.931  1.00  0.00     0.049 A 
ATOM     45  H   UNL A   1      43.331  28.380  28.003  1.00  0.00     0.167 HD
ATOM     46  C   UNL A   1      40.077  30.460  30.048  1.00  0.00     0.037 A 
ATOM     47  C   UNL A   1      45.850  28.213  26.793  1.00  0.00     0.037 A 
ATOM     48  C   UNL A   1      41.128  31.438  29.928  1.00  0.00     0.049 A 
ATOM     49  C   UNL A   1      45.740  29.611  27.324  1.00  0.00     0.074 A 
ATOM     50  C   UNL A   1      41.159  32.738  30.404  1.00  0.00     0.029 A 
ATOM     51  N   UNL A   1      42.347  31.213  29.303  1.00  0.00    -0.354 N 
ATOM     52  N   UNL A   1      44.745  30.177  27.963  1.00  0.00    -0.248 NA
ATOM     53  C   UNL A   1      46.889  30.497  27.097  1.00  0.00     0.031 C 
ATOM     54  C   UNL A   1      42.381  33.311  30.037  1.00  0.00     0.029 A 
ATOM     55  C   UNL A   1      43.131  32.355  29.370  1.00  0.00     0.049 A 
ATOM     56  H   UNL A   1      42.615  30.369  28.875  1.00  0.00     0.167 HD
ATOM     57  C   UNL A   1      45.147  31.478  28.219  1.00  0.00     0.074 A 
ATOM     58  C   UNL A   1      46.488  31.614  27.688  1.00  0.00     0.031 C 
ATOM     59  C   UNL A   1      44.462  32.474  28.834  1.00  0.00     0.037 A 
BRANCH  46  60
ATOM     60  C   UNL A   1      38.797  30.873  30.716  1.00  0.00     0.064 A 
ATOM     61  C   UNL A   1      37.680  31.313  29.990  1.00  0.00     0.173 A 
ATOM     62  C   UNL A   1      38.680  30.799  32.114  1.00  0.00     0.173 A 
ATOM     63  F   UNL A   1      37.740  31.409  28.653  1.00  0.00    -0.203 F 
ATOM     64  C   UNL A   1      36.508  31.695  30.639  1.00  0.00     0.198 A 
ATOM     65  C   UNL A   1      37.496  31.153  32.756  1.00  0.00     0.198 A 
ATOM     66  F   UNL A   1      39.712  30.374  32.858  1.00  0.00    -0.203 F 
ATOM     67  F   UNL A   1      35.471  32.159  29.928  1.00  0.00    -0.200 F 
ATOM     68  C   UNL A   1      36.414  31.610  32.020  1.00  0.00     0.200 A 
ATOM     69  F   UNL A   1      37.404  31.053  34.090  1.00  0.00    -0.200 F 
ATOM     70  F   UNL A   1      35.284  31.971  32.642  1.00  0.00    -0.200 F 
ENDBRANCH  46  60
BRANCH  47  71
ATOM     71  C   UNL A   1      47.070  27.751  26.080  1.00  0.00     0.064 A 
ATOM     72  C   UNL A   1      48.179  27.270  26.786  1.00  0.00     0.173 A 
ATOM     73  C   UNL A   1      47.136  27.749  24.678  1.00  0.00     0.173 A 
ATOM     74  F   UNL A   1      48.175  27.279  28.128  1.00  0.00    -0.203 F 
ATOM     75  C   UNL A   1      49.309  26.803  26.118  1.00  0.00     0.198 A 
ATOM     76  C   UNL A   1      48.253  27.254  24.011  1.00  0.00     0.198 A 
ATOM     77  F   UNL A   1      46.100  28.202  23.956  1.00  0.00    -0.203 F 
ATOM     78  F   UNL A   1      50.371  26.378  26.816  1.00  0.00    -0.200 F 
ATOM     79  C   UNL A   1      49.341  26.785  24.731  1.00  0.00     0.200 A 
ATOM     80  F   UNL A   1      48.271  27.224  22.671  1.00  0.00    -0.200 F 
ATOM     81  F   UNL A   1      50.421  26.321  24.089  1.00  0.00    -0.200 F 
ENDBRANCH  47  71
BRANCH  59  82
ATOM     82  C   UNL A   1      45.165  33.790  28.983  1.00  0.00     0.064 A 
ATOM     83  C   UNL A   1      45.976  34.066  30.093  1.00  0.00     0.173 A 
ATOM     84  C   UNL A   1      45.045  34.777  27.993  1.00  0.00     0.173 A 
ATOM     85  F   UNL A   1      46.107  33.162  31.075  1.00  0.00    -0.203 F 
ATOM     86  C   UNL A   1      46.624  35.292  30.218  1.00  0.00     0.198 A 
ATOM     87  C   UNL A   1      45.715  35.991  28.108  1.00  0.00     0.198 A 
ATOM     88  F   UNL A   1      44.283  34.559  26.911  1.00  0.00    -0.203 F 
ATOM     89  F   UNL A   1      47.358  35.553  31.308  1.00  0.00    -0.200 F 
ATOM     90  C   UNL A   1      46.498  36.250  29.223  1.00  0.00     0.200 A 
ATOM     91  F   UNL A   1      45.599  36.913  27.143  1.00  0.00    -0.200 F 
ATOM     92  F   UNL A   1      47.125  37.429  29.343  1.00  0.00    -0.200 F 
ENDBRANCH  59  82
ENDBRANCH  33  34
ENDBRANCH  26  28
ENDBRANCH  25  26
ENDBRANCH  24  25
ENDBRANCH   1  24
TORSDOF 14
ENDMDL
