MODEL 1
REMARK VINA RESULT:     -12.0      0.000      0.000
REMARK SMILES O=C(OCCOC(=O)c1ncoc1-c1cc(F)cc(F)c1)c1ccc(-c2c3nc(c(-c4c(F)c(F)c(F)c(F)c4F)c4ccc([nH]4)c(-c4c(F)c(F)c(F)c(F)c4F)c4nc(c(-c5c(F)c(F)c(F)c(F)c5F)c5ccc2[nH]5)C=C4)C=C3)cc1
REMARK SMILES IDX 4 1 3 2 2 3 1 4 22 5 23 6 84 7 24 8 83 9 25 10 26 11 27 12
REMARK SMILES IDX 77 13 28 14 82 15 76 16 78 17 29 18 81 19 75 20 74 21 30 23
REMARK SMILES IDX 62 24 42 25 61 26 43 27 46 28 60 29 79 30 44 31 45 32 59 34
REMARK SMILES IDX 80 35 47 36 31 37 32 38 40 39 33 40 34 41 38 42 41 43 35 44
REMARK SMILES IDX 36 45 39 46 37 47 63 48 64 49 72 50 65 51 66 52 70 53 73 54
REMARK SMILES IDX 67 55 68 56 71 57 69 58 48 59 49 60 57 61 50 62 51 63 55 64
REMARK SMILES IDX 58 65 52 66 53 67 56 68 54 69 5 70 6 71 7 72 8 73 9 74 10 75
REMARK SMILES IDX 13 76 11 77 12 78 14 79 15 80 21 81 16 82 19 83 17 84 18 85
REMARK SMILES IDX 20 86
REMARK H PARENT 78 22 46 33
REMARK Flexibility Score: inf
ROOT
ATOM      1  C   UNL A   1      33.317  34.298  28.291  1.00  0.00     0.275 C 
ENDROOT
BRANCH   1   2
ATOM      2  O   UNL A   1      34.143  33.426  27.484  1.00  0.00    -0.458 OA
BRANCH   2   3
ATOM      3  C   UNL A   1      34.115  32.091  27.681  1.00  0.00     0.338 C 
ATOM      4  O   UNL A   1      33.147  31.398  27.405  1.00  0.00    -0.246 OA
BRANCH   3   5
ATOM      5  C   UNL A   1      35.393  31.498  28.168  1.00  0.00     0.060 A 
ATOM      6  C   UNL A   1      35.573  30.130  28.373  1.00  0.00     0.016 A 
ATOM      7  C   UNL A   1      36.470  32.366  28.392  1.00  0.00     0.016 A 
ATOM      8  C   UNL A   1      36.813  29.640  28.774  1.00  0.00     0.010 A 
ATOM      9  C   UNL A   1      37.726  31.881  28.741  1.00  0.00     0.010 A 
ATOM     10  C   UNL A   1      37.887  30.515  28.975  1.00  0.00    -0.014 A 
BRANCH  10  11
ATOM     11  C   UNL A   1      39.102  30.007  29.638  1.00  0.00     0.031 A 
ATOM     12  C   UNL A   1      39.357  30.433  31.054  1.00  0.00     0.074 A 
ATOM     13  C   UNL A   1      39.893  29.120  29.009  1.00  0.00     0.049 A 
ATOM     14  N   UNL A   1      40.253  29.998  31.900  1.00  0.00    -0.248 NA
ATOM     15  C   UNL A   1      38.490  31.495  31.596  1.00  0.00     0.031 C 
ATOM     16  C   UNL A   1      39.726  28.672  27.625  1.00  0.00     0.029 A 
ATOM     17  N   UNL A   1      40.974  28.413  29.464  1.00  0.00    -0.354 N 
ATOM     18  C   UNL A   1      40.038  30.716  33.069  1.00  0.00     0.074 A 
ATOM     19  C   UNL A   1      38.987  31.669  32.809  1.00  0.00     0.031 C 
ATOM     20  C   UNL A   1      40.656  27.741  27.354  1.00  0.00     0.029 A 
ATOM     21  C   UNL A   1      41.475  27.526  28.545  1.00  0.00     0.049 A 
ATOM     22  H   UNL A   1      41.356  28.530  30.364  1.00  0.00     0.167 HD
ATOM     23  C   UNL A   1      40.634  30.556  34.271  1.00  0.00     0.037 A 
ATOM     24  C   UNL A   1      42.467  26.623  28.673  1.00  0.00     0.037 A 
ATOM     25  C   UNL A   1      41.659  29.584  34.518  1.00  0.00     0.049 A 
ATOM     26  C   UNL A   1      43.128  26.473  30.019  1.00  0.00     0.074 A 
ATOM     27  C   UNL A   1      42.324  29.308  35.696  1.00  0.00     0.029 A 
ATOM     28  N   UNL A   1      42.161  28.723  33.552  1.00  0.00    -0.354 N 
ATOM     29  N   UNL A   1      42.871  27.107  31.139  1.00  0.00    -0.248 NA
ATOM     30  C   UNL A   1      44.203  25.477  30.128  1.00  0.00     0.031 C 
ATOM     31  C   UNL A   1      43.252  28.295  35.436  1.00  0.00     0.029 A 
ATOM     32  C   UNL A   1      43.141  27.922  34.104  1.00  0.00     0.049 A 
ATOM     33  H   UNL A   1      41.863  28.688  32.614  1.00  0.00     0.167 HD
ATOM     34  C   UNL A   1      43.737  26.581  32.086  1.00  0.00     0.074 A 
ATOM     35  C   UNL A   1      44.516  25.560  31.415  1.00  0.00     0.031 C 
ATOM     36  C   UNL A   1      43.885  26.912  33.393  1.00  0.00     0.037 A 
BRANCH  23  37
ATOM     37  C   UNL A   1      40.170  31.433  35.393  1.00  0.00     0.064 A 
ATOM     38  C   UNL A   1      40.898  32.572  35.762  1.00  0.00     0.173 A 
ATOM     39  C   UNL A   1      38.994  31.144  36.105  1.00  0.00     0.173 A 
ATOM     40  F   UNL A   1      42.024  32.896  35.108  1.00  0.00    -0.203 F 
ATOM     41  C   UNL A   1      40.467  33.390  36.804  1.00  0.00     0.198 A 
ATOM     42  C   UNL A   1      38.554  31.977  37.130  1.00  0.00     0.198 A 
ATOM     43  F   UNL A   1      38.250  30.078  35.773  1.00  0.00    -0.203 F 
ATOM     44  F   UNL A   1      41.182  34.470  37.146  1.00  0.00    -0.200 F 
ATOM     45  C   UNL A   1      39.293  33.096  37.481  1.00  0.00     0.200 A 
ATOM     46  F   UNL A   1      37.403  31.706  37.762  1.00  0.00    -0.200 F 
ATOM     47  F   UNL A   1      38.867  33.897  38.468  1.00  0.00    -0.200 F 
ENDBRANCH  23  37
BRANCH  24  48
ATOM     48  C   UNL A   1      42.846  25.766  27.518  1.00  0.00     0.064 A 
ATOM     49  C   UNL A   1      43.857  26.157  26.626  1.00  0.00     0.173 A 
ATOM     50  C   UNL A   1      42.192  24.553  27.268  1.00  0.00     0.173 A 
ATOM     51  F   UNL A   1      44.509  27.312  26.817  1.00  0.00    -0.203 F 
ATOM     52  C   UNL A   1      44.190  25.371  25.523  1.00  0.00     0.198 A 
ATOM     53  C   UNL A   1      42.541  23.756  26.177  1.00  0.00     0.198 A 
ATOM     54  F   UNL A   1      41.229  24.127  28.098  1.00  0.00    -0.203 F 
ATOM     55  F   UNL A   1      45.142  25.781  24.675  1.00  0.00    -0.200 F 
ATOM     56  C   UNL A   1      43.535  24.169  25.303  1.00  0.00     0.200 A 
ATOM     57  F   UNL A   1      41.920  22.585  25.978  1.00  0.00    -0.200 F 
ATOM     58  F   UNL A   1      43.864  23.408  24.250  1.00  0.00    -0.200 F 
ENDBRANCH  24  48
BRANCH  36  59
ATOM     59  C   UNL A   1      44.927  26.178  34.177  1.00  0.00     0.064 A 
ATOM     60  C   UNL A   1      46.259  26.617  34.176  1.00  0.00     0.173 A 
ATOM     61  C   UNL A   1      44.623  24.973  34.824  1.00  0.00     0.173 A 
ATOM     62  F   UNL A   1      46.594  27.760  33.557  1.00  0.00    -0.203 F 
ATOM     63  C   UNL A   1      47.256  25.859  34.778  1.00  0.00     0.198 A 
ATOM     64  C   UNL A   1      45.621  24.229  35.444  1.00  0.00     0.198 A 
ATOM     65  F   UNL A   1      43.360  24.523  34.854  1.00  0.00    -0.203 F 
ATOM     66  F   UNL A   1      48.531  26.272  34.730  1.00  0.00    -0.200 F 
ATOM     67  C   UNL A   1      46.938  24.666  35.409  1.00  0.00     0.200 A 
ATOM     68  F   UNL A   1      45.310  23.084  36.067  1.00  0.00    -0.200 F 
ATOM     69  F   UNL A   1      47.901  23.933  35.984  1.00  0.00    -0.200 F 
ENDBRANCH  36  59
ENDBRANCH  10  11
ENDBRANCH   3   5
ENDBRANCH   2   3
ENDBRANCH   1   2
BRANCH   1  70
ATOM     70  C   UNL A   1      33.926  35.619  28.775  1.00  0.00     0.275 C 
BRANCH  70  71
ATOM     71  O   UNL A   1      32.933  36.486  29.348  1.00  0.00    -0.457 OA
BRANCH  71  72
ATOM     72  C   UNL A   1      32.528  36.152  30.613  1.00  0.00     0.361 C 
ATOM     73  O   UNL A   1      31.743  35.244  30.870  1.00  0.00    -0.244 OA
BRANCH  72  74
ATOM     74  C   UNL A   1      33.171  36.950  31.643  1.00  0.00     0.194 A 
ATOM     75  N   UNL A   1      33.067  38.330  31.776  1.00  0.00    -0.209 NA
ATOM     76  C   UNL A   1      34.005  36.461  32.631  1.00  0.00     0.169 A 
ATOM     77  C   UNL A   1      33.794  38.592  32.838  1.00  0.00     0.309 A 
ATOM     78  O   UNL A   1      34.403  37.516  33.407  1.00  0.00    -0.443 OA
BRANCH  76  79
ATOM     79  C   UNL A   1      34.582  35.172  32.960  1.00  0.00     0.026 A 
ATOM     80  C   UNL A   1      35.155  34.953  34.219  1.00  0.00     0.051 A 
ATOM     81  C   UNL A   1      34.588  34.129  32.034  1.00  0.00     0.051 A 
ATOM     82  C   UNL A   1      35.714  33.723  34.543  1.00  0.00     0.126 A 
ATOM     83  C   UNL A   1      35.165  32.903  32.375  1.00  0.00     0.126 A 
ATOM     84  F   UNL A   1      36.239  33.541  35.761  1.00  0.00    -0.207 F 
ATOM     85  C   UNL A   1      35.728  32.688  33.626  1.00  0.00     0.078 A 
ATOM     86  F   UNL A   1      35.172  31.912  31.477  1.00  0.00    -0.207 F 
ENDBRANCH  76  79
ENDBRANCH  72  74
ENDBRANCH  71  72
ENDBRANCH  70  71
ENDBRANCH   1  70
TORSDOF 12
ENDMDL
MODEL 2
REMARK VINA RESULT:     -12.0      3.853      6.303
REMARK SMILES O=C(OCCOC(=O)c1ncoc1-c1cc(F)cc(F)c1)c1ccc(-c2c3nc(c(-c4c(F)c(F)c(F)c(F)c4F)c4ccc([nH]4)c(-c4c(F)c(F)c(F)c(F)c4F)c4nc(c(-c5c(F)c(F)c(F)c(F)c5F)c5ccc2[nH]5)C=C4)C=C3)cc1
REMARK SMILES IDX 4 1 3 2 2 3 1 4 22 5 23 6 84 7 24 8 83 9 25 10 26 11 27 12
REMARK SMILES IDX 77 13 28 14 82 15 76 16 78 17 29 18 81 19 75 20 74 21 30 23
REMARK SMILES IDX 62 24 42 25 61 26 43 27 46 28 60 29 79 30 44 31 45 32 59 34
REMARK SMILES IDX 80 35 47 36 31 37 32 38 40 39 33 40 34 41 38 42 41 43 35 44
REMARK SMILES IDX 36 45 39 46 37 47 63 48 64 49 72 50 65 51 66 52 70 53 73 54
REMARK SMILES IDX 67 55 68 56 71 57 69 58 48 59 49 60 57 61 50 62 51 63 55 64
REMARK SMILES IDX 58 65 52 66 53 67 56 68 54 69 5 70 6 71 7 72 8 73 9 74 10 75
REMARK SMILES IDX 13 76 11 77 12 78 14 79 15 80 21 81 16 82 19 83 17 84 18 85
REMARK SMILES IDX 20 86
REMARK H PARENT 78 22 46 33
REMARK Flexibility Score: inf
ROOT
ATOM      1  C   UNL A   1      32.273  30.443  25.920  1.00  0.00     0.275 C 
ENDROOT
BRANCH   1   2
ATOM      2  O   UNL A   1      32.445  30.954  27.262  1.00  0.00    -0.458 OA
BRANCH   2   3
ATOM      3  C   UNL A   1      33.357  31.917  27.510  1.00  0.00     0.338 C 
ATOM      4  O   UNL A   1      33.106  33.110  27.416  1.00  0.00    -0.246 OA
BRANCH   3   5
ATOM      5  C   UNL A   1      34.673  31.428  28.009  1.00  0.00     0.060 A 
ATOM      6  C   UNL A   1      34.912  30.100  28.364  1.00  0.00     0.016 A 
ATOM      7  C   UNL A   1      35.725  32.352  28.085  1.00  0.00     0.016 A 
ATOM      8  C   UNL A   1      36.184  29.703  28.768  1.00  0.00     0.010 A 
ATOM      9  C   UNL A   1      37.010  31.953  28.437  1.00  0.00     0.010 A 
ATOM     10  C   UNL A   1      37.231  30.631  28.821  1.00  0.00    -0.014 A 
BRANCH  10  11
ATOM     11  C   UNL A   1      38.489  30.246  29.488  1.00  0.00     0.031 A 
ATOM     12  C   UNL A   1      38.710  30.721  30.894  1.00  0.00     0.074 A 
ATOM     13  C   UNL A   1      39.352  29.418  28.874  1.00  0.00     0.049 A 
ATOM     14  N   UNL A   1      39.643  30.384  31.744  1.00  0.00    -0.248 NA
ATOM     15  C   UNL A   1      37.755  31.714  31.419  1.00  0.00     0.031 C 
ATOM     16  C   UNL A   1      39.220  28.929  27.500  1.00  0.00     0.029 A 
ATOM     17  N   UNL A   1      40.493  28.818  29.337  1.00  0.00    -0.354 N 
ATOM     18  C   UNL A   1      39.370  31.105  32.899  1.00  0.00     0.074 A 
ATOM     19  C   UNL A   1      38.239  31.956  32.625  1.00  0.00     0.031 C 
ATOM     20  C   UNL A   1      40.228  28.077  27.243  1.00  0.00     0.029 A 
ATOM     21  C   UNL A   1      41.066  27.959  28.433  1.00  0.00     0.049 A 
ATOM     22  H   UNL A   1      40.866  28.987  30.233  1.00  0.00     0.167 HD
ATOM     23  C   UNL A   1      39.982  31.023  34.101  1.00  0.00     0.037 A 
ATOM     24  C   UNL A   1      42.134  27.149  28.575  1.00  0.00     0.037 A 
ATOM     25  C   UNL A   1      41.089  30.150  34.362  1.00  0.00     0.049 A 
ATOM     26  C   UNL A   1      42.810  27.087  29.920  1.00  0.00     0.074 A 
ATOM     27  C   UNL A   1      41.780  29.958  35.542  1.00  0.00     0.029 A 
ATOM     28  N   UNL A   1      41.662  29.316  33.411  1.00  0.00    -0.354 N 
ATOM     29  N   UNL A   1      42.502  27.719  31.029  1.00  0.00    -0.248 NA
ATOM     30  C   UNL A   1      43.968  26.191  30.044  1.00  0.00     0.031 C 
ATOM     31  C   UNL A   1      42.792  29.025  35.298  1.00  0.00     0.029 A 
ATOM     32  C   UNL A   1      42.710  28.616  33.974  1.00  0.00     0.049 A 
ATOM     33  H   UNL A   1      41.364  29.236  32.476  1.00  0.00     0.167 HD
ATOM     34  C   UNL A   1      43.414  27.290  31.982  1.00  0.00     0.074 A 
ATOM     35  C   UNL A   1      44.277  26.328  31.327  1.00  0.00     0.031 C 
ATOM     36  C   UNL A   1      43.537  27.661  33.280  1.00  0.00     0.037 A 
BRANCH  23  37
ATOM     37  C   UNL A   1      39.446  31.880  35.207  1.00  0.00     0.064 A 
ATOM     38  C   UNL A   1      38.545  31.359  36.145  1.00  0.00     0.173 A 
ATOM     39  C   UNL A   1      39.832  33.224  35.339  1.00  0.00     0.173 A 
ATOM     40  F   UNL A   1      38.151  30.079  36.067  1.00  0.00    -0.203 F 
ATOM     41  C   UNL A   1      38.047  32.154  37.176  1.00  0.00     0.198 A 
ATOM     42  C   UNL A   1      39.351  34.008  36.384  1.00  0.00     0.198 A 
ATOM     43  F   UNL A   1      40.711  33.760  34.479  1.00  0.00    -0.203 F 
ATOM     44  F   UNL A   1      37.180  31.639  38.058  1.00  0.00    -0.200 F 
ATOM     45  C   UNL A   1      38.456  33.474  37.298  1.00  0.00     0.200 A 
ATOM     46  F   UNL A   1      39.771  35.274  36.516  1.00  0.00    -0.200 F 
ATOM     47  F   UNL A   1      37.994  34.230  38.303  1.00  0.00    -0.200 F 
ENDBRANCH  23  37
BRANCH  24  48
ATOM     48  C   UNL A   1      42.582  26.305  27.436  1.00  0.00     0.064 A 
ATOM     49  C   UNL A   1      42.022  25.040  27.206  1.00  0.00     0.173 A 
ATOM     50  C   UNL A   1      43.595  26.734  26.569  1.00  0.00     0.173 A 
ATOM     51  F   UNL A   1      41.053  24.579  28.010  1.00  0.00    -0.203 F 
ATOM     52  C   UNL A   1      42.465  24.233  26.159  1.00  0.00     0.198 A 
ATOM     53  C   UNL A   1      44.023  25.936  25.507  1.00  0.00     0.198 A 
ATOM     54  F   UNL A   1      44.154  27.942  26.736  1.00  0.00    -0.203 F 
ATOM     55  F   UNL A   1      41.928  23.019  25.978  1.00  0.00    -0.200 F 
ATOM     56  C   UNL A   1      43.462  24.684  25.308  1.00  0.00     0.200 A 
ATOM     57  F   UNL A   1      44.973  26.384  24.674  1.00  0.00    -0.200 F 
ATOM     58  F   UNL A   1      43.879  23.913  24.294  1.00  0.00    -0.200 F 
ENDBRANCH  24  48
BRANCH  36  59
ATOM     59  C   UNL A   1      44.642  27.038  34.074  1.00  0.00     0.064 A 
ATOM     60  C   UNL A   1      44.419  25.859  34.801  1.00  0.00     0.173 A 
ATOM     61  C   UNL A   1      45.880  27.680  34.211  1.00  0.00     0.173 A 
ATOM     62  F   UNL A   1      43.243  25.219  34.707  1.00  0.00    -0.203 F 
ATOM     63  C   UNL A   1      45.393  25.358  35.657  1.00  0.00     0.198 A 
ATOM     64  C   UNL A   1      46.859  27.163  35.052  1.00  0.00     0.198 A 
ATOM     65  F   UNL A   1      46.134  28.806  33.527  1.00  0.00    -0.203 F 
ATOM     66  F   UNL A   1      45.147  24.254  36.377  1.00  0.00    -0.200 F 
ATOM     67  C   UNL A   1      46.610  26.011  35.783  1.00  0.00     0.200 A 
ATOM     68  F   UNL A   1      48.040  27.786  35.162  1.00  0.00    -0.200 F 
ATOM     69  F   UNL A   1      47.546  25.530  36.613  1.00  0.00    -0.200 F 
ENDBRANCH  36  59
ENDBRANCH  10  11
ENDBRANCH   3   5
ENDBRANCH   2   3
ENDBRANCH   1   2
BRANCH   1  70
ATOM     70  C   UNL A   1      31.777  29.001  25.757  1.00  0.00     0.275 C 
BRANCH  70  71
ATOM     71  O   UNL A   1      32.311  28.383  24.575  1.00  0.00    -0.457 OA
BRANCH  71  72
ATOM     72  C   UNL A   1      31.600  28.612  23.426  1.00  0.00     0.361 C 
ATOM     73  O   UNL A   1      32.062  29.145  22.422  1.00  0.00    -0.244 OA
BRANCH  72  74
ATOM     74  C   UNL A   1      30.241  28.102  23.491  1.00  0.00     0.194 A 
ATOM     75  N   UNL A   1      29.880  26.812  23.863  1.00  0.00    -0.209 NA
ATOM     76  C   UNL A   1      29.102  28.816  23.167  1.00  0.00     0.169 A 
ATOM     77  C   UNL A   1      28.569  26.825  23.786  1.00  0.00     0.309 A 
ATOM     78  O   UNL A   1      28.022  27.998  23.363  1.00  0.00    -0.443 OA
BRANCH  76  79
ATOM     79  C   UNL A   1      28.818  30.130  22.624  1.00  0.00     0.026 A 
ATOM     80  C   UNL A   1      28.271  30.263  21.341  1.00  0.00     0.051 A 
ATOM     81  C   UNL A   1      29.088  31.286  23.357  1.00  0.00     0.051 A 
ATOM     82  C   UNL A   1      27.999  31.519  20.810  1.00  0.00     0.126 A 
ATOM     83  C   UNL A   1      28.817  32.537  22.801  1.00  0.00     0.126 A 
ATOM     84  F   UNL A   1      27.461  31.610  19.588  1.00  0.00    -0.207 F 
ATOM     85  C   UNL A   1      28.271  32.666  21.531  1.00  0.00     0.078 A 
ATOM     86  F   UNL A   1      29.087  33.640  23.510  1.00  0.00    -0.207 F 
ENDBRANCH  76  79
ENDBRANCH  72  74
ENDBRANCH  71  72
ENDBRANCH  70  71
ENDBRANCH   1  70
TORSDOF 12
ENDMDL
MODEL 3
REMARK VINA RESULT:     -11.9      3.685      6.207
REMARK SMILES O=C(OCCOC(=O)c1ncoc1-c1cc(F)cc(F)c1)c1ccc(-c2c3nc(c(-c4c(F)c(F)c(F)c(F)c4F)c4ccc([nH]4)c(-c4c(F)c(F)c(F)c(F)c4F)c4nc(c(-c5c(F)c(F)c(F)c(F)c5F)c5ccc2[nH]5)C=C4)C=C3)cc1
REMARK SMILES IDX 4 1 3 2 2 3 1 4 22 5 23 6 84 7 24 8 83 9 25 10 26 11 27 12
REMARK SMILES IDX 77 13 28 14 82 15 76 16 78 17 29 18 81 19 75 20 74 21 30 23
REMARK SMILES IDX 62 24 42 25 61 26 43 27 46 28 60 29 79 30 44 31 45 32 59 34
REMARK SMILES IDX 80 35 47 36 31 37 32 38 40 39 33 40 34 41 38 42 41 43 35 44
REMARK SMILES IDX 36 45 39 46 37 47 63 48 64 49 72 50 65 51 66 52 70 53 73 54
REMARK SMILES IDX 67 55 68 56 71 57 69 58 48 59 49 60 57 61 50 62 51 63 55 64
REMARK SMILES IDX 58 65 52 66 53 67 56 68 54 69 5 70 6 71 7 72 8 73 9 74 10 75
REMARK SMILES IDX 13 76 11 77 12 78 14 79 15 80 21 81 16 82 19 83 17 84 18 85
REMARK SMILES IDX 20 86
REMARK H PARENT 78 22 46 33
REMARK Flexibility Score: inf
ROOT
ATOM      1  C   UNL A   1      32.039  30.434  25.942  1.00  0.00     0.275 C 
ENDROOT
BRANCH   1   2
ATOM      2  O   UNL A   1      32.576  30.622  27.271  1.00  0.00    -0.458 OA
BRANCH   2   3
ATOM      3  C   UNL A   1      33.462  31.611  27.512  1.00  0.00     0.338 C 
ATOM      4  O   UNL A   1      33.177  32.796  27.424  1.00  0.00    -0.246 OA
BRANCH   3   5
ATOM      5  C   UNL A   1      34.798  31.159  27.995  1.00  0.00     0.060 A 
ATOM      6  C   UNL A   1      35.117  29.820  28.223  1.00  0.00     0.016 A 
ATOM      7  C   UNL A   1      35.784  32.135  28.191  1.00  0.00     0.016 A 
ATOM      8  C   UNL A   1      36.404  29.466  28.619  1.00  0.00     0.010 A 
ATOM      9  C   UNL A   1      37.086  31.786  28.536  1.00  0.00     0.010 A 
ATOM     10  C   UNL A   1      37.386  30.449  28.792  1.00  0.00    -0.014 A 
BRANCH  10  11
ATOM     11  C   UNL A   1      38.652  30.078  29.451  1.00  0.00     0.031 A 
ATOM     12  C   UNL A   1      38.885  30.571  30.849  1.00  0.00     0.074 A 
ATOM     13  C   UNL A   1      39.515  29.249  28.837  1.00  0.00     0.049 A 
ATOM     14  N   UNL A   1      39.828  30.250  31.694  1.00  0.00    -0.248 NA
ATOM     15  C   UNL A   1      37.928  31.564  31.372  1.00  0.00     0.031 C 
ATOM     16  C   UNL A   1      39.373  28.744  27.471  1.00  0.00     0.029 A 
ATOM     17  N   UNL A   1      40.664  28.662  29.296  1.00  0.00    -0.354 N 
ATOM     18  C   UNL A   1      39.562  30.982  32.843  1.00  0.00     0.074 A 
ATOM     19  C   UNL A   1      38.423  31.823  32.570  1.00  0.00     0.031 C 
ATOM     20  C   UNL A   1      40.383  27.895  27.213  1.00  0.00     0.029 A 
ATOM     21  C   UNL A   1      41.234  27.796  28.396  1.00  0.00     0.049 A 
ATOM     22  H   UNL A   1      41.045  28.844  30.186  1.00  0.00     0.167 HD
ATOM     23  C   UNL A   1      40.186  30.917  34.040  1.00  0.00     0.037 A 
ATOM     24  C   UNL A   1      42.308  26.995  28.536  1.00  0.00     0.037 A 
ATOM     25  C   UNL A   1      41.301  30.054  34.299  1.00  0.00     0.049 A 
ATOM     26  C   UNL A   1      42.998  26.952  29.875  1.00  0.00     0.074 A 
ATOM     27  C   UNL A   1      42.005  29.880  35.474  1.00  0.00     0.029 A 
ATOM     28  N   UNL A   1      41.870  29.213  33.352  1.00  0.00    -0.354 N 
ATOM     29  N   UNL A   1      42.697  27.595  30.980  1.00  0.00    -0.248 NA
ATOM     30  C   UNL A   1      44.163  26.065  29.997  1.00  0.00     0.031 C 
ATOM     31  C   UNL A   1      43.021  28.950  35.231  1.00  0.00     0.029 A 
ATOM     32  C   UNL A   1      42.929  28.526  33.913  1.00  0.00     0.049 A 
ATOM     33  H   UNL A   1      41.564  29.121  32.421  1.00  0.00     0.167 HD
ATOM     34  C   UNL A   1      43.621  27.182  31.929  1.00  0.00     0.074 A 
ATOM     35  C   UNL A   1      44.484  26.218  31.276  1.00  0.00     0.031 C 
ATOM     36  C   UNL A   1      43.755  27.568  33.221  1.00  0.00     0.037 A 
BRANCH  23  37
ATOM     37  C   UNL A   1      39.656  31.783  35.142  1.00  0.00     0.064 A 
ATOM     38  C   UNL A   1      40.134  33.088  35.322  1.00  0.00     0.173 A 
ATOM     39  C   UNL A   1      38.666  31.316  36.021  1.00  0.00     0.173 A 
ATOM     40  F   UNL A   1      41.075  33.583  34.504  1.00  0.00    -0.203 F 
ATOM     41  C   UNL A   1      39.641  33.895  36.345  1.00  0.00     0.198 A 
ATOM     42  C   UNL A   1      38.158  32.134  37.027  1.00  0.00     0.198 A 
ATOM     43  F   UNL A   1      38.160  30.083  35.873  1.00  0.00    -0.203 F 
ATOM     44  F   UNL A   1      40.118  35.136  36.506  1.00  0.00    -0.200 F 
ATOM     45  C   UNL A   1      38.650  33.419  37.191  1.00  0.00     0.200 A 
ATOM     46  F   UNL A   1      37.180  31.682  37.824  1.00  0.00    -0.200 F 
ATOM     47  F   UNL A   1      38.160  34.206  38.160  1.00  0.00    -0.200 F 
ENDBRANCH  23  37
BRANCH  24  48
ATOM     48  C   UNL A   1      42.751  26.141  27.403  1.00  0.00     0.064 A 
ATOM     49  C   UNL A   1      42.188  24.874  27.185  1.00  0.00     0.173 A 
ATOM     50  C   UNL A   1      43.761  26.562  26.527  1.00  0.00     0.173 A 
ATOM     51  F   UNL A   1      41.222  24.422  27.998  1.00  0.00    -0.203 F 
ATOM     52  C   UNL A   1      42.626  24.058  26.143  1.00  0.00     0.198 A 
ATOM     53  C   UNL A   1      44.183  25.754  25.471  1.00  0.00     0.198 A 
ATOM     54  F   UNL A   1      44.322  27.770  26.682  1.00  0.00    -0.203 F 
ATOM     55  F   UNL A   1      42.087  22.843  25.974  1.00  0.00    -0.200 F 
ATOM     56  C   UNL A   1      43.619  24.501  25.284  1.00  0.00     0.200 A 
ATOM     57  F   UNL A   1      45.129  26.194  24.630  1.00  0.00    -0.200 F 
ATOM     58  F   UNL A   1      44.032  23.722  24.274  1.00  0.00    -0.200 F 
ENDBRANCH  24  48
BRANCH  36  59
ATOM     59  C   UNL A   1      44.871  26.961  34.011  1.00  0.00     0.064 A 
ATOM     60  C   UNL A   1      44.660  25.796  34.763  1.00  0.00     0.173 A 
ATOM     61  C   UNL A   1      46.110  27.607  34.118  1.00  0.00     0.173 A 
ATOM     62  F   UNL A   1      43.483  25.154  34.698  1.00  0.00    -0.203 F 
ATOM     63  C   UNL A   1      45.646  25.312  35.615  1.00  0.00     0.198 A 
ATOM     64  C   UNL A   1      47.101  27.107  34.955  1.00  0.00     0.198 A 
ATOM     65  F   UNL A   1      46.353  28.720  33.410  1.00  0.00    -0.203 F 
ATOM     66  F   UNL A   1      45.412  24.221  36.358  1.00  0.00    -0.200 F 
ATOM     67  C   UNL A   1      46.864  25.968  35.711  1.00  0.00     0.200 A 
ATOM     68  F   UNL A   1      48.283  27.732  35.037  1.00  0.00    -0.200 F 
ATOM     69  F   UNL A   1      47.812  25.504  36.537  1.00  0.00    -0.200 F 
ENDBRANCH  36  59
ENDBRANCH  10  11
ENDBRANCH   3   5
ENDBRANCH   2   3
ENDBRANCH   1   2
BRANCH   1  70
ATOM     70  C   UNL A   1      32.797  29.504  24.986  1.00  0.00     0.275 C 
BRANCH  70  71
ATOM     71  O   UNL A   1      32.868  28.161  25.493  1.00  0.00    -0.457 OA
BRANCH  71  72
ATOM     72  C   UNL A   1      31.806  27.359  25.168  1.00  0.00     0.361 C 
ATOM     73  O   UNL A   1      30.916  27.041  25.951  1.00  0.00    -0.244 OA
BRANCH  72  74
ATOM     74  C   UNL A   1      31.804  26.960  23.771  1.00  0.00     0.194 A 
ATOM     75  N   UNL A   1      32.724  26.104  23.175  1.00  0.00    -0.209 NA
ATOM     76  C   UNL A   1      30.902  27.392  22.817  1.00  0.00     0.169 A 
ATOM     77  C   UNL A   1      32.314  26.033  21.929  1.00  0.00     0.309 A 
ATOM     78  O   UNL A   1      31.223  26.791  21.630  1.00  0.00    -0.443 OA
BRANCH  76  79
ATOM     79  C   UNL A   1      29.808  28.343  22.776  1.00  0.00     0.026 A 
ATOM     80  C   UNL A   1      28.517  27.956  23.155  1.00  0.00     0.051 A 
ATOM     81  C   UNL A   1      30.012  29.656  22.350  1.00  0.00     0.051 A 
ATOM     82  C   UNL A   1      27.461  28.859  23.115  1.00  0.00     0.126 A 
ATOM     83  C   UNL A   1      28.936  30.545  22.306  1.00  0.00     0.126 A 
ATOM     84  F   UNL A   1      26.243  28.461  23.501  1.00  0.00    -0.207 F 
ATOM     85  C   UNL A   1      27.658  30.159  22.688  1.00  0.00     0.078 A 
ATOM     86  F   UNL A   1      29.141  31.800  21.889  1.00  0.00    -0.207 F 
ENDBRANCH  76  79
ENDBRANCH  72  74
ENDBRANCH  71  72
ENDBRANCH  70  71
ENDBRANCH   1  70
TORSDOF 12
ENDMDL
