MODEL 1
REMARK VINA RESULT:     -12.2      0.000      0.000
REMARK SMILES CCOc1ccccc1[C@@H](C(=O)OCCOC(=O)c1ccc(-c2c3nc(c(-c4c(F)c(F)c(F)c(F)c4F)c4ccc([nH]4)c(-c4c(F)c(F)c(F)c(F)c4F)c4nc(c(-c5c(F)c(F)c(F)c(F)c5F)c5ccc2[nH]5)C=C4)C=C3)cc1)[NH+]1CCC(C(=O)N2CCCC2)CC1
REMARK SMILES IDX 14 1 13 2 11 3 12 4 10 5 9 6 4 7 5 8 6 9 8 10 7 11 3 12 2 13
REMARK SMILES IDX 1 14 82 15 83 16 94 17 84 19 93 20 85 21 86 22 87 23 88 24
REMARK SMILES IDX 89 25 92 26 90 27 91 28 15 29 16 30 17 31 18 32 19 33 20 34
REMARK SMILES IDX 81 35 21 36 80 37 22 38 23 39 24 40 74 41 25 42 79 43 73 44
REMARK SMILES IDX 75 45 26 46 78 47 72 48 71 49 27 51 59 52 39 53 58 54 40 55
REMARK SMILES IDX 43 56 57 57 76 58 41 59 42 60 56 62 77 63 44 64 28 65 29 66
REMARK SMILES IDX 37 67 30 68 31 69 35 70 38 71 32 72 33 73 36 74 34 75 60 76
REMARK SMILES IDX 61 77 69 78 62 79 63 80 67 81 70 82 64 83 65 84 68 85 66 86
REMARK SMILES IDX 45 87 46 88 54 89 47 90 48 91 52 92 55 93 49 94 50 95 53 96
REMARK SMILES IDX 51 97
REMARK H PARENT 82 18 75 50 43 61
REMARK Flexibility Score: inf
ROOT
ATOM      1  C   UNL A   1      31.004  30.930  25.312  1.00  0.00     0.274 C 
ENDROOT
BRANCH   1   2
ATOM      2  O   UNL A   1      31.510  29.598  25.524  1.00  0.00    -0.457 OA
BRANCH   2   3
ATOM      3  C   UNL A   1      32.484  29.185  24.666  1.00  0.00     0.370 C 
ATOM      4  O   UNL A   1      33.613  29.672  24.637  1.00  0.00    -0.245 OA
BRANCH   3   5
ATOM      5  C   UNL A   1      31.992  28.163  23.632  1.00  0.00     0.330 C 
BRANCH   5   6
ATOM      6  C   UNL A   1      30.503  28.139  23.315  1.00  0.00     0.063 A 
ATOM      7  C   UNL A   1      29.681  27.164  23.910  1.00  0.00     0.129 A 
ATOM      8  C   UNL A   1      28.293  27.230  23.805  1.00  0.00     0.047 A 
ATOM      9  C   UNL A   1      27.704  28.260  23.072  1.00  0.00     0.004 A 
ATOM     10  C   UNL A   1      29.894  29.111  22.505  1.00  0.00     0.014 A 
ATOM     11  C   UNL A   1      28.504  29.179  22.397  1.00  0.00     0.001 A 
BRANCH   7  12
ATOM     12  O   UNL A   1      30.266  26.044  24.438  1.00  0.00    -0.493 OA
BRANCH  12  13
ATOM     13  C   UNL A   1      30.260  25.994  25.866  1.00  0.00     0.226 C 
ATOM     14  C   UNL A   1      29.769  24.606  26.263  1.00  0.00     0.049 C 
ENDBRANCH  12  13
ENDBRANCH   7  12
ENDBRANCH   5   6
BRANCH   5  15
ATOM     15  N   UNL A   1      32.648  26.819  23.780  1.00  0.00    -0.319 N 
ATOM     16  C   UNL A   1      33.285  26.281  22.581  1.00  0.00     0.264 C 
ATOM     17  C   UNL A   1      33.609  26.810  24.887  1.00  0.00     0.264 C 
ATOM     18  H   UNL A   1      31.864  26.197  23.978  1.00  0.00     0.349 HD
ATOM     19  C   UNL A   1      33.593  24.798  22.777  1.00  0.00     0.075 C 
ATOM     20  C   UNL A   1      33.981  25.391  25.272  1.00  0.00     0.075 C 
ATOM     21  C   UNL A   1      34.344  24.499  24.076  1.00  0.00     0.090 C 
BRANCH  21  22
ATOM     22  C   UNL A   1      34.245  23.039  24.515  1.00  0.00     0.226 C 
ATOM     23  O   UNL A   1      33.155  22.465  24.446  1.00  0.00    -0.275 OA
ATOM     24  N   UNL A   1      35.390  22.357  24.865  1.00  0.00    -0.342 N 
ATOM     25  C   UNL A   1      36.714  22.861  25.190  1.00  0.00     0.119 C 
ATOM     26  C   UNL A   1      35.380  20.907  24.921  1.00  0.00     0.119 C 
ATOM     27  C   UNL A   1      37.645  21.745  24.768  1.00  0.00     0.023 C 
ATOM     28  C   UNL A   1      36.839  20.502  25.110  1.00  0.00     0.023 C 
ENDBRANCH  21  22
ENDBRANCH   5  15
ENDBRANCH   3   5
ENDBRANCH   2   3
ENDBRANCH   1   2
BRANCH   1  29
ATOM     29  C   UNL A   1      31.220  31.810  26.542  1.00  0.00     0.275 C 
BRANCH  29  30
ATOM     30  O   UNL A   1      32.429  31.419  27.219  1.00  0.00    -0.458 OA
BRANCH  30  31
ATOM     31  C   UNL A   1      33.283  32.407  27.565  1.00  0.00     0.338 C 
ATOM     32  O   UNL A   1      33.002  33.589  27.740  1.00  0.00    -0.246 OA
BRANCH  31  33
ATOM     33  C   UNL A   1      34.650  31.876  27.781  1.00  0.00     0.060 A 
ATOM     34  C   UNL A   1      34.879  30.509  27.876  1.00  0.00     0.016 A 
ATOM     35  C   UNL A   1      35.707  32.753  28.044  1.00  0.00     0.016 A 
ATOM     36  C   UNL A   1      36.094  30.038  28.379  1.00  0.00     0.010 A 
ATOM     37  C   UNL A   1      36.959  32.262  28.459  1.00  0.00     0.010 A 
ATOM     38  C   UNL A   1      37.152  30.895  28.725  1.00  0.00    -0.014 A 
BRANCH  38  39
ATOM     39  C   UNL A   1      38.355  30.377  29.480  1.00  0.00     0.031 A 
ATOM     40  C   UNL A   1      38.475  30.582  30.983  1.00  0.00     0.074 A 
ATOM     41  C   UNL A   1      39.310  29.621  28.890  1.00  0.00     0.049 A 
ATOM     42  N   UNL A   1      39.509  30.374  31.766  1.00  0.00    -0.248 NA
ATOM     43  C   UNL A   1      37.304  31.114  31.697  1.00  0.00     0.031 C 
ATOM     44  C   UNL A   1      39.365  29.267  27.473  1.00  0.00     0.029 A 
ATOM     45  N   UNL A   1      40.383  28.938  29.428  1.00  0.00    -0.354 N 
ATOM     46  C   UNL A   1      39.160  30.883  33.012  1.00  0.00     0.074 A 
ATOM     47  C   UNL A   1      37.795  31.348  32.907  1.00  0.00     0.031 C 
ATOM     48  C   UNL A   1      40.278  28.300  27.292  1.00  0.00     0.029 A 
ATOM     49  C   UNL A   1      40.974  28.055  28.552  1.00  0.00     0.049 A 
ATOM     50  H   UNL A   1      40.694  29.071  30.352  1.00  0.00     0.167 HD
ATOM     51  C   UNL A   1      39.922  30.984  34.129  1.00  0.00     0.037 A 
ATOM     52  C   UNL A   1      41.957  27.149  28.742  1.00  0.00     0.037 A 
ATOM     53  C   UNL A   1      41.220  30.380  34.290  1.00  0.00     0.049 A 
ATOM     54  C   UNL A   1      42.702  27.134  30.051  1.00  0.00     0.074 A 
ATOM     55  C   UNL A   1      42.112  30.494  35.342  1.00  0.00     0.029 A 
ATOM     56  N   UNL A   1      41.771  29.474  33.400  1.00  0.00    -0.354 N 
ATOM     57  N   UNL A   1      42.465  27.805  31.148  1.00  0.00    -0.248 NA
ATOM     58  C   UNL A   1      43.893  26.272  30.119  1.00  0.00     0.031 C 
ATOM     59  C   UNL A   1      43.210  29.663  35.084  1.00  0.00     0.029 A 
ATOM     60  C   UNL A   1      42.985  29.014  33.884  1.00  0.00     0.049 A 
ATOM     61  H   UNL A   1      41.361  29.198  32.548  1.00  0.00     0.167 HD
ATOM     62  C   UNL A   1      43.502  27.486  32.016  1.00  0.00     0.074 A 
ATOM     63  C   UNL A   1      44.313  26.486  31.356  1.00  0.00     0.031 C 
ATOM     64  C   UNL A   1      43.794  28.027  33.222  1.00  0.00     0.037 A 
BRANCH  51  65
ATOM     65  C   UNL A   1      39.423  31.859  35.240  1.00  0.00     0.064 A 
ATOM     66  C   UNL A   1      38.626  31.384  36.288  1.00  0.00     0.173 A 
ATOM     67  C   UNL A   1      39.809  33.211  35.270  1.00  0.00     0.173 A 
ATOM     68  F   UNL A   1      38.212  30.108  36.298  1.00  0.00    -0.203 F 
ATOM     69  C   UNL A   1      38.223  32.232  37.320  1.00  0.00     0.198 A 
ATOM     70  C   UNL A   1      39.428  34.048  36.315  1.00  0.00     0.198 A 
ATOM     71  F   UNL A   1      40.577  33.716  34.292  1.00  0.00    -0.203 F 
ATOM     72  F   UNL A   1      37.430  31.768  38.296  1.00  0.00    -0.200 F 
ATOM     73  C   UNL A   1      38.631  33.559  37.336  1.00  0.00     0.200 A 
ATOM     74  F   UNL A   1      39.835  35.325  36.332  1.00  0.00    -0.200 F 
ATOM     75  F   UNL A   1      38.251  34.367  38.335  1.00  0.00    -0.200 F 
ENDBRANCH  51  65
BRANCH  52  76
ATOM     76  C   UNL A   1      42.296  26.138  27.697  1.00  0.00     0.064 A 
ATOM     77  C   UNL A   1      41.590  24.923  27.651  1.00  0.00     0.173 A 
ATOM     78  C   UNL A   1      43.304  26.330  26.744  1.00  0.00     0.173 A 
ATOM     79  F   UNL A   1      40.633  24.671  28.558  1.00  0.00    -0.203 F 
ATOM     80  C   UNL A   1      41.858  23.957  26.685  1.00  0.00     0.198 A 
ATOM     81  C   UNL A   1      43.556  25.373  25.760  1.00  0.00     0.198 A 
ATOM     82  F   UNL A   1      44.035  27.452  26.753  1.00  0.00    -0.203 F 
ATOM     83  F   UNL A   1      41.170  22.807  26.681  1.00  0.00    -0.200 F 
ATOM     84  C   UNL A   1      42.834  24.189  25.731  1.00  0.00     0.200 A 
ATOM     85  F   UNL A   1      44.497  25.603  24.834  1.00  0.00    -0.200 F 
ATOM     86  F   UNL A   1      43.084  23.270  24.789  1.00  0.00    -0.200 F 
ENDBRANCH  52  76
BRANCH  64  87
ATOM     87  C   UNL A   1      45.075  27.594  33.868  1.00  0.00     0.064 A 
ATOM     88  C   UNL A   1      46.277  28.269  33.597  1.00  0.00     0.173 A 
ATOM     89  C   UNL A   1      45.114  26.516  34.763  1.00  0.00     0.173 A 
ATOM     90  F   UNL A   1      46.292  29.300  32.739  1.00  0.00    -0.203 F 
ATOM     91  C   UNL A   1      47.476  27.856  34.168  1.00  0.00     0.198 A 
ATOM     92  C   UNL A   1      46.313  26.119  35.351  1.00  0.00     0.198 A 
ATOM     93  F   UNL A   1      43.993  25.842  35.061  1.00  0.00    -0.203 F 
ATOM     94  F   UNL A   1      48.617  28.482  33.852  1.00  0.00    -0.200 F 
ATOM     95  C   UNL A   1      47.492  26.784  35.047  1.00  0.00     0.200 A 
ATOM     96  F   UNL A   1      46.330  25.087  36.205  1.00  0.00    -0.200 F 
ATOM     97  F   UNL A   1      48.650  26.382  35.591  1.00  0.00    -0.200 F 
ENDBRANCH  64  87
ENDBRANCH  38  39
ENDBRANCH  31  33
ENDBRANCH  30  31
ENDBRANCH  29  30
ENDBRANCH   1  29
TORSDOF 16
ENDMDL
MODEL 2
REMARK VINA RESULT:     -11.8      4.120      5.652
REMARK SMILES CCOc1ccccc1[C@@H](C(=O)OCCOC(=O)c1ccc(-c2c3nc(c(-c4c(F)c(F)c(F)c(F)c4F)c4ccc([nH]4)c(-c4c(F)c(F)c(F)c(F)c4F)c4nc(c(-c5c(F)c(F)c(F)c(F)c5F)c5ccc2[nH]5)C=C4)C=C3)cc1)[NH+]1CCC(C(=O)N2CCCC2)CC1
REMARK SMILES IDX 14 1 13 2 11 3 12 4 10 5 9 6 4 7 5 8 6 9 8 10 7 11 3 12 2 13
REMARK SMILES IDX 1 14 82 15 83 16 94 17 84 19 93 20 85 21 86 22 87 23 88 24
REMARK SMILES IDX 89 25 92 26 90 27 91 28 15 29 16 30 17 31 18 32 19 33 20 34
REMARK SMILES IDX 81 35 21 36 80 37 22 38 23 39 24 40 74 41 25 42 79 43 73 44
REMARK SMILES IDX 75 45 26 46 78 47 72 48 71 49 27 51 59 52 39 53 58 54 40 55
REMARK SMILES IDX 43 56 57 57 76 58 41 59 42 60 56 62 77 63 44 64 28 65 29 66
REMARK SMILES IDX 37 67 30 68 31 69 35 70 38 71 32 72 33 73 36 74 34 75 60 76
REMARK SMILES IDX 61 77 69 78 62 79 63 80 67 81 70 82 64 83 65 84 68 85 66 86
REMARK SMILES IDX 45 87 46 88 54 89 47 90 48 91 52 92 55 93 49 94 50 95 53 96
REMARK SMILES IDX 51 97
REMARK H PARENT 82 18 75 50 43 61
REMARK Flexibility Score: inf
ROOT
ATOM      1  C   UNL A   1      33.312  29.815  26.616  1.00  0.00     0.274 C 
ENDROOT
BRANCH   1   2
ATOM      2  O   UNL A   1      32.894  28.670  27.385  1.00  0.00    -0.457 OA
BRANCH   2   3
ATOM      3  C   UNL A   1      31.967  27.862  26.798  1.00  0.00     0.370 C 
ATOM      4  O   UNL A   1      31.087  27.274  27.425  1.00  0.00    -0.245 OA
BRANCH   3   5
ATOM      5  C   UNL A   1      32.221  27.627  25.303  1.00  0.00     0.330 C 
BRANCH   5   6
ATOM      6  C   UNL A   1      31.089  27.944  24.335  1.00  0.00     0.063 A 
ATOM      7  C   UNL A   1      30.017  27.042  24.200  1.00  0.00     0.129 A 
ATOM      8  C   UNL A   1      28.873  27.385  23.482  1.00  0.00     0.047 A 
ATOM      9  C   UNL A   1      28.797  28.629  22.857  1.00  0.00     0.004 A 
ATOM     10  C   UNL A   1      31.031  29.151  23.621  1.00  0.00     0.014 A 
ATOM     11  C   UNL A   1      29.887  29.496  22.899  1.00  0.00     0.001 A 
BRANCH   7  12
ATOM     12  O   UNL A   1      30.186  25.751  24.627  1.00  0.00    -0.493 OA
BRANCH  12  13
ATOM     13  C   UNL A   1      30.268  24.789  23.574  1.00  0.00     0.226 C 
ATOM     14  C   UNL A   1      30.874  23.523  24.171  1.00  0.00     0.049 C 
ENDBRANCH  12  13
ENDBRANCH   7  12
ENDBRANCH   5   6
BRANCH   5  15
ATOM     15  N   UNL A   1      32.975  26.356  25.031  1.00  0.00    -0.319 N 
ATOM     16  C   UNL A   1      33.653  26.277  23.740  1.00  0.00     0.264 C 
ATOM     17  C   UNL A   1      33.931  26.059  26.102  1.00  0.00     0.264 C 
ATOM     18  H   UNL A   1      32.238  25.650  24.998  1.00  0.00     0.349 HD
ATOM     19  C   UNL A   1      34.070  24.834  23.459  1.00  0.00     0.075 C 
ATOM     20  C   UNL A   1      34.405  24.620  26.022  1.00  0.00     0.075 C 
ATOM     21  C   UNL A   1      34.837  24.187  24.614  1.00  0.00     0.090 C 
BRANCH  21  22
ATOM     22  C   UNL A   1      34.846  22.661  24.560  1.00  0.00     0.226 C 
ATOM     23  O   UNL A   1      33.903  22.075  24.021  1.00  0.00    -0.275 OA
ATOM     24  N   UNL A   1      35.954  21.972  25.003  1.00  0.00    -0.342 N 
ATOM     25  C   UNL A   1      37.067  22.423  25.821  1.00  0.00     0.119 C 
ATOM     26  C   UNL A   1      36.141  20.583  24.627  1.00  0.00     0.119 C 
ATOM     27  C   UNL A   1      38.226  21.559  25.372  1.00  0.00     0.023 C 
ATOM     28  C   UNL A   1      37.550  20.227  25.092  1.00  0.00     0.023 C 
ENDBRANCH  21  22
ENDBRANCH   5  15
ENDBRANCH   3   5
ENDBRANCH   2   3
ENDBRANCH   1   2
BRANCH   1  29
ATOM     29  C   UNL A   1      33.574  31.022  27.513  1.00  0.00     0.275 C 
BRANCH  29  30
ATOM     30  O   UNL A   1      34.991  31.253  27.622  1.00  0.00    -0.458 OA
BRANCH  30  31
ATOM     31  C   UNL A   1      35.586  30.869  28.772  1.00  0.00     0.338 C 
ATOM     32  O   UNL A   1      35.205  31.116  29.912  1.00  0.00    -0.246 OA
BRANCH  31  33
ATOM     33  C   UNL A   1      36.773  30.023  28.498  1.00  0.00     0.060 A 
ATOM     34  C   UNL A   1      37.366  29.277  29.509  1.00  0.00     0.016 A 
ATOM     35  C   UNL A   1      37.404  30.085  27.252  1.00  0.00     0.016 A 
ATOM     36  C   UNL A   1      38.641  28.738  29.322  1.00  0.00     0.010 A 
ATOM     37  C   UNL A   1      38.647  29.456  27.046  1.00  0.00     0.010 A 
ATOM     38  C   UNL A   1      39.336  28.845  28.107  1.00  0.00    -0.014 A 
BRANCH  38  39
ATOM     39  C   UNL A   1      40.795  28.461  28.011  1.00  0.00     0.031 A 
ATOM     40  C   UNL A   1      41.872  29.341  28.627  1.00  0.00     0.074 A 
ATOM     41  C   UNL A   1      41.200  27.281  27.484  1.00  0.00     0.049 A 
ATOM     42  N   UNL A   1      43.177  29.272  28.488  1.00  0.00    -0.248 NA
ATOM     43  C   UNL A   1      41.438  30.457  29.482  1.00  0.00     0.031 C 
ATOM     44  C   UNL A   1      40.332  26.272  26.882  1.00  0.00     0.029 A 
ATOM     45  N   UNL A   1      42.447  26.689  27.446  1.00  0.00    -0.354 N 
ATOM     46  C   UNL A   1      43.693  30.406  29.107  1.00  0.00     0.074 A 
ATOM     47  C   UNL A   1      42.572  31.114  29.684  1.00  0.00     0.031 C 
ATOM     48  C   UNL A   1      41.024  25.133  26.716  1.00  0.00     0.029 A 
ATOM     49  C   UNL A   1      42.421  25.364  27.071  1.00  0.00     0.049 A 
ATOM     50  H   UNL A   1      43.277  27.170  27.667  1.00  0.00     0.167 HD
ATOM     51  C   UNL A   1      44.979  30.832  29.155  1.00  0.00     0.037 A 
ATOM     52  C   UNL A   1      43.406  24.440  27.026  1.00  0.00     0.037 A 
ATOM     53  C   UNL A   1      46.114  30.055  28.727  1.00  0.00     0.049 A 
ATOM     54  C   UNL A   1      44.830  24.871  27.252  1.00  0.00     0.074 A 
ATOM     55  C   UNL A   1      47.446  30.425  28.649  1.00  0.00     0.029 A 
ATOM     56  N   UNL A   1      46.054  28.716  28.383  1.00  0.00    -0.354 N 
ATOM     57  N   UNL A   1      45.296  26.033  27.629  1.00  0.00    -0.248 NA
ATOM     58  C   UNL A   1      45.871  23.866  26.981  1.00  0.00     0.031 C 
ATOM     59  C   UNL A   1      48.192  29.308  28.249  1.00  0.00     0.029 A 
ATOM     60  C   UNL A   1      47.325  28.241  28.103  1.00  0.00     0.049 A 
ATOM     61  H   UNL A   1      45.229  28.180  28.342  1.00  0.00     0.167 HD
ATOM     62  C   UNL A   1      46.679  25.914  27.594  1.00  0.00     0.074 A 
ATOM     63  C   UNL A   1      46.977  24.540  27.256  1.00  0.00     0.031 C 
ATOM     64  C   UNL A   1      47.617  26.877  27.758  1.00  0.00     0.037 A 
BRANCH  51  65
ATOM     65  C   UNL A   1      45.233  32.242  29.601  1.00  0.00     0.064 A 
ATOM     66  C   UNL A   1      45.120  33.345  28.748  1.00  0.00     0.173 A 
ATOM     67  C   UNL A   1      45.548  32.484  30.950  1.00  0.00     0.173 A 
ATOM     68  F   UNL A   1      44.842  33.169  27.447  1.00  0.00    -0.203 F 
ATOM     69  C   UNL A   1      45.326  34.640  29.224  1.00  0.00     0.198 A 
ATOM     70  C   UNL A   1      45.726  33.779  31.428  1.00  0.00     0.198 A 
ATOM     71  F   UNL A   1      45.663  31.461  31.811  1.00  0.00    -0.203 F 
ATOM     72  F   UNL A   1      45.250  35.682  28.384  1.00  0.00    -0.200 F 
ATOM     73  C   UNL A   1      45.620  34.855  30.564  1.00  0.00     0.200 A 
ATOM     74  F   UNL A   1      45.997  33.982  32.725  1.00  0.00    -0.200 F 
ATOM     75  F   UNL A   1      45.806  36.102  31.020  1.00  0.00    -0.200 F 
ENDBRANCH  51  65
BRANCH  52  76
ATOM     76  C   UNL A   1      43.107  22.996  26.793  1.00  0.00     0.064 A 
ATOM     77  C   UNL A   1      43.588  22.366  25.631  1.00  0.00     0.173 A 
ATOM     78  C   UNL A   1      42.353  22.217  27.678  1.00  0.00     0.173 A 
ATOM     79  F   UNL A   1      44.292  23.071  24.731  1.00  0.00    -0.203 F 
ATOM     80  C   UNL A   1      43.350  21.019  25.378  1.00  0.00     0.198 A 
ATOM     81  C   UNL A   1      42.135  20.860  27.438  1.00  0.00     0.198 A 
ATOM     82  F   UNL A   1      41.839  22.765  28.788  1.00  0.00    -0.203 F 
ATOM     83  F   UNL A   1      43.816  20.458  24.253  1.00  0.00    -0.200 F 
ATOM     84  C   UNL A   1      42.633  20.262  26.289  1.00  0.00     0.200 A 
ATOM     85  F   UNL A   1      41.447  20.129  28.324  1.00  0.00    -0.200 F 
ATOM     86  F   UNL A   1      42.417  18.960  26.058  1.00  0.00    -0.200 F 
ENDBRANCH  52  76
BRANCH  64  87
ATOM     87  C   UNL A   1      49.042  26.486  27.507  1.00  0.00     0.064 A 
ATOM     88  C   UNL A   1      49.533  26.374  26.196  1.00  0.00     0.173 A 
ATOM     89  C   UNL A   1      49.926  26.230  28.564  1.00  0.00     0.173 A 
ATOM     90  F   UNL A   1      48.722  26.598  25.151  1.00  0.00    -0.203 F 
ATOM     91  C   UNL A   1      50.846  25.983  25.952  1.00  0.00     0.198 A 
ATOM     92  C   UNL A   1      51.247  25.862  28.317  1.00  0.00     0.198 A 
ATOM     93  F   UNL A   1      49.510  26.330  29.835  1.00  0.00    -0.203 F 
ATOM     94  F   UNL A   1      51.275  25.831  24.692  1.00  0.00    -0.200 F 
ATOM     95  C   UNL A   1      51.702  25.730  27.013  1.00  0.00     0.200 A 
ATOM     96  F   UNL A   1      52.078  25.623  29.340  1.00  0.00    -0.200 F 
ATOM     97  F   UNL A   1      52.964  25.346  26.776  1.00  0.00    -0.200 F 
ENDBRANCH  64  87
ENDBRANCH  38  39
ENDBRANCH  31  33
ENDBRANCH  30  31
ENDBRANCH  29  30
ENDBRANCH   1  29
TORSDOF 16
ENDMDL
MODEL 3
REMARK VINA RESULT:     -11.7      1.369      7.265
REMARK SMILES CCOc1ccccc1[C@@H](C(=O)OCCOC(=O)c1ccc(-c2c3nc(c(-c4c(F)c(F)c(F)c(F)c4F)c4ccc([nH]4)c(-c4c(F)c(F)c(F)c(F)c4F)c4nc(c(-c5c(F)c(F)c(F)c(F)c5F)c5ccc2[nH]5)C=C4)C=C3)cc1)[NH+]1CCC(C(=O)N2CCCC2)CC1
REMARK SMILES IDX 14 1 13 2 11 3 12 4 10 5 9 6 4 7 5 8 6 9 8 10 7 11 3 12 2 13
REMARK SMILES IDX 1 14 82 15 83 16 94 17 84 19 93 20 85 21 86 22 87 23 88 24
REMARK SMILES IDX 89 25 92 26 90 27 91 28 15 29 16 30 17 31 18 32 19 33 20 34
REMARK SMILES IDX 81 35 21 36 80 37 22 38 23 39 24 40 74 41 25 42 79 43 73 44
REMARK SMILES IDX 75 45 26 46 78 47 72 48 71 49 27 51 59 52 39 53 58 54 40 55
REMARK SMILES IDX 43 56 57 57 76 58 41 59 42 60 56 62 77 63 44 64 28 65 29 66
REMARK SMILES IDX 37 67 30 68 31 69 35 70 38 71 32 72 33 73 36 74 34 75 60 76
REMARK SMILES IDX 61 77 69 78 62 79 63 80 67 81 70 82 64 83 65 84 68 85 66 86
REMARK SMILES IDX 45 87 46 88 54 89 47 90 48 91 52 92 55 93 49 94 50 95 53 96
REMARK SMILES IDX 51 97
REMARK H PARENT 82 18 75 50 43 61
REMARK Flexibility Score: inf
ROOT
ATOM      1  C   UNL A   1      32.794  29.954  26.437  1.00  0.00     0.274 C 
ENDROOT
BRANCH   1   2
ATOM      2  O   UNL A   1      31.959  29.140  27.283  1.00  0.00    -0.457 OA
BRANCH   2   3
ATOM      3  C   UNL A   1      31.486  27.989  26.727  1.00  0.00     0.370 C 
ATOM      4  O   UNL A   1      30.940  27.098  27.376  1.00  0.00    -0.245 OA
BRANCH   3   5
ATOM      5  C   UNL A   1      31.841  27.840  25.242  1.00  0.00     0.330 C 
BRANCH   5   6
ATOM      6  C   UNL A   1      30.758  28.161  24.221  1.00  0.00     0.063 A 
ATOM      7  C   UNL A   1      29.738  27.224  23.969  1.00  0.00     0.129 A 
ATOM      8  C   UNL A   1      28.627  27.558  23.198  1.00  0.00     0.047 A 
ATOM      9  C   UNL A   1      28.534  28.830  22.635  1.00  0.00     0.004 A 
ATOM     10  C   UNL A   1      30.690  29.402  23.567  1.00  0.00     0.014 A 
ATOM     11  C   UNL A   1      29.579  29.739  22.793  1.00  0.00     0.001 A 
BRANCH   7  12
ATOM     12  O   UNL A   1      29.938  25.920  24.338  1.00  0.00    -0.493 OA
BRANCH  12  13
ATOM     13  C   UNL A   1      30.071  25.012  23.243  1.00  0.00     0.226 C 
ATOM     14  C   UNL A   1      30.658  23.721  23.802  1.00  0.00     0.049 C 
ENDBRANCH  12  13
ENDBRANCH   7  12
ENDBRANCH   5   6
BRANCH   5  15
ATOM     15  N   UNL A   1      32.660  26.612  24.957  1.00  0.00    -0.319 N 
ATOM     16  C   UNL A   1      33.418  26.623  23.709  1.00  0.00     0.264 C 
ATOM     17  C   UNL A   1      33.561  26.299  26.071  1.00  0.00     0.264 C 
ATOM     18  H   UNL A   1      31.956  25.882  24.846  1.00  0.00     0.349 HD
ATOM     19  C   UNL A   1      33.910  25.213  23.387  1.00  0.00     0.075 C 
ATOM     20  C   UNL A   1      34.098  24.885  25.953  1.00  0.00     0.075 C 
ATOM     21  C   UNL A   1      34.631  24.539  24.556  1.00  0.00     0.090 C 
BRANCH  21  22
ATOM     22  C   UNL A   1      34.706  23.019  24.431  1.00  0.00     0.226 C 
ATOM     23  O   UNL A   1      33.818  22.424  23.813  1.00  0.00    -0.275 OA
ATOM     24  N   UNL A   1      35.816  22.352  24.903  1.00  0.00    -0.342 N 
ATOM     25  C   UNL A   1      36.864  22.805  25.802  1.00  0.00     0.119 C 
ATOM     26  C   UNL A   1      36.080  20.992  24.473  1.00  0.00     0.119 C 
ATOM     27  C   UNL A   1      38.079  22.010  25.379  1.00  0.00     0.023 C 
ATOM     28  C   UNL A   1      37.475  20.667  25.000  1.00  0.00     0.023 C 
ENDBRANCH  21  22
ENDBRANCH   5  15
ENDBRANCH   3   5
ENDBRANCH   2   3
ENDBRANCH   1   2
BRANCH   1  29
ATOM     29  C   UNL A   1      32.703  31.430  26.818  1.00  0.00     0.275 C 
BRANCH  29  30
ATOM     30  O   UNL A   1      33.488  31.680  27.999  1.00  0.00    -0.458 OA
BRANCH  30  31
ATOM     31  C   UNL A   1      34.500  32.568  27.884  1.00  0.00     0.338 C 
ATOM     32  O   UNL A   1      34.397  33.769  27.656  1.00  0.00    -0.246 OA
BRANCH  31  33
ATOM     33  C   UNL A   1      35.808  31.918  28.133  1.00  0.00     0.060 A 
ATOM     34  C   UNL A   1      35.919  30.534  28.191  1.00  0.00     0.016 A 
ATOM     35  C   UNL A   1      36.923  32.695  28.465  1.00  0.00     0.016 A 
ATOM     36  C   UNL A   1      37.069  29.948  28.724  1.00  0.00     0.010 A 
ATOM     37  C   UNL A   1      38.112  32.087  28.911  1.00  0.00     0.010 A 
ATOM     38  C   UNL A   1      38.180  30.702  29.138  1.00  0.00    -0.014 A 
BRANCH  38  39
ATOM     39  C   UNL A   1      39.304  30.062  29.920  1.00  0.00     0.031 A 
ATOM     40  C   UNL A   1      40.281  29.113  29.240  1.00  0.00     0.074 A 
ATOM     41  C   UNL A   1      39.564  30.383  31.210  1.00  0.00     0.049 A 
ATOM     42  N   UNL A   1      41.187  28.332  29.781  1.00  0.00    -0.248 NA
ATOM     43  C   UNL A   1      40.217  29.000  27.775  1.00  0.00     0.031 C 
ATOM     44  C   UNL A   1      38.784  31.301  32.035  1.00  0.00     0.029 A 
ATOM     45  N   UNL A   1      40.615  30.033  32.033  1.00  0.00    -0.354 N 
ATOM     46  C   UNL A   1      41.685  27.543  28.750  1.00  0.00     0.074 A 
ATOM     47  C   UNL A   1      41.034  27.982  27.536  1.00  0.00     0.031 C 
ATOM     48  C   UNL A   1      39.471  31.588  33.152  1.00  0.00     0.029 A 
ATOM     49  C   UNL A   1      40.681  30.772  33.194  1.00  0.00     0.049 A 
ATOM     50  H   UNL A   1      41.257  29.321  31.811  1.00  0.00     0.167 HD
ATOM     51  C   UNL A   1      42.576  26.523  28.819  1.00  0.00     0.037 A 
ATOM     52  C   UNL A   1      41.611  30.797  34.173  1.00  0.00     0.037 A 
ATOM     53  C   UNL A   1      43.345  26.188  29.989  1.00  0.00     0.049 A 
ATOM     54  C   UNL A   1      42.713  29.772  34.167  1.00  0.00     0.074 A 
ATOM     55  C   UNL A   1      44.206  25.122  30.193  1.00  0.00     0.029 A 
ATOM     56  N   UNL A   1      43.408  26.971  31.128  1.00  0.00    -0.354 N 
ATOM     57  N   UNL A   1      43.018  28.885  33.255  1.00  0.00    -0.248 NA
ATOM     58  C   UNL A   1      43.565  29.717  35.366  1.00  0.00     0.031 C 
ATOM     59  C   UNL A   1      44.784  25.257  31.462  1.00  0.00     0.029 A 
ATOM     60  C   UNL A   1      44.300  26.420  32.034  1.00  0.00     0.049 A 
ATOM     61  H   UNL A   1      42.894  27.798  31.274  1.00  0.00     0.167 HD
ATOM     62  C   UNL A   1      44.059  28.137  33.789  1.00  0.00     0.074 A 
ATOM     63  C   UNL A   1      44.402  28.737  35.060  1.00  0.00     0.031 C 
ATOM     64  C   UNL A   1      44.632  27.012  33.300  1.00  0.00     0.037 A 
BRANCH  51  65
ATOM     65  C   UNL A   1      42.704  25.624  27.624  1.00  0.00     0.064 A 
ATOM     66  C   UNL A   1      43.688  25.792  26.644  1.00  0.00     0.173 A 
ATOM     67  C   UNL A   1      41.832  24.527  27.500  1.00  0.00     0.173 A 
ATOM     68  F   UNL A   1      44.531  26.833  26.703  1.00  0.00    -0.203 F 
ATOM     69  C   UNL A   1      43.789  24.902  25.574  1.00  0.00     0.198 A 
ATOM     70  C   UNL A   1      41.953  23.626  26.446  1.00  0.00     0.198 A 
ATOM     71  F   UNL A   1      40.874  24.319  28.416  1.00  0.00    -0.203 F 
ATOM     72  F   UNL A   1      44.715  25.099  24.625  1.00  0.00    -0.200 F 
ATOM     73  C   UNL A   1      42.927  23.817  25.481  1.00  0.00     0.200 A 
ATOM     74  F   UNL A   1      41.127  22.573  26.368  1.00  0.00    -0.200 F 
ATOM     75  F   UNL A   1      43.036  22.958  24.459  1.00  0.00    -0.200 F 
ENDBRANCH  51  65
BRANCH  52  76
ATOM     76  C   UNL A   1      41.589  31.840  35.240  1.00  0.00     0.064 A 
ATOM     77  C   UNL A   1      40.642  31.754  36.277  1.00  0.00     0.173 A 
ATOM     78  C   UNL A   1      42.469  32.928  35.267  1.00  0.00     0.173 A 
ATOM     79  F   UNL A   1      39.752  30.749  36.287  1.00  0.00    -0.203 F 
ATOM     80  C   UNL A   1      40.593  32.693  37.303  1.00  0.00     0.198 A 
ATOM     81  C   UNL A   1      42.437  33.856  36.308  1.00  0.00     0.198 A 
ATOM     82  F   UNL A   1      43.375  33.086  34.291  1.00  0.00    -0.203 F 
ATOM     83  F   UNL A   1      39.669  32.582  38.266  1.00  0.00    -0.200 F 
ATOM     84  C   UNL A   1      41.500  33.738  37.325  1.00  0.00     0.200 A 
ATOM     85  F   UNL A   1      43.321  34.862  36.330  1.00  0.00    -0.200 F 
ATOM     86  F   UNL A   1      41.468  34.634  38.320  1.00  0.00    -0.200 F 
ENDBRANCH  52  76
BRANCH  64  87
ATOM     87  C   UNL A   1      45.637  26.327  34.176  1.00  0.00     0.064 A 
ATOM     88  C   UNL A   1      45.222  25.426  35.171  1.00  0.00     0.173 A 
ATOM     89  C   UNL A   1      47.012  26.554  34.026  1.00  0.00     0.173 A 
ATOM     90  F   UNL A   1      43.916  25.184  35.360  1.00  0.00    -0.203 F 
ATOM     91  C   UNL A   1      46.145  24.807  36.008  1.00  0.00     0.198 A 
ATOM     92  C   UNL A   1      47.934  25.915  34.852  1.00  0.00     0.198 A 
ATOM     93  F   UNL A   1      47.460  27.400  33.087  1.00  0.00    -0.203 F 
ATOM     94  F   UNL A   1      45.721  23.994  36.985  1.00  0.00    -0.200 F 
ATOM     95  C   UNL A   1      47.500  25.050  35.846  1.00  0.00     0.200 A 
ATOM     96  F   UNL A   1      49.245  26.143  34.692  1.00  0.00    -0.200 F 
ATOM     97  F   UNL A   1      48.388  24.459  36.658  1.00  0.00    -0.200 F 
ENDBRANCH  64  87
ENDBRANCH  38  39
ENDBRANCH  31  33
ENDBRANCH  30  31
ENDBRANCH  29  30
ENDBRANCH   1  29
TORSDOF 16
ENDMDL
