MODEL 1
REMARK VINA RESULT:     -11.7      0.000      0.000
REMARK SMILES O=CN[C@@H](CCS[C@@H]1CCO[C@]2(CCOC2)C1)C(=O)OCCOC(=O)c1ccc(-c2c3nc(c(-c4c(F)c(F)c(F)c(F)c4F)c4ccc([nH]4)c(-c4c(F)c(F)c(F)c(F)c4F)c4nc(c(-c5c(F)c(F)c(F)c(F)c5F)c5ccc2[nH]5)C=C4)C=C3)cc1
REMARK SMILES IDX 21 1 20 2 18 3 19 4 4 5 3 6 1 7 2 8 5 10 6 11 7 12 8 13 9 14
REMARK SMILES IDX 17 15 10 16 12 17 11 18 13 19 16 20 14 21 15 22 22 23 23 24
REMARK SMILES IDX 24 25 25 26 26 27 27 28 88 29 28 30 87 31 29 32 30 33 31 34
REMARK SMILES IDX 81 35 32 36 86 37 80 38 82 39 33 40 85 41 79 42 78 43 34 45
REMARK SMILES IDX 66 46 46 47 65 48 47 49 50 50 64 51 83 52 48 53 49 54 63 56
REMARK SMILES IDX 84 57 51 58 35 59 36 60 44 61 37 62 38 63 42 64 45 65 39 66
REMARK SMILES IDX 40 67 43 68 41 69 67 70 68 71 76 72 69 73 70 74 74 75 77 76
REMARK SMILES IDX 71 77 72 78 75 79 73 80 52 81 53 82 61 83 54 84 55 85 59 86
REMARK SMILES IDX 62 87 56 88 57 89 60 90 58 91
REMARK H PARENT 3 9 82 44 50 55
REMARK Flexibility Score: inf
ROOT
ATOM      1  C   UNL A   1      35.664  20.954  25.041  1.00  0.00     0.274 C 
ENDROOT
BRANCH   1   2
ATOM      2  O   UNL A   1      35.360  21.552  26.323  1.00  0.00    -0.461 OA
BRANCH   2   3
ATOM      3  C   UNL A   1      34.056  21.451  26.700  1.00  0.00     0.328 C 
ATOM      4  O   UNL A   1      33.589  21.956  27.716  1.00  0.00    -0.250 OA
BRANCH   3   5
ATOM      5  C   UNL A   1      33.220  20.558  25.757  1.00  0.00     0.192 C 
BRANCH   5   6
ATOM      6  N   UNL A   1      32.915  19.194  26.171  1.00  0.00    -0.345 N 
ATOM      7  O   UNL A   1      32.701  16.980  25.752  1.00  0.00    -0.279 OA
ATOM      8  C   UNL A   1      32.793  18.124  25.334  1.00  0.00     0.337 C 
ATOM      9  H   UNL A   1      32.786  19.032  27.132  1.00  0.00     0.164 HD
ENDBRANCH   5   6
BRANCH   5  10
ATOM     10  C   UNL A   1      31.963  21.302  25.291  1.00  0.00     0.048 C 
BRANCH  10  11
ATOM     11  C   UNL A   1      32.018  22.754  24.773  1.00  0.00     0.072 C 
BRANCH  11  12
ATOM     12  S   UNL A   1      31.330  24.159  25.715  1.00  0.00    -0.158 SA
BRANCH  12  13
ATOM     13  C   UNL A   1      32.589  25.529  25.750  1.00  0.00     0.052 C 
ATOM     14  C   UNL A   1      32.268  26.871  26.372  1.00  0.00     0.043 C 
ATOM     15  C   UNL A   1      33.302  25.788  24.425  1.00  0.00     0.052 C 
ATOM     16  C   UNL A   1      31.447  27.758  25.465  1.00  0.00     0.162 C 
ATOM     17  C   UNL A   1      32.576  26.792  23.514  1.00  0.00     0.095 C 
ATOM     18  O   UNL A   1      32.060  27.934  24.197  1.00  0.00    -0.372 OA
ATOM     19  C   UNL A   1      31.586  26.107  22.583  1.00  0.00     0.066 C 
ATOM     20  C   UNL A   1      33.544  27.345  22.457  1.00  0.00     0.195 C 
ATOM     21  C   UNL A   1      32.471  25.556  21.474  1.00  0.00     0.163 C 
ATOM     22  O   UNL A   1      33.654  26.360  21.426  1.00  0.00    -0.378 OA
ENDBRANCH  12  13
ENDBRANCH  11  12
ENDBRANCH  10  11
ENDBRANCH   5  10
ENDBRANCH   3   5
ENDBRANCH   2   3
ENDBRANCH   1   2
BRANCH   1  23
ATOM     23  C   UNL A   1      37.157  21.092  24.723  1.00  0.00     0.275 C 
BRANCH  23  24
ATOM     24  O   UNL A   1      37.743  21.997  25.675  1.00  0.00    -0.458 OA
BRANCH  24  25
ATOM     25  C   UNL A   1      38.948  21.593  26.128  1.00  0.00     0.338 C 
ATOM     26  O   UNL A   1      39.535  20.550  25.851  1.00  0.00    -0.246 OA
BRANCH  25  27
ATOM     27  C   UNL A   1      39.631  22.769  26.680  1.00  0.00     0.060 A 
ATOM     28  C   UNL A   1      39.187  23.999  26.197  1.00  0.00     0.016 A 
ATOM     29  C   UNL A   1      40.642  22.711  27.632  1.00  0.00     0.016 A 
ATOM     30  C   UNL A   1      39.742  25.187  26.625  1.00  0.00     0.010 A 
ATOM     31  C   UNL A   1      41.227  23.908  28.060  1.00  0.00     0.010 A 
ATOM     32  C   UNL A   1      40.790  25.143  27.540  1.00  0.00    -0.014 A 
BRANCH  32  33
ATOM     33  C   UNL A   1      41.540  26.391  27.767  1.00  0.00     0.031 A 
ATOM     34  C   UNL A   1      40.885  27.461  28.585  1.00  0.00     0.074 A 
ATOM     35  C   UNL A   1      42.816  26.505  27.361  1.00  0.00     0.049 A 
ATOM     36  N   UNL A   1      41.276  28.685  28.821  1.00  0.00    -0.248 NA
ATOM     37  C   UNL A   1      39.610  27.099  29.227  1.00  0.00     0.031 C 
ATOM     38  C   UNL A   1      43.585  25.460  26.685  1.00  0.00     0.029 A 
ATOM     39  N   UNL A   1      43.693  27.550  27.472  1.00  0.00    -0.354 N 
ATOM     40  C   UNL A   1      40.273  29.251  29.596  1.00  0.00     0.074 A 
ATOM     41  C   UNL A   1      39.257  28.242  29.794  1.00  0.00     0.031 C 
ATOM     42  C   UNL A   1      44.822  25.921  26.436  1.00  0.00     0.029 A 
ATOM     43  C   UNL A   1      44.906  27.310  26.877  1.00  0.00     0.049 A 
ATOM     44  H   UNL A   1      43.475  28.392  27.935  1.00  0.00     0.167 HD
ATOM     45  C   UNL A   1      40.214  30.509  30.090  1.00  0.00     0.037 A 
ATOM     46  C   UNL A   1      45.942  28.145  26.676  1.00  0.00     0.037 A 
ATOM     47  C   UNL A   1      41.257  31.481  29.902  1.00  0.00     0.049 A 
ATOM     48  C   UNL A   1      45.821  29.563  27.168  1.00  0.00     0.074 A 
ATOM     49  C   UNL A   1      41.302  32.798  30.317  1.00  0.00     0.029 A 
ATOM     50  N   UNL A   1      42.455  31.223  29.246  1.00  0.00    -0.354 N 
ATOM     51  N   UNL A   1      44.836  30.132  27.823  1.00  0.00    -0.248 NA
ATOM     52  C   UNL A   1      46.949  30.458  26.884  1.00  0.00     0.031 C 
ATOM     53  C   UNL A   1      42.511  33.350  29.879  1.00  0.00     0.029 A 
ATOM     54  C   UNL A   1      43.242  32.362  29.234  1.00  0.00     0.049 A 
ATOM     55  H   UNL A   1      42.707  30.359  28.848  1.00  0.00     0.167 HD
ATOM     56  C   UNL A   1      45.230  31.443  28.046  1.00  0.00     0.074 A 
ATOM     57  C   UNL A   1      46.556  31.577  27.475  1.00  0.00     0.031 C 
ATOM     58  C   UNL A   1      44.561  32.452  28.659  1.00  0.00     0.037 A 
BRANCH  45  59
ATOM     59  C   UNL A   1      38.958  30.907  30.808  1.00  0.00     0.064 A 
ATOM     60  C   UNL A   1      38.817  30.774  32.197  1.00  0.00     0.173 A 
ATOM     61  C   UNL A   1      37.867  31.409  30.083  1.00  0.00     0.173 A 
ATOM     62  F   UNL A   1      39.821  30.273  32.933  1.00  0.00    -0.203 F 
ATOM     63  C   UNL A   1      37.620  31.100  32.830  1.00  0.00     0.198 A 
ATOM     64  C   UNL A   1      36.682  31.764  30.723  1.00  0.00     0.198 A 
ATOM     65  F   UNL A   1      37.945  31.551  28.751  1.00  0.00    -0.203 F 
ATOM     66  F   UNL A   1      37.487  30.909  34.150  1.00  0.00    -0.200 F 
ATOM     67  C   UNL A   1      36.555  31.600  32.094  1.00  0.00     0.200 A 
ATOM     68  F   UNL A   1      35.658  32.252  30.010  1.00  0.00    -0.200 F 
ATOM     69  F   UNL A   1      35.403  31.911  32.703  1.00  0.00    -0.200 F 
ENDBRANCH  45  59
BRANCH  46  70
ATOM     70  C   UNL A   1      47.147  27.681  25.938  1.00  0.00     0.064 A 
ATOM     71  C   UNL A   1      47.209  27.735  24.540  1.00  0.00     0.173 A 
ATOM     72  C   UNL A   1      48.260  27.157  26.617  1.00  0.00     0.173 A 
ATOM     73  F   UNL A   1      46.163  28.205  23.842  1.00  0.00    -0.203 F 
ATOM     74  C   UNL A   1      48.325  27.269  23.847  1.00  0.00     0.198 A 
ATOM     75  C   UNL A   1      49.388  26.721  25.926  1.00  0.00     0.198 A 
ATOM     76  F   UNL A   1      48.255  27.078  27.956  1.00  0.00    -0.203 F 
ATOM     77  F   UNL A   1      48.337  27.288  22.507  1.00  0.00    -0.200 F 
ATOM     78  C   UNL A   1      49.417  26.768  24.541  1.00  0.00     0.200 A 
ATOM     79  F   UNL A   1      50.445  26.251  26.602  1.00  0.00    -0.200 F 
ATOM     80  F   UNL A   1      50.491  26.325  23.876  1.00  0.00    -0.200 F 
ENDBRANCH  46  70
BRANCH  58  81
ATOM     81  C   UNL A   1      45.275  33.767  28.767  1.00  0.00     0.064 A 
ATOM     82  C   UNL A   1      45.121  34.770  27.799  1.00  0.00     0.173 A 
ATOM     83  C   UNL A   1      46.108  34.030  29.865  1.00  0.00     0.173 A 
ATOM     84  F   UNL A   1      44.348  34.558  26.724  1.00  0.00    -0.203 F 
ATOM     85  C   UNL A   1      45.806  35.976  27.906  1.00  0.00     0.198 A 
ATOM     86  C   UNL A   1      46.766  35.250  29.986  1.00  0.00     0.198 A 
ATOM     87  F   UNL A   1      46.280  33.106  30.822  1.00  0.00    -0.203 F 
ATOM     88  F   UNL A   1      45.694  36.896  26.940  1.00  0.00    -0.200 F 
ATOM     89  C   UNL A   1      46.623  36.217  29.002  1.00  0.00     0.200 A 
ATOM     90  F   UNL A   1      47.542  35.488  31.052  1.00  0.00    -0.200 F 
ATOM     91  F   UNL A   1      47.281  37.380  29.104  1.00  0.00    -0.200 F 
ENDBRANCH  58  81
ENDBRANCH  32  33
ENDBRANCH  25  27
ENDBRANCH  24  25
ENDBRANCH  23  24
ENDBRANCH   1  23
TORSDOF 16
ENDMDL
MODEL 2
REMARK VINA RESULT:     -11.6      4.572     10.033
REMARK SMILES O=CN[C@@H](CCS[C@@H]1CCO[C@]2(CCOC2)C1)C(=O)OCCOC(=O)c1ccc(-c2c3nc(c(-c4c(F)c(F)c(F)c(F)c4F)c4ccc([nH]4)c(-c4c(F)c(F)c(F)c(F)c4F)c4nc(c(-c5c(F)c(F)c(F)c(F)c5F)c5ccc2[nH]5)C=C4)C=C3)cc1
REMARK SMILES IDX 21 1 20 2 18 3 19 4 4 5 3 6 1 7 2 8 5 10 6 11 7 12 8 13 9 14
REMARK SMILES IDX 17 15 10 16 12 17 11 18 13 19 16 20 14 21 15 22 22 23 23 24
REMARK SMILES IDX 24 25 25 26 26 27 27 28 88 29 28 30 87 31 29 32 30 33 31 34
REMARK SMILES IDX 81 35 32 36 86 37 80 38 82 39 33 40 85 41 79 42 78 43 34 45
REMARK SMILES IDX 66 46 46 47 65 48 47 49 50 50 64 51 83 52 48 53 49 54 63 56
REMARK SMILES IDX 84 57 51 58 35 59 36 60 44 61 37 62 38 63 42 64 45 65 39 66
REMARK SMILES IDX 40 67 43 68 41 69 67 70 68 71 76 72 69 73 70 74 74 75 77 76
REMARK SMILES IDX 71 77 72 78 75 79 73 80 52 81 53 82 61 83 54 84 55 85 59 86
REMARK SMILES IDX 62 87 56 88 57 89 60 90 58 91
REMARK H PARENT 3 9 82 44 50 55
REMARK Flexibility Score: inf
ROOT
ATOM      1  C   UNL A   1      31.912  29.501  25.472  1.00  0.00     0.274 C 
ENDROOT
BRANCH   1   2
ATOM      2  O   UNL A   1      32.984  29.565  24.502  1.00  0.00    -0.461 OA
BRANCH   2   3
ATOM      3  C   UNL A   1      32.704  28.974  23.307  1.00  0.00     0.328 C 
ATOM      4  O   UNL A   1      33.553  28.567  22.521  1.00  0.00    -0.250 OA
BRANCH   3   5
ATOM      5  C   UNL A   1      31.192  28.937  22.990  1.00  0.00     0.192 C 
BRANCH   5   6
ATOM      6  N   UNL A   1      30.665  29.852  21.984  1.00  0.00    -0.345 N 
ATOM      7  O   UNL A   1      29.087  31.282  21.215  1.00  0.00    -0.279 OA
ATOM      8  C   UNL A   1      29.415  30.397  21.991  1.00  0.00     0.337 C 
ATOM      9  H   UNL A   1      31.259  30.095  21.239  1.00  0.00     0.164 HD
ENDBRANCH   5   6
BRANCH   5  10
ATOM     10  C   UNL A   1      30.733  27.497  22.740  1.00  0.00     0.048 C 
BRANCH  10  11
ATOM     11  C   UNL A   1      29.802  26.754  23.721  1.00  0.00     0.072 C 
BRANCH  11  12
ATOM     12  S   UNL A   1      30.378  26.121  25.334  1.00  0.00    -0.158 SA
BRANCH  12  13
ATOM     13  C   UNL A   1      30.655  24.287  25.193  1.00  0.00     0.052 C 
ATOM     14  C   UNL A   1      31.244  23.493  26.339  1.00  0.00     0.043 C 
ATOM     15  C   UNL A   1      31.344  23.832  23.908  1.00  0.00     0.052 C 
ATOM     16  C   UNL A   1      32.746  23.630  26.438  1.00  0.00     0.162 C 
ATOM     17  C   UNL A   1      32.881  23.823  23.997  1.00  0.00     0.095 C 
ATOM     18  O   UNL A   1      33.392  23.294  25.220  1.00  0.00    -0.372 OA
ATOM     19  C   UNL A   1      33.485  25.155  23.578  1.00  0.00     0.066 C 
ATOM     20  C   UNL A   1      33.471  22.941  22.886  1.00  0.00     0.195 C 
ATOM     21  C   UNL A   1      33.452  25.092  22.058  1.00  0.00     0.163 C 
ATOM     22  O   UNL A   1      33.461  23.711  21.682  1.00  0.00    -0.378 OA
ENDBRANCH  12  13
ENDBRANCH  11  12
ENDBRANCH  10  11
ENDBRANCH   5  10
ENDBRANCH   3   5
ENDBRANCH   2   3
ENDBRANCH   1   2
BRANCH   1  23
ATOM     23  C   UNL A   1      31.841  30.800  26.281  1.00  0.00     0.275 C 
BRANCH  23  24
ATOM     24  O   UNL A   1      32.845  30.751  27.309  1.00  0.00    -0.458 OA
BRANCH  24  25
ATOM     25  C   UNL A   1      33.511  31.914  27.463  1.00  0.00     0.338 C 
ATOM     26  O   UNL A   1      33.038  33.048  27.462  1.00  0.00    -0.246 OA
BRANCH  25  27
ATOM     27  C   UNL A   1      34.825  31.600  28.038  1.00  0.00     0.060 A 
ATOM     28  C   UNL A   1      34.977  30.294  28.501  1.00  0.00     0.016 A 
ATOM     29  C   UNL A   1      35.880  32.502  28.118  1.00  0.00     0.016 A 
ATOM     30  C   UNL A   1      36.157  29.861  29.069  1.00  0.00     0.010 A 
ATOM     31  C   UNL A   1      37.076  32.081  28.711  1.00  0.00     0.010 A 
ATOM     32  C   UNL A   1      37.205  30.767  29.204  1.00  0.00    -0.014 A 
BRANCH  32  33
ATOM     33  C   UNL A   1      38.340  30.364  30.053  1.00  0.00     0.031 A 
ATOM     34  C   UNL A   1      39.382  29.474  29.450  1.00  0.00     0.074 A 
ATOM     35  C   UNL A   1      38.494  30.887  31.282  1.00  0.00     0.049 A 
ATOM     36  N   UNL A   1      40.400  28.882  30.016  1.00  0.00    -0.248 NA
ATOM     37  C   UNL A   1      39.259  29.215  28.006  1.00  0.00     0.031 C 
ATOM     38  C   UNL A   1      37.607  31.875  31.897  1.00  0.00     0.029 A 
ATOM     39  N   UNL A   1      39.461  30.668  32.225  1.00  0.00    -0.354 N 
ATOM     40  C   UNL A   1      41.007  28.145  29.009  1.00  0.00     0.074 A 
ATOM     41  C   UNL A   1      40.249  28.361  27.798  1.00  0.00     0.031 C 
ATOM     42  C   UNL A   1      38.071  32.173  33.123  1.00  0.00     0.029 A 
ATOM     43  C   UNL A   1      39.245  31.350  33.396  1.00  0.00     0.049 A 
ATOM     44  H   UNL A   1      40.237  30.079  32.077  1.00  0.00     0.167 HD
ATOM     45  C   UNL A   1      42.099  27.353  29.101  1.00  0.00     0.037 A 
ATOM     46  C   UNL A   1      39.904  31.272  34.567  1.00  0.00     0.037 A 
ATOM     47  C   UNL A   1      42.851  27.182  30.316  1.00  0.00     0.049 A 
ATOM     48  C   UNL A   1      41.071  30.325  34.667  1.00  0.00     0.074 A 
ATOM     49  C   UNL A   1      43.952  26.381  30.550  1.00  0.00     0.029 A 
ATOM     50  N   UNL A   1      42.575  27.848  31.505  1.00  0.00    -0.354 N 
ATOM     51  N   UNL A   1      41.596  29.556  33.742  1.00  0.00    -0.248 NA
ATOM     52  C   UNL A   1      41.731  30.229  35.974  1.00  0.00     0.031 C 
ATOM     53  C   UNL A   1      44.319  26.532  31.892  1.00  0.00     0.029 A 
ATOM     54  C   UNL A   1      43.479  27.466  32.481  1.00  0.00     0.049 A 
ATOM     55  H   UNL A   1      41.844  28.495  31.633  1.00  0.00     0.167 HD
ATOM     56  C   UNL A   1      42.656  28.897  34.347  1.00  0.00     0.074 A 
ATOM     57  C   UNL A   1      42.714  29.377  35.714  1.00  0.00     0.031 C 
ATOM     58  C   UNL A   1      43.504  27.972  33.830  1.00  0.00     0.037 A 
BRANCH  45  59
ATOM     59  C   UNL A   1      42.487  26.572  27.880  1.00  0.00     0.064 A 
ATOM     60  C   UNL A   1      43.417  27.055  26.948  1.00  0.00     0.173 A 
ATOM     61  C   UNL A   1      41.895  25.325  27.630  1.00  0.00     0.173 A 
ATOM     62  F   UNL A   1      43.992  28.255  27.126  1.00  0.00    -0.203 F 
ATOM     63  C   UNL A   1      43.717  26.333  25.795  1.00  0.00     0.198 A 
ATOM     64  C   UNL A   1      42.221  24.590  26.492  1.00  0.00     0.198 A 
ATOM     65  F   UNL A   1      40.995  24.818  28.486  1.00  0.00    -0.203 F 
ATOM     66  F   UNL A   1      44.563  26.840  24.888  1.00  0.00    -0.200 F 
ATOM     67  C   UNL A   1      43.123  25.099  25.571  1.00  0.00     0.200 A 
ATOM     68  F   UNL A   1      41.649  23.397  26.281  1.00  0.00    -0.200 F 
ATOM     69  F   UNL A   1      43.411  24.406  24.460  1.00  0.00    -0.200 F 
ENDBRANCH  45  59
BRANCH  46  70
ATOM     70  C   UNL A   1      39.448  32.065  35.739  1.00  0.00     0.064 A 
ATOM     71  C   UNL A   1      40.000  33.320  36.027  1.00  0.00     0.173 A 
ATOM     72  C   UNL A   1      38.459  31.577  36.609  1.00  0.00     0.173 A 
ATOM     73  F   UNL A   1      40.965  33.822  35.241  1.00  0.00    -0.203 F 
ATOM     74  C   UNL A   1      39.596  34.048  37.145  1.00  0.00     0.198 A 
ATOM     75  C   UNL A   1      38.032  32.319  37.708  1.00  0.00     0.198 A 
ATOM     76  F   UNL A   1      37.897  30.380  36.384  1.00  0.00    -0.203 F 
ATOM     77  F   UNL A   1      40.176  35.223  37.423  1.00  0.00    -0.200 F 
ATOM     78  C   UNL A   1      38.608  33.549  37.981  1.00  0.00     0.200 A 
ATOM     79  F   UNL A   1      37.067  31.839  38.504  1.00  0.00    -0.200 F 
ATOM     80  F   UNL A   1      38.216  34.252  39.053  1.00  0.00    -0.200 F 
ENDBRANCH  46  70
BRANCH  58  81
ATOM     81  C   UNL A   1      44.579  27.459  34.742  1.00  0.00     0.064 A 
ATOM     82  C   UNL A   1      45.818  28.106  34.857  1.00  0.00     0.173 A 
ATOM     83  C   UNL A   1      44.356  26.314  35.522  1.00  0.00     0.173 A 
ATOM     84  F   UNL A   1      46.083  29.194  34.119  1.00  0.00    -0.203 F 
ATOM     85  C   UNL A   1      46.810  27.604  35.694  1.00  0.00     0.198 A 
ATOM     86  C   UNL A   1      45.338  25.834  36.383  1.00  0.00     0.198 A 
ATOM     87  F   UNL A   1      43.184  25.665  35.453  1.00  0.00    -0.203 F 
ATOM     88  F   UNL A   1      48.007  28.201  35.743  1.00  0.00    -0.200 F 
ATOM     89  C   UNL A   1      46.567  26.473  36.459  1.00  0.00     0.200 A 
ATOM     90  F   UNL A   1      45.098  24.750  37.133  1.00  0.00    -0.200 F 
ATOM     91  F   UNL A   1      47.524  25.991  37.266  1.00  0.00    -0.200 F 
ENDBRANCH  58  81
ENDBRANCH  32  33
ENDBRANCH  25  27
ENDBRANCH  24  25
ENDBRANCH  23  24
ENDBRANCH   1  23
TORSDOF 16
ENDMDL
MODEL 3
REMARK VINA RESULT:     -11.6      4.281      9.804
REMARK SMILES O=CN[C@@H](CCS[C@@H]1CCO[C@]2(CCOC2)C1)C(=O)OCCOC(=O)c1ccc(-c2c3nc(c(-c4c(F)c(F)c(F)c(F)c4F)c4ccc([nH]4)c(-c4c(F)c(F)c(F)c(F)c4F)c4nc(c(-c5c(F)c(F)c(F)c(F)c5F)c5ccc2[nH]5)C=C4)C=C3)cc1
REMARK SMILES IDX 21 1 20 2 18 3 19 4 4 5 3 6 1 7 2 8 5 10 6 11 7 12 8 13 9 14
REMARK SMILES IDX 17 15 10 16 12 17 11 18 13 19 16 20 14 21 15 22 22 23 23 24
REMARK SMILES IDX 24 25 25 26 26 27 27 28 88 29 28 30 87 31 29 32 30 33 31 34
REMARK SMILES IDX 81 35 32 36 86 37 80 38 82 39 33 40 85 41 79 42 78 43 34 45
REMARK SMILES IDX 66 46 46 47 65 48 47 49 50 50 64 51 83 52 48 53 49 54 63 56
REMARK SMILES IDX 84 57 51 58 35 59 36 60 44 61 37 62 38 63 42 64 45 65 39 66
REMARK SMILES IDX 40 67 43 68 41 69 67 70 68 71 76 72 69 73 70 74 74 75 77 76
REMARK SMILES IDX 71 77 72 78 75 79 73 80 52 81 53 82 61 83 54 84 55 85 59 86
REMARK SMILES IDX 62 87 56 88 57 89 60 90 58 91
REMARK H PARENT 3 9 82 44 50 55
REMARK Flexibility Score: inf
ROOT
ATOM      1  C   UNL A   1      31.433  29.511  25.379  1.00  0.00     0.274 C 
ENDROOT
BRANCH   1   2
ATOM      2  O   UNL A   1      32.274  28.393  25.750  1.00  0.00    -0.461 OA
BRANCH   2   3
ATOM      3  C   UNL A   1      31.693  27.506  26.605  1.00  0.00     0.328 C 
ATOM      4  O   UNL A   1      31.259  27.798  27.714  1.00  0.00    -0.250 OA
BRANCH   3   5
ATOM      5  C   UNL A   1      31.706  26.055  26.073  1.00  0.00     0.192 C 
BRANCH   5   6
ATOM      6  N   UNL A   1      31.304  24.978  26.969  1.00  0.00    -0.345 N 
ATOM      7  O   UNL A   1      30.180  23.063  27.412  1.00  0.00    -0.279 OA
ATOM      8  C   UNL A   1      30.357  24.036  26.694  1.00  0.00     0.337 C 
ATOM      9  H   UNL A   1      31.751  24.925  27.843  1.00  0.00     0.164 HD
ENDBRANCH   5   6
BRANCH   5  10
ATOM     10  C   UNL A   1      30.979  25.973  24.726  1.00  0.00     0.048 C 
BRANCH  10  11
ATOM     11  C   UNL A   1      31.740  25.997  23.385  1.00  0.00     0.072 C 
BRANCH  11  12
ATOM     12  S   UNL A   1      33.538  25.697  23.270  1.00  0.00    -0.158 SA
BRANCH  12  13
ATOM     13  C   UNL A   1      33.819  23.923  22.781  1.00  0.00     0.052 C 
ATOM     14  C   UNL A   1      32.702  22.904  22.856  1.00  0.00     0.043 C 
ATOM     15  C   UNL A   1      35.074  23.281  23.366  1.00  0.00     0.052 C 
ATOM     16  C   UNL A   1      32.462  22.396  24.258  1.00  0.00     0.162 C 
ATOM     17  C   UNL A   1      34.856  22.626  24.741  1.00  0.00     0.095 C 
ATOM     18  O   UNL A   1      33.646  21.876  24.844  1.00  0.00    -0.372 OA
ATOM     19  C   UNL A   1      35.100  23.600  25.883  1.00  0.00     0.066 C 
ATOM     20  C   UNL A   1      35.986  21.629  25.039  1.00  0.00     0.195 C 
ATOM     21  C   UNL A   1      36.617  23.627  26.002  1.00  0.00     0.163 C 
ATOM     22  O   UNL A   1      37.113  22.388  25.486  1.00  0.00    -0.378 OA
ENDBRANCH  12  13
ENDBRANCH  11  12
ENDBRANCH  10  11
ENDBRANCH   5  10
ENDBRANCH   3   5
ENDBRANCH   2   3
ENDBRANCH   1   2
BRANCH   1  23
ATOM     23  C   UNL A   1      31.740  30.729  26.255  1.00  0.00     0.275 C 
BRANCH  23  24
ATOM     24  O   UNL A   1      33.130  30.687  26.623  1.00  0.00    -0.458 OA
BRANCH  24  25
ATOM     25  C   UNL A   1      33.547  31.795  27.269  1.00  0.00     0.338 C 
ATOM     26  O   UNL A   1      32.866  32.759  27.608  1.00  0.00    -0.246 OA
BRANCH  25  27
ATOM     27  C   UNL A   1      34.855  31.494  27.865  1.00  0.00     0.060 A 
ATOM     28  C   UNL A   1      35.027  30.178  28.294  1.00  0.00     0.016 A 
ATOM     29  C   UNL A   1      35.886  32.417  27.997  1.00  0.00     0.016 A 
ATOM     30  C   UNL A   1      36.204  29.757  28.876  1.00  0.00     0.010 A 
ATOM     31  C   UNL A   1      37.078  32.007  28.605  1.00  0.00     0.010 A 
ATOM     32  C   UNL A   1      37.227  30.682  29.063  1.00  0.00    -0.014 A 
BRANCH  32  33
ATOM     33  C   UNL A   1      38.352  30.281  29.926  1.00  0.00     0.031 A 
ATOM     34  C   UNL A   1      39.401  29.390  29.337  1.00  0.00     0.074 A 
ATOM     35  C   UNL A   1      38.490  30.804  31.156  1.00  0.00     0.049 A 
ATOM     36  N   UNL A   1      40.412  28.799  29.916  1.00  0.00    -0.248 NA
ATOM     37  C   UNL A   1      39.297  29.130  27.891  1.00  0.00     0.031 C 
ATOM     38  C   UNL A   1      37.594  31.792  31.760  1.00  0.00     0.029 A 
ATOM     39  N   UNL A   1      39.445  30.586  32.112  1.00  0.00    -0.354 N 
ATOM     40  C   UNL A   1      41.032  28.062  28.917  1.00  0.00     0.074 A 
ATOM     41  C   UNL A   1      40.290  28.277  27.696  1.00  0.00     0.031 C 
ATOM     42  C   UNL A   1      38.043  32.091  32.991  1.00  0.00     0.029 A 
ATOM     43  C   UNL A   1      39.214  31.269  33.280  1.00  0.00     0.049 A 
ATOM     44  H   UNL A   1      40.222  29.998  31.974  1.00  0.00     0.167 HD
ATOM     45  C   UNL A   1      42.124  27.271  29.023  1.00  0.00     0.037 A 
ATOM     46  C   UNL A   1      39.858  31.192  34.459  1.00  0.00     0.037 A 
ATOM     47  C   UNL A   1      42.860  27.101  30.247  1.00  0.00     0.049 A 
ATOM     48  C   UNL A   1      41.024  30.246  34.574  1.00  0.00     0.074 A 
ATOM     49  C   UNL A   1      43.959  26.301  30.496  1.00  0.00     0.029 A 
ATOM     50  N   UNL A   1      42.569  27.767  31.432  1.00  0.00    -0.354 N 
ATOM     51  N   UNL A   1      41.561  29.476  33.657  1.00  0.00    -0.248 NA
ATOM     52  C   UNL A   1      41.668  30.151  35.890  1.00  0.00     0.031 C 
ATOM     53  C   UNL A   1      44.309  26.452  31.843  1.00  0.00     0.029 A 
ATOM     54  C   UNL A   1      43.460  27.386  32.420  1.00  0.00     0.049 A 
ATOM     55  H   UNL A   1      41.836  28.414  31.551  1.00  0.00     0.167 HD
ATOM     56  C   UNL A   1      42.613  28.818  34.275  1.00  0.00     0.074 A 
ATOM     57  C   UNL A   1      42.654  29.300  35.642  1.00  0.00     0.031 C 
ATOM     58  C   UNL A   1      43.469  27.894  33.769  1.00  0.00     0.037 A 
BRANCH  45  59
ATOM     59  C   UNL A   1      42.528  26.489  27.808  1.00  0.00     0.064 A 
ATOM     60  C   UNL A   1      42.030  25.204  27.547  1.00  0.00     0.173 A 
ATOM     61  C   UNL A   1      43.451  27.031  26.901  1.00  0.00     0.173 A 
ATOM     62  F   UNL A   1      41.166  24.627  28.398  1.00  0.00    -0.203 F 
ATOM     63  C   UNL A   1      42.466  24.478  26.440  1.00  0.00     0.198 A 
ATOM     64  C   UNL A   1      43.860  26.316  25.779  1.00  0.00     0.198 A 
ATOM     65  F   UNL A   1      43.963  28.254  27.107  1.00  0.00    -0.203 F 
ATOM     66  F   UNL A   1      42.023  23.229  26.242  1.00  0.00    -0.200 F 
ATOM     67  C   UNL A   1      43.375  25.037  25.554  1.00  0.00     0.200 A 
ATOM     68  F   UNL A   1      44.734  26.861  24.922  1.00  0.00    -0.200 F 
ATOM     69  F   UNL A   1      43.794  24.337  24.491  1.00  0.00    -0.200 F 
ENDBRANCH  45  59
BRANCH  46  70
ATOM     70  C   UNL A   1      39.386  31.986  35.625  1.00  0.00     0.064 A 
ATOM     71  C   UNL A   1      39.857  33.284  35.858  1.00  0.00     0.173 A 
ATOM     72  C   UNL A   1      38.466  31.455  36.543  1.00  0.00     0.173 A 
ATOM     73  F   UNL A   1      40.757  33.830  35.024  1.00  0.00    -0.203 F 
ATOM     74  C   UNL A   1      39.440  34.015  36.969  1.00  0.00     0.198 A 
ATOM     75  C   UNL A   1      38.025  32.198  37.635  1.00  0.00     0.198 A 
ATOM     76  F   UNL A   1      37.983  30.215  36.371  1.00  0.00    -0.203 F 
ATOM     77  F   UNL A   1      39.945  35.236  37.193  1.00  0.00    -0.200 F 
ATOM     78  C   UNL A   1      38.520  33.473  37.854  1.00  0.00     0.200 A 
ATOM     79  F   UNL A   1      37.124  31.675  38.480  1.00  0.00    -0.200 F 
ATOM     80  F   UNL A   1      38.116  34.178  38.919  1.00  0.00    -0.200 F 
ENDBRANCH  46  70
BRANCH  58  81
ATOM     81  C   UNL A   1      44.532  27.381  34.695  1.00  0.00     0.064 A 
ATOM     82  C   UNL A   1      44.318  26.264  35.515  1.00  0.00     0.173 A 
ATOM     83  C   UNL A   1      45.787  28.008  34.746  1.00  0.00     0.173 A 
ATOM     84  F   UNL A   1      43.130  25.643  35.513  1.00  0.00    -0.203 F 
ATOM     85  C   UNL A   1      45.310  25.814  36.381  1.00  0.00     0.198 A 
ATOM     86  C   UNL A   1      46.788  27.535  35.589  1.00  0.00     0.198 A 
ATOM     87  F   UNL A   1      46.043  29.075  33.974  1.00  0.00    -0.203 F 
ATOM     88  F   UNL A   1      45.064  24.784  37.201  1.00  0.00    -0.200 F 
ATOM     89  C   UNL A   1      46.544  26.446  36.413  1.00  0.00     0.200 A 
ATOM     90  F   UNL A   1      47.985  28.136  35.607  1.00  0.00    -0.200 F 
ATOM     91  F   UNL A   1      47.499  26.011  37.247  1.00  0.00    -0.200 F 
ENDBRANCH  58  81
ENDBRANCH  32  33
ENDBRANCH  25  27
ENDBRANCH  24  25
ENDBRANCH  23  24
ENDBRANCH   1  23
TORSDOF 16
ENDMDL
