MODEL 1
REMARK VINA RESULT:     -10.8      0.000      0.000
REMARK SMILES CCOc1cc(C(=O)OCCOC(=O)c2ccc(-c3c4nc(c(-c5c(F)c(F)c(F)c(F)c5F)c5ccc([nH]5)c(-c5c(F)c(F)c(F)c(F)c5F)c5nc(c(-c6c(F)c(F)c(F)c(F)c6F)c6ccc3[nH]6)C=C5)C=C4)cc2)cc(I)c1OCC
REMARK SMILES IDX 10 1 9 2 7 3 8 4 6 5 4 6 5 7 81 8 79 9 78 10 80 11 3 12 2 13
REMARK SMILES IDX 1 14 82 15 83 16 84 17 11 18 12 19 13 20 14 21 15 22 16 23
REMARK SMILES IDX 77 24 17 25 76 26 18 27 19 28 20 29 70 30 21 31 75 32 69 33
REMARK SMILES IDX 71 34 22 35 74 36 68 37 67 38 23 40 55 41 35 42 54 43 36 44
REMARK SMILES IDX 39 45 53 46 72 47 37 48 38 49 52 51 73 52 40 53 24 54 25 55
REMARK SMILES IDX 33 56 26 57 27 58 31 59 34 60 28 61 29 62 32 63 30 64 56 65
REMARK SMILES IDX 57 66 65 67 58 68 59 69 63 70 66 71 60 72 61 73 64 74 62 75
REMARK SMILES IDX 41 76 42 77 50 78 43 79 44 80 48 81 51 82 45 83 46 84 49 85
REMARK SMILES IDX 47 86
REMARK H PARENT 71 39 39 50
REMARK Flexibility Score: inf
ROOT
ATOM      1  C   UNL A   1      31.623  28.922  24.812  1.00  0.00     0.275 C 
ENDROOT
BRANCH   1   2
ATOM      2  O   UNL A   1      32.285  27.918  25.608  1.00  0.00    -0.458 OA
BRANCH   2   3
ATOM      3  C   UNL A   1      33.314  27.273  25.009  1.00  0.00     0.338 C 
ATOM      4  O   UNL A   1      34.125  27.749  24.229  1.00  0.00    -0.246 OA
BRANCH   3   5
ATOM      5  C   UNL A   1      33.397  25.881  25.501  1.00  0.00     0.065 A 
ATOM      6  C   UNL A   1      34.715  23.916  25.927  1.00  0.00     0.163 A 
ATOM      7  C   UNL A   1      34.623  25.231  25.473  1.00  0.00     0.066 A 
ATOM      8  C   UNL A   1      33.583  23.172  26.343  1.00  0.00     0.174 A 
ATOM      9  C   UNL A   1      32.338  23.827  26.300  1.00  0.00     0.060 A 
ATOM     10  C   UNL A   1      32.261  25.186  25.914  1.00  0.00     0.034 A 
ATOM     11  I   UNL A   1      30.420  22.998  26.612  1.00  0.00    -0.040 I 
BRANCH   6  12
ATOM     12  O   UNL A   1      35.956  23.329  25.818  1.00  0.00    -0.490 OA
BRANCH  12  13
ATOM     13  C   UNL A   1      36.654  23.740  24.634  1.00  0.00     0.226 C 
ATOM     14  C   UNL A   1      36.468  22.701  23.542  1.00  0.00     0.049 C 
ENDBRANCH  12  13
ENDBRANCH   6  12
BRANCH   8  15
ATOM     15  O   UNL A   1      33.925  21.898  26.684  1.00  0.00    -0.489 OA
BRANCH  15  16
ATOM     16  C   UNL A   1      33.454  20.726  26.043  1.00  0.00     0.226 C 
ATOM     17  C   UNL A   1      33.455  20.846  24.530  1.00  0.00     0.049 C 
ENDBRANCH  15  16
ENDBRANCH   8  15
ENDBRANCH   3   5
ENDBRANCH   2   3
ENDBRANCH   1   2
BRANCH   1  18
ATOM     18  C   UNL A   1      31.500  30.230  25.592  1.00  0.00     0.275 C 
BRANCH  18  19
ATOM     19  O   UNL A   1      32.350  30.174  26.752  1.00  0.00    -0.458 OA
BRANCH  19  20
ATOM     20  C   UNL A   1      32.976  31.322  27.089  1.00  0.00     0.338 C 
ATOM     21  O   UNL A   1      32.532  32.459  27.024  1.00  0.00    -0.246 OA
BRANCH  20  22
ATOM     22  C   UNL A   1      34.332  31.023  27.583  1.00  0.00     0.060 A 
ATOM     23  C   UNL A   1      34.722  29.704  27.801  1.00  0.00     0.016 A 
ATOM     24  C   UNL A   1      35.182  32.066  27.954  1.00  0.00     0.016 A 
ATOM     25  C   UNL A   1      35.908  29.427  28.480  1.00  0.00     0.010 A 
ATOM     26  C   UNL A   1      36.417  31.779  28.549  1.00  0.00     0.010 A 
ATOM     27  C   UNL A   1      36.776  30.458  28.872  1.00  0.00    -0.014 A 
BRANCH  27  28
ATOM     28  C   UNL A   1      37.998  30.165  29.685  1.00  0.00     0.031 A 
ATOM     29  C   UNL A   1      39.129  29.360  29.092  1.00  0.00     0.074 A 
ATOM     30  C   UNL A   1      38.141  30.643  30.939  1.00  0.00     0.049 A 
ATOM     31  N   UNL A   1      40.162  28.813  29.686  1.00  0.00    -0.248 NA
ATOM     32  C   UNL A   1      39.087  29.124  27.640  1.00  0.00     0.031 C 
ATOM     33  C   UNL A   1      37.177  31.485  31.645  1.00  0.00     0.029 A 
ATOM     34  N   UNL A   1      39.175  30.504  31.837  1.00  0.00    -0.354 N 
ATOM     35  C   UNL A   1      40.834  28.097  28.702  1.00  0.00     0.074 A 
ATOM     36  C   UNL A   1      40.106  28.295  27.466  1.00  0.00     0.031 C 
ATOM     37  C   UNL A   1      37.691  31.848  32.829  1.00  0.00     0.029 A 
ATOM     38  C   UNL A   1      38.974  31.178  33.018  1.00  0.00     0.049 A 
ATOM     39  H   UNL A   1      39.982  29.971  31.651  1.00  0.00     0.167 HD
ATOM     40  C   UNL A   1      41.950  27.337  28.821  1.00  0.00     0.037 A 
ATOM     41  C   UNL A   1      39.711  31.224  34.144  1.00  0.00     0.037 A 
ATOM     42  C   UNL A   1      42.735  27.218  30.023  1.00  0.00     0.049 A 
ATOM     43  C   UNL A   1      40.962  30.396  34.247  1.00  0.00     0.074 A 
ATOM     44  C   UNL A   1      43.881  26.471  30.237  1.00  0.00     0.029 A 
ATOM     45  N   UNL A   1      42.475  27.896  31.203  1.00  0.00    -0.354 N 
ATOM     46  N   UNL A   1      41.513  29.616  33.351  1.00  0.00    -0.248 NA
ATOM     47  C   UNL A   1      41.671  30.426  35.535  1.00  0.00     0.031 C 
ATOM     48  C   UNL A   1      44.307  26.686  31.552  1.00  0.00     0.029 A 
ATOM     49  C   UNL A   1      43.444  27.591  32.146  1.00  0.00     0.049 A 
ATOM     50  H   UNL A   1      41.716  28.505  31.350  1.00  0.00     0.167 HD
ATOM     51  C   UNL A   1      42.622  29.054  33.967  1.00  0.00     0.074 A 
ATOM     52  C   UNL A   1      42.689  29.609  35.302  1.00  0.00     0.031 C 
ATOM     53  C   UNL A   1      43.495  28.143  33.474  1.00  0.00     0.037 A 
BRANCH  40  54
ATOM     54  C   UNL A   1      42.378  26.536  27.627  1.00  0.00     0.064 A 
ATOM     55  C   UNL A   1      43.361  26.987  26.737  1.00  0.00     0.173 A 
ATOM     56  C   UNL A   1      41.823  25.264  27.404  1.00  0.00     0.173 A 
ATOM     57  F   UNL A   1      43.910  28.200  26.898  1.00  0.00    -0.203 F 
ATOM     58  C   UNL A   1      43.761  26.204  25.656  1.00  0.00     0.198 A 
ATOM     59  C   UNL A   1      42.244  24.473  26.338  1.00  0.00     0.198 A 
ATOM     60  F   UNL A   1      40.883  24.782  28.231  1.00  0.00    -0.203 F 
ATOM     61  F   UNL A   1      44.677  26.672  24.796  1.00  0.00    -0.200 F 
ATOM     62  C   UNL A   1      43.210  24.947  25.463  1.00  0.00     0.200 A 
ATOM     63  F   UNL A   1      41.718  23.254  26.161  1.00  0.00    -0.200 F 
ATOM     64  F   UNL A   1      43.604  24.191  24.428  1.00  0.00    -0.200 F 
ENDBRANCH  40  54
BRANCH  41  65
ATOM     65  C   UNL A   1      39.254  32.052  35.290  1.00  0.00     0.064 A 
ATOM     66  C   UNL A   1      39.569  33.415  35.364  1.00  0.00     0.173 A 
ATOM     67  C   UNL A   1      38.480  31.503  36.323  1.00  0.00     0.173 A 
ATOM     68  F   UNL A   1      40.335  33.978  34.418  1.00  0.00    -0.203 F 
ATOM     69  C   UNL A   1      39.127  34.198  36.428  1.00  0.00     0.198 A 
ATOM     70  C   UNL A   1      38.013  32.292  37.370  1.00  0.00     0.198 A 
ATOM     71  F   UNL A   1      38.159  30.200  36.302  1.00  0.00    -0.203 F 
ATOM     72  F   UNL A   1      39.472  35.491  36.495  1.00  0.00    -0.200 F 
ATOM     73  C   UNL A   1      38.341  33.638  37.425  1.00  0.00     0.200 A 
ATOM     74  F   UNL A   1      37.243  31.750  38.322  1.00  0.00    -0.200 F 
ATOM     75  F   UNL A   1      37.903  34.396  38.440  1.00  0.00    -0.200 F 
ENDBRANCH  41  65
BRANCH  53  76
ATOM     76  C   UNL A   1      44.598  27.691  34.384  1.00  0.00     0.064 A 
ATOM     77  C   UNL A   1      44.450  26.559  35.198  1.00  0.00     0.173 A 
ATOM     78  C   UNL A   1      45.821  28.376  34.421  1.00  0.00     0.173 A 
ATOM     79  F   UNL A   1      43.293  25.880  35.207  1.00  0.00    -0.203 F 
ATOM     80  C   UNL A   1      45.481  26.141  36.035  1.00  0.00     0.198 A 
ATOM     81  C   UNL A   1      46.857  27.944  35.244  1.00  0.00     0.198 A 
ATOM     82  F   UNL A   1      46.010  29.463  33.656  1.00  0.00    -0.203 F 
ATOM     83  F   UNL A   1      45.306  25.080  36.834  1.00  0.00    -0.200 F 
ATOM     84  C   UNL A   1      46.684  26.831  36.053  1.00  0.00     0.200 A 
ATOM     85  F   UNL A   1      48.021  28.607  35.256  1.00  0.00    -0.200 F 
ATOM     86  F   UNL A   1      47.676  26.428  36.859  1.00  0.00    -0.200 F 
ENDBRANCH  53  76
ENDBRANCH  27  28
ENDBRANCH  20  22
ENDBRANCH  19  20
ENDBRANCH  18  19
ENDBRANCH   1  18
TORSDOF 15
ENDMDL
MODEL 2
REMARK VINA RESULT:     -10.7      0.998      2.296
REMARK SMILES CCOc1cc(C(=O)OCCOC(=O)c2ccc(-c3c4nc(c(-c5c(F)c(F)c(F)c(F)c5F)c5ccc([nH]5)c(-c5c(F)c(F)c(F)c(F)c5F)c5nc(c(-c6c(F)c(F)c(F)c(F)c6F)c6ccc3[nH]6)C=C5)C=C4)cc2)cc(I)c1OCC
REMARK SMILES IDX 10 1 9 2 7 3 8 4 6 5 4 6 5 7 81 8 79 9 78 10 80 11 3 12 2 13
REMARK SMILES IDX 1 14 82 15 83 16 84 17 11 18 12 19 13 20 14 21 15 22 16 23
REMARK SMILES IDX 77 24 17 25 76 26 18 27 19 28 20 29 70 30 21 31 75 32 69 33
REMARK SMILES IDX 71 34 22 35 74 36 68 37 67 38 23 40 55 41 35 42 54 43 36 44
REMARK SMILES IDX 39 45 53 46 72 47 37 48 38 49 52 51 73 52 40 53 24 54 25 55
REMARK SMILES IDX 33 56 26 57 27 58 31 59 34 60 28 61 29 62 32 63 30 64 56 65
REMARK SMILES IDX 57 66 65 67 58 68 59 69 63 70 66 71 60 72 61 73 64 74 62 75
REMARK SMILES IDX 41 76 42 77 50 78 43 79 44 80 48 81 51 82 45 83 46 84 49 85
REMARK SMILES IDX 47 86
REMARK H PARENT 71 39 39 50
REMARK Flexibility Score: inf
ROOT
ATOM      1  C   UNL A   1      31.853  28.576  26.896  1.00  0.00     0.275 C 
ENDROOT
BRANCH   1   2
ATOM      2  O   UNL A   1      31.827  27.663  25.779  1.00  0.00    -0.458 OA
BRANCH   2   3
ATOM      3  C   UNL A   1      33.034  27.259  25.318  1.00  0.00     0.338 C 
ATOM      4  O   UNL A   1      33.888  27.954  24.788  1.00  0.00    -0.246 OA
BRANCH   3   5
ATOM      5  C   UNL A   1      33.242  25.828  25.623  1.00  0.00     0.065 A 
ATOM      6  C   UNL A   1      32.433  23.786  26.601  1.00  0.00     0.163 A 
ATOM      7  C   UNL A   1      32.248  25.134  26.301  1.00  0.00     0.066 A 
ATOM      8  C   UNL A   1      33.640  23.100  26.318  1.00  0.00     0.174 A 
ATOM      9  C   UNL A   1      34.661  23.838  25.692  1.00  0.00     0.060 A 
ATOM     10  C   UNL A   1      34.440  25.184  25.318  1.00  0.00     0.034 A 
ATOM     11  I   UNL A   1      36.656  23.246  25.323  1.00  0.00    -0.040 I 
BRANCH   6  12
ATOM     12  O   UNL A   1      31.420  23.187  27.318  1.00  0.00    -0.490 OA
BRANCH  12  13
ATOM     13  C   UNL A   1      30.200  23.093  26.569  1.00  0.00     0.226 C 
ATOM     14  C   UNL A   1      29.080  22.604  27.470  1.00  0.00     0.049 C 
ENDBRANCH  12  13
ENDBRANCH   6  12
BRANCH   8  15
ATOM     15  O   UNL A   1      33.593  21.811  26.760  1.00  0.00    -0.489 OA
BRANCH  15  16
ATOM     16  C   UNL A   1      33.758  20.662  25.949  1.00  0.00     0.226 C 
ATOM     17  C   UNL A   1      32.517  20.336  25.138  1.00  0.00     0.049 C 
ENDBRANCH  15  16
ENDBRANCH   8  15
ENDBRANCH   3   5
ENDBRANCH   2   3
ENDBRANCH   1   2
BRANCH   1  18
ATOM     18  C   UNL A   1      31.651  30.014  26.417  1.00  0.00     0.275 C 
BRANCH  18  19
ATOM     19  O   UNL A   1      32.934  30.628  26.201  1.00  0.00    -0.458 OA
BRANCH  19  20
ATOM     20  C   UNL A   1      33.320  31.542  27.115  1.00  0.00     0.338 C 
ATOM     21  O   UNL A   1      32.700  32.526  27.493  1.00  0.00    -0.246 OA
BRANCH  20  22
ATOM     22  C   UNL A   1      34.651  31.189  27.643  1.00  0.00     0.060 A 
ATOM     23  C   UNL A   1      34.952  29.865  27.948  1.00  0.00     0.016 A 
ATOM     24  C   UNL A   1      35.563  32.197  27.956  1.00  0.00     0.016 A 
ATOM     25  C   UNL A   1      36.113  29.556  28.657  1.00  0.00     0.010 A 
ATOM     26  C   UNL A   1      36.773  31.870  28.582  1.00  0.00     0.010 A 
ATOM     27  C   UNL A   1      37.043  30.552  28.992  1.00  0.00    -0.014 A 
BRANCH  27  28
ATOM     28  C   UNL A   1      38.237  30.234  29.837  1.00  0.00     0.031 A 
ATOM     29  C   UNL A   1      39.372  29.416  29.268  1.00  0.00     0.074 A 
ATOM     30  C   UNL A   1      38.353  30.700  31.098  1.00  0.00     0.049 A 
ATOM     31  N   UNL A   1      40.380  28.848  29.886  1.00  0.00    -0.248 NA
ATOM     32  C   UNL A   1      39.366  29.192  27.814  1.00  0.00     0.031 C 
ATOM     33  C   UNL A   1      37.383  31.551  31.784  1.00  0.00     0.029 A 
ATOM     34  N   UNL A   1      39.359  30.537  32.023  1.00  0.00    -0.354 N 
ATOM     35  C   UNL A   1      41.067  28.129  28.915  1.00  0.00     0.074 A 
ATOM     36  C   UNL A   1      40.377  28.348  27.662  1.00  0.00     0.031 C 
ATOM     37  C   UNL A   1      37.870  31.897  32.985  1.00  0.00     0.029 A 
ATOM     38  C   UNL A   1      39.137  31.206  33.203  1.00  0.00     0.049 A 
ATOM     39  H   UNL A   1      40.163  29.994  31.855  1.00  0.00     0.167 HD
ATOM     40  C   UNL A   1      42.168  27.351  29.059  1.00  0.00     0.037 A 
ATOM     41  C   UNL A   1      39.843  31.231  34.349  1.00  0.00     0.037 A 
ATOM     42  C   UNL A   1      42.917  27.211  30.280  1.00  0.00     0.049 A 
ATOM     43  C   UNL A   1      41.077  30.383  34.480  1.00  0.00     0.074 A 
ATOM     44  C   UNL A   1      44.045  26.445  30.520  1.00  0.00     0.029 A 
ATOM     45  N   UNL A   1      42.635  27.884  31.459  1.00  0.00    -0.354 N 
ATOM     46  N   UNL A   1      41.641  29.602  33.593  1.00  0.00    -0.248 NA
ATOM     47  C   UNL A   1      41.751  30.392  35.788  1.00  0.00     0.031 C 
ATOM     48  C   UNL A   1      44.438  26.642  31.848  1.00  0.00     0.029 A 
ATOM     49  C   UNL A   1      43.573  27.556  32.426  1.00  0.00     0.049 A 
ATOM     50  H   UNL A   1      41.882  28.503  31.590  1.00  0.00     0.167 HD
ATOM     51  C   UNL A   1      42.724  29.017  34.235  1.00  0.00     0.074 A 
ATOM     52  C   UNL A   1      42.762  29.562  35.576  1.00  0.00     0.031 C 
ATOM     53  C   UNL A   1      43.596  28.097  33.759  1.00  0.00     0.037 A 
BRANCH  40  54
ATOM     54  C   UNL A   1      42.617  26.553  27.870  1.00  0.00     0.064 A 
ATOM     55  C   UNL A   1      42.081  25.293  27.570  1.00  0.00     0.173 A 
ATOM     56  C   UNL A   1      43.568  27.091  26.986  1.00  0.00     0.173 A 
ATOM     57  F   UNL A   1      41.181  24.731  28.390  1.00  0.00    -0.203 F 
ATOM     58  C   UNL A   1      42.494  24.592  26.439  1.00  0.00     0.198 A 
ATOM     59  C   UNL A   1      43.958  26.399  25.843  1.00  0.00     0.198 A 
ATOM     60  F   UNL A   1      44.106  28.296  27.225  1.00  0.00    -0.203 F 
ATOM     61  F   UNL A   1      41.996  23.372  26.191  1.00  0.00    -0.200 F 
ATOM     62  C   UNL A   1      43.425  25.148  25.574  1.00  0.00     0.200 A 
ATOM     63  F   UNL A   1      44.849  26.943  25.003  1.00  0.00    -0.200 F 
ATOM     64  F   UNL A   1      43.812  24.476  24.481  1.00  0.00    -0.200 F 
ENDBRANCH  40  54
BRANCH  41  65
ATOM     65  C   UNL A   1      39.367  32.057  35.489  1.00  0.00     0.064 A 
ATOM     66  C   UNL A   1      38.512  31.519  36.461  1.00  0.00     0.173 A 
ATOM     67  C   UNL A   1      39.770  33.392  35.641  1.00  0.00     0.173 A 
ATOM     68  F   UNL A   1      38.072  30.258  36.341  1.00  0.00    -0.203 F 
ATOM     69  C   UNL A   1      38.078  32.286  37.540  1.00  0.00     0.198 A 
ATOM     70  C   UNL A   1      39.361  34.148  36.736  1.00  0.00     0.198 A 
ATOM     71  F   UNL A   1      40.582  33.955  34.733  1.00  0.00    -0.203 F 
ATOM     72  F   UNL A   1      37.232  31.760  38.436  1.00  0.00    -0.200 F 
ATOM     73  C   UNL A   1      38.512  33.596  37.682  1.00  0.00     0.200 A 
ATOM     74  F   UNL A   1      39.794  35.408  36.876  1.00  0.00    -0.200 F 
ATOM     75  F   UNL A   1      38.107  34.327  38.729  1.00  0.00    -0.200 F 
ENDBRANCH  41  65
BRANCH  53  76
ATOM     76  C   UNL A   1      44.666  27.621  34.695  1.00  0.00     0.064 A 
ATOM     77  C   UNL A   1      44.479  26.484  35.494  1.00  0.00     0.173 A 
ATOM     78  C   UNL A   1      45.897  28.288  34.772  1.00  0.00     0.173 A 
ATOM     79  F   UNL A   1      43.312  25.822  35.465  1.00  0.00    -0.203 F 
ATOM     80  C   UNL A   1      45.480  26.044  36.356  1.00  0.00     0.198 A 
ATOM     81  C   UNL A   1      46.903  27.833  35.620  1.00  0.00     0.198 A 
ATOM     82  F   UNL A   1      46.123  29.378  34.024  1.00  0.00    -0.203 F 
ATOM     83  F   UNL A   1      45.267  24.978  37.140  1.00  0.00    -0.200 F 
ATOM     84  C   UNL A   1      46.692  26.715  36.414  1.00  0.00     0.200 A 
ATOM     85  F   UNL A   1      48.077  28.479  35.671  1.00  0.00    -0.200 F 
ATOM     86  F   UNL A   1      47.655  26.291  37.244  1.00  0.00    -0.200 F 
ENDBRANCH  53  76
ENDBRANCH  27  28
ENDBRANCH  20  22
ENDBRANCH  19  20
ENDBRANCH  18  19
ENDBRANCH   1  18
TORSDOF 15
ENDMDL
MODEL 3
REMARK VINA RESULT:     -10.7      1.032      1.986
REMARK SMILES CCOc1cc(C(=O)OCCOC(=O)c2ccc(-c3c4nc(c(-c5c(F)c(F)c(F)c(F)c5F)c5ccc([nH]5)c(-c5c(F)c(F)c(F)c(F)c5F)c5nc(c(-c6c(F)c(F)c(F)c(F)c6F)c6ccc3[nH]6)C=C5)C=C4)cc2)cc(I)c1OCC
REMARK SMILES IDX 10 1 9 2 7 3 8 4 6 5 4 6 5 7 81 8 79 9 78 10 80 11 3 12 2 13
REMARK SMILES IDX 1 14 82 15 83 16 84 17 11 18 12 19 13 20 14 21 15 22 16 23
REMARK SMILES IDX 77 24 17 25 76 26 18 27 19 28 20 29 70 30 21 31 75 32 69 33
REMARK SMILES IDX 71 34 22 35 74 36 68 37 67 38 23 40 55 41 35 42 54 43 36 44
REMARK SMILES IDX 39 45 53 46 72 47 37 48 38 49 52 51 73 52 40 53 24 54 25 55
REMARK SMILES IDX 33 56 26 57 27 58 31 59 34 60 28 61 29 62 32 63 30 64 56 65
REMARK SMILES IDX 57 66 65 67 58 68 59 69 63 70 66 71 60 72 61 73 64 74 62 75
REMARK SMILES IDX 41 76 42 77 50 78 43 79 44 80 48 81 51 82 45 83 46 84 49 85
REMARK SMILES IDX 47 86
REMARK H PARENT 71 39 39 50
REMARK Flexibility Score: inf
ROOT
ATOM      1  C   UNL A   1      31.322  28.679  24.814  1.00  0.00     0.275 C 
ENDROOT
BRANCH   1   2
ATOM      2  O   UNL A   1      32.255  27.729  25.371  1.00  0.00    -0.458 OA
BRANCH   2   3
ATOM      3  C   UNL A   1      33.224  27.291  24.533  1.00  0.00     0.338 C 
ATOM      4  O   UNL A   1      34.030  27.976  23.921  1.00  0.00    -0.246 OA
BRANCH   3   5
ATOM      5  C   UNL A   1      33.247  25.814  24.511  1.00  0.00     0.065 A 
ATOM      6  C   UNL A   1      32.130  23.724  24.917  1.00  0.00     0.163 A 
ATOM      7  C   UNL A   1      32.120  25.118  24.927  1.00  0.00     0.066 A 
ATOM      8  C   UNL A   1      33.282  22.972  24.580  1.00  0.00     0.174 A 
ATOM      9  C   UNL A   1      34.435  23.695  24.226  1.00  0.00     0.060 A 
ATOM     10  C   UNL A   1      34.397  25.108  24.160  1.00  0.00     0.034 A 
ATOM     11  I   UNL A   1      36.385  22.954  23.890  1.00  0.00    -0.040 I 
BRANCH   6  12
ATOM     12  O   UNL A   1      30.989  23.113  25.392  1.00  0.00    -0.490 OA
BRANCH  12  13
ATOM     13  C   UNL A   1      30.805  23.316  26.800  1.00  0.00     0.226 C 
ATOM     14  C   UNL A   1      29.511  22.661  27.249  1.00  0.00     0.049 C 
ENDBRANCH  12  13
ENDBRANCH   6  12
BRANCH   8  15
ATOM     15  O   UNL A   1      33.054  21.633  24.703  1.00  0.00    -0.489 OA
BRANCH  15  16
ATOM     16  C   UNL A   1      33.692  20.778  25.635  1.00  0.00     0.226 C 
ATOM     17  C   UNL A   1      34.020  21.478  26.942  1.00  0.00     0.049 C 
ENDBRANCH  15  16
ENDBRANCH   8  15
ENDBRANCH   3   5
ENDBRANCH   2   3
ENDBRANCH   1   2
BRANCH   1  18
ATOM     18  C   UNL A   1      31.612  30.085  25.338  1.00  0.00     0.275 C 
BRANCH  18  19
ATOM     19  O   UNL A   1      32.329  29.991  26.582  1.00  0.00    -0.458 OA
BRANCH  19  20
ATOM     20  C   UNL A   1      32.880  31.135  27.041  1.00  0.00     0.338 C 
ATOM     21  O   UNL A   1      32.373  32.247  27.068  1.00  0.00    -0.246 OA
BRANCH  20  22
ATOM     22  C   UNL A   1      34.239  30.866  27.544  1.00  0.00     0.060 A 
ATOM     23  C   UNL A   1      34.688  29.555  27.678  1.00  0.00     0.016 A 
ATOM     24  C   UNL A   1      35.029  31.919  28.006  1.00  0.00     0.016 A 
ATOM     25  C   UNL A   1      35.873  29.287  28.363  1.00  0.00     0.010 A 
ATOM     26  C   UNL A   1      36.265  31.649  28.608  1.00  0.00     0.010 A 
ATOM     27  C   UNL A   1      36.681  30.327  28.846  1.00  0.00    -0.014 A 
BRANCH  27  28
ATOM     28  C   UNL A   1      37.900  30.035  29.665  1.00  0.00     0.031 A 
ATOM     29  C   UNL A   1      39.031  29.225  29.080  1.00  0.00     0.074 A 
ATOM     30  C   UNL A   1      38.040  30.519  30.918  1.00  0.00     0.049 A 
ATOM     31  N   UNL A   1      40.061  28.678  29.680  1.00  0.00    -0.248 NA
ATOM     32  C   UNL A   1      38.993  28.983  27.629  1.00  0.00     0.031 C 
ATOM     33  C   UNL A   1      37.075  31.365  31.616  1.00  0.00     0.029 A 
ATOM     34  N   UNL A   1      39.069  30.381  31.820  1.00  0.00    -0.354 N 
ATOM     35  C   UNL A   1      40.735  27.957  28.702  1.00  0.00     0.074 A 
ATOM     36  C   UNL A   1      40.012  28.151  27.463  1.00  0.00     0.031 C 
ATOM     37  C   UNL A   1      37.585  31.733  32.801  1.00  0.00     0.029 A 
ATOM     38  C   UNL A   1      38.866  31.061  32.997  1.00  0.00     0.049 A 
ATOM     39  H   UNL A   1      39.876  29.846  31.639  1.00  0.00     0.167 HD
ATOM     40  C   UNL A   1      41.849  27.195  28.828  1.00  0.00     0.037 A 
ATOM     41  C   UNL A   1      39.599  31.110  34.125  1.00  0.00     0.037 A 
ATOM     42  C   UNL A   1      42.629  27.080  30.033  1.00  0.00     0.049 A 
ATOM     43  C   UNL A   1      40.848  30.280  34.237  1.00  0.00     0.074 A 
ATOM     44  C   UNL A   1      43.773  26.331  30.255  1.00  0.00     0.029 A 
ATOM     45  N   UNL A   1      42.366  27.763  31.209  1.00  0.00    -0.354 N 
ATOM     46  N   UNL A   1      41.400  29.495  33.346  1.00  0.00    -0.248 NA
ATOM     47  C   UNL A   1      41.553  30.314  35.527  1.00  0.00     0.031 C 
ATOM     48  C   UNL A   1      44.195  26.551  31.570  1.00  0.00     0.029 A 
ATOM     49  C   UNL A   1      43.331  27.461  32.158  1.00  0.00     0.049 A 
ATOM     50  H   UNL A   1      41.608  28.374  31.351  1.00  0.00     0.167 HD
ATOM     51  C   UNL A   1      42.506  28.933  33.968  1.00  0.00     0.074 A 
ATOM     52  C   UNL A   1      42.569  29.494  35.301  1.00  0.00     0.031 C 
ATOM     53  C   UNL A   1      43.379  28.018  33.483  1.00  0.00     0.037 A 
BRANCH  40  54
ATOM     54  C   UNL A   1      42.279  26.387  27.639  1.00  0.00     0.064 A 
ATOM     55  C   UNL A   1      43.270  26.831  26.753  1.00  0.00     0.173 A 
ATOM     56  C   UNL A   1      41.720  25.118  27.417  1.00  0.00     0.173 A 
ATOM     57  F   UNL A   1      43.823  28.042  26.913  1.00  0.00    -0.203 F 
ATOM     58  C   UNL A   1      43.672  26.043  25.677  1.00  0.00     0.198 A 
ATOM     59  C   UNL A   1      42.143  24.321  26.357  1.00  0.00     0.198 A 
ATOM     60  F   UNL A   1      40.773  24.643  28.241  1.00  0.00    -0.203 F 
ATOM     61  F   UNL A   1      44.594  26.503  24.820  1.00  0.00    -0.200 F 
ATOM     62  C   UNL A   1      43.115  24.787  25.485  1.00  0.00     0.200 A 
ATOM     63  F   UNL A   1      41.612  23.104  26.181  1.00  0.00    -0.200 F 
ATOM     64  F   UNL A   1      43.511  24.026  24.455  1.00  0.00    -0.200 F 
ENDBRANCH  40  54
BRANCH  41  65
ATOM     65  C   UNL A   1      39.140  31.944  35.266  1.00  0.00     0.064 A 
ATOM     66  C   UNL A   1      39.415  33.317  35.311  1.00  0.00     0.173 A 
ATOM     67  C   UNL A   1      38.403  31.390  36.324  1.00  0.00     0.173 A 
ATOM     68  F   UNL A   1      40.144  33.886  34.340  1.00  0.00    -0.203 F 
ATOM     69  C   UNL A   1      38.970  34.105  36.370  1.00  0.00     0.198 A 
ATOM     70  C   UNL A   1      37.933  32.184  37.367  1.00  0.00     0.198 A 
ATOM     71  F   UNL A   1      38.121  30.079  36.331  1.00  0.00    -0.203 F 
ATOM     72  F   UNL A   1      39.277  35.409  36.408  1.00  0.00    -0.200 F 
ATOM     73  C   UNL A   1      38.220  33.540  37.392  1.00  0.00     0.200 A 
ATOM     74  F   UNL A   1      37.198  31.636  38.343  1.00  0.00    -0.200 F 
ATOM     75  F   UNL A   1      37.780  34.302  38.403  1.00  0.00    -0.200 F 
ENDBRANCH  41  65
BRANCH  53  76
ATOM     76  C   UNL A   1      44.477  27.568  34.398  1.00  0.00     0.064 A 
ATOM     77  C   UNL A   1      45.692  28.264  34.474  1.00  0.00     0.173 A 
ATOM     78  C   UNL A   1      44.305  26.449  35.227  1.00  0.00     0.173 A 
ATOM     79  F   UNL A   1      45.908  29.331  33.690  1.00  0.00    -0.203 F 
ATOM     80  C   UNL A   1      46.705  27.844  35.331  1.00  0.00     0.198 A 
ATOM     81  C   UNL A   1      45.312  26.044  36.098  1.00  0.00     0.198 A 
ATOM     82  F   UNL A   1      43.158  25.753  35.192  1.00  0.00    -0.203 F 
ATOM     83  F   UNL A   1      47.872  28.501  35.360  1.00  0.00    -0.200 F 
ATOM     84  C   UNL A   1      46.512  26.738  36.146  1.00  0.00     0.200 A 
ATOM     85  F   UNL A   1      45.122  24.979  36.889  1.00  0.00    -0.200 F 
ATOM     86  F   UNL A   1      47.487  26.334  36.971  1.00  0.00    -0.200 F 
ENDBRANCH  53  76
ENDBRANCH  27  28
ENDBRANCH  20  22
ENDBRANCH  19  20
ENDBRANCH  18  19
ENDBRANCH   1  18
TORSDOF 15
ENDMDL
