MODEL 1
REMARK VINA RESULT:     -12.4      0.000      0.000
REMARK SMILES O=CN1CCN(S(=O)(=O)c2ccc(C(=O)OCCOC(=O)c3ccc(-c4c5nc(c(-c6c(F)c(F)c(F)c(F)c6F)c6ccc([nH]6)c(-c6c(F)c(F)c(F)c(F)c6F)c6nc(c(-c7c(F)c(F)c(F)c(F)c7F)c7ccc4[nH]7)C=C6)C=C5)cc3)cc2)CC1
REMARK SMILES IDX 17 1 16 2 14 3 15 4 13 5 10 6 11 7 86 8 12 9 85 10 7 11 8 12
REMARK SMILES IDX 9 13 6 14 1 15 2 16 3 17 4 18 88 19 5 20 87 21 18 22 19 23
REMARK SMILES IDX 20 24 21 25 22 26 23 27 84 28 24 29 83 30 25 31 26 32 27 33
REMARK SMILES IDX 77 34 28 35 82 36 76 37 78 38 29 39 81 40 75 41 74 42 30 44
REMARK SMILES IDX 62 45 42 46 61 47 43 48 46 49 60 50 79 51 44 52 45 53 59 55
REMARK SMILES IDX 80 56 47 57 31 58 32 59 40 60 33 61 34 62 38 63 41 64 35 65
REMARK SMILES IDX 36 66 39 67 37 68 63 69 64 70 72 71 65 72 66 73 70 74 73 75
REMARK SMILES IDX 67 76 68 77 71 78 69 79 48 80 49 81 57 82 50 83 51 84 55 85
REMARK SMILES IDX 58 86 52 87 53 88 56 89 54 90
REMARK H PARENT 78 43 46 54
REMARK Flexibility Score: inf
ROOT
ATOM      1  C   UNL A   1      42.834  20.394  26.103  1.00  0.00     0.275 C 
ENDROOT
BRANCH   1   2
ATOM      2  O   UNL A   1      41.458  20.491  25.686  1.00  0.00    -0.458 OA
BRANCH   2   3
ATOM      3  C   UNL A   1      40.561  20.793  26.657  1.00  0.00     0.338 C 
ATOM      4  O   UNL A   1      40.741  20.712  27.861  1.00  0.00    -0.246 OA
BRANCH   3   5
ATOM      5  C   UNL A   1      39.314  21.351  26.068  1.00  0.00     0.060 A 
ATOM      6  C   UNL A   1      36.901  22.266  24.998  1.00  0.00     0.082 A 
ATOM      7  C   UNL A   1      37.274  20.936  24.806  1.00  0.00     0.022 A 
ATOM      8  C   UNL A   1      37.713  23.135  25.737  1.00  0.00     0.022 A 
ATOM      9  C   UNL A   1      38.489  20.486  25.327  1.00  0.00     0.017 A 
ATOM     10  C   UNL A   1      38.926  22.681  26.261  1.00  0.00     0.017 A 
BRANCH   6  11
ATOM     11  S   UNL A   1      35.330  22.835  24.392  1.00  0.00     0.243 S 
ATOM     12  O   UNL A   1      34.410  21.716  24.450  1.00  0.00    -0.207 OA
ATOM     13  O   UNL A   1      35.560  23.528  23.146  1.00  0.00    -0.207 OA
BRANCH  11  14
ATOM     14  N   UNL A   1      34.844  24.001  25.542  1.00  0.00    -0.194 NA
ATOM     15  O   UNL A   1      30.139  23.230  27.287  1.00  0.00    -0.279 OA
ATOM     16  C   UNL A   1      30.649  23.861  26.370  1.00  0.00     0.340 C 
ATOM     17  N   UNL A   1      31.989  23.861  26.050  1.00  0.00    -0.343 N 
ATOM     18  C   UNL A   1      32.480  24.509  24.833  1.00  0.00     0.136 C 
ATOM     19  C   UNL A   1      32.896  22.954  26.749  1.00  0.00     0.136 C 
ATOM     20  C   UNL A   1      33.914  25.043  24.985  1.00  0.00     0.124 C 
ATOM     21  C   UNL A   1      34.315  23.520  26.858  1.00  0.00     0.124 C 
ENDBRANCH  11  14
ENDBRANCH   6  11
ENDBRANCH   3   5
ENDBRANCH   2   3
ENDBRANCH   1   2
BRANCH   1  22
ATOM     22  C   UNL A   1      43.689  21.445  25.397  1.00  0.00     0.275 C 
BRANCH  22  23
ATOM     23  O   UNL A   1      42.893  22.601  25.077  1.00  0.00    -0.458 OA
BRANCH  23  24
ATOM     24  C   UNL A   1      43.559  23.777  25.030  1.00  0.00     0.338 C 
ATOM     25  O   UNL A   1      44.505  24.074  24.321  1.00  0.00    -0.246 OA
BRANCH  24  26
ATOM     26  C   UNL A   1      42.944  24.728  25.966  1.00  0.00     0.060 A 
ATOM     27  C   UNL A   1      43.319  26.069  25.902  1.00  0.00     0.016 A 
ATOM     28  C   UNL A   1      42.117  24.277  26.993  1.00  0.00     0.016 A 
ATOM     29  C   UNL A   1      42.923  26.955  26.900  1.00  0.00     0.010 A 
ATOM     30  C   UNL A   1      41.661  25.184  27.957  1.00  0.00     0.010 A 
ATOM     31  C   UNL A   1      42.085  26.527  27.941  1.00  0.00    -0.014 A 
BRANCH  31  32
ATOM     32  C   UNL A   1      41.708  27.461  29.041  1.00  0.00     0.031 A 
ATOM     33  C   UNL A   1      42.541  27.525  30.294  1.00  0.00     0.074 A 
ATOM     34  C   UNL A   1      40.637  28.269  28.921  1.00  0.00     0.049 A 
ATOM     35  N   UNL A   1      42.289  28.126  31.431  1.00  0.00    -0.248 NA
ATOM     36  C   UNL A   1      43.825  26.806  30.269  1.00  0.00     0.031 C 
ATOM     37  C   UNL A   1      39.768  28.358  27.747  1.00  0.00     0.029 A 
ATOM     38  N   UNL A   1      40.098  29.179  29.801  1.00  0.00    -0.354 N 
ATOM     39  C   UNL A   1      43.348  27.807  32.272  1.00  0.00     0.074 A 
ATOM     40  C   UNL A   1      44.248  26.962  31.516  1.00  0.00     0.031 C 
ATOM     41  C   UNL A   1      38.828  29.291  27.965  1.00  0.00     0.029 A 
ATOM     42  C   UNL A   1      38.974  29.807  29.322  1.00  0.00     0.049 A 
ATOM     43  H   UNL A   1      40.482  29.362  30.689  1.00  0.00     0.167 HD
ATOM     44  C   UNL A   1      43.548  28.183  33.559  1.00  0.00     0.037 A 
ATOM     45  C   UNL A   1      38.128  30.667  29.921  1.00  0.00     0.037 A 
ATOM     46  C   UNL A   1      42.688  29.078  34.289  1.00  0.00     0.049 A 
ATOM     47  C   UNL A   1      38.362  31.058  31.354  1.00  0.00     0.074 A 
ATOM     48  C   UNL A   1      42.819  29.531  35.591  1.00  0.00     0.029 A 
ATOM     49  N   UNL A   1      41.548  29.674  33.771  1.00  0.00    -0.354 N 
ATOM     50  N   UNL A   1      39.329  30.698  32.161  1.00  0.00    -0.248 NA
ATOM     51  C   UNL A   1      37.372  31.957  31.966  1.00  0.00     0.031 C 
ATOM     52  C   UNL A   1      41.740  30.377  35.871  1.00  0.00     0.029 A 
ATOM     53  C   UNL A   1      40.961  30.483  34.732  1.00  0.00     0.049 A 
ATOM     54  H   UNL A   1      41.206  29.542  32.858  1.00  0.00     0.167 HD
ATOM     55  C   UNL A   1      39.072  31.332  33.370  1.00  0.00     0.074 A 
ATOM     56  C   UNL A   1      37.870  32.117  33.184  1.00  0.00     0.031 C 
ATOM     57  C   UNL A   1      39.768  31.263  34.530  1.00  0.00     0.037 A 
BRANCH  44  58
ATOM     58  C   UNL A   1      44.728  27.599  34.279  1.00  0.00     0.064 A 
ATOM     59  C   UNL A   1      45.954  28.272  34.368  1.00  0.00     0.173 A 
ATOM     60  C   UNL A   1      44.611  26.360  34.930  1.00  0.00     0.173 A 
ATOM     61  F   UNL A   1      46.122  29.453  33.756  1.00  0.00    -0.203 F 
ATOM     62  C   UNL A   1      47.028  27.716  35.062  1.00  0.00     0.198 A 
ATOM     63  C   UNL A   1      45.676  25.819  35.645  1.00  0.00     0.198 A 
ATOM     64  F   UNL A   1      43.456  25.678  34.881  1.00  0.00    -0.203 F 
ATOM     65  F   UNL A   1      48.203  28.357  35.100  1.00  0.00    -0.200 F 
ATOM     66  C   UNL A   1      46.885  26.495  35.704  1.00  0.00     0.200 A 
ATOM     67  F   UNL A   1      45.530  24.646  36.276  1.00  0.00    -0.200 F 
ATOM     68  F   UNL A   1      47.915  25.965  36.379  1.00  0.00    -0.200 F 
ENDBRANCH  44  58
BRANCH  45  69
ATOM     69  C   UNL A   1      36.954  31.188  29.172  1.00  0.00     0.064 A 
ATOM     70  C   UNL A   1      35.838  30.377  28.924  1.00  0.00     0.173 A 
ATOM     71  C   UNL A   1      36.922  32.507  28.696  1.00  0.00     0.173 A 
ATOM     72  F   UNL A   1      35.834  29.100  29.333  1.00  0.00    -0.203 F 
ATOM     73  C   UNL A   1      34.737  30.865  28.223  1.00  0.00     0.198 A 
ATOM     74  C   UNL A   1      35.809  33.003  28.022  1.00  0.00     0.198 A 
ATOM     75  F   UNL A   1      37.967  33.322  28.903  1.00  0.00    -0.203 F 
ATOM     76  F   UNL A   1      33.699  30.059  27.964  1.00  0.00    -0.200 F 
ATOM     77  C   UNL A   1      34.720  32.180  27.780  1.00  0.00     0.200 A 
ATOM     78  F   UNL A   1      35.790  34.278  27.608  1.00  0.00    -0.200 F 
ATOM     79  F   UNL A   1      33.656  32.651  27.116  1.00  0.00    -0.200 F 
ENDBRANCH  45  69
BRANCH  57  80
ATOM     80  C   UNL A   1      39.263  32.081  35.681  1.00  0.00     0.064 A 
ATOM     81  C   UNL A   1      38.394  31.539  36.640  1.00  0.00     0.173 A 
ATOM     82  C   UNL A   1      39.679  33.411  35.845  1.00  0.00     0.173 A 
ATOM     83  F   UNL A   1      37.956  30.277  36.518  1.00  0.00    -0.203 F 
ATOM     84  C   UNL A   1      37.944  32.306  37.711  1.00  0.00     0.198 A 
ATOM     85  C   UNL A   1      39.245  34.168  36.930  1.00  0.00     0.198 A 
ATOM     86  F   UNL A   1      40.511  33.972  34.956  1.00  0.00    -0.203 F 
ATOM     87  F   UNL A   1      37.082  31.782  38.594  1.00  0.00    -0.200 F 
ATOM     88  C   UNL A   1      38.374  33.617  37.858  1.00  0.00     0.200 A 
ATOM     89  F   UNL A   1      39.668  35.431  37.076  1.00  0.00    -0.200 F 
ATOM     90  F   UNL A   1      37.942  34.354  38.892  1.00  0.00    -0.200 F 
ENDBRANCH  57  80
ENDBRANCH  31  32
ENDBRANCH  24  26
ENDBRANCH  23  24
ENDBRANCH  22  23
ENDBRANCH   1  22
TORSDOF 13
ENDMDL
MODEL 2
REMARK VINA RESULT:     -12.2      0.306      1.630
REMARK SMILES O=CN1CCN(S(=O)(=O)c2ccc(C(=O)OCCOC(=O)c3ccc(-c4c5nc(c(-c6c(F)c(F)c(F)c(F)c6F)c6ccc([nH]6)c(-c6c(F)c(F)c(F)c(F)c6F)c6nc(c(-c7c(F)c(F)c(F)c(F)c7F)c7ccc4[nH]7)C=C6)C=C5)cc3)cc2)CC1
REMARK SMILES IDX 17 1 16 2 14 3 15 4 13 5 10 6 11 7 86 8 12 9 85 10 7 11 8 12
REMARK SMILES IDX 9 13 6 14 1 15 2 16 3 17 4 18 88 19 5 20 87 21 18 22 19 23
REMARK SMILES IDX 20 24 21 25 22 26 23 27 84 28 24 29 83 30 25 31 26 32 27 33
REMARK SMILES IDX 77 34 28 35 82 36 76 37 78 38 29 39 81 40 75 41 74 42 30 44
REMARK SMILES IDX 62 45 42 46 61 47 43 48 46 49 60 50 79 51 44 52 45 53 59 55
REMARK SMILES IDX 80 56 47 57 31 58 32 59 40 60 33 61 34 62 38 63 41 64 35 65
REMARK SMILES IDX 36 66 39 67 37 68 63 69 64 70 72 71 65 72 66 73 70 74 73 75
REMARK SMILES IDX 67 76 68 77 71 78 69 79 48 80 49 81 57 82 50 83 51 84 55 85
REMARK SMILES IDX 58 86 52 87 53 88 56 89 54 90
REMARK H PARENT 78 43 46 54
REMARK Flexibility Score: inf
ROOT
ATOM      1  C   UNL A   1      42.424  20.593  26.168  1.00  0.00     0.275 C 
ENDROOT
BRANCH   1   2
ATOM      2  O   UNL A   1      41.096  20.884  25.692  1.00  0.00    -0.458 OA
BRANCH   2   3
ATOM      3  C   UNL A   1      40.222  21.353  26.615  1.00  0.00     0.338 C 
ATOM      4  O   UNL A   1      40.422  21.464  27.813  1.00  0.00    -0.246 OA
BRANCH   3   5
ATOM      5  C   UNL A   1      38.972  21.831  25.963  1.00  0.00     0.060 A 
ATOM      6  C   UNL A   1      36.561  22.592  24.773  1.00  0.00     0.082 A 
ATOM      7  C   UNL A   1      37.017  21.283  24.619  1.00  0.00     0.022 A 
ATOM      8  C   UNL A   1      37.289  23.516  25.534  1.00  0.00     0.022 A 
ATOM      9  C   UNL A   1      38.231  20.911  25.200  1.00  0.00     0.017 A 
ATOM     10  C   UNL A   1      38.501  23.139  26.118  1.00  0.00     0.017 A 
BRANCH   6  11
ATOM     11  S   UNL A   1      34.989  23.062  24.091  1.00  0.00     0.243 S 
ATOM     12  O   UNL A   1      34.081  21.949  24.284  1.00  0.00    -0.207 OA
ATOM     13  O   UNL A   1      35.222  23.594  22.768  1.00  0.00    -0.207 OA
BRANCH  11  14
ATOM     14  N   UNL A   1      34.483  24.359  25.080  1.00  0.00    -0.194 NA
ATOM     15  O   UNL A   1      29.970  23.549  27.259  1.00  0.00    -0.279 OA
ATOM     16  C   UNL A   1      30.371  24.061  26.222  1.00  0.00     0.340 C 
ATOM     17  N   UNL A   1      31.684  24.103  25.810  1.00  0.00    -0.343 N 
ATOM     18  C   UNL A   1      32.047  24.582  24.475  1.00  0.00     0.136 C 
ATOM     19  C   UNL A   1      32.702  23.383  26.572  1.00  0.00     0.136 C 
ATOM     20  C   UNL A   1      33.440  25.232  24.439  1.00  0.00     0.124 C 
ATOM     21  C   UNL A   1      34.076  24.057  26.489  1.00  0.00     0.124 C 
ENDBRANCH  11  14
ENDBRANCH   6  11
ENDBRANCH   3   5
ENDBRANCH   2   3
ENDBRANCH   1   2
BRANCH   1  22
ATOM     22  C   UNL A   1      43.435  21.585  25.592  1.00  0.00     0.275 C 
BRANCH  22  23
ATOM     23  O   UNL A   1      42.752  22.725  25.038  1.00  0.00    -0.458 OA
BRANCH  23  24
ATOM     24  C   UNL A   1      43.457  23.879  25.022  1.00  0.00     0.338 C 
ATOM     25  O   UNL A   1      44.422  24.158  24.332  1.00  0.00    -0.246 OA
BRANCH  24  26
ATOM     26  C   UNL A   1      42.860  24.833  25.967  1.00  0.00     0.060 A 
ATOM     27  C   UNL A   1      43.280  26.161  25.936  1.00  0.00     0.016 A 
ATOM     28  C   UNL A   1      42.002  24.390  26.973  1.00  0.00     0.016 A 
ATOM     29  C   UNL A   1      42.898  27.040  26.944  1.00  0.00     0.010 A 
ATOM     30  C   UNL A   1      41.562  25.294  27.948  1.00  0.00     0.010 A 
ATOM     31  C   UNL A   1      42.030  26.621  27.964  1.00  0.00    -0.014 A 
BRANCH  31  32
ATOM     32  C   UNL A   1      41.668  27.546  29.076  1.00  0.00     0.031 A 
ATOM     33  C   UNL A   1      42.505  27.585  30.328  1.00  0.00     0.074 A 
ATOM     34  C   UNL A   1      40.606  28.369  28.970  1.00  0.00     0.049 A 
ATOM     35  N   UNL A   1      42.263  28.175  31.473  1.00  0.00    -0.248 NA
ATOM     36  C   UNL A   1      43.779  26.850  30.291  1.00  0.00     0.031 C 
ATOM     37  C   UNL A   1      39.735  28.483  27.799  1.00  0.00     0.029 A 
ATOM     38  N   UNL A   1      40.081  29.274  29.862  1.00  0.00    -0.354 N 
ATOM     39  C   UNL A   1      43.321  27.833  32.307  1.00  0.00     0.074 A 
ATOM     40  C   UNL A   1      44.208  26.986  31.539  1.00  0.00     0.031 C 
ATOM     41  C   UNL A   1      38.808  29.425  28.031  1.00  0.00     0.029 A 
ATOM     42  C   UNL A   1      38.963  29.922  29.394  1.00  0.00     0.049 A 
ATOM     43  H   UNL A   1      40.470  29.442  30.751  1.00  0.00     0.167 HD
ATOM     44  C   UNL A   1      43.529  28.190  33.598  1.00  0.00     0.037 A 
ATOM     45  C   UNL A   1      38.130  30.785  30.005  1.00  0.00     0.037 A 
ATOM     46  C   UNL A   1      42.681  29.087  34.342  1.00  0.00     0.049 A 
ATOM     47  C   UNL A   1      38.372  31.155  31.443  1.00  0.00     0.074 A 
ATOM     48  C   UNL A   1      42.821  29.522  35.648  1.00  0.00     0.029 A 
ATOM     49  N   UNL A   1      41.548  29.703  33.834  1.00  0.00    -0.354 N 
ATOM     50  N   UNL A   1      39.336  30.774  32.243  1.00  0.00    -0.248 NA
ATOM     51  C   UNL A   1      37.395  32.060  32.068  1.00  0.00     0.031 C 
ATOM     52  C   UNL A   1      41.754  30.378  35.942  1.00  0.00     0.029 A 
ATOM     53  C   UNL A   1      40.973  30.507  34.806  1.00  0.00     0.049 A 
ATOM     54  H   UNL A   1      41.202  29.586  32.920  1.00  0.00     0.167 HD
ATOM     55  C   UNL A   1      39.091  31.397  33.460  1.00  0.00     0.074 A 
ATOM     56  C   UNL A   1      37.898  32.198  33.287  1.00  0.00     0.031 C 
ATOM     57  C   UNL A   1      39.789  31.305  34.617  1.00  0.00     0.037 A 
BRANCH  44  58
ATOM     58  C   UNL A   1      44.703  27.583  34.308  1.00  0.00     0.064 A 
ATOM     59  C   UNL A   1      44.647  26.306  34.883  1.00  0.00     0.173 A 
ATOM     60  C   UNL A   1      45.921  28.280  34.373  1.00  0.00     0.173 A 
ATOM     61  F   UNL A   1      43.505  25.604  34.858  1.00  0.00    -0.203 F 
ATOM     62  C   UNL A   1      45.760  25.758  35.519  1.00  0.00     0.198 A 
ATOM     63  C   UNL A   1      47.038  27.719  34.985  1.00  0.00     0.198 A 
ATOM     64  F   UNL A   1      46.030  29.503  33.832  1.00  0.00    -0.203 F 
ATOM     65  F   UNL A   1      45.672  24.553  36.097  1.00  0.00    -0.200 F 
ATOM     66  C   UNL A   1      46.955  26.461  35.562  1.00  0.00     0.200 A 
ATOM     67  F   UNL A   1      48.196  28.395  35.013  1.00  0.00    -0.200 F 
ATOM     68  F   UNL A   1      48.027  25.929  36.165  1.00  0.00    -0.200 F 
ENDBRANCH  44  58
BRANCH  45  69
ATOM     69  C   UNL A   1      36.960  31.329  29.267  1.00  0.00     0.064 A 
ATOM     70  C   UNL A   1      35.859  30.519  28.960  1.00  0.00     0.173 A 
ATOM     71  C   UNL A   1      36.918  32.671  28.858  1.00  0.00     0.173 A 
ATOM     72  F   UNL A   1      35.865  29.223  29.303  1.00  0.00    -0.203 F 
ATOM     73  C   UNL A   1      34.762  31.029  28.268  1.00  0.00     0.198 A 
ATOM     74  C   UNL A   1      35.809  33.187  28.193  1.00  0.00     0.198 A 
ATOM     75  F   UNL A   1      37.949  33.487  29.123  1.00  0.00    -0.203 F 
ATOM     76  F   UNL A   1      33.738  30.224  27.952  1.00  0.00    -0.200 F 
ATOM     77  C   UNL A   1      34.734  32.364  27.893  1.00  0.00     0.200 A 
ATOM     78  F   UNL A   1      35.780  34.481  27.845  1.00  0.00    -0.200 F 
ATOM     79  F   UNL A   1      33.674  32.856  27.237  1.00  0.00    -0.200 F 
ENDBRANCH  45  69
BRANCH  57  80
ATOM     80  C   UNL A   1      39.297  32.115  35.779  1.00  0.00     0.064 A 
ATOM     81  C   UNL A   1      39.718  33.438  35.981  1.00  0.00     0.173 A 
ATOM     82  C   UNL A   1      38.369  31.574  36.681  1.00  0.00     0.173 A 
ATOM     83  F   UNL A   1      40.615  33.994  35.154  1.00  0.00    -0.203 F 
ATOM     84  C   UNL A   1      39.242  34.183  37.057  1.00  0.00     0.198 A 
ATOM     85  C   UNL A   1      37.878  32.329  37.743  1.00  0.00     0.198 A 
ATOM     86  F   UNL A   1      37.934  30.314  36.529  1.00  0.00    -0.203 F 
ATOM     87  F   UNL A   1      39.688  35.431  37.255  1.00  0.00    -0.200 F 
ATOM     88  C   UNL A   1      38.319  33.630  37.933  1.00  0.00     0.200 A 
ATOM     89  F   UNL A   1      36.980  31.797  38.583  1.00  0.00    -0.200 F 
ATOM     90  F   UNL A   1      37.860  34.349  38.967  1.00  0.00    -0.200 F 
ENDBRANCH  57  80
ENDBRANCH  31  32
ENDBRANCH  24  26
ENDBRANCH  23  24
ENDBRANCH  22  23
ENDBRANCH   1  22
TORSDOF 13
ENDMDL
MODEL 3
REMARK VINA RESULT:     -12.0      3.007      8.559
REMARK SMILES O=CN1CCN(S(=O)(=O)c2ccc(C(=O)OCCOC(=O)c3ccc(-c4c5nc(c(-c6c(F)c(F)c(F)c(F)c6F)c6ccc([nH]6)c(-c6c(F)c(F)c(F)c(F)c6F)c6nc(c(-c7c(F)c(F)c(F)c(F)c7F)c7ccc4[nH]7)C=C6)C=C5)cc3)cc2)CC1
REMARK SMILES IDX 17 1 16 2 14 3 15 4 13 5 10 6 11 7 86 8 12 9 85 10 7 11 8 12
REMARK SMILES IDX 9 13 6 14 1 15 2 16 3 17 4 18 88 19 5 20 87 21 18 22 19 23
REMARK SMILES IDX 20 24 21 25 22 26 23 27 84 28 24 29 83 30 25 31 26 32 27 33
REMARK SMILES IDX 77 34 28 35 82 36 76 37 78 38 29 39 81 40 75 41 74 42 30 44
REMARK SMILES IDX 62 45 42 46 61 47 43 48 46 49 60 50 79 51 44 52 45 53 59 55
REMARK SMILES IDX 80 56 47 57 31 58 32 59 40 60 33 61 34 62 38 63 41 64 35 65
REMARK SMILES IDX 36 66 39 67 37 68 63 69 64 70 72 71 65 72 66 73 70 74 73 75
REMARK SMILES IDX 67 76 68 77 71 78 69 79 48 80 49 81 57 82 50 83 51 84 55 85
REMARK SMILES IDX 58 86 52 87 53 88 56 89 54 90
REMARK H PARENT 78 43 46 54
REMARK Flexibility Score: inf
ROOT
ATOM      1  C   UNL A   1      31.229  29.152  24.942  1.00  0.00     0.275 C 
ENDROOT
BRANCH   1   2
ATOM      2  O   UNL A   1      31.436  29.299  23.524  1.00  0.00    -0.458 OA
BRANCH   2   3
ATOM      3  C   UNL A   1      30.818  28.386  22.735  1.00  0.00     0.338 C 
ATOM      4  O   UNL A   1      29.871  28.591  21.994  1.00  0.00    -0.246 OA
BRANCH   3   5
ATOM      5  C   UNL A   1      31.515  27.074  22.800  1.00  0.00     0.060 A 
ATOM      6  C   UNL A   1      32.945  24.680  22.987  1.00  0.00     0.082 A 
ATOM      7  C   UNL A   1      33.618  25.855  22.653  1.00  0.00     0.022 A 
ATOM      8  C   UNL A   1      31.569  24.696  23.248  1.00  0.00     0.022 A 
ATOM      9  C   UNL A   1      32.898  27.046  22.543  1.00  0.00     0.017 A 
ATOM     10  C   UNL A   1      30.852  25.890  23.141  1.00  0.00     0.017 A 
BRANCH   6  11
ATOM     11  S   UNL A   1      33.859  23.169  23.190  1.00  0.00     0.243 S 
ATOM     12  O   UNL A   1      35.089  23.301  22.436  1.00  0.00    -0.207 OA
ATOM     13  O   UNL A   1      32.958  22.069  22.933  1.00  0.00    -0.207 OA
BRANCH  11  14
ATOM     14  N   UNL A   1      34.238  23.139  24.854  1.00  0.00    -0.194 NA
ATOM     15  O   UNL A   1      39.120  22.077  25.758  1.00  0.00    -0.279 OA
ATOM     16  C   UNL A   1      38.083  21.437  25.644  1.00  0.00     0.340 C 
ATOM     17  N   UNL A   1      36.852  21.963  25.322  1.00  0.00    -0.343 N 
ATOM     18  C   UNL A   1      35.705  21.099  25.039  1.00  0.00     0.136 C 
ATOM     19  C   UNL A   1      36.745  23.374  24.955  1.00  0.00     0.136 C 
ATOM     20  C   UNL A   1      34.365  21.751  25.417  1.00  0.00     0.124 C 
ATOM     21  C   UNL A   1      35.387  23.973  25.334  1.00  0.00     0.124 C 
ENDBRANCH  11  14
ENDBRANCH   6  11
ENDBRANCH   3   5
ENDBRANCH   2   3
ENDBRANCH   1   2
BRANCH   1  22
ATOM     22  C   UNL A   1      31.586  30.444  25.677  1.00  0.00     0.275 C 
BRANCH  22  23
ATOM     23  O   UNL A   1      32.758  30.246  26.489  1.00  0.00    -0.458 OA
BRANCH  23  24
ATOM     24  C   UNL A   1      33.253  31.356  27.083  1.00  0.00     0.338 C 
ATOM     25  O   UNL A   1      32.716  32.443  27.206  1.00  0.00    -0.246 OA
BRANCH  24  26
ATOM     26  C   UNL A   1      34.585  31.067  27.631  1.00  0.00     0.060 A 
ATOM     27  C   UNL A   1      34.903  29.751  27.963  1.00  0.00     0.016 A 
ATOM     28  C   UNL A   1      35.459  32.104  27.953  1.00  0.00     0.016 A 
ATOM     29  C   UNL A   1      36.065  29.470  28.675  1.00  0.00     0.010 A 
ATOM     30  C   UNL A   1      36.661  31.811  28.608  1.00  0.00     0.010 A 
ATOM     31  C   UNL A   1      36.964  30.495  29.006  1.00  0.00    -0.014 A 
BRANCH  31  32
ATOM     32  C   UNL A   1      38.179  30.203  29.819  1.00  0.00     0.031 A 
ATOM     33  C   UNL A   1      39.281  29.348  29.249  1.00  0.00     0.074 A 
ATOM     34  C   UNL A   1      38.317  30.712  31.059  1.00  0.00     0.049 A 
ATOM     35  N   UNL A   1      40.324  28.828  29.847  1.00  0.00    -0.248 NA
ATOM     36  C   UNL A   1      39.189  29.025  27.816  1.00  0.00     0.031 C 
ATOM     37  C   UNL A   1      37.361  31.598  31.724  1.00  0.00     0.029 A 
ATOM     38  N   UNL A   1      39.324  30.560  31.984  1.00  0.00    -0.354 N 
ATOM     39  C   UNL A   1      40.976  28.070  28.881  1.00  0.00     0.074 A 
ATOM     40  C   UNL A   1      40.213  28.198  27.658  1.00  0.00     0.031 C 
ATOM     41  C   UNL A   1      37.840  31.937  32.931  1.00  0.00     0.029 A 
ATOM     42  C   UNL A   1      39.094  31.228  33.162  1.00  0.00     0.049 A 
ATOM     43  H   UNL A   1      40.132  30.023  31.816  1.00  0.00     0.167 HD
ATOM     44  C   UNL A   1      42.106  27.332  29.007  1.00  0.00     0.037 A 
ATOM     45  C   UNL A   1      39.788  31.235  34.316  1.00  0.00     0.037 A 
ATOM     46  C   UNL A   1      42.902  27.258  30.206  1.00  0.00     0.049 A 
ATOM     47  C   UNL A   1      41.031  30.396  34.437  1.00  0.00     0.074 A 
ATOM     48  C   UNL A   1      44.071  26.551  30.423  1.00  0.00     0.029 A 
ATOM     49  N   UNL A   1      42.619  27.934  31.383  1.00  0.00    -0.354 N 
ATOM     50  N   UNL A   1      41.601  29.630  33.540  1.00  0.00    -0.248 NA
ATOM     51  C   UNL A   1      41.713  30.405  35.740  1.00  0.00     0.031 C 
ATOM     52  C   UNL A   1      44.481  26.774  31.742  1.00  0.00     0.029 A 
ATOM     53  C   UNL A   1      43.589  27.653  32.333  1.00  0.00     0.049 A 
ATOM     54  H   UNL A   1      41.846  28.526  31.523  1.00  0.00     0.167 HD
ATOM     55  C   UNL A   1      42.711  29.075  34.163  1.00  0.00     0.074 A 
ATOM     56  C   UNL A   1      42.747  29.609  35.508  1.00  0.00     0.031 C 
ATOM     57  C   UNL A   1      43.614  28.197  33.666  1.00  0.00     0.037 A 
BRANCH  44  58
ATOM     58  C   UNL A   1      42.536  26.510  27.827  1.00  0.00     0.064 A 
ATOM     59  C   UNL A   1      42.062  25.208  27.615  1.00  0.00     0.173 A 
ATOM     60  C   UNL A   1      43.405  27.057  26.870  1.00  0.00     0.173 A 
ATOM     61  F   UNL A   1      41.239  24.635  28.505  1.00  0.00    -0.203 F 
ATOM     62  C   UNL A   1      42.462  24.475  26.498  1.00  0.00     0.198 A 
ATOM     63  C   UNL A   1      43.780  26.333  25.742  1.00  0.00     0.198 A 
ATOM     64  F   UNL A   1      43.881  28.302  27.022  1.00  0.00    -0.203 F 
ATOM     65  F   UNL A   1      42.030  23.217  26.336  1.00  0.00    -0.200 F 
ATOM     66  C   UNL A   1      43.314  25.040  25.561  1.00  0.00     0.200 A 
ATOM     67  F   UNL A   1      44.593  26.887  24.831  1.00  0.00    -0.200 F 
ATOM     68  F   UNL A   1      43.690  24.337  24.484  1.00  0.00    -0.200 F 
ENDBRANCH  44  58
BRANCH  45  69
ATOM     69  C   UNL A   1      39.299  32.039  35.467  1.00  0.00     0.064 A 
ATOM     70  C   UNL A   1      39.650  33.388  35.607  1.00  0.00     0.173 A 
ATOM     71  C   UNL A   1      38.467  31.474  36.446  1.00  0.00     0.173 A 
ATOM     72  F   UNL A   1      40.467  33.963  34.713  1.00  0.00    -0.203 F 
ATOM     73  C   UNL A   1      39.190  34.142  36.685  1.00  0.00     0.198 A 
ATOM     74  C   UNL A   1      37.983  32.237  37.506  1.00  0.00     0.198 A 
ATOM     75  F   UNL A   1      38.106  30.186  36.360  1.00  0.00    -0.203 F 
ATOM     76  F   UNL A   1      39.571  35.419  36.817  1.00  0.00    -0.200 F 
ATOM     77  C   UNL A   1      38.351  33.568  37.628  1.00  0.00     0.200 A 
ATOM     78  F   UNL A   1      37.162  31.682  38.408  1.00  0.00    -0.200 F 
ATOM     79  F   UNL A   1      37.901  34.297  38.659  1.00  0.00    -0.200 F 
ENDBRANCH  45  69
BRANCH  57  80
ATOM     80  C   UNL A   1      44.735  27.781  34.571  1.00  0.00     0.064 A 
ATOM     81  C   UNL A   1      45.957  28.471  34.590  1.00  0.00     0.173 A 
ATOM     82  C   UNL A   1      44.575  26.702  35.452  1.00  0.00     0.173 A 
ATOM     83  F   UNL A   1      46.163  29.500  33.754  1.00  0.00    -0.203 F 
ATOM     84  C   UNL A   1      46.984  28.083  35.445  1.00  0.00     0.198 A 
ATOM     85  C   UNL A   1      45.596  26.330  36.322  1.00  0.00     0.198 A 
ATOM     86  F   UNL A   1      43.425  26.013  35.473  1.00  0.00    -0.203 F 
ATOM     87  F   UNL A   1      48.157  28.730  35.418  1.00  0.00    -0.200 F 
ATOM     88  C   UNL A   1      46.801  27.016  36.314  1.00  0.00     0.200 A 
ATOM     89  F   UNL A   1      45.415  25.306  37.167  1.00  0.00    -0.200 F 
ATOM     90  F   UNL A   1      47.790  26.645  37.138  1.00  0.00    -0.200 F 
ENDBRANCH  57  80
ENDBRANCH  31  32
ENDBRANCH  24  26
ENDBRANCH  23  24
ENDBRANCH  22  23
ENDBRANCH   1  22
TORSDOF 13
ENDMDL
