MODEL 1
REMARK VINA RESULT:     -11.5      0.000      0.000
REMARK SMILES Cc1c(C(=O)OCCOC(=O)c2ccc(-c3c4nc(c(-c5c(F)c(F)c(F)c(F)c5F)c5ccc([nH]5)c(-c5c(F)c(F)c(F)c(F)c5F)c5nc(c(-c6c(F)c(F)c(F)c(F)c6F)c6ccc3[nH]6)C=C5)C=C4)cc2)cnc2nc(CO)nn12
REMARK SMILES IDX 7 1 6 2 4 3 5 4 3 5 1 6 2 7 83 8 75 9 77 10 82 11 76 12
REMARK SMILES IDX 78 13 79 14 80 15 81 16 8 18 9 19 10 20 11 21 12 22 13 23
REMARK SMILES IDX 74 24 14 25 73 26 15 27 16 28 17 29 67 30 18 31 72 32 66 33
REMARK SMILES IDX 68 34 19 35 71 36 65 37 64 38 20 40 52 41 32 42 51 43 33 44
REMARK SMILES IDX 36 45 50 46 69 47 34 48 35 49 49 51 70 52 37 53 21 54 22 55
REMARK SMILES IDX 30 56 23 57 24 58 28 59 31 60 25 61 26 62 29 63 27 64 53 65
REMARK SMILES IDX 54 66 62 67 55 68 56 69 60 70 63 71 57 72 58 73 61 74 59 75
REMARK SMILES IDX 38 76 39 77 47 78 40 79 41 80 45 81 48 82 42 83 43 84 46 85
REMARK SMILES IDX 44 86
REMARK H PARENT 81 17 68 39 36 50
REMARK Flexibility Score: inf
ROOT
ATOM      1  C   UNL A   1      32.901  30.446  26.936  1.00  0.00     0.275 C 
ENDROOT
BRANCH   1   2
ATOM      2  O   UNL A   1      33.141  29.047  27.209  1.00  0.00    -0.458 OA
BRANCH   2   3
ATOM      3  C   UNL A   1      32.066  28.220  27.119  1.00  0.00     0.341 C 
ATOM      4  O   UNL A   1      31.378  27.857  28.063  1.00  0.00    -0.246 OA
BRANCH   3   5
ATOM      5  C   UNL A   1      31.806  27.841  25.708  1.00  0.00     0.099 A 
ATOM      6  C   UNL A   1      33.513  25.939  25.627  1.00  0.00     0.068 C 
ATOM      7  C   UNL A   1      32.473  26.860  25.054  1.00  0.00     0.059 A 
ATOM      8  N   UNL A   1      32.190  26.646  23.697  1.00  0.00    -0.200 N 
ATOM      9  C   UNL A   1      30.760  28.536  24.892  1.00  0.00     0.132 A 
ATOM     10  C   UNL A   1      31.236  27.398  23.004  1.00  0.00     0.252 A 
ATOM     11  N   UNL A   1      32.785  25.776  22.844  1.00  0.00    -0.147 NA
ATOM     12  N   UNL A   1      30.490  28.350  23.634  1.00  0.00    -0.219 NA
ATOM     13  N   UNL A   1      31.243  27.039  21.738  1.00  0.00    -0.191 NA
ATOM     14  C   UNL A   1      32.185  26.049  21.682  1.00  0.00     0.178 A 
BRANCH  14  15
ATOM     15  C   UNL A   1      32.600  25.395  20.402  1.00  0.00     0.235 C 
BRANCH  15  16
ATOM     16  O   UNL A   1      31.702  25.660  19.314  1.00  0.00    -0.388 OA
ATOM     17  H   UNL A   1      30.819  25.858  19.665  1.00  0.00     0.211 HD
ENDBRANCH  15  16
ENDBRANCH  14  15
ENDBRANCH   3   5
ENDBRANCH   2   3
ENDBRANCH   1   2
BRANCH   1  18
ATOM     18  C   UNL A   1      33.854  31.369  27.701  1.00  0.00     0.275 C 
BRANCH  18  19
ATOM     19  O   UNL A   1      35.124  30.768  27.984  1.00  0.00    -0.458 OA
BRANCH  19  20
ATOM     20  C   UNL A   1      35.986  31.617  28.574  1.00  0.00     0.338 C 
ATOM     21  O   UNL A   1      36.219  32.776  28.263  1.00  0.00    -0.246 OA
BRANCH  20  22
ATOM     22  C   UNL A   1      36.849  30.940  29.536  1.00  0.00     0.060 A 
ATOM     23  C   UNL A   1      38.023  31.622  29.856  1.00  0.00     0.016 A 
ATOM     24  C   UNL A   1      36.743  29.551  29.645  1.00  0.00     0.016 A 
ATOM     25  C   UNL A   1      39.173  30.901  30.053  1.00  0.00     0.010 A 
ATOM     26  C   UNL A   1      37.895  28.827  29.880  1.00  0.00     0.010 A 
ATOM     27  C   UNL A   1      39.113  29.509  29.970  1.00  0.00    -0.014 A 
BRANCH  27  28
ATOM     28  C   UNL A   1      40.389  28.814  29.997  1.00  0.00     0.031 A 
ATOM     29  C   UNL A   1      40.969  28.625  31.359  1.00  0.00     0.074 A 
ATOM     30  C   UNL A   1      40.933  28.310  28.875  1.00  0.00     0.049 A 
ATOM     31  N   UNL A   1      42.183  28.814  31.773  1.00  0.00    -0.248 NA
ATOM     32  C   UNL A   1      40.019  28.250  32.423  1.00  0.00     0.031 C 
ATOM     33  C   UNL A   1      40.343  28.214  27.536  1.00  0.00     0.029 A 
ATOM     34  N   UNL A   1      42.099  27.626  28.744  1.00  0.00    -0.354 N 
ATOM     35  C   UNL A   1      42.177  28.462  33.122  1.00  0.00     0.074 A 
ATOM     36  C   UNL A   1      40.807  28.225  33.493  1.00  0.00     0.031 C 
ATOM     37  C   UNL A   1      41.017  27.280  26.829  1.00  0.00     0.029 A 
ATOM     38  C   UNL A   1      42.138  26.813  27.625  1.00  0.00     0.049 A 
ATOM     39  H   UNL A   1      42.844  27.703  29.383  1.00  0.00     0.167 HD
ATOM     40  C   UNL A   1      43.305  28.229  33.843  1.00  0.00     0.037 A 
ATOM     41  C   UNL A   1      42.941  25.736  27.467  1.00  0.00     0.037 A 
ATOM     42  C   UNL A   1      44.461  28.864  33.286  1.00  0.00     0.049 A 
ATOM     43  C   UNL A   1      44.055  25.854  28.447  1.00  0.00     0.074 A 
ATOM     44  C   UNL A   1      44.825  30.183  33.090  1.00  0.00     0.029 A 
ATOM     45  N   UNL A   1      45.335  28.129  32.525  1.00  0.00    -0.354 N 
ATOM     46  N   UNL A   1      44.989  26.764  28.395  1.00  0.00    -0.248 NA
ATOM     47  C   UNL A   1      43.882  25.210  29.742  1.00  0.00     0.031 C 
ATOM     48  C   UNL A   1      45.544  30.191  31.860  1.00  0.00     0.029 A 
ATOM     49  C   UNL A   1      45.588  28.876  31.401  1.00  0.00     0.049 A 
ATOM     50  H   UNL A   1      45.706  27.244  32.743  1.00  0.00     0.167 HD
ATOM     51  C   UNL A   1      45.250  27.085  29.720  1.00  0.00     0.074 A 
ATOM     52  C   UNL A   1      44.601  26.038  30.503  1.00  0.00     0.031 C 
ATOM     53  C   UNL A   1      45.726  28.313  30.078  1.00  0.00     0.037 A 
BRANCH  40  54
ATOM     54  C   UNL A   1      43.351  27.221  34.952  1.00  0.00     0.064 A 
ATOM     55  C   UNL A   1      43.605  27.614  36.276  1.00  0.00     0.173 A 
ATOM     56  C   UNL A   1      43.377  25.829  34.704  1.00  0.00     0.173 A 
ATOM     57  F   UNL A   1      43.656  28.913  36.605  1.00  0.00    -0.203 F 
ATOM     58  C   UNL A   1      43.871  26.676  37.278  1.00  0.00     0.198 A 
ATOM     59  C   UNL A   1      43.586  24.896  35.714  1.00  0.00     0.198 A 
ATOM     60  F   UNL A   1      43.291  25.337  33.460  1.00  0.00    -0.203 F 
ATOM     61  F   UNL A   1      44.191  27.091  38.511  1.00  0.00    -0.200 F 
ATOM     62  C   UNL A   1      43.853  25.319  36.998  1.00  0.00     0.200 A 
ATOM     63  F   UNL A   1      43.587  23.589  35.416  1.00  0.00    -0.200 F 
ATOM     64  F   UNL A   1      44.139  24.423  37.951  1.00  0.00    -0.200 F 
ENDBRANCH  40  54
BRANCH  41  65
ATOM     65  C   UNL A   1      42.557  24.446  26.842  1.00  0.00     0.064 A 
ATOM     66  C   UNL A   1      43.339  23.881  25.826  1.00  0.00     0.173 A 
ATOM     67  C   UNL A   1      41.557  23.617  27.397  1.00  0.00     0.173 A 
ATOM     68  F   UNL A   1      44.348  24.580  25.286  1.00  0.00    -0.203 F 
ATOM     69  C   UNL A   1      43.140  22.564  25.396  1.00  0.00     0.198 A 
ATOM     70  C   UNL A   1      41.348  22.312  26.954  1.00  0.00     0.198 A 
ATOM     71  F   UNL A   1      40.823  24.018  28.444  1.00  0.00    -0.203 F 
ATOM     72  F   UNL A   1      43.947  22.037  24.464  1.00  0.00    -0.200 F 
ATOM     73  C   UNL A   1      42.147  21.780  25.963  1.00  0.00     0.200 A 
ATOM     74  F   UNL A   1      40.406  21.556  27.539  1.00  0.00    -0.200 F 
ATOM     75  F   UNL A   1      41.989  20.504  25.585  1.00  0.00    -0.200 F 
ENDBRANCH  41  65
BRANCH  53  76
ATOM     76  C   UNL A   1      46.149  29.249  28.980  1.00  0.00     0.064 A 
ATOM     77  C   UNL A   1      45.255  30.106  28.312  1.00  0.00     0.173 A 
ATOM     78  C   UNL A   1      47.512  29.402  28.697  1.00  0.00     0.173 A 
ATOM     79  F   UNL A   1      43.952  30.110  28.616  1.00  0.00    -0.203 F 
ATOM     80  C   UNL A   1      45.698  31.026  27.364  1.00  0.00     0.198 A 
ATOM     81  C   UNL A   1      47.957  30.351  27.777  1.00  0.00     0.198 A 
ATOM     82  F   UNL A   1      48.422  28.665  29.353  1.00  0.00    -0.203 F 
ATOM     83  F   UNL A   1      44.817  31.817  26.733  1.00  0.00    -0.200 F 
ATOM     84  C   UNL A   1      47.050  31.153  27.102  1.00  0.00     0.200 A 
ATOM     85  F   UNL A   1      49.271  30.510  27.567  1.00  0.00    -0.200 F 
ATOM     86  F   UNL A   1      47.482  32.066  26.222  1.00  0.00    -0.200 F 
ENDBRANCH  53  76
ENDBRANCH  27  28
ENDBRANCH  20  22
ENDBRANCH  19  20
ENDBRANCH  18  19
ENDBRANCH   1  18
TORSDOF 13
ENDMDL
MODEL 2
REMARK VINA RESULT:     -11.5      4.683      9.252
REMARK SMILES Cc1c(C(=O)OCCOC(=O)c2ccc(-c3c4nc(c(-c5c(F)c(F)c(F)c(F)c5F)c5ccc([nH]5)c(-c5c(F)c(F)c(F)c(F)c5F)c5nc(c(-c6c(F)c(F)c(F)c(F)c6F)c6ccc3[nH]6)C=C5)C=C4)cc2)cnc2nc(CO)nn12
REMARK SMILES IDX 7 1 6 2 4 3 5 4 3 5 1 6 2 7 83 8 75 9 77 10 82 11 76 12
REMARK SMILES IDX 78 13 79 14 80 15 81 16 8 18 9 19 10 20 11 21 12 22 13 23
REMARK SMILES IDX 74 24 14 25 73 26 15 27 16 28 17 29 67 30 18 31 72 32 66 33
REMARK SMILES IDX 68 34 19 35 71 36 65 37 64 38 20 40 52 41 32 42 51 43 33 44
REMARK SMILES IDX 36 45 50 46 69 47 34 48 35 49 49 51 70 52 37 53 21 54 22 55
REMARK SMILES IDX 30 56 23 57 24 58 28 59 31 60 25 61 26 62 29 63 27 64 53 65
REMARK SMILES IDX 54 66 62 67 55 68 56 69 60 70 63 71 57 72 58 73 61 74 59 75
REMARK SMILES IDX 38 76 39 77 47 78 40 79 41 80 45 81 48 82 42 83 43 84 46 85
REMARK SMILES IDX 44 86
REMARK H PARENT 81 17 68 39 36 50
REMARK Flexibility Score: inf
ROOT
ATOM      1  C   UNL A   1      37.408  22.537  24.845  1.00  0.00     0.275 C 
ENDROOT
BRANCH   1   2
ATOM      2  O   UNL A   1      36.049  22.306  25.278  1.00  0.00    -0.458 OA
BRANCH   2   3
ATOM      3  C   UNL A   1      35.133  22.079  24.299  1.00  0.00     0.341 C 
ATOM      4  O   UNL A   1      35.013  22.747  23.281  1.00  0.00    -0.246 OA
BRANCH   3   5
ATOM      5  C   UNL A   1      34.314  20.880  24.607  1.00  0.00     0.099 A 
ATOM      6  C   UNL A   1      36.267  19.230  24.646  1.00  0.00     0.068 C 
ATOM      7  C   UNL A   1      34.820  19.629  24.723  1.00  0.00     0.059 A 
ATOM      8  N   UNL A   1      33.934  18.564  24.943  1.00  0.00    -0.200 N 
ATOM      9  C   UNL A   1      32.834  20.976  24.818  1.00  0.00     0.132 A 
ATOM     10  C   UNL A   1      32.554  18.752  25.059  1.00  0.00     0.252 A 
ATOM     11  N   UNL A   1      34.218  17.240  25.016  1.00  0.00    -0.147 NA
ATOM     12  N   UNL A   1      32.001  19.998  25.018  1.00  0.00    -0.219 NA
ATOM     13  N   UNL A   1      31.969  17.579  25.173  1.00  0.00    -0.191 NA
ATOM     14  C   UNL A   1      33.008  16.690  25.154  1.00  0.00     0.178 A 
BRANCH  14  15
ATOM     15  C   UNL A   1      32.808  15.207  25.171  1.00  0.00     0.235 C 
BRANCH  15  16
ATOM     16  O   UNL A   1      31.567  14.810  25.771  1.00  0.00    -0.388 OA
ATOM     17  H   UNL A   1      31.737  14.144  26.456  1.00  0.00     0.211 HD
ENDBRANCH  15  16
ENDBRANCH  14  15
ENDBRANCH   3   5
ENDBRANCH   2   3
ENDBRANCH   1   2
BRANCH   1  18
ATOM     18  C   UNL A   1      38.440  21.864  25.755  1.00  0.00     0.275 C 
BRANCH  18  19
ATOM     19  O   UNL A   1      38.898  22.709  26.819  1.00  0.00    -0.458 OA
BRANCH  19  20
ATOM     20  C   UNL A   1      40.229  22.640  27.007  1.00  0.00     0.338 C 
ATOM     21  O   UNL A   1      40.875  21.686  27.415  1.00  0.00    -0.246 OA
BRANCH  20  22
ATOM     22  C   UNL A   1      40.866  23.948  26.896  1.00  0.00     0.060 A 
ATOM     23  C   UNL A   1      41.907  24.175  27.794  1.00  0.00     0.016 A 
ATOM     24  C   UNL A   1      40.120  24.993  26.343  1.00  0.00     0.016 A 
ATOM     25  C   UNL A   1      42.052  25.427  28.336  1.00  0.00     0.010 A 
ATOM     26  C   UNL A   1      40.292  26.260  26.863  1.00  0.00     0.010 A 
ATOM     27  C   UNL A   1      41.179  26.436  27.930  1.00  0.00    -0.014 A 
BRANCH  27  28
ATOM     28  C   UNL A   1      41.258  27.683  28.674  1.00  0.00     0.031 A 
ATOM     29  C   UNL A   1      42.379  28.581  28.272  1.00  0.00     0.074 A 
ATOM     30  C   UNL A   1      40.323  28.013  29.583  1.00  0.00     0.049 A 
ATOM     31  N   UNL A   1      43.220  29.234  29.010  1.00  0.00    -0.248 NA
ATOM     32  C   UNL A   1      42.636  28.689  26.823  1.00  0.00     0.031 C 
ATOM     33  C   UNL A   1      39.056  27.336  29.880  1.00  0.00     0.029 A 
ATOM     34  N   UNL A   1      40.251  29.139  30.338  1.00  0.00    -0.354 N 
ATOM     35  C   UNL A   1      44.035  29.932  28.121  1.00  0.00     0.074 A 
ATOM     36  C   UNL A   1      43.702  29.482  26.795  1.00  0.00     0.031 C 
ATOM     37  C   UNL A   1      38.238  28.202  30.518  1.00  0.00     0.029 A 
ATOM     38  C   UNL A   1      38.968  29.432  30.769  1.00  0.00     0.049 A 
ATOM     39  H   UNL A   1      41.034  29.693  30.557  1.00  0.00     0.167 HD
ATOM     40  C   UNL A   1      44.842  30.962  28.490  1.00  0.00     0.037 A 
ATOM     41  C   UNL A   1      38.528  30.655  31.145  1.00  0.00     0.037 A 
ATOM     42  C   UNL A   1      45.183  30.929  29.881  1.00  0.00     0.049 A 
ATOM     43  C   UNL A   1      39.721  31.488  31.461  1.00  0.00     0.074 A 
ATOM     44  C   UNL A   1      45.900  30.047  30.668  1.00  0.00     0.029 A 
ATOM     45  N   UNL A   1      44.507  31.734  30.762  1.00  0.00    -0.354 N 
ATOM     46  N   UNL A   1      40.518  31.281  32.473  1.00  0.00    -0.248 NA
ATOM     47  C   UNL A   1      40.274  32.304  30.388  1.00  0.00     0.031 C 
ATOM     48  C   UNL A   1      45.232  30.043  31.926  1.00  0.00     0.029 A 
ATOM     49  C   UNL A   1      44.167  30.937  31.829  1.00  0.00     0.049 A 
ATOM     50  H   UNL A   1      44.305  32.690  30.652  1.00  0.00     0.167 HD
ATOM     51  C   UNL A   1      41.785  31.599  32.003  1.00  0.00     0.074 A 
ATOM     52  C   UNL A   1      41.561  32.301  30.744  1.00  0.00     0.031 C 
ATOM     53  C   UNL A   1      42.907  31.025  32.527  1.00  0.00     0.037 A 
BRANCH  40  54
ATOM     54  C   UNL A   1      45.128  32.120  27.582  1.00  0.00     0.064 A 
ATOM     55  C   UNL A   1      46.414  32.326  27.057  1.00  0.00     0.173 A 
ATOM     56  C   UNL A   1      44.206  33.175  27.395  1.00  0.00     0.173 A 
ATOM     57  F   UNL A   1      47.376  31.409  27.228  1.00  0.00    -0.203 F 
ATOM     58  C   UNL A   1      46.751  33.511  26.395  1.00  0.00     0.198 A 
ATOM     59  C   UNL A   1      44.528  34.329  26.688  1.00  0.00     0.198 A 
ATOM     60  F   UNL A   1      42.995  33.159  27.970  1.00  0.00    -0.203 F 
ATOM     61  F   UNL A   1      48.011  33.707  25.982  1.00  0.00    -0.200 F 
ATOM     62  C   UNL A   1      45.807  34.507  26.205  1.00  0.00     0.200 A 
ATOM     63  F   UNL A   1      43.606  35.289  26.534  1.00  0.00    -0.200 F 
ATOM     64  F   UNL A   1      46.140  35.655  25.600  1.00  0.00    -0.200 F 
ENDBRANCH  40  54
BRANCH  41  65
ATOM     65  C   UNL A   1      37.203  31.241  30.827  1.00  0.00     0.064 A 
ATOM     66  C   UNL A   1      36.329  31.635  31.849  1.00  0.00     0.173 A 
ATOM     67  C   UNL A   1      36.868  31.660  29.520  1.00  0.00     0.173 A 
ATOM     68  F   UNL A   1      36.605  31.329  33.125  1.00  0.00    -0.203 F 
ATOM     69  C   UNL A   1      35.193  32.407  31.583  1.00  0.00     0.198 A 
ATOM     70  C   UNL A   1      35.725  32.412  29.255  1.00  0.00     0.198 A 
ATOM     71  F   UNL A   1      37.687  31.430  28.485  1.00  0.00    -0.203 F 
ATOM     72  F   UNL A   1      34.412  32.816  32.592  1.00  0.00    -0.200 F 
ATOM     73  C   UNL A   1      34.894  32.798  30.287  1.00  0.00     0.200 A 
ATOM     74  F   UNL A   1      35.471  32.812  27.999  1.00  0.00    -0.200 F 
ATOM     75  F   UNL A   1      33.833  33.578  30.039  1.00  0.00    -0.200 F 
ENDBRANCH  41  65
BRANCH  53  76
ATOM     76  C   UNL A   1      42.753  30.184  33.764  1.00  0.00     0.064 A 
ATOM     77  C   UNL A   1      42.757  30.719  35.065  1.00  0.00     0.173 A 
ATOM     78  C   UNL A   1      42.437  28.825  33.633  1.00  0.00     0.173 A 
ATOM     79  F   UNL A   1      42.926  32.030  35.267  1.00  0.00    -0.203 F 
ATOM     80  C   UNL A   1      42.519  29.922  36.182  1.00  0.00     0.198 A 
ATOM     81  C   UNL A   1      42.160  28.037  34.750  1.00  0.00     0.198 A 
ATOM     82  F   UNL A   1      42.347  28.270  32.415  1.00  0.00    -0.203 F 
ATOM     83  F   UNL A   1      42.546  30.461  37.410  1.00  0.00    -0.200 F 
ATOM     84  C   UNL A   1      42.213  28.582  36.023  1.00  0.00     0.200 A 
ATOM     85  F   UNL A   1      41.808  26.754  34.589  1.00  0.00    -0.200 F 
ATOM     86  F   UNL A   1      41.942  27.823  37.093  1.00  0.00    -0.200 F 
ENDBRANCH  53  76
ENDBRANCH  27  28
ENDBRANCH  20  22
ENDBRANCH  19  20
ENDBRANCH  18  19
ENDBRANCH   1  18
TORSDOF 13
ENDMDL
MODEL 3
REMARK VINA RESULT:     -11.4      3.882      8.807
REMARK SMILES Cc1c(C(=O)OCCOC(=O)c2ccc(-c3c4nc(c(-c5c(F)c(F)c(F)c(F)c5F)c5ccc([nH]5)c(-c5c(F)c(F)c(F)c(F)c5F)c5nc(c(-c6c(F)c(F)c(F)c(F)c6F)c6ccc3[nH]6)C=C5)C=C4)cc2)cnc2nc(CO)nn12
REMARK SMILES IDX 7 1 6 2 4 3 5 4 3 5 1 6 2 7 83 8 75 9 77 10 82 11 76 12
REMARK SMILES IDX 78 13 79 14 80 15 81 16 8 18 9 19 10 20 11 21 12 22 13 23
REMARK SMILES IDX 74 24 14 25 73 26 15 27 16 28 17 29 67 30 18 31 72 32 66 33
REMARK SMILES IDX 68 34 19 35 71 36 65 37 64 38 20 40 52 41 32 42 51 43 33 44
REMARK SMILES IDX 36 45 50 46 69 47 34 48 35 49 49 51 70 52 37 53 21 54 22 55
REMARK SMILES IDX 30 56 23 57 24 58 28 59 31 60 25 61 26 62 29 63 27 64 53 65
REMARK SMILES IDX 54 66 62 67 55 68 56 69 60 70 63 71 57 72 58 73 61 74 59 75
REMARK SMILES IDX 38 76 39 77 47 78 40 79 41 80 45 81 48 82 42 83 43 84 46 85
REMARK SMILES IDX 44 86
REMARK H PARENT 81 17 68 39 36 50
REMARK Flexibility Score: inf
ROOT
ATOM      1  C   UNL A   1      37.267  21.244  24.791  1.00  0.00     0.275 C 
ENDROOT
BRANCH   1   2
ATOM      2  O   UNL A   1      36.266  20.949  25.792  1.00  0.00    -0.458 OA
BRANCH   2   3
ATOM      3  C   UNL A   1      35.052  20.544  25.332  1.00  0.00     0.341 C 
ATOM      4  O   UNL A   1      34.860  19.564  24.626  1.00  0.00    -0.246 OA
BRANCH   3   5
ATOM      5  C   UNL A   1      33.973  21.430  25.836  1.00  0.00     0.099 A 
ATOM      6  C   UNL A   1      32.901  21.862  23.555  1.00  0.00     0.068 C 
ATOM      7  C   UNL A   1      33.056  22.030  25.040  1.00  0.00     0.059 A 
ATOM      8  N   UNL A   1      32.130  22.906  25.626  1.00  0.00    -0.200 N 
ATOM      9  C   UNL A   1      33.821  21.726  27.296  1.00  0.00     0.132 A 
ATOM     10  C   UNL A   1      32.114  23.168  26.999  1.00  0.00     0.252 A 
ATOM     11  N   UNL A   1      31.184  23.659  25.011  1.00  0.00    -0.147 NA
ATOM     12  N   UNL A   1      32.972  22.538  27.852  1.00  0.00    -0.219 NA
ATOM     13  N   UNL A   1      31.204  24.085  27.251  1.00  0.00    -0.191 NA
ATOM     14  C   UNL A   1      30.655  24.348  26.026  1.00  0.00     0.178 A 
BRANCH  14  15
ATOM     15  C   UNL A   1      29.621  25.409  25.811  1.00  0.00     0.235 C 
BRANCH  15  16
ATOM     16  O   UNL A   1      29.557  25.867  24.453  1.00  0.00    -0.388 OA
ATOM     17  H   UNL A   1      28.651  26.151  24.250  1.00  0.00     0.211 HD
ENDBRANCH  15  16
ENDBRANCH  14  15
ENDBRANCH   3   5
ENDBRANCH   2   3
ENDBRANCH   1   2
BRANCH   1  18
ATOM     18  C   UNL A   1      38.674  21.372  25.381  1.00  0.00     0.275 C 
BRANCH  18  19
ATOM     19  O   UNL A   1      38.760  22.332  26.443  1.00  0.00    -0.458 OA
BRANCH  19  20
ATOM     20  C   UNL A   1      39.975  22.367  27.021  1.00  0.00     0.338 C 
ATOM     21  O   UNL A   1      40.477  21.524  27.750  1.00  0.00    -0.246 OA
BRANCH  20  22
ATOM     22  C   UNL A   1      40.606  23.675  26.889  1.00  0.00     0.060 A 
ATOM     23  C   UNL A   1      41.716  23.880  27.708  1.00  0.00     0.016 A 
ATOM     24  C   UNL A   1      39.824  24.734  26.420  1.00  0.00     0.016 A 
ATOM     25  C   UNL A   1      41.907  25.119  28.264  1.00  0.00     0.010 A 
ATOM     26  C   UNL A   1      40.040  25.989  26.952  1.00  0.00     0.010 A 
ATOM     27  C   UNL A   1      41.009  26.139  27.950  1.00  0.00    -0.014 A 
BRANCH  27  28
ATOM     28  C   UNL A   1      41.150  27.369  28.713  1.00  0.00     0.031 A 
ATOM     29  C   UNL A   1      42.313  28.218  28.321  1.00  0.00     0.074 A 
ATOM     30  C   UNL A   1      40.235  27.731  29.630  1.00  0.00     0.049 A 
ATOM     31  N   UNL A   1      43.187  28.817  29.066  1.00  0.00    -0.248 NA
ATOM     32  C   UNL A   1      42.572  28.335  26.873  1.00  0.00     0.031 C 
ATOM     33  C   UNL A   1      38.937  27.112  29.920  1.00  0.00     0.029 A 
ATOM     34  N   UNL A   1      40.220  28.847  30.402  1.00  0.00    -0.354 N 
ATOM     35  C   UNL A   1      44.034  29.488  28.186  1.00  0.00     0.074 A 
ATOM     36  C   UNL A   1      43.675  29.075  26.855  1.00  0.00     0.031 C 
ATOM     37  C   UNL A   1      38.164  28.007  30.574  1.00  0.00     0.029 A 
ATOM     38  C   UNL A   1      38.954  29.196  30.841  1.00  0.00     0.049 A 
ATOM     39  H   UNL A   1      41.030  29.359  30.627  1.00  0.00     0.167 HD
ATOM     40  C   UNL A   1      44.891  30.471  28.569  1.00  0.00     0.037 A 
ATOM     41  C   UNL A   1      38.576  30.433  31.237  1.00  0.00     0.037 A 
ATOM     42  C   UNL A   1      45.233  30.399  29.957  1.00  0.00     0.049 A 
ATOM     43  C   UNL A   1      39.808  31.201  31.562  1.00  0.00     0.074 A 
ATOM     44  C   UNL A   1      45.908  29.472  30.728  1.00  0.00     0.029 A 
ATOM     45  N   UNL A   1      44.599  31.223  30.853  1.00  0.00    -0.354 N 
ATOM     46  N   UNL A   1      40.596  30.940  32.569  1.00  0.00    -0.248 NA
ATOM     47  C   UNL A   1      40.398  32.005  30.500  1.00  0.00     0.031 C 
ATOM     48  C   UNL A   1      45.243  29.481  31.988  1.00  0.00     0.029 A 
ATOM     49  C   UNL A   1      44.223  30.427  31.908  1.00  0.00     0.049 A 
ATOM     50  H   UNL A   1      44.444  32.190  30.758  1.00  0.00     0.167 HD
ATOM     51  C   UNL A   1      41.876  31.202  32.100  1.00  0.00     0.074 A 
ATOM     52  C   UNL A   1      41.684  31.935  30.852  1.00  0.00     0.031 C 
ATOM     53  C   UNL A   1      42.971  30.566  32.612  1.00  0.00     0.037 A 
BRANCH  40  54
ATOM     54  C   UNL A   1      45.231  31.628  27.677  1.00  0.00     0.064 A 
ATOM     55  C   UNL A   1      46.532  31.795  27.177  1.00  0.00     0.173 A 
ATOM     56  C   UNL A   1      44.349  32.715  27.485  1.00  0.00     0.173 A 
ATOM     57  F   UNL A   1      47.460  30.845  27.355  1.00  0.00    -0.203 F 
ATOM     58  C   UNL A   1      46.921  32.975  26.533  1.00  0.00     0.198 A 
ATOM     59  C   UNL A   1      44.722  33.864  26.796  1.00  0.00     0.198 A 
ATOM     60  F   UNL A   1      43.128  32.734  28.039  1.00  0.00    -0.203 F 
ATOM     61  F   UNL A   1      48.193  33.133  26.143  1.00  0.00    -0.200 F 
ATOM     62  C   UNL A   1      46.014  34.003  26.337  1.00  0.00     0.200 A 
ATOM     63  F   UNL A   1      43.834  34.856  26.637  1.00  0.00    -0.200 F 
ATOM     64  F   UNL A   1      46.395  35.145  25.749  1.00  0.00    -0.200 F 
ENDBRANCH  40  54
BRANCH  41  65
ATOM     65  C   UNL A   1      37.280  31.088  30.932  1.00  0.00     0.064 A 
ATOM     66  C   UNL A   1      36.424  31.499  31.962  1.00  0.00     0.173 A 
ATOM     67  C   UNL A   1      36.967  31.552  29.636  1.00  0.00     0.173 A 
ATOM     68  F   UNL A   1      36.683  31.151  33.231  1.00  0.00    -0.203 F 
ATOM     69  C   UNL A   1      35.325  32.329  31.714  1.00  0.00     0.198 A 
ATOM     70  C   UNL A   1      35.862  32.364  29.387  1.00  0.00     0.198 A 
ATOM     71  F   UNL A   1      37.776  31.308  28.595  1.00  0.00    -0.203 F 
ATOM     72  F   UNL A   1      34.563  32.751  32.732  1.00  0.00    -0.200 F 
ATOM     73  C   UNL A   1      35.048  32.764  30.427  1.00  0.00     0.200 A 
ATOM     74  F   UNL A   1      35.629  32.805  28.141  1.00  0.00    -0.200 F 
ATOM     75  F   UNL A   1      34.025  33.599  30.197  1.00  0.00    -0.200 F 
ENDBRANCH  41  65
BRANCH  53  76
ATOM     76  C   UNL A   1      42.778  29.715  33.836  1.00  0.00     0.064 A 
ATOM     77  C   UNL A   1      42.301  28.392  33.787  1.00  0.00     0.173 A 
ATOM     78  C   UNL A   1      43.230  30.185  35.076  1.00  0.00     0.173 A 
ATOM     79  F   UNL A   1      41.967  27.826  32.621  1.00  0.00    -0.203 F 
ATOM     80  C   UNL A   1      42.223  27.602  34.931  1.00  0.00     0.198 A 
ATOM     81  C   UNL A   1      43.189  29.379  36.213  1.00  0.00     0.198 A 
ATOM     82  F   UNL A   1      43.763  31.412  35.176  1.00  0.00    -0.203 F 
ATOM     83  F   UNL A   1      41.748  26.350  34.852  1.00  0.00    -0.200 F 
ATOM     84  C   UNL A   1      42.674  28.093  36.143  1.00  0.00     0.200 A 
ATOM     85  F   UNL A   1      43.678  29.837  37.373  1.00  0.00    -0.200 F 
ATOM     86  F   UNL A   1      42.639  27.320  37.237  1.00  0.00    -0.200 F 
ENDBRANCH  53  76
ENDBRANCH  27  28
ENDBRANCH  20  22
ENDBRANCH  19  20
ENDBRANCH  18  19
ENDBRANCH   1  18
TORSDOF 13
ENDMDL
