MODEL 1
REMARK VINA RESULT:     -13.0      0.000      0.000
REMARK SMILES CC1=C([C@H](NC(=O)c2cccc3ccccc23)C(=O)OCCOC(=O)c2ccc(-c3c4nc(c(-c5c(F)c(F)c(F)c(F)c5F)c5ccc([nH]5)c(-c5c(F)c(F)c(F)c(F)c5F)c5nc(c(-c6c(F)c(F)c(F)c(F)c6F)c6ccc3[nH]6)C=C5)C=C4)cc2)[C@H](C)N=N1
REMARK SMILES IDX 21 1 20 2 18 3 19 4 4 5 3 6 1 7 2 8 92 9 89 10 91 11 90 12
REMARK SMILES IDX 5 13 6 14 7 16 8 17 9 18 17 19 10 20 12 21 16 22 11 23 13 24
REMARK SMILES IDX 15 25 14 26 22 27 23 28 24 29 25 30 26 31 27 32 88 33 28 34
REMARK SMILES IDX 87 35 29 36 30 37 31 38 81 39 32 40 86 41 80 42 82 43 33 44
REMARK SMILES IDX 85 45 79 46 78 47 34 49 66 50 46 51 65 52 47 53 50 54 64 55
REMARK SMILES IDX 83 56 48 57 49 58 63 60 84 61 51 62 35 63 36 64 44 65 37 66
REMARK SMILES IDX 38 67 42 68 45 69 39 70 40 71 43 72 41 73 67 74 68 75 76 76
REMARK SMILES IDX 69 77 70 78 74 79 77 80 71 81 72 82 75 83 73 84 52 85 53 86
REMARK SMILES IDX 61 87 54 88 55 89 59 90 62 91 56 92 57 93 60 94 58 95
REMARK H PARENT 5 15 82 48 50 59
REMARK Flexibility Score: inf
ROOT
ATOM      1  C   UNL A   1      36.600  20.945  24.746  1.00  0.00     0.274 C 
ENDROOT
BRANCH   1   2
ATOM      2  O   UNL A   1      35.864  22.148  24.996  1.00  0.00    -0.460 OA
BRANCH   2   3
ATOM      3  C   UNL A   1      35.457  22.801  23.875  1.00  0.00     0.333 C 
ATOM      4  O   UNL A   1      36.161  22.926  22.872  1.00  0.00    -0.249 OA
BRANCH   3   5
ATOM      5  C   UNL A   1      34.061  23.458  24.012  1.00  0.00     0.223 C 
BRANCH   5   6
ATOM      6  C   UNL A   1      33.154  22.348  24.515  1.00  0.00     0.012 C 
ATOM      7  C   UNL A   1      32.543  23.093  26.881  1.00  0.00     0.069 C 
ATOM      8  C   UNL A   1      32.518  22.207  25.686  1.00  0.00     0.064 C 
ATOM      9  N   UNL A   1      31.780  21.053  25.756  1.00  0.00    -0.160 NA
ATOM     10  C   UNL A   1      32.841  21.072  23.770  1.00  0.00     0.156 C 
ATOM     11  N   UNL A   1      31.903  20.385  24.698  1.00  0.00    -0.181 NA
ATOM     12  C   UNL A   1      32.152  21.212  22.413  1.00  0.00     0.040 C 
ENDBRANCH   5   6
BRANCH   5  13
ATOM     13  N   UNL A   1      33.373  24.116  22.867  1.00  0.00    -0.335 N 
ATOM     14  C   UNL A   1      32.509  25.200  22.886  1.00  0.00     0.252 C 
ATOM     15  H   UNL A   1      33.555  23.730  21.980  1.00  0.00     0.165 HD
ATOM     16  O   UNL A   1      31.412  25.071  22.344  1.00  0.00    -0.269 OA
BRANCH  14  17
ATOM     17  C   UNL A   1      32.932  26.541  23.354  1.00  0.00     0.047 A 
ATOM     18  C   UNL A   1      33.576  27.365  22.415  1.00  0.00     0.014 A 
ATOM     19  C   UNL A   1      32.577  27.061  24.636  1.00  0.00    -0.006 A 
ATOM     20  C   UNL A   1      34.046  28.625  22.771  1.00  0.00     0.001 A 
ATOM     21  C   UNL A   1      33.126  28.312  24.979  1.00  0.00    -0.018 A 
ATOM     22  C   UNL A   1      31.711  26.470  25.605  1.00  0.00     0.009 A 
ATOM     23  C   UNL A   1      33.892  29.060  24.074  1.00  0.00     0.009 A 
ATOM     24  C   UNL A   1      32.885  28.848  26.239  1.00  0.00     0.009 A 
ATOM     25  C   UNL A   1      31.420  27.084  26.836  1.00  0.00     0.001 A 
ATOM     26  C   UNL A   1      32.040  28.268  27.170  1.00  0.00     0.001 A 
ENDBRANCH  14  17
ENDBRANCH   5  13
ENDBRANCH   3   5
ENDBRANCH   2   3
ENDBRANCH   1   2
BRANCH   1  27
ATOM     27  C   UNL A   1      38.002  20.936  25.358  1.00  0.00     0.275 C 
BRANCH  27  28
ATOM     28  O   UNL A   1      38.675  22.194  25.551  1.00  0.00    -0.458 OA
BRANCH  28  29
ATOM     29  C   UNL A   1      39.839  22.166  26.239  1.00  0.00     0.338 C 
ATOM     30  O   UNL A   1      40.664  21.277  26.291  1.00  0.00    -0.246 OA
BRANCH  29  31
ATOM     31  C   UNL A   1      39.973  23.251  27.201  1.00  0.00     0.060 A 
ATOM     32  C   UNL A   1      39.053  24.300  27.079  1.00  0.00     0.016 A 
ATOM     33  C   UNL A   1      41.163  23.388  27.917  1.00  0.00     0.016 A 
ATOM     34  C   UNL A   1      39.388  25.537  27.584  1.00  0.00     0.010 A 
ATOM     35  C   UNL A   1      41.505  24.633  28.402  1.00  0.00     0.010 A 
ATOM     36  C   UNL A   1      40.645  25.710  28.187  1.00  0.00    -0.014 A 
BRANCH  36  37
ATOM     37  C   UNL A   1      40.908  26.987  28.835  1.00  0.00     0.031 A 
ATOM     38  C   UNL A   1      42.187  27.563  28.324  1.00  0.00     0.074 A 
ATOM     39  C   UNL A   1      40.051  27.651  29.639  1.00  0.00     0.049 A 
ATOM     40  N   UNL A   1      43.283  27.834  28.955  1.00  0.00    -0.248 NA
ATOM     41  C   UNL A   1      42.301  27.662  26.854  1.00  0.00     0.031 C 
ATOM     42  C   UNL A   1      38.648  27.359  29.952  1.00  0.00     0.029 A 
ATOM     43  N   UNL A   1      40.266  28.812  30.321  1.00  0.00    -0.354 N 
ATOM     44  C   UNL A   1      44.152  28.313  27.974  1.00  0.00     0.074 A 
ATOM     45  C   UNL A   1      43.586  27.966  26.702  1.00  0.00     0.031 C 
ATOM     46  C   UNL A   1      38.117  28.354  30.685  1.00  0.00     0.029 A 
ATOM     47  C   UNL A   1      39.113  29.383  30.839  1.00  0.00     0.049 A 
ATOM     48  H   UNL A   1      41.159  29.210  30.437  1.00  0.00     0.167 HD
ATOM     49  C   UNL A   1      45.095  29.250  28.258  1.00  0.00     0.037 A 
ATOM     50  C   UNL A   1      38.918  30.680  31.178  1.00  0.00     0.037 A 
ATOM     51  C   UNL A   1      45.453  29.231  29.650  1.00  0.00     0.049 A 
ATOM     52  C   UNL A   1      40.258  31.278  31.405  1.00  0.00     0.074 A 
ATOM     53  C   UNL A   1      46.003  28.288  30.495  1.00  0.00     0.029 A 
ATOM     54  N   UNL A   1      44.909  30.185  30.472  1.00  0.00    -0.354 N 
ATOM     55  N   UNL A   1      41.042  30.891  32.379  1.00  0.00    -0.248 NA
ATOM     56  C   UNL A   1      40.932  31.859  30.250  1.00  0.00     0.031 C 
ATOM     57  C   UNL A   1      45.312  28.458  31.732  1.00  0.00     0.029 A 
ATOM     58  C   UNL A   1      44.437  29.535  31.583  1.00  0.00     0.049 A 
ATOM     59  H   UNL A   1      44.866  31.153  30.298  1.00  0.00     0.167 HD
ATOM     60  C   UNL A   1      42.301  30.789  31.803  1.00  0.00     0.074 A 
ATOM     61  C   UNL A   1      42.174  31.427  30.493  1.00  0.00     0.031 C 
ATOM     62  C   UNL A   1      43.258  29.951  32.303  1.00  0.00     0.037 A 
BRANCH  49  63
ATOM     63  C   UNL A   1      45.344  30.441  27.360  1.00  0.00     0.064 A 
ATOM     64  C   UNL A   1      46.668  30.854  27.128  1.00  0.00     0.173 A 
ATOM     65  C   UNL A   1      44.345  31.365  26.969  1.00  0.00     0.173 A 
ATOM     66  F   UNL A   1      47.697  30.069  27.479  1.00  0.00    -0.203 F 
ATOM     67  C   UNL A   1      46.965  32.122  26.621  1.00  0.00     0.198 A 
ATOM     68  C   UNL A   1      44.643  32.603  26.408  1.00  0.00     0.198 A 
ATOM     69  F   UNL A   1      43.044  31.173  27.215  1.00  0.00    -0.203 F 
ATOM     70  F   UNL A   1      48.242  32.522  26.542  1.00  0.00    -0.200 F 
ATOM     71  C   UNL A   1      45.954  32.997  26.268  1.00  0.00     0.200 A 
ATOM     72  F   UNL A   1      43.644  33.439  26.094  1.00  0.00    -0.200 F 
ATOM     73  F   UNL A   1      46.236  34.236  25.846  1.00  0.00    -0.200 F 
ENDBRANCH  49  63
BRANCH  50  74
ATOM     74  C   UNL A   1      37.663  31.407  30.853  1.00  0.00     0.064 A 
ATOM     75  C   UNL A   1      37.321  31.788  29.553  1.00  0.00     0.173 A 
ATOM     76  C   UNL A   1      36.690  31.665  31.851  1.00  0.00     0.173 A 
ATOM     77  F   UNL A   1      38.153  31.525  28.536  1.00  0.00    -0.203 F 
ATOM     78  C   UNL A   1      36.104  32.432  29.277  1.00  0.00     0.198 A 
ATOM     79  C   UNL A   1      35.498  32.333  31.584  1.00  0.00     0.198 A 
ATOM     80  F   UNL A   1      36.858  31.228  33.109  1.00  0.00    -0.203 F 
ATOM     81  F   UNL A   1      35.797  32.768  28.017  1.00  0.00    -0.200 F 
ATOM     82  C   UNL A   1      35.202  32.715  30.293  1.00  0.00     0.200 A 
ATOM     83  F   UNL A   1      34.634  32.577  32.580  1.00  0.00    -0.200 F 
ATOM     84  F   UNL A   1      34.040  33.325  30.027  1.00  0.00    -0.200 F 
ENDBRANCH  50  74
BRANCH  62  85
ATOM     85  C   UNL A   1      42.974  29.235  33.595  1.00  0.00     0.064 A 
ATOM     86  C   UNL A   1      43.154  29.815  34.863  1.00  0.00     0.173 A 
ATOM     87  C   UNL A   1      42.317  27.999  33.541  1.00  0.00     0.173 A 
ATOM     88  F   UNL A   1      43.676  31.042  34.991  1.00  0.00    -0.203 F 
ATOM     89  C   UNL A   1      42.726  29.169  36.024  1.00  0.00     0.198 A 
ATOM     90  C   UNL A   1      41.863  27.370  34.699  1.00  0.00     0.198 A 
ATOM     91  F   UNL A   1      42.056  27.430  32.354  1.00  0.00    -0.203 F 
ATOM     92  F   UNL A   1      42.903  29.750  37.220  1.00  0.00    -0.200 F 
ATOM     93  C   UNL A   1      42.074  27.951  35.939  1.00  0.00     0.200 A 
ATOM     94  F   UNL A   1      41.183  26.219  34.606  1.00  0.00    -0.200 F 
ATOM     95  F   UNL A   1      41.619  27.350  37.048  1.00  0.00    -0.200 F 
ENDBRANCH  62  85
ENDBRANCH  36  37
ENDBRANCH  29  31
ENDBRANCH  28  29
ENDBRANCH  27  28
ENDBRANCH   1  27
TORSDOF 14
ENDMDL
MODEL 2
REMARK VINA RESULT:     -12.9      0.340      1.249
REMARK SMILES CC1=C([C@H](NC(=O)c2cccc3ccccc23)C(=O)OCCOC(=O)c2ccc(-c3c4nc(c(-c5c(F)c(F)c(F)c(F)c5F)c5ccc([nH]5)c(-c5c(F)c(F)c(F)c(F)c5F)c5nc(c(-c6c(F)c(F)c(F)c(F)c6F)c6ccc3[nH]6)C=C5)C=C4)cc2)[C@H](C)N=N1
REMARK SMILES IDX 21 1 20 2 18 3 19 4 4 5 3 6 1 7 2 8 92 9 89 10 91 11 90 12
REMARK SMILES IDX 5 13 6 14 7 16 8 17 9 18 17 19 10 20 12 21 16 22 11 23 13 24
REMARK SMILES IDX 15 25 14 26 22 27 23 28 24 29 25 30 26 31 27 32 88 33 28 34
REMARK SMILES IDX 87 35 29 36 30 37 31 38 81 39 32 40 86 41 80 42 82 43 33 44
REMARK SMILES IDX 85 45 79 46 78 47 34 49 66 50 46 51 65 52 47 53 50 54 64 55
REMARK SMILES IDX 83 56 48 57 49 58 63 60 84 61 51 62 35 63 36 64 44 65 37 66
REMARK SMILES IDX 38 67 42 68 45 69 39 70 40 71 43 72 41 73 67 74 68 75 76 76
REMARK SMILES IDX 69 77 70 78 74 79 77 80 71 81 72 82 75 83 73 84 52 85 53 86
REMARK SMILES IDX 61 87 54 88 55 89 59 90 62 91 56 92 57 93 60 94 58 95
REMARK H PARENT 5 15 82 48 50 59
REMARK Flexibility Score: inf
ROOT
ATOM      1  C   UNL A   1      36.582  21.043  24.634  1.00  0.00     0.274 C 
ENDROOT
BRANCH   1   2
ATOM      2  O   UNL A   1      35.793  22.208  24.901  1.00  0.00    -0.460 OA
BRANCH   2   3
ATOM      3  C   UNL A   1      35.331  22.840  23.789  1.00  0.00     0.333 C 
ATOM      4  O   UNL A   1      35.988  22.953  22.753  1.00  0.00    -0.249 OA
BRANCH   3   5
ATOM      5  C   UNL A   1      33.938  23.491  23.980  1.00  0.00     0.223 C 
BRANCH   5   6
ATOM      6  C   UNL A   1      33.052  22.372  24.499  1.00  0.00     0.012 C 
ATOM      7  C   UNL A   1      32.343  23.187  26.814  1.00  0.00     0.069 C 
ATOM      8  C   UNL A   1      32.384  22.255  25.654  1.00  0.00     0.064 C 
ATOM      9  N   UNL A   1      31.680  21.081  25.747  1.00  0.00    -0.160 NA
ATOM     10  C   UNL A   1      32.803  21.059  23.795  1.00  0.00     0.156 C 
ATOM     11  N   UNL A   1      31.858  20.378  24.720  1.00  0.00    -0.181 NA
ATOM     12  C   UNL A   1      32.153  21.123  22.414  1.00  0.00     0.040 C 
ENDBRANCH   5   6
BRANCH   5  13
ATOM     13  N   UNL A   1      33.212  24.160  22.865  1.00  0.00    -0.335 N 
ATOM     14  C   UNL A   1      32.371  25.260  22.921  1.00  0.00     0.252 C 
ATOM     15  H   UNL A   1      33.345  23.769  21.972  1.00  0.00     0.165 HD
ATOM     16  O   UNL A   1      31.247  25.152  22.430  1.00  0.00    -0.269 OA
BRANCH  14  17
ATOM     17  C   UNL A   1      32.840  26.594  23.366  1.00  0.00     0.047 A 
ATOM     18  C   UNL A   1      33.490  27.389  22.407  1.00  0.00     0.014 A 
ATOM     19  C   UNL A   1      32.523  27.138  24.648  1.00  0.00    -0.006 A 
ATOM     20  C   UNL A   1      34.002  28.638  22.739  1.00  0.00     0.001 A 
ATOM     21  C   UNL A   1      33.114  28.376  24.967  1.00  0.00    -0.018 A 
ATOM     22  C   UNL A   1      31.658  26.582  25.639  1.00  0.00     0.009 A 
ATOM     23  C   UNL A   1      33.884  29.092  24.040  1.00  0.00     0.009 A 
ATOM     24  C   UNL A   1      32.911  28.932  26.225  1.00  0.00     0.009 A 
ATOM     25  C   UNL A   1      31.407  27.218  26.868  1.00  0.00     0.001 A 
ATOM     26  C   UNL A   1      32.067  28.387  27.178  1.00  0.00     0.001 A 
ENDBRANCH  14  17
ENDBRANCH   5  13
ENDBRANCH   3   5
ENDBRANCH   2   3
ENDBRANCH   1   2
BRANCH   1  27
ATOM     27  C   UNL A   1      37.929  21.025  25.360  1.00  0.00     0.275 C 
BRANCH  27  28
ATOM     28  O   UNL A   1      38.354  22.216  26.046  1.00  0.00    -0.458 OA
BRANCH  28  29
ATOM     29  C   UNL A   1      39.628  22.237  26.501  1.00  0.00     0.338 C 
ATOM     30  O   UNL A   1      40.328  21.301  26.832  1.00  0.00    -0.246 OA
BRANCH  29  31
ATOM     31  C   UNL A   1      40.104  23.571  26.837  1.00  0.00     0.060 A 
ATOM     32  C   UNL A   1      41.143  23.637  27.775  1.00  0.00     0.016 A 
ATOM     33  C   UNL A   1      39.314  24.678  26.527  1.00  0.00     0.016 A 
ATOM     34  C   UNL A   1      41.313  24.799  28.495  1.00  0.00     0.010 A 
ATOM     35  C   UNL A   1      39.472  25.833  27.266  1.00  0.00     0.010 A 
ATOM     36  C   UNL A   1      40.430  25.870  28.279  1.00  0.00    -0.014 A 
BRANCH  36  37
ATOM     37  C   UNL A   1      40.725  27.128  28.951  1.00  0.00     0.031 A 
ATOM     38  C   UNL A   1      42.021  27.678  28.456  1.00  0.00     0.074 A 
ATOM     39  C   UNL A   1      39.883  27.800  29.764  1.00  0.00     0.049 A 
ATOM     40  N   UNL A   1      43.122  27.907  29.095  1.00  0.00    -0.248 NA
ATOM     41  C   UNL A   1      42.145  27.800  26.988  1.00  0.00     0.031 C 
ATOM     42  C   UNL A   1      38.472  27.541  30.066  1.00  0.00     0.029 A 
ATOM     43  N   UNL A   1      40.127  28.943  30.468  1.00  0.00    -0.354 N 
ATOM     44  C   UNL A   1      44.008  28.381  28.127  1.00  0.00     0.074 A 
ATOM     45  C   UNL A   1      43.437  28.072  26.847  1.00  0.00     0.031 C 
ATOM     46  C   UNL A   1      37.964  28.536  30.815  1.00  0.00     0.029 A 
ATOM     47  C   UNL A   1      38.987  29.535  30.992  1.00  0.00     0.049 A 
ATOM     48  H   UNL A   1      41.030  29.314  30.594  1.00  0.00     0.167 HD
ATOM     49  C   UNL A   1      44.975  29.286  28.432  1.00  0.00     0.037 A 
ATOM     50  C   UNL A   1      38.826  30.831  31.353  1.00  0.00     0.037 A 
ATOM     51  C   UNL A   1      45.326  29.233  29.824  1.00  0.00     0.049 A 
ATOM     52  C   UNL A   1      40.181  31.387  31.596  1.00  0.00     0.074 A 
ATOM     53  C   UNL A   1      45.846  28.259  30.654  1.00  0.00     0.029 A 
ATOM     54  N   UNL A   1      44.804  30.186  30.662  1.00  0.00    -0.354 N 
ATOM     55  N   UNL A   1      40.950  30.962  32.566  1.00  0.00    -0.248 NA
ATOM     56  C   UNL A   1      40.875  31.971  30.455  1.00  0.00     0.031 C 
ATOM     57  C   UNL A   1      45.155  28.426  31.892  1.00  0.00     0.029 A 
ATOM     58  C   UNL A   1      44.310  29.529  31.759  1.00  0.00     0.049 A 
ATOM     59  H   UNL A   1      44.788  31.157  30.504  1.00  0.00     0.167 HD
ATOM     60  C   UNL A   1      42.208  30.836  31.993  1.00  0.00     0.074 A 
ATOM     61  C   UNL A   1      42.104  31.501  30.694  1.00  0.00     0.031 C 
ATOM     62  C   UNL A   1      43.139  29.964  32.481  1.00  0.00     0.037 A 
BRANCH  49  63
ATOM     63  C   UNL A   1      45.260  30.485  27.556  1.00  0.00     0.064 A 
ATOM     64  C   UNL A   1      46.592  30.779  27.216  1.00  0.00     0.173 A 
ATOM     65  C   UNL A   1      44.327  31.518  27.292  1.00  0.00     0.173 A 
ATOM     66  F   UNL A   1      47.565  29.885  27.443  1.00  0.00    -0.203 F 
ATOM     67  C   UNL A   1      46.968  32.034  26.728  1.00  0.00     0.198 A 
ATOM     68  C   UNL A   1      44.696  32.744  26.750  1.00  0.00     0.198 A 
ATOM     69  F   UNL A   1      43.040  31.441  27.652  1.00  0.00    -0.203 F 
ATOM     70  F   UNL A   1      48.265  32.313  26.545  1.00  0.00    -0.200 F 
ATOM     71  C   UNL A   1      46.021  33.017  26.502  1.00  0.00     0.200 A 
ATOM     72  F   UNL A   1      43.760  33.686  26.560  1.00  0.00    -0.200 F 
ATOM     73  F   UNL A   1      46.386  34.240  26.098  1.00  0.00    -0.200 F 
ENDBRANCH  49  63
BRANCH  50  74
ATOM     74  C   UNL A   1      37.592  31.597  31.037  1.00  0.00     0.064 A 
ATOM     75  C   UNL A   1      37.299  32.068  29.754  1.00  0.00     0.173 A 
ATOM     76  C   UNL A   1      36.591  31.804  32.018  1.00  0.00     0.173 A 
ATOM     77  F   UNL A   1      38.161  31.859  28.749  1.00  0.00    -0.203 F 
ATOM     78  C   UNL A   1      36.101  32.748  29.482  1.00  0.00     0.198 A 
ATOM     79  C   UNL A   1      35.417  32.507  31.757  1.00  0.00     0.198 A 
ATOM     80  F   UNL A   1      36.710  31.283  33.249  1.00  0.00    -0.203 F 
ATOM     81  F   UNL A   1      35.841  33.171  28.238  1.00  0.00    -0.200 F 
ATOM     82  C   UNL A   1      35.170  32.978  30.485  1.00  0.00     0.200 A 
ATOM     83  F   UNL A   1      34.524  32.699  32.738  1.00  0.00    -0.200 F 
ATOM     84  F   UNL A   1      34.025  33.623  30.223  1.00  0.00    -0.200 F 
ENDBRANCH  50  74
BRANCH  62  85
ATOM     85  C   UNL A   1      42.830  29.232  33.759  1.00  0.00     0.064 A 
ATOM     86  C   UNL A   1      42.115  28.023  33.810  1.00  0.00     0.173 A 
ATOM     87  C   UNL A   1      43.444  29.666  34.941  1.00  0.00     0.173 A 
ATOM     88  F   UNL A   1      41.591  27.485  32.701  1.00  0.00    -0.203 F 
ATOM     89  C   UNL A   1      41.993  27.302  34.999  1.00  0.00     0.198 A 
ATOM     90  C   UNL A   1      43.347  28.929  36.119  1.00  0.00     0.198 A 
ATOM     91  F   UNL A   1      44.196  30.777  34.936  1.00  0.00    -0.203 F 
ATOM     92  F   UNL A   1      41.312  26.146  35.016  1.00  0.00    -0.200 F 
ATOM     93  C   UNL A   1      42.616  27.752  36.149  1.00  0.00     0.200 A 
ATOM     94  F   UNL A   1      43.998  29.341  37.215  1.00  0.00    -0.200 F 
ATOM     95  F   UNL A   1      42.541  27.037  37.282  1.00  0.00    -0.200 F 
ENDBRANCH  62  85
ENDBRANCH  36  37
ENDBRANCH  29  31
ENDBRANCH  28  29
ENDBRANCH  27  28
ENDBRANCH   1  27
TORSDOF 14
ENDMDL
MODEL 3
REMARK VINA RESULT:     -12.6      1.096      2.006
REMARK SMILES CC1=C([C@H](NC(=O)c2cccc3ccccc23)C(=O)OCCOC(=O)c2ccc(-c3c4nc(c(-c5c(F)c(F)c(F)c(F)c5F)c5ccc([nH]5)c(-c5c(F)c(F)c(F)c(F)c5F)c5nc(c(-c6c(F)c(F)c(F)c(F)c6F)c6ccc3[nH]6)C=C5)C=C4)cc2)[C@H](C)N=N1
REMARK SMILES IDX 21 1 20 2 18 3 19 4 4 5 3 6 1 7 2 8 92 9 89 10 91 11 90 12
REMARK SMILES IDX 5 13 6 14 7 16 8 17 9 18 17 19 10 20 12 21 16 22 11 23 13 24
REMARK SMILES IDX 15 25 14 26 22 27 23 28 24 29 25 30 26 31 27 32 88 33 28 34
REMARK SMILES IDX 87 35 29 36 30 37 31 38 81 39 32 40 86 41 80 42 82 43 33 44
REMARK SMILES IDX 85 45 79 46 78 47 34 49 66 50 46 51 65 52 47 53 50 54 64 55
REMARK SMILES IDX 83 56 48 57 49 58 63 60 84 61 51 62 35 63 36 64 44 65 37 66
REMARK SMILES IDX 38 67 42 68 45 69 39 70 40 71 43 72 41 73 67 74 68 75 76 76
REMARK SMILES IDX 69 77 70 78 74 79 77 80 71 81 72 82 75 83 73 84 52 85 53 86
REMARK SMILES IDX 61 87 54 88 55 89 59 90 62 91 56 92 57 93 60 94 58 95
REMARK H PARENT 5 15 82 48 50 59
REMARK Flexibility Score: inf
ROOT
ATOM      1  C   UNL A   1      36.378  23.219  24.747  1.00  0.00     0.274 C 
ENDROOT
BRANCH   1   2
ATOM      2  O   UNL A   1      35.585  22.842  23.615  1.00  0.00    -0.460 OA
BRANCH   2   3
ATOM      3  C   UNL A   1      34.276  23.199  23.703  1.00  0.00     0.333 C 
ATOM      4  O   UNL A   1      33.764  24.072  23.001  1.00  0.00    -0.249 OA
BRANCH   3   5
ATOM      5  C   UNL A   1      33.512  22.473  24.838  1.00  0.00     0.223 C 
BRANCH   5   6
ATOM      6  C   UNL A   1      33.261  21.073  24.307  1.00  0.00     0.012 C 
ATOM      7  C   UNL A   1      31.632  21.443  22.374  1.00  0.00     0.069 C 
ATOM      8  C   UNL A   1      32.503  20.652  23.286  1.00  0.00     0.064 C 
ATOM      9  N   UNL A   1      32.543  19.291  23.117  1.00  0.00    -0.160 NA
ATOM     10  C   UNL A   1      33.793  19.799  24.921  1.00  0.00     0.156 C 
ATOM     11  N   UNL A   1      33.272  18.760  23.993  1.00  0.00    -0.181 NA
ATOM     12  C   UNL A   1      35.311  19.648  25.001  1.00  0.00     0.040 C 
ENDBRANCH   5   6
BRANCH   5  13
ATOM     13  N   UNL A   1      32.225  22.984  25.386  1.00  0.00    -0.335 N 
ATOM     14  C   UNL A   1      32.011  24.078  26.210  1.00  0.00     0.252 C 
ATOM     15  H   UNL A   1      31.421  22.478  25.130  1.00  0.00     0.165 HD
ATOM     16  O   UNL A   1      31.380  23.899  27.252  1.00  0.00    -0.269 OA
BRANCH  14  17
ATOM     17  C   UNL A   1      32.339  25.462  25.792  1.00  0.00     0.047 A 
ATOM     18  C   UNL A   1      33.640  25.915  26.066  1.00  0.00     0.014 A 
ATOM     19  C   UNL A   1      31.454  26.263  25.007  1.00  0.00    -0.006 A 
ATOM     20  C   UNL A   1      34.029  27.212  25.749  1.00  0.00     0.001 A 
ATOM     21  C   UNL A   1      31.859  27.589  24.763  1.00  0.00    -0.018 A 
ATOM     22  C   UNL A   1      30.213  25.868  24.421  1.00  0.00     0.009 A 
ATOM     23  C   UNL A   1      33.110  28.070  25.173  1.00  0.00     0.009 A 
ATOM     24  C   UNL A   1      31.017  28.451  24.069  1.00  0.00     0.009 A 
ATOM     25  C   UNL A   1      29.428  26.744  23.650  1.00  0.00     0.001 A 
ATOM     26  C   UNL A   1      29.816  28.057  23.501  1.00  0.00     0.001 A 
ENDBRANCH  14  17
ENDBRANCH   5  13
ENDBRANCH   3   5
ENDBRANCH   2   3
ENDBRANCH   1   2
BRANCH   1  27
ATOM     27  C   UNL A   1      37.616  22.344  24.957  1.00  0.00     0.275 C 
BRANCH  27  28
ATOM     28  O   UNL A   1      38.149  22.218  26.288  1.00  0.00    -0.458 OA
BRANCH  28  29
ATOM     29  C   UNL A   1      39.493  22.292  26.418  1.00  0.00     0.338 C 
ATOM     30  O   UNL A   1      40.298  21.384  26.472  1.00  0.00    -0.246 OA
BRANCH  29  31
ATOM     31  C   UNL A   1      39.972  23.623  26.761  1.00  0.00     0.060 A 
ATOM     32  C   UNL A   1      41.046  23.680  27.660  1.00  0.00     0.016 A 
ATOM     33  C   UNL A   1      39.163  24.730  26.503  1.00  0.00     0.016 A 
ATOM     34  C   UNL A   1      41.235  24.829  28.395  1.00  0.00     0.010 A 
ATOM     35  C   UNL A   1      39.341  25.871  27.257  1.00  0.00     0.010 A 
ATOM     36  C   UNL A   1      40.337  25.897  28.234  1.00  0.00    -0.014 A 
BRANCH  36  37
ATOM     37  C   UNL A   1      40.649  27.144  28.918  1.00  0.00     0.031 A 
ATOM     38  C   UNL A   1      41.953  27.680  28.429  1.00  0.00     0.074 A 
ATOM     39  C   UNL A   1      39.816  27.820  29.736  1.00  0.00     0.049 A 
ATOM     40  N   UNL A   1      43.056  27.888  29.072  1.00  0.00    -0.248 NA
ATOM     41  C   UNL A   1      42.080  27.814  26.963  1.00  0.00     0.031 C 
ATOM     42  C   UNL A   1      38.400  27.578  30.034  1.00  0.00     0.029 A 
ATOM     43  N   UNL A   1      40.074  28.952  30.451  1.00  0.00    -0.354 N 
ATOM     44  C   UNL A   1      43.950  28.358  28.109  1.00  0.00     0.074 A 
ATOM     45  C   UNL A   1      43.377  28.069  26.825  1.00  0.00     0.031 C 
ATOM     46  C   UNL A   1      37.906  28.573  30.792  1.00  0.00     0.029 A 
ATOM     47  C   UNL A   1      38.942  29.556  30.979  1.00  0.00     0.049 A 
ATOM     48  H   UNL A   1      40.982  29.310  30.581  1.00  0.00     0.167 HD
ATOM     49  C   UNL A   1      44.929  29.248  28.423  1.00  0.00     0.037 A 
ATOM     50  C   UNL A   1      38.799  30.850  31.352  1.00  0.00     0.037 A 
ATOM     51  C   UNL A   1      45.278  29.176  29.815  1.00  0.00     0.049 A 
ATOM     52  C   UNL A   1      40.161  31.385  31.602  1.00  0.00     0.074 A 
ATOM     53  C   UNL A   1      45.784  28.187  30.637  1.00  0.00     0.029 A 
ATOM     54  N   UNL A   1      44.769  30.128  30.662  1.00  0.00    -0.354 N 
ATOM     55  N   UNL A   1      40.923  30.940  32.569  1.00  0.00    -0.248 NA
ATOM     56  C   UNL A   1      40.864  31.970  30.467  1.00  0.00     0.031 C 
ATOM     57  C   UNL A   1      45.093  28.352  31.875  1.00  0.00     0.029 A 
ATOM     58  C   UNL A   1      44.263  29.468  31.752  1.00  0.00     0.049 A 
ATOM     59  H   UNL A   1      44.766  31.101  30.513  1.00  0.00     0.167 HD
ATOM     60  C   UNL A   1      42.180  30.802  31.996  1.00  0.00     0.074 A 
ATOM     61  C   UNL A   1      42.087  31.480  30.704  1.00  0.00     0.031 C 
ATOM     62  C   UNL A   1      43.098  29.913  32.477  1.00  0.00     0.037 A 
BRANCH  49  63
ATOM     63  C   UNL A   1      45.232  30.451  27.559  1.00  0.00     0.064 A 
ATOM     64  C   UNL A   1      46.568  30.729  27.223  1.00  0.00     0.173 A 
ATOM     65  C   UNL A   1      44.314  31.498  27.305  1.00  0.00     0.173 A 
ATOM     66  F   UNL A   1      47.529  29.819  27.442  1.00  0.00    -0.203 F 
ATOM     67  C   UNL A   1      46.962  31.983  26.748  1.00  0.00     0.198 A 
ATOM     68  C   UNL A   1      44.700  32.725  26.774  1.00  0.00     0.198 A 
ATOM     69  F   UNL A   1      43.026  31.437  27.662  1.00  0.00    -0.203 F 
ATOM     70  F   UNL A   1      48.264  32.245  26.568  1.00  0.00    -0.200 F 
ATOM     71  C   UNL A   1      46.030  32.981  26.530  1.00  0.00     0.200 A 
ATOM     72  F   UNL A   1      43.779  33.681  26.592  1.00  0.00    -0.200 F 
ATOM     73  F   UNL A   1      46.413  34.203  26.138  1.00  0.00    -0.200 F 
ENDBRANCH  49  63
BRANCH  50  74
ATOM     74  C   UNL A   1      37.576  31.637  31.042  1.00  0.00     0.064 A 
ATOM     75  C   UNL A   1      37.286  32.113  29.762  1.00  0.00     0.173 A 
ATOM     76  C   UNL A   1      36.582  31.859  32.028  1.00  0.00     0.173 A 
ATOM     77  F   UNL A   1      38.140  31.892  28.753  1.00  0.00    -0.203 F 
ATOM     78  C   UNL A   1      36.098  32.814  29.495  1.00  0.00     0.198 A 
ATOM     79  C   UNL A   1      35.420  32.580  31.773  1.00  0.00     0.198 A 
ATOM     80  F   UNL A   1      36.698  31.334  33.258  1.00  0.00    -0.203 F 
ATOM     81  F   UNL A   1      35.839  33.242  28.253  1.00  0.00    -0.200 F 
ATOM     82  C   UNL A   1      35.174  33.057  30.503  1.00  0.00     0.200 A 
ATOM     83  F   UNL A   1      34.533  32.786  32.758  1.00  0.00    -0.200 F 
ATOM     84  F   UNL A   1      34.039  33.720  30.245  1.00  0.00    -0.200 F 
ENDBRANCH  50  74
BRANCH  62  85
ATOM     85  C   UNL A   1      42.778  29.173  33.747  1.00  0.00     0.064 A 
ATOM     86  C   UNL A   1      42.036  27.980  33.787  1.00  0.00     0.173 A 
ATOM     87  C   UNL A   1      43.406  29.579  34.932  1.00  0.00     0.173 A 
ATOM     88  F   UNL A   1      41.495  27.467  32.674  1.00  0.00    -0.203 F 
ATOM     89  C   UNL A   1      41.901  27.248  34.968  1.00  0.00     0.198 A 
ATOM     90  C   UNL A   1      43.296  28.831  36.102  1.00  0.00     0.198 A 
ATOM     91  F   UNL A   1      44.183  30.673  34.937  1.00  0.00    -0.203 F 
ATOM     92  F   UNL A   1      41.195  26.107  34.975  1.00  0.00    -0.200 F 
ATOM     93  C   UNL A   1      42.539  27.670  36.122  1.00  0.00     0.200 A 
ATOM     94  F   UNL A   1      43.960  29.215  37.200  1.00  0.00    -0.200 F 
ATOM     95  F   UNL A   1      42.452  26.944  37.246  1.00  0.00    -0.200 F 
ENDBRANCH  62  85
ENDBRANCH  36  37
ENDBRANCH  29  31
ENDBRANCH  28  29
ENDBRANCH  27  28
ENDBRANCH   1  27
TORSDOF 14
ENDMDL
