MODEL 1
REMARK VINA RESULT:     -11.0      0.000      0.000
REMARK SMILES C[C@H]([NH3+])c1ccc(F)cc1OCC(C)(C)C(=O)OCCOC(=O)c1ccc(-c2c3nc(c(-c4c(F)c(F)c(F)c(F)c4F)c4ccc([nH]4)c(-c4c(F)c(F)c(F)c(F)c4F)c4nc(c(-c5c(F)c(F)c(F)c(F)c5F)c5ccc2[nH]5)C=C4)C=C3)cc1
REMARK SMILES IDX 18 1 16 2 17 3 13 4 14 5 15 6 12 7 11 8 10 9 4 10 5 11 6 12
REMARK SMILES IDX 9 13 7 14 8 15 2 16 1 17 3 18 19 22 20 23 21 24 22 25 23 26
REMARK SMILES IDX 24 27 25 28 86 29 26 30 85 31 27 32 28 33 29 34 79 35 30 36
REMARK SMILES IDX 84 37 78 38 80 39 31 40 83 41 77 42 76 43 32 45 64 46 44 47
REMARK SMILES IDX 63 48 45 49 48 50 62 51 81 52 46 53 47 54 61 56 82 57 49 58
REMARK SMILES IDX 33 59 34 60 42 61 35 62 36 63 40 64 43 65 37 66 38 67 41 68
REMARK SMILES IDX 39 69 65 70 66 71 74 72 67 73 68 74 72 75 75 76 69 77 70 78
REMARK SMILES IDX 73 79 71 80 50 81 51 82 59 83 52 84 53 85 57 86 60 87 54 88
REMARK SMILES IDX 55 89 58 90 56 91
REMARK H PARENT 3 19 3 20 3 21 80 44 48 55
REMARK Flexibility Score: inf
ROOT
ATOM      1  O   UNL A   1      31.020  28.109  24.916  1.00  0.00    -0.462 OA
ENDROOT
BRANCH   1   2
ATOM      2  C   UNL A   1      31.729  27.062  24.405  1.00  0.00     0.315 C 
ATOM      3  O   UNL A   1      31.635  26.681  23.246  1.00  0.00    -0.251 OA
BRANCH   2   4
ATOM      4  C   UNL A   1      32.560  26.361  25.488  1.00  0.00     0.096 C 
ATOM      5  C   UNL A   1      31.823  26.612  26.807  1.00  0.00     0.027 C 
ATOM      6  C   UNL A   1      33.974  26.977  25.592  1.00  0.00     0.027 C 
BRANCH   4   7
ATOM      7  C   UNL A   1      32.775  24.857  25.169  1.00  0.00     0.247 C 
BRANCH   7   8
ATOM      8  O   UNL A   1      33.681  24.121  25.974  1.00  0.00    -0.492 OA
BRANCH   8   9
ATOM      9  C   UNL A   1      34.684  23.314  25.540  1.00  0.00     0.131 A 
ATOM     10  C   UNL A   1      34.653  21.994  25.056  1.00  0.00     0.051 A 
ATOM     11  C   UNL A   1      35.899  21.379  24.747  1.00  0.00     0.017 A 
ATOM     12  C   UNL A   1      37.119  22.035  24.903  1.00  0.00     0.040 A 
ATOM     13  C   UNL A   1      35.928  23.955  25.714  1.00  0.00     0.086 A 
ATOM     14  C   UNL A   1      37.121  23.323  25.395  1.00  0.00     0.126 A 
ATOM     15  F   UNL A   1      38.285  23.961  25.580  1.00  0.00    -0.207 F 
BRANCH  10  16
ATOM     16  C   UNL A   1      33.413  21.126  24.931  1.00  0.00     0.212 C 
ATOM     17  C   UNL A   1      32.688  21.389  23.612  1.00  0.00     0.081 C 
BRANCH  16  18
ATOM     18  N   UNL A   1      32.486  21.297  26.061  1.00  0.00    -0.351 N 
ATOM     19  H   UNL A   1      32.876  20.849  26.891  1.00  0.00     0.345 HD
ATOM     20  H   UNL A   1      31.589  20.867  25.833  1.00  0.00     0.345 HD
ATOM     21  H   UNL A   1      32.350  22.291  26.243  1.00  0.00     0.345 HD
ENDBRANCH  16  18
ENDBRANCH  10  16
ENDBRANCH   8   9
ENDBRANCH   7   8
ENDBRANCH   4   7
ENDBRANCH   2   4
ENDBRANCH   1   2
BRANCH   1  22
ATOM     22  C   UNL A   1      31.380  29.425  24.454  1.00  0.00     0.274 C 
BRANCH  22  23
ATOM     23  C   UNL A   1      31.529  30.393  25.625  1.00  0.00     0.275 C 
BRANCH  23  24
ATOM     24  O   UNL A   1      32.829  30.251  26.224  1.00  0.00    -0.458 OA
BRANCH  24  25
ATOM     25  C   UNL A   1      33.234  31.287  26.991  1.00  0.00     0.338 C 
ATOM     26  O   UNL A   1      32.619  32.302  27.269  1.00  0.00    -0.246 OA
BRANCH  25  27
ATOM     27  C   UNL A   1      34.563  30.994  27.544  1.00  0.00     0.060 A 
ATOM     28  C   UNL A   1      34.853  29.685  27.914  1.00  0.00     0.016 A 
ATOM     29  C   UNL A   1      35.458  32.022  27.830  1.00  0.00     0.016 A 
ATOM     30  C   UNL A   1      35.999  29.402  28.649  1.00  0.00     0.010 A 
ATOM     31  C   UNL A   1      36.657  31.722  28.488  1.00  0.00     0.010 A 
ATOM     32  C   UNL A   1      36.926  30.414  28.934  1.00  0.00    -0.014 A 
BRANCH  32  33
ATOM     33  C   UNL A   1      38.148  30.107  29.727  1.00  0.00     0.031 A 
ATOM     34  C   UNL A   1      39.245  29.266  29.131  1.00  0.00     0.074 A 
ATOM     35  C   UNL A   1      38.298  30.604  30.971  1.00  0.00     0.049 A 
ATOM     36  N   UNL A   1      40.296  28.743  29.711  1.00  0.00    -0.248 NA
ATOM     37  C   UNL A   1      39.143  28.968  27.693  1.00  0.00     0.031 C 
ATOM     38  C   UNL A   1      37.349  31.486  31.651  1.00  0.00     0.029 A 
ATOM     39  N   UNL A   1      39.315  30.448  31.881  1.00  0.00    -0.354 N 
ATOM     40  C   UNL A   1      40.944  28.008  28.727  1.00  0.00     0.074 A 
ATOM     41  C   UNL A   1      40.176  28.157  27.510  1.00  0.00     0.031 C 
ATOM     42  C   UNL A   1      37.849  31.833  32.846  1.00  0.00     0.029 A 
ATOM     43  C   UNL A   1      39.109  31.126  33.057  1.00  0.00     0.049 A 
ATOM     44  H   UNL A   1      40.116  29.904  31.706  1.00  0.00     0.167 HD
ATOM     45  C   UNL A   1      42.078  27.276  28.835  1.00  0.00     0.037 A 
ATOM     46  C   UNL A   1      39.827  31.147  34.196  1.00  0.00     0.037 A 
ATOM     47  C   UNL A   1      42.876  27.181  30.030  1.00  0.00     0.049 A 
ATOM     48  C   UNL A   1      41.062  30.299  34.303  1.00  0.00     0.074 A 
ATOM     49  C   UNL A   1      44.045  26.467  30.232  1.00  0.00     0.029 A 
ATOM     50  N   UNL A   1      42.598  27.839  31.218  1.00  0.00    -0.354 N 
ATOM     51  N   UNL A   1      41.620  29.534  33.397  1.00  0.00    -0.248 NA
ATOM     52  C   UNL A   1      41.751  30.292  35.601  1.00  0.00     0.031 C 
ATOM     53  C   UNL A   1      44.459  26.671  31.552  1.00  0.00     0.029 A 
ATOM     54  C   UNL A   1      43.570  27.540  32.161  1.00  0.00     0.049 A 
ATOM     55  H   UNL A   1      41.827  28.431  31.370  1.00  0.00     0.167 HD
ATOM     56  C   UNL A   1      42.718  28.952  34.012  1.00  0.00     0.074 A 
ATOM     57  C   UNL A   1      42.765  29.471  35.363  1.00  0.00     0.031 C 
ATOM     58  C   UNL A   1      43.599  28.058  33.504  1.00  0.00     0.037 A 
BRANCH  45  59
ATOM     59  C   UNL A   1      42.517  26.486  27.639  1.00  0.00     0.064 A 
ATOM     60  C   UNL A   1      42.009  25.195  27.424  1.00  0.00     0.173 A 
ATOM     61  C   UNL A   1      43.480  26.971  26.743  1.00  0.00     0.173 A 
ATOM     62  F   UNL A   1      41.090  24.683  28.257  1.00  0.00    -0.203 F 
ATOM     63  C   UNL A   1      42.457  24.415  26.363  1.00  0.00     0.198 A 
ATOM     64  C   UNL A   1      43.909  26.196  25.667  1.00  0.00     0.198 A 
ATOM     65  F   UNL A   1      43.984  28.204  26.897  1.00  0.00    -0.203 F 
ATOM     66  F   UNL A   1      41.978  23.175  26.194  1.00  0.00    -0.200 F 
ATOM     67  C   UNL A   1      43.405  24.917  25.483  1.00  0.00     0.200 A 
ATOM     68  F   UNL A   1      44.807  26.691  24.805  1.00  0.00    -0.200 F 
ATOM     69  F   UNL A   1      43.829  24.169  24.455  1.00  0.00    -0.200 F 
ENDBRANCH  45  59
BRANCH  46  70
ATOM     70  C   UNL A   1      39.362  31.975  35.338  1.00  0.00     0.064 A 
ATOM     71  C   UNL A   1      38.508  31.450  36.318  1.00  0.00     0.173 A 
ATOM     72  C   UNL A   1      39.738  33.319  35.449  1.00  0.00     0.173 A 
ATOM     73  F   UNL A   1      38.125  30.165  36.258  1.00  0.00    -0.203 F 
ATOM     74  C   UNL A   1      38.020  32.248  37.350  1.00  0.00     0.198 A 
ATOM     75  C   UNL A   1      39.272  34.110  36.498  1.00  0.00     0.198 A 
ATOM     76  F   UNL A   1      40.578  33.857  34.554  1.00  0.00    -0.203 F 
ATOM     77  F   UNL A   1      37.174  31.732  38.252  1.00  0.00    -0.200 F 
ATOM     78  C   UNL A   1      38.404  33.577  37.440  1.00  0.00     0.200 A 
ATOM     79  F   UNL A   1      39.667  35.387  36.598  1.00  0.00    -0.200 F 
ATOM     80  F   UNL A   1      37.944  34.343  38.439  1.00  0.00    -0.200 F 
ENDBRANCH  46  70
BRANCH  58  81
ATOM     81  C   UNL A   1      44.694  27.579  34.410  1.00  0.00     0.064 A 
ATOM     82  C   UNL A   1      44.511  26.445  35.213  1.00  0.00     0.173 A 
ATOM     83  C   UNL A   1      45.900  28.284  34.526  1.00  0.00     0.173 A 
ATOM     84  F   UNL A   1      43.370  25.742  35.141  1.00  0.00    -0.203 F 
ATOM     85  C   UNL A   1      45.494  26.039  36.109  1.00  0.00     0.198 A 
ATOM     86  C   UNL A   1      46.891  27.863  35.408  1.00  0.00     0.198 A 
ATOM     87  F   UNL A   1      46.124  29.368  33.767  1.00  0.00    -0.203 F 
ATOM     88  F   UNL A   1      45.289  24.966  36.886  1.00  0.00    -0.200 F 
ATOM     89  C   UNL A   1      46.684  26.746  36.205  1.00  0.00     0.200 A 
ATOM     90  F   UNL A   1      48.047  28.534  35.484  1.00  0.00    -0.200 F 
ATOM     91  F   UNL A   1      47.633  26.349  37.062  1.00  0.00    -0.200 F 
ENDBRANCH  58  81
ENDBRANCH  32  33
ENDBRANCH  25  27
ENDBRANCH  24  25
ENDBRANCH  23  24
ENDBRANCH  22  23
ENDBRANCH   1  22
TORSDOF 16
ENDMDL
MODEL 2
REMARK VINA RESULT:     -10.9      0.699      1.445
REMARK SMILES C[C@H]([NH3+])c1ccc(F)cc1OCC(C)(C)C(=O)OCCOC(=O)c1ccc(-c2c3nc(c(-c4c(F)c(F)c(F)c(F)c4F)c4ccc([nH]4)c(-c4c(F)c(F)c(F)c(F)c4F)c4nc(c(-c5c(F)c(F)c(F)c(F)c5F)c5ccc2[nH]5)C=C4)C=C3)cc1
REMARK SMILES IDX 18 1 16 2 17 3 13 4 14 5 15 6 12 7 11 8 10 9 4 10 5 11 6 12
REMARK SMILES IDX 9 13 7 14 8 15 2 16 1 17 3 18 19 22 20 23 21 24 22 25 23 26
REMARK SMILES IDX 24 27 25 28 86 29 26 30 85 31 27 32 28 33 29 34 79 35 30 36
REMARK SMILES IDX 84 37 78 38 80 39 31 40 83 41 77 42 76 43 32 45 64 46 44 47
REMARK SMILES IDX 63 48 45 49 48 50 62 51 81 52 46 53 47 54 61 56 82 57 49 58
REMARK SMILES IDX 33 59 34 60 42 61 35 62 36 63 40 64 43 65 37 66 38 67 41 68
REMARK SMILES IDX 39 69 65 70 66 71 74 72 67 73 68 74 72 75 75 76 69 77 70 78
REMARK SMILES IDX 73 79 71 80 50 81 51 82 59 83 52 84 53 85 57 86 60 87 54 88
REMARK SMILES IDX 55 89 58 90 56 91
REMARK H PARENT 3 19 3 20 3 21 80 44 48 55
REMARK Flexibility Score: inf
ROOT
ATOM      1  O   UNL A   1      32.525  27.624  26.638  1.00  0.00    -0.462 OA
ENDROOT
BRANCH   1   2
ATOM      2  C   UNL A   1      31.849  26.518  26.214  1.00  0.00     0.315 C 
ATOM      3  O   UNL A   1      30.987  25.954  26.876  1.00  0.00    -0.251 OA
BRANCH   2   4
ATOM      4  C   UNL A   1      32.386  26.010  24.869  1.00  0.00     0.096 C 
ATOM      5  C   UNL A   1      33.664  26.811  24.600  1.00  0.00     0.027 C 
ATOM      6  C   UNL A   1      31.382  26.289  23.727  1.00  0.00     0.027 C 
BRANCH   4   7
ATOM      7  C   UNL A   1      32.603  24.473  24.875  1.00  0.00     0.247 C 
BRANCH   7   8
ATOM      8  O   UNL A   1      33.515  23.925  25.811  1.00  0.00    -0.492 OA
BRANCH   8   9
ATOM      9  C   UNL A   1      34.602  23.158  25.534  1.00  0.00     0.131 A 
ATOM     10  C   UNL A   1      34.700  21.798  25.192  1.00  0.00     0.051 A 
ATOM     11  C   UNL A   1      36.006  21.253  25.035  1.00  0.00     0.017 A 
ATOM     12  C   UNL A   1      37.161  22.014  25.203  1.00  0.00     0.040 A 
ATOM     13  C   UNL A   1      35.782  23.907  25.723  1.00  0.00     0.086 A 
ATOM     14  C   UNL A   1      37.037  23.340  25.555  1.00  0.00     0.126 A 
ATOM     15  F   UNL A   1      38.136  24.082  25.749  1.00  0.00    -0.207 F 
BRANCH  10  16
ATOM     16  C   UNL A   1      33.536  20.829  25.076  1.00  0.00     0.212 C 
ATOM     17  C   UNL A   1      32.883  20.916  23.698  1.00  0.00     0.081 C 
BRANCH  16  18
ATOM     18  N   UNL A   1      32.528  21.026  26.129  1.00  0.00    -0.351 N 
ATOM     19  H   UNL A   1      32.687  21.924  26.587  1.00  0.00     0.345 HD
ATOM     20  H   UNL A   1      32.602  20.276  26.816  1.00  0.00     0.345 HD
ATOM     21  H   UNL A   1      31.596  21.016  25.714  1.00  0.00     0.345 HD
ENDBRANCH  16  18
ENDBRANCH  10  16
ENDBRANCH   8   9
ENDBRANCH   7   8
ENDBRANCH   4   7
ENDBRANCH   2   4
ENDBRANCH   1   2
BRANCH   1  22
ATOM     22  C   UNL A   1      31.742  28.666  27.252  1.00  0.00     0.274 C 
BRANCH  22  23
ATOM     23  C   UNL A   1      31.811  29.954  26.436  1.00  0.00     0.275 C 
BRANCH  23  24
ATOM     24  O   UNL A   1      33.178  30.372  26.281  1.00  0.00    -0.458 OA
BRANCH  24  25
ATOM     25  C   UNL A   1      33.585  31.358  27.110  1.00  0.00     0.338 C 
ATOM     26  O   UNL A   1      32.982  32.368  27.429  1.00  0.00    -0.246 OA
BRANCH  25  27
ATOM     27  C   UNL A   1      34.896  31.012  27.673  1.00  0.00     0.060 A 
ATOM     28  C   UNL A   1      35.143  29.685  28.012  1.00  0.00     0.016 A 
ATOM     29  C   UNL A   1      35.817  32.005  28.000  1.00  0.00     0.016 A 
ATOM     30  C   UNL A   1      36.269  29.349  28.756  1.00  0.00     0.010 A 
ATOM     31  C   UNL A   1      36.996  31.652  28.666  1.00  0.00     0.010 A 
ATOM     32  C   UNL A   1      37.220  30.325  29.081  1.00  0.00    -0.014 A 
BRANCH  32  33
ATOM     33  C   UNL A   1      38.420  29.961  29.883  1.00  0.00     0.031 A 
ATOM     34  C   UNL A   1      39.471  29.053  29.302  1.00  0.00     0.074 A 
ATOM     35  C   UNL A   1      38.594  30.465  31.120  1.00  0.00     0.049 A 
ATOM     36  N   UNL A   1      40.490  28.480  29.893  1.00  0.00    -0.248 NA
ATOM     37  C   UNL A   1      39.358  28.742  27.868  1.00  0.00     0.031 C 
ATOM     38  C   UNL A   1      37.694  31.407  31.786  1.00  0.00     0.029 A 
ATOM     39  N   UNL A   1      39.598  30.266  32.036  1.00  0.00    -0.354 N 
ATOM     40  C   UNL A   1      41.100  27.698  28.921  1.00  0.00     0.074 A 
ATOM     41  C   UNL A   1      40.345  27.873  27.699  1.00  0.00     0.031 C 
ATOM     42  C   UNL A   1      38.209  31.742  32.978  1.00  0.00     0.029 A 
ATOM     43  C   UNL A   1      39.426  30.969  33.203  1.00  0.00     0.049 A 
ATOM     44  H   UNL A   1      40.369  29.675  31.871  1.00  0.00     0.167 HD
ATOM     45  C   UNL A   1      42.191  26.905  29.043  1.00  0.00     0.037 A 
ATOM     46  C   UNL A   1      40.141  30.965  34.345  1.00  0.00     0.037 A 
ATOM     47  C   UNL A   1      42.978  26.782  30.242  1.00  0.00     0.049 A 
ATOM     48  C   UNL A   1      41.327  30.052  34.467  1.00  0.00     0.074 A 
ATOM     49  C   UNL A   1      44.105  26.007  30.458  1.00  0.00     0.029 A 
ATOM     50  N   UNL A   1      42.734  27.470  31.421  1.00  0.00    -0.354 N 
ATOM     51  N   UNL A   1      41.844  29.245  33.573  1.00  0.00    -0.248 NA
ATOM     52  C   UNL A   1      42.010  30.023  35.768  1.00  0.00     0.031 C 
ATOM     53  C   UNL A   1      44.526  26.204  31.777  1.00  0.00     0.029 A 
ATOM     54  C   UNL A   1      43.684  27.130  32.371  1.00  0.00     0.049 A 
ATOM     55  H   UNL A   1      41.996  28.105  31.561  1.00  0.00     0.167 HD
ATOM     56  C   UNL A   1      42.906  28.611  34.200  1.00  0.00     0.074 A 
ATOM     57  C   UNL A   1      42.978  29.145  35.544  1.00  0.00     0.031 C 
ATOM     58  C   UNL A   1      43.738  27.663  33.707  1.00  0.00     0.037 A 
BRANCH  45  59
ATOM     59  C   UNL A   1      42.589  26.077  27.859  1.00  0.00     0.064 A 
ATOM     60  C   UNL A   1      43.584  26.538  26.981  1.00  0.00     0.173 A 
ATOM     61  C   UNL A   1      41.954  24.865  27.554  1.00  0.00     0.173 A 
ATOM     62  F   UNL A   1      44.217  27.695  27.225  1.00  0.00    -0.203 F 
ATOM     63  C   UNL A   1      43.917  25.821  25.836  1.00  0.00     0.198 A 
ATOM     64  C   UNL A   1      42.308  24.138  26.419  1.00  0.00     0.198 A 
ATOM     65  F   UNL A   1      41.009  24.375  28.370  1.00  0.00    -0.203 F 
ATOM     66  F   UNL A   1      44.850  26.295  24.997  1.00  0.00    -0.200 F 
ATOM     67  C   UNL A   1      43.282  24.621  25.557  1.00  0.00     0.200 A 
ATOM     68  F   UNL A   1      41.709  22.968  26.162  1.00  0.00    -0.200 F 
ATOM     69  F   UNL A   1      43.611  23.927  24.458  1.00  0.00    -0.200 F 
ENDBRANCH  45  59
BRANCH  46  70
ATOM     70  C   UNL A   1      39.719  31.833  35.474  1.00  0.00     0.064 A 
ATOM     71  C   UNL A   1      38.722  31.425  36.372  1.00  0.00     0.173 A 
ATOM     72  C   UNL A   1      40.283  33.102  35.653  1.00  0.00     0.173 A 
ATOM     73  F   UNL A   1      38.156  30.216  36.244  1.00  0.00    -0.203 F 
ATOM     74  C   UNL A   1      38.282  32.269  37.389  1.00  0.00     0.198 A 
ATOM     75  C   UNL A   1      39.862  33.934  36.688  1.00  0.00     0.198 A 
ATOM     76  F   UNL A   1      41.262  33.522  34.839  1.00  0.00    -0.203 F 
ATOM     77  F   UNL A   1      37.301  31.870  38.210  1.00  0.00    -0.200 F 
ATOM     78  C   UNL A   1      38.853  33.522  37.548  1.00  0.00     0.200 A 
ATOM     79  F   UNL A   1      40.435  35.134  36.856  1.00  0.00    -0.200 F 
ATOM     80  F   UNL A   1      38.438  34.330  38.532  1.00  0.00    -0.200 F 
ENDBRANCH  46  70
BRANCH  58  81
ATOM     81  C   UNL A   1      44.801  27.136  34.623  1.00  0.00     0.064 A 
ATOM     82  C   UNL A   1      44.554  26.024  35.439  1.00  0.00     0.173 A 
ATOM     83  C   UNL A   1      46.044  27.776  34.736  1.00  0.00     0.173 A 
ATOM     84  F   UNL A   1      43.377  25.383  35.370  1.00  0.00    -0.203 F 
ATOM     85  C   UNL A   1      45.510  25.575  36.344  1.00  0.00     0.198 A 
ATOM     86  C   UNL A   1      47.007  27.311  35.628  1.00  0.00     0.198 A 
ATOM     87  F   UNL A   1      46.330  28.836  33.965  1.00  0.00    -0.203 F 
ATOM     88  F   UNL A   1      45.244  24.525  37.133  1.00  0.00    -0.200 F 
ATOM     89  C   UNL A   1      46.737  26.217  36.436  1.00  0.00     0.200 A 
ATOM     90  F   UNL A   1      48.198  27.920  35.701  1.00  0.00    -0.200 F 
ATOM     91  F   UNL A   1      47.660  25.779  37.303  1.00  0.00    -0.200 F 
ENDBRANCH  58  81
ENDBRANCH  32  33
ENDBRANCH  25  27
ENDBRANCH  24  25
ENDBRANCH  23  24
ENDBRANCH  22  23
ENDBRANCH   1  22
TORSDOF 16
ENDMDL
MODEL 3
REMARK VINA RESULT:     -10.9      1.931      3.538
REMARK SMILES C[C@H]([NH3+])c1ccc(F)cc1OCC(C)(C)C(=O)OCCOC(=O)c1ccc(-c2c3nc(c(-c4c(F)c(F)c(F)c(F)c4F)c4ccc([nH]4)c(-c4c(F)c(F)c(F)c(F)c4F)c4nc(c(-c5c(F)c(F)c(F)c(F)c5F)c5ccc2[nH]5)C=C4)C=C3)cc1
REMARK SMILES IDX 18 1 16 2 17 3 13 4 14 5 15 6 12 7 11 8 10 9 4 10 5 11 6 12
REMARK SMILES IDX 9 13 7 14 8 15 2 16 1 17 3 18 19 22 20 23 21 24 22 25 23 26
REMARK SMILES IDX 24 27 25 28 86 29 26 30 85 31 27 32 28 33 29 34 79 35 30 36
REMARK SMILES IDX 84 37 78 38 80 39 31 40 83 41 77 42 76 43 32 45 64 46 44 47
REMARK SMILES IDX 63 48 45 49 48 50 62 51 81 52 46 53 47 54 61 56 82 57 49 58
REMARK SMILES IDX 33 59 34 60 42 61 35 62 36 63 40 64 43 65 37 66 38 67 41 68
REMARK SMILES IDX 39 69 65 70 66 71 74 72 67 73 68 74 72 75 75 76 69 77 70 78
REMARK SMILES IDX 73 79 71 80 50 81 51 82 59 83 52 84 53 85 57 86 60 87 54 88
REMARK SMILES IDX 55 89 58 90 56 91
REMARK H PARENT 3 19 3 20 3 21 80 44 48 55
REMARK Flexibility Score: inf
ROOT
ATOM      1  O   UNL A   1      31.127  27.275  26.645  1.00  0.00    -0.462 OA
ENDROOT
BRANCH   1   2
ATOM      2  C   UNL A   1      31.887  26.258  26.148  1.00  0.00     0.315 C 
ATOM      3  O   UNL A   1      33.111  26.257  26.161  1.00  0.00    -0.251 OA
BRANCH   2   4
ATOM      4  C   UNL A   1      31.023  25.184  25.474  1.00  0.00     0.096 C 
ATOM      5  C   UNL A   1      30.810  24.095  26.531  1.00  0.00     0.027 C 
ATOM      6  C   UNL A   1      31.755  24.557  24.265  1.00  0.00     0.027 C 
BRANCH   4   7
ATOM      7  C   UNL A   1      29.702  25.773  24.909  1.00  0.00     0.247 C 
BRANCH   7   8
ATOM      8  O   UNL A   1      29.679  26.202  23.559  1.00  0.00    -0.492 OA
BRANCH   8   9
ATOM      9  C   UNL A   1      29.771  27.481  23.110  1.00  0.00     0.131 A 
ATOM     10  C   UNL A   1      30.893  28.243  22.739  1.00  0.00     0.051 A 
ATOM     11  C   UNL A   1      30.673  29.602  22.378  1.00  0.00     0.017 A 
ATOM     12  C   UNL A   1      29.407  30.183  22.379  1.00  0.00     0.040 A 
ATOM     13  C   UNL A   1      28.500  28.091  23.127  1.00  0.00     0.086 A 
ATOM     14  C   UNL A   1      28.326  29.418  22.763  1.00  0.00     0.126 A 
ATOM     15  F   UNL A   1      27.104  29.966  22.797  1.00  0.00    -0.207 F 
BRANCH  10  16
ATOM     16  C   UNL A   1      32.337  27.773  22.787  1.00  0.00     0.212 C 
ATOM     17  C   UNL A   1      33.292  28.949  22.983  1.00  0.00     0.081 C 
BRANCH  16  18
ATOM     18  N   UNL A   1      32.721  27.002  21.594  1.00  0.00    -0.351 N 
ATOM     19  H   UNL A   1      33.143  27.627  20.907  1.00  0.00     0.345 HD
ATOM     20  H   UNL A   1      31.892  26.563  21.191  1.00  0.00     0.345 HD
ATOM     21  H   UNL A   1      33.393  26.282  21.857  1.00  0.00     0.345 HD
ENDBRANCH  16  18
ENDBRANCH  10  16
ENDBRANCH   8   9
ENDBRANCH   7   8
ENDBRANCH   4   7
ENDBRANCH   2   4
ENDBRANCH   1   2
BRANCH   1  22
ATOM     22  C   UNL A   1      31.828  28.350  27.298  1.00  0.00     0.274 C 
BRANCH  22  23
ATOM     23  C   UNL A   1      31.778  29.624  26.460  1.00  0.00     0.275 C 
BRANCH  23  24
ATOM     24  O   UNL A   1      33.106  30.134  26.249  1.00  0.00    -0.458 OA
BRANCH  24  25
ATOM     25  C   UNL A   1      33.467  31.169  27.039  1.00  0.00     0.338 C 
ATOM     26  O   UNL A   1      32.822  32.166  27.311  1.00  0.00    -0.246 OA
BRANCH  25  27
ATOM     27  C   UNL A   1      34.787  30.898  27.624  1.00  0.00     0.060 A 
ATOM     28  C   UNL A   1      35.116  29.583  27.938  1.00  0.00     0.016 A 
ATOM     29  C   UNL A   1      35.629  31.943  27.996  1.00  0.00     0.016 A 
ATOM     30  C   UNL A   1      36.246  29.305  28.699  1.00  0.00     0.010 A 
ATOM     31  C   UNL A   1      36.815  31.654  28.682  1.00  0.00     0.010 A 
ATOM     32  C   UNL A   1      37.121  30.336  29.070  1.00  0.00    -0.014 A 
BRANCH  32  33
ATOM     33  C   UNL A   1      38.325  30.034  29.891  1.00  0.00     0.031 A 
ATOM     34  C   UNL A   1      39.430  29.181  29.328  1.00  0.00     0.074 A 
ATOM     35  C   UNL A   1      38.453  30.547  31.130  1.00  0.00     0.049 A 
ATOM     36  N   UNL A   1      40.467  28.661  29.935  1.00  0.00    -0.248 NA
ATOM     37  C   UNL A   1      39.355  28.864  27.892  1.00  0.00     0.031 C 
ATOM     38  C   UNL A   1      37.495  31.442  31.780  1.00  0.00     0.029 A 
ATOM     39  N   UNL A   1      39.452  30.399  32.062  1.00  0.00    -0.354 N 
ATOM     40  C   UNL A   1      41.132  27.911  28.974  1.00  0.00     0.074 A 
ATOM     41  C   UNL A   1      40.389  28.046  27.740  1.00  0.00     0.031 C 
ATOM     42  C   UNL A   1      37.973  31.803  32.980  1.00  0.00     0.029 A 
ATOM     43  C   UNL A   1      39.225  31.094  33.225  1.00  0.00     0.049 A 
ATOM     44  H   UNL A   1      40.254  29.849  31.910  1.00  0.00     0.167 HD
ATOM     45  C   UNL A   1      42.260  27.176  29.114  1.00  0.00     0.037 A 
ATOM     46  C   UNL A   1      39.921  31.127  34.378  1.00  0.00     0.037 A 
ATOM     47  C   UNL A   1      43.034  27.093  30.325  1.00  0.00     0.049 A 
ATOM     48  C   UNL A   1      41.150  30.275  34.520  1.00  0.00     0.074 A 
ATOM     49  C   UNL A   1      44.196  26.377  30.560  1.00  0.00     0.029 A 
ATOM     50  N   UNL A   1      42.736  27.768  31.499  1.00  0.00    -0.354 N 
ATOM     51  N   UNL A   1      41.722  29.496  33.635  1.00  0.00    -0.248 NA
ATOM     52  C   UNL A   1      41.813  30.282  35.832  1.00  0.00     0.031 C 
ATOM     53  C   UNL A   1      44.585  26.596  31.885  1.00  0.00     0.029 A 
ATOM     54  C   UNL A   1      43.687  27.478  32.465  1.00  0.00     0.049 A 
ATOM     55  H   UNL A   1      41.964  28.365  31.628  1.00  0.00     0.167 HD
ATOM     56  C   UNL A   1      42.805  28.918  34.280  1.00  0.00     0.074 A 
ATOM     57  C   UNL A   1      42.828  29.455  35.624  1.00  0.00     0.031 C 
ATOM     58  C   UNL A   1      43.692  28.013  33.801  1.00  0.00     0.037 A 
BRANCH  45  59
ATOM     59  C   UNL A   1      42.719  26.368  27.937  1.00  0.00     0.064 A 
ATOM     60  C   UNL A   1      42.314  25.030  27.802  1.00  0.00     0.173 A 
ATOM     61  C   UNL A   1      43.602  26.888  26.981  1.00  0.00     0.173 A 
ATOM     62  F   UNL A   1      41.475  24.484  28.695  1.00  0.00    -0.203 F 
ATOM     63  C   UNL A   1      42.787  24.240  26.759  1.00  0.00     0.198 A 
ATOM     64  C   UNL A   1      44.055  26.100  25.924  1.00  0.00     0.198 A 
ATOM     65  F   UNL A   1      44.006  28.164  27.058  1.00  0.00    -0.203 F 
ATOM     66  F   UNL A   1      42.409  22.957  26.666  1.00  0.00    -0.200 F 
ATOM     67  C   UNL A   1      43.654  24.776  25.819  1.00  0.00     0.200 A 
ATOM     68  F   UNL A   1      44.875  26.625  25.004  1.00  0.00    -0.200 F 
ATOM     69  F   UNL A   1      44.102  24.016  24.809  1.00  0.00    -0.200 F 
ENDBRANCH  45  59
BRANCH  46  70
ATOM     70  C   UNL A   1      39.437  31.972  35.499  1.00  0.00     0.064 A 
ATOM     71  C   UNL A   1      38.541  31.471  36.454  1.00  0.00     0.173 A 
ATOM     72  C   UNL A   1      39.838  33.308  35.615  1.00  0.00     0.173 A 
ATOM     73  F   UNL A   1      38.132  30.195  36.389  1.00  0.00    -0.203 F 
ATOM     74  C   UNL A   1      38.037  32.286  37.465  1.00  0.00     0.198 A 
ATOM     75  C   UNL A   1      39.356  34.116  36.644  1.00  0.00     0.198 A 
ATOM     76  F   UNL A   1      40.719  33.822  34.744  1.00  0.00    -0.203 F 
ATOM     77  F   UNL A   1      37.151  31.794  38.342  1.00  0.00    -0.200 F 
ATOM     78  C   UNL A   1      38.446  33.607  37.560  1.00  0.00     0.200 A 
ATOM     79  F   UNL A   1      39.775  35.384  36.750  1.00  0.00    -0.200 F 
ATOM     80  F   UNL A   1      37.971  34.389  38.539  1.00  0.00    -0.200 F 
ENDBRANCH  46  70
BRANCH  58  81
ATOM     81  C   UNL A   1      44.767  27.542  34.734  1.00  0.00     0.064 A 
ATOM     82  C   UNL A   1      45.960  28.265  34.872  1.00  0.00     0.173 A 
ATOM     83  C   UNL A   1      44.637  26.339  35.443  1.00  0.00     0.173 A 
ATOM     84  F   UNL A   1      46.131  29.420  34.209  1.00  0.00    -0.203 F 
ATOM     85  C   UNL A   1      46.991  27.795  35.680  1.00  0.00     0.198 A 
ATOM     86  C   UNL A   1      45.663  25.882  36.266  1.00  0.00     0.198 A 
ATOM     87  F   UNL A   1      43.508  25.620  35.351  1.00  0.00    -0.203 F 
ATOM     88  F   UNL A   1      48.133  28.490  35.778  1.00  0.00    -0.200 F 
ATOM     89  C   UNL A   1      46.841  26.606  36.378  1.00  0.00     0.200 A 
ATOM     90  F   UNL A   1      45.508  24.744  36.956  1.00  0.00    -0.200 F 
ATOM     91  F   UNL A   1      47.831  26.158  37.161  1.00  0.00    -0.200 F 
ENDBRANCH  58  81
ENDBRANCH  32  33
ENDBRANCH  25  27
ENDBRANCH  24  25
ENDBRANCH  23  24
ENDBRANCH  22  23
ENDBRANCH   1  22
TORSDOF 16
ENDMDL
