MODEL 1
REMARK VINA RESULT:     -11.8      0.000      0.000
REMARK SMILES Cc1nsc(NC(=O)CC2([NH3+])CCC2)c1C(=O)OCCOC(=O)c1ccc(-c2c3nc(c(-c4c(F)c(F)c(F)c(F)c4F)c4ccc([nH]4)c(-c4c(F)c(F)c(F)c(F)c4F)c4nc(c(-c5c(F)c(F)c(F)c(F)c5F)c5ccc2[nH]5)C=C4)C=C3)cc1
REMARK SMILES IDX 19 1 18 2 16 3 17 4 15 5 1 6 2 7 3 8 4 9 5 10 6 11 7 12 8 14
REMARK SMILES IDX 9 15 10 16 12 17 14 18 13 19 11 20 20 24 21 25 22 26 23 27
REMARK SMILES IDX 24 28 25 29 86 30 26 31 85 32 27 33 28 34 29 35 79 36 30 37
REMARK SMILES IDX 84 38 78 39 80 40 31 41 83 42 77 43 76 44 32 46 64 47 44 48
REMARK SMILES IDX 63 49 45 50 48 51 62 52 81 53 46 54 47 55 61 57 82 58 49 59
REMARK SMILES IDX 33 60 34 61 42 62 35 63 36 64 40 65 43 66 37 67 38 68 41 69
REMARK SMILES IDX 39 70 65 71 66 72 74 73 67 74 68 75 72 76 75 77 69 78 70 79
REMARK SMILES IDX 73 80 71 81 50 82 51 83 59 84 52 85 53 86 57 87 60 88 54 89
REMARK SMILES IDX 55 90 58 91 56 92
REMARK H PARENT 6 13 11 21 11 22 11 23 80 45 48 56
REMARK Flexibility Score: inf
ROOT
ATOM      1  C   UNL A   1      32.579  29.409  26.592  1.00  0.00     0.275 C 
ENDROOT
BRANCH   1   2
ATOM      2  O   UNL A   1      32.785  28.019  26.283  1.00  0.00    -0.458 OA
BRANCH   2   3
ATOM      3  C   UNL A   1      31.758  27.156  26.525  1.00  0.00     0.343 C 
ATOM      4  O   UNL A   1      31.028  27.218  27.514  1.00  0.00    -0.246 OA
BRANCH   3   5
ATOM      5  C   UNL A   1      31.592  26.133  25.501  1.00  0.00     0.117 A 
ATOM      6  C   UNL A   1      31.787  23.875  26.876  1.00  0.00     0.069 C 
ATOM      7  C   UNL A   1      31.507  24.695  25.663  1.00  0.00     0.068 A 
ATOM      8  N   UNL A   1      31.125  24.020  24.574  1.00  0.00    -0.195 NA
ATOM      9  S   UNL A   1      30.930  25.086  23.336  1.00  0.00    -0.017 S 
ATOM     10  C   UNL A   1      31.614  26.412  24.136  1.00  0.00     0.130 A 
BRANCH  10  11
ATOM     11  N   UNL A   1      32.009  27.573  23.502  1.00  0.00    -0.315 N 
ATOM     12  C   UNL A   1      31.313  28.587  22.913  1.00  0.00     0.231 C 
ATOM     13  H   UNL A   1      32.985  27.692  23.468  1.00  0.00     0.170 HD
ATOM     14  O   UNL A   1      31.993  29.471  22.370  1.00  0.00    -0.274 OA
BRANCH  12  15
ATOM     15  C   UNL A   1      29.802  28.695  22.844  1.00  0.00     0.168 C 
BRANCH  15  16
ATOM     16  C   UNL A   1      29.213  30.095  22.693  1.00  0.00     0.103 C 
ATOM     17  C   UNL A   1      27.653  30.204  22.704  1.00  0.00     0.069 C 
ATOM     18  C   UNL A   1      29.196  31.105  23.876  1.00  0.00     0.069 C 
ATOM     19  C   UNL A   1      27.803  31.578  23.396  1.00  0.00     0.013 C 
BRANCH  16  20
ATOM     20  N   UNL A   1      29.653  30.827  21.495  1.00  0.00    -0.352 N 
ATOM     21  H   UNL A   1      30.231  30.217  20.917  1.00  0.00     0.344 HD
ATOM     22  H   UNL A   1      30.195  31.643  21.775  1.00  0.00     0.344 HD
ATOM     23  H   UNL A   1      28.837  31.127  20.962  1.00  0.00     0.344 HD
ENDBRANCH  16  20
ENDBRANCH  15  16
ENDBRANCH  12  15
ENDBRANCH  10  11
ENDBRANCH   3   5
ENDBRANCH   2   3
ENDBRANCH   1   2
BRANCH   1  24
ATOM     24  C   UNL A   1      33.887  30.189  26.634  1.00  0.00     0.275 C 
BRANCH  24  25
ATOM     25  O   UNL A   1      34.271  30.461  27.976  1.00  0.00    -0.458 OA
BRANCH  25  26
ATOM     26  C   UNL A   1      35.175  31.452  28.147  1.00  0.00     0.338 C 
ATOM     27  O   UNL A   1      35.170  32.553  27.626  1.00  0.00    -0.246 OA
BRANCH  26  28
ATOM     28  C   UNL A   1      36.291  30.920  28.935  1.00  0.00     0.060 A 
ATOM     29  C   UNL A   1      37.420  31.734  29.053  1.00  0.00     0.016 A 
ATOM     30  C   UNL A   1      36.314  29.559  29.274  1.00  0.00     0.016 A 
ATOM     31  C   UNL A   1      38.632  31.132  29.298  1.00  0.00     0.010 A 
ATOM     32  C   UNL A   1      37.525  28.956  29.493  1.00  0.00     0.010 A 
ATOM     33  C   UNL A   1      38.672  29.739  29.413  1.00  0.00    -0.014 A 
BRANCH  33  34
ATOM     34  C   UNL A   1      39.961  29.100  29.536  1.00  0.00     0.031 A 
ATOM     35  C   UNL A   1      40.439  29.064  30.936  1.00  0.00     0.074 A 
ATOM     36  C   UNL A   1      40.555  28.517  28.479  1.00  0.00     0.049 A 
ATOM     37  N   UNL A   1      41.467  29.663  31.436  1.00  0.00    -0.248 NA
ATOM     38  C   UNL A   1      39.560  28.440  31.941  1.00  0.00     0.031 C 
ATOM     39  C   UNL A   1      40.002  28.284  27.140  1.00  0.00     0.029 A 
ATOM     40  N   UNL A   1      41.769  27.907  28.415  1.00  0.00    -0.354 N 
ATOM     41  C   UNL A   1      41.474  29.321  32.784  1.00  0.00     0.074 A 
ATOM     42  C   UNL A   1      40.184  28.759  33.072  1.00  0.00     0.031 C 
ATOM     43  C   UNL A   1      40.779  27.390  26.484  1.00  0.00     0.029 A 
ATOM     44  C   UNL A   1      41.940  27.092  27.301  1.00  0.00     0.049 A 
ATOM     45  H   UNL A   1      42.466  28.032  29.098  1.00  0.00     0.167 HD
ATOM     46  C   UNL A   1      42.644  29.256  33.472  1.00  0.00     0.037 A 
ATOM     47  C   UNL A   1      42.923  26.167  27.154  1.00  0.00     0.037 A 
ATOM     48  C   UNL A   1      43.670  30.024  32.812  1.00  0.00     0.049 A 
ATOM     49  C   UNL A   1      44.001  26.519  28.119  1.00  0.00     0.074 A 
ATOM     50  C   UNL A   1      43.817  31.358  32.483  1.00  0.00     0.029 A 
ATOM     51  N   UNL A   1      44.579  29.345  32.038  1.00  0.00    -0.354 N 
ATOM     52  N   UNL A   1      44.723  27.605  28.028  1.00  0.00    -0.248 NA
ATOM     53  C   UNL A   1      43.924  25.930  29.449  1.00  0.00     0.031 C 
ATOM     54  C   UNL A   1      44.449  31.355  31.205  1.00  0.00     0.029 A 
ATOM     55  C   UNL A   1      44.718  30.029  30.861  1.00  0.00     0.049 A 
ATOM     56  H   UNL A   1      45.045  28.514  32.286  1.00  0.00     0.167 HD
ATOM     57  C   UNL A   1      44.834  28.066  29.333  1.00  0.00     0.074 A 
ATOM     58  C   UNL A   1      44.363  26.965  30.169  1.00  0.00     0.031 C 
ATOM     59  C   UNL A   1      45.014  29.393  29.599  1.00  0.00     0.037 A 
BRANCH  46  60
ATOM     60  C   UNL A   1      42.964  28.163  34.466  1.00  0.00     0.064 A 
ATOM     61  C   UNL A   1      43.340  28.533  35.772  1.00  0.00     0.173 A 
ATOM     62  C   UNL A   1      43.230  26.818  34.119  1.00  0.00     0.173 A 
ATOM     63  F   UNL A   1      43.141  29.786  36.211  1.00  0.00    -0.203 F 
ATOM     64  C   UNL A   1      44.026  27.660  36.618  1.00  0.00     0.198 A 
ATOM     65  C   UNL A   1      43.867  25.934  34.986  1.00  0.00     0.198 A 
ATOM     66  F   UNL A   1      42.996  26.324  32.898  1.00  0.00    -0.203 F 
ATOM     67  F   UNL A   1      44.491  28.104  37.793  1.00  0.00    -0.200 F 
ATOM     68  C   UNL A   1      44.300  26.365  36.220  1.00  0.00     0.200 A 
ATOM     69  F   UNL A   1      44.136  24.688  34.571  1.00  0.00    -0.200 F 
ATOM     70  F   UNL A   1      45.021  25.548  36.997  1.00  0.00    -0.200 F 
ENDBRANCH  46  60
BRANCH  47  71
ATOM     71  C   UNL A   1      42.786  24.809  26.567  1.00  0.00     0.064 A 
ATOM     72  C   UNL A   1      43.504  24.429  25.422  1.00  0.00     0.173 A 
ATOM     73  C   UNL A   1      42.149  23.767  27.275  1.00  0.00     0.173 A 
ATOM     74  F   UNL A   1      44.190  25.345  24.723  1.00  0.00    -0.203 F 
ATOM     75  C   UNL A   1      43.582  23.091  25.011  1.00  0.00     0.198 A 
ATOM     76  C   UNL A   1      42.223  22.436  26.863  1.00  0.00     0.198 A 
ATOM     77  F   UNL A   1      41.521  24.008  28.434  1.00  0.00    -0.203 F 
ATOM     78  F   UNL A   1      44.318  22.760  23.942  1.00  0.00    -0.200 F 
ATOM     79  C   UNL A   1      42.946  22.096  25.737  1.00  0.00     0.200 A 
ATOM     80  F   UNL A   1      41.638  21.480  27.599  1.00  0.00    -0.200 F 
ATOM     81  F   UNL A   1      43.063  20.811  25.376  1.00  0.00    -0.200 F 
ENDBRANCH  47  71
BRANCH  59  82
ATOM     82  C   UNL A   1      45.331  30.311  28.454  1.00  0.00     0.064 A 
ATOM     83  C   UNL A   1      44.357  30.939  27.659  1.00  0.00     0.173 A 
ATOM     84  C   UNL A   1      46.662  30.717  28.291  1.00  0.00     0.173 A 
ATOM     85  F   UNL A   1      43.056  30.668  27.821  1.00  0.00    -0.203 F 
ATOM     86  C   UNL A   1      44.708  31.918  26.729  1.00  0.00     0.198 A 
ATOM     87  C   UNL A   1      47.004  31.718  27.388  1.00  0.00     0.198 A 
ATOM     88  F   UNL A   1      47.623  30.186  29.061  1.00  0.00    -0.203 F 
ATOM     89  F   UNL A   1      43.762  32.512  25.985  1.00  0.00    -0.200 F 
ATOM     90  C   UNL A   1      46.030  32.315  26.604  1.00  0.00     0.200 A 
ATOM     91  F   UNL A   1      48.277  32.132  27.307  1.00  0.00    -0.200 F 
ATOM     92  F   UNL A   1      46.362  33.294  25.751  1.00  0.00    -0.200 F 
ENDBRANCH  59  82
ENDBRANCH  33  34
ENDBRANCH  26  28
ENDBRANCH  25  26
ENDBRANCH  24  25
ENDBRANCH   1  24
TORSDOF 15
ENDMDL
MODEL 2
REMARK VINA RESULT:     -11.6      3.760      9.011
REMARK SMILES Cc1nsc(NC(=O)CC2([NH3+])CCC2)c1C(=O)OCCOC(=O)c1ccc(-c2c3nc(c(-c4c(F)c(F)c(F)c(F)c4F)c4ccc([nH]4)c(-c4c(F)c(F)c(F)c(F)c4F)c4nc(c(-c5c(F)c(F)c(F)c(F)c5F)c5ccc2[nH]5)C=C4)C=C3)cc1
REMARK SMILES IDX 19 1 18 2 16 3 17 4 15 5 1 6 2 7 3 8 4 9 5 10 6 11 7 12 8 14
REMARK SMILES IDX 9 15 10 16 12 17 14 18 13 19 11 20 20 24 21 25 22 26 23 27
REMARK SMILES IDX 24 28 25 29 86 30 26 31 85 32 27 33 28 34 29 35 79 36 30 37
REMARK SMILES IDX 84 38 78 39 80 40 31 41 83 42 77 43 76 44 32 46 64 47 44 48
REMARK SMILES IDX 63 49 45 50 48 51 62 52 81 53 46 54 47 55 61 57 82 58 49 59
REMARK SMILES IDX 33 60 34 61 42 62 35 63 36 64 40 65 43 66 37 67 38 68 41 69
REMARK SMILES IDX 39 70 65 71 66 72 74 73 67 74 68 75 72 76 75 77 69 78 70 79
REMARK SMILES IDX 73 80 71 81 50 82 51 83 59 84 52 85 53 86 57 87 60 88 54 89
REMARK SMILES IDX 55 90 58 91 56 92
REMARK H PARENT 6 13 11 21 11 22 11 23 80 45 48 56
REMARK Flexibility Score: inf
ROOT
ATOM      1  C   UNL A   1      37.026  22.319  24.311  1.00  0.00     0.275 C 
ENDROOT
BRANCH   1   2
ATOM      2  O   UNL A   1      36.092  23.391  24.528  1.00  0.00    -0.458 OA
BRANCH   2   3
ATOM      3  C   UNL A   1      35.157  23.623  23.563  1.00  0.00     0.343 C 
ATOM      4  O   UNL A   1      35.300  23.317  22.380  1.00  0.00    -0.246 OA
BRANCH   3   5
ATOM      5  C   UNL A   1      33.952  24.279  24.054  1.00  0.00     0.117 A 
ATOM      6  C   UNL A   1      33.897  26.539  22.670  1.00  0.00     0.069 C 
ATOM      7  C   UNL A   1      33.342  25.512  23.597  1.00  0.00     0.068 A 
ATOM      8  N   UNL A   1      32.117  25.754  24.075  1.00  0.00    -0.195 NA
ATOM      9  S   UNL A   1      31.713  24.549  25.121  1.00  0.00    -0.017 S 
ATOM     10  C   UNL A   1      33.251  23.842  25.176  1.00  0.00     0.130 A 
BRANCH  10  11
ATOM     11  N   UNL A   1      33.642  22.924  26.131  1.00  0.00    -0.315 N 
ATOM     12  C   UNL A   1      33.446  21.581  26.257  1.00  0.00     0.231 C 
ATOM     13  H   UNL A   1      34.165  23.319  26.866  1.00  0.00     0.170 HD
ATOM     14  O   UNL A   1      33.889  21.060  27.291  1.00  0.00    -0.274 OA
BRANCH  12  15
ATOM     15  C   UNL A   1      32.712  20.700  25.264  1.00  0.00     0.168 C 
BRANCH  15  16
ATOM     16  C   UNL A   1      33.134  19.236  25.192  1.00  0.00     0.103 C 
ATOM     17  C   UNL A   1      32.516  18.385  24.034  1.00  0.00     0.069 C 
ATOM     18  C   UNL A   1      34.523  18.814  24.631  1.00  0.00     0.069 C 
ATOM     19  C   UNL A   1      33.840  17.587  23.980  1.00  0.00     0.013 C 
BRANCH  16  20
ATOM     20  N   UNL A   1      32.902  18.462  26.421  1.00  0.00    -0.352 N 
ATOM     21  H   UNL A   1      32.221  17.726  26.237  1.00  0.00     0.344 HD
ATOM     22  H   UNL A   1      32.547  19.080  27.150  1.00  0.00     0.344 HD
ATOM     23  H   UNL A   1      33.780  18.042  26.729  1.00  0.00     0.344 HD
ENDBRANCH  16  20
ENDBRANCH  15  16
ENDBRANCH  12  15
ENDBRANCH  10  11
ENDBRANCH   3   5
ENDBRANCH   2   3
ENDBRANCH   1   2
BRANCH   1  24
ATOM     24  C   UNL A   1      37.761  21.929  25.587  1.00  0.00     0.275 C 
BRANCH  24  25
ATOM     25  O   UNL A   1      38.392  23.061  26.173  1.00  0.00    -0.458 OA
BRANCH  25  26
ATOM     26  C   UNL A   1      39.570  22.830  26.795  1.00  0.00     0.338 C 
ATOM     27  O   UNL A   1      39.966  21.774  27.254  1.00  0.00    -0.246 OA
BRANCH  26  28
ATOM     28  C   UNL A   1      40.238  24.118  27.000  1.00  0.00     0.060 A 
ATOM     29  C   UNL A   1      41.254  24.153  27.958  1.00  0.00     0.016 A 
ATOM     30  C   UNL A   1      39.666  25.288  26.477  1.00  0.00     0.016 A 
ATOM     31  C   UNL A   1      41.541  25.357  28.558  1.00  0.00     0.010 A 
ATOM     32  C   UNL A   1      39.933  26.483  27.092  1.00  0.00     0.010 A 
ATOM     33  C   UNL A   1      40.800  26.481  28.181  1.00  0.00    -0.014 A 
BRANCH  33  34
ATOM     34  C   UNL A   1      41.010  27.713  28.905  1.00  0.00     0.031 A 
ATOM     35  C   UNL A   1      42.249  28.406  28.487  1.00  0.00     0.074 A 
ATOM     36  C   UNL A   1      40.087  28.183  29.764  1.00  0.00     0.049 A 
ATOM     37  N   UNL A   1      43.307  28.626  29.192  1.00  0.00    -0.248 NA
ATOM     38  C   UNL A   1      42.402  28.725  27.056  1.00  0.00     0.031 C 
ATOM     39  C   UNL A   1      38.731  27.681  30.005  1.00  0.00     0.029 A 
ATOM     40  N   UNL A   1      40.141  29.296  30.543  1.00  0.00    -0.354 N 
ATOM     41  C   UNL A   1      44.183  29.295  28.343  1.00  0.00     0.074 A 
ATOM     42  C   UNL A   1      43.667  29.136  27.012  1.00  0.00     0.031 C 
ATOM     43  C   UNL A   1      38.023  28.613  30.685  1.00  0.00     0.029 A 
ATOM     44  C   UNL A   1      38.906  29.709  31.034  1.00  0.00     0.049 A 
ATOM     45  H   UNL A   1      40.981  29.770  30.742  1.00  0.00     0.167 HD
ATOM     46  C   UNL A   1      45.091  30.173  28.844  1.00  0.00     0.037 A 
ATOM     47  C   UNL A   1      38.650  30.924  31.582  1.00  0.00     0.037 A 
ATOM     48  C   UNL A   1      45.332  29.919  30.242  1.00  0.00     0.049 A 
ATOM     49  C   UNL A   1      39.961  31.503  31.990  1.00  0.00     0.074 A 
ATOM     50  C   UNL A   1      45.822  28.844  30.958  1.00  0.00     0.029 A 
ATOM     51  N   UNL A   1      44.690  30.717  31.157  1.00  0.00    -0.354 N 
ATOM     52  N   UNL A   1      40.705  31.002  32.940  1.00  0.00    -0.248 NA
ATOM     53  C   UNL A   1      40.664  32.318  31.009  1.00  0.00     0.031 C 
ATOM     54  C   UNL A   1      45.043  28.811  32.152  1.00  0.00     0.029 A 
ATOM     55  C   UNL A   1      44.177  29.905  32.132  1.00  0.00     0.049 A 
ATOM     56  H   UNL A   1      44.612  31.698  31.118  1.00  0.00     0.167 HD
ATOM     57  C   UNL A   1      42.002  31.077  32.448  1.00  0.00     0.074 A 
ATOM     58  C   UNL A   1      41.917  31.943  31.275  1.00  0.00     0.031 C 
ATOM     59  C   UNL A   1      42.964  30.199  32.858  1.00  0.00     0.037 A 
BRANCH  46  60
ATOM     60  C   UNL A   1      45.407  31.502  28.197  1.00  0.00     0.064 A 
ATOM     61  C   UNL A   1      44.339  32.363  27.877  1.00  0.00     0.173 A 
ATOM     62  C   UNL A   1      46.645  31.825  27.593  1.00  0.00     0.173 A 
ATOM     63  F   UNL A   1      43.116  32.153  28.388  1.00  0.00    -0.203 F 
ATOM     64  C   UNL A   1      44.475  33.392  26.944  1.00  0.00     0.198 A 
ATOM     65  C   UNL A   1      46.788  32.886  26.704  1.00  0.00     0.198 A 
ATOM     66  F   UNL A   1      47.740  31.073  27.738  1.00  0.00    -0.203 F 
ATOM     67  F   UNL A   1      43.396  34.090  26.565  1.00  0.00    -0.200 F 
ATOM     68  C   UNL A   1      45.696  33.646  26.349  1.00  0.00     0.200 A 
ATOM     69  F   UNL A   1      47.979  33.102  26.127  1.00  0.00    -0.200 F 
ATOM     70  F   UNL A   1      45.814  34.582  25.400  1.00  0.00    -0.200 F 
ENDBRANCH  46  60
BRANCH  47  71
ATOM     71  C   UNL A   1      37.438  31.757  31.373  1.00  0.00     0.064 A 
ATOM     72  C   UNL A   1      36.608  32.127  32.444  1.00  0.00     0.173 A 
ATOM     73  C   UNL A   1      37.215  32.431  30.153  1.00  0.00     0.173 A 
ATOM     74  F   UNL A   1      36.790  31.581  33.655  1.00  0.00    -0.203 F 
ATOM     75  C   UNL A   1      35.619  33.110  32.304  1.00  0.00     0.198 A 
ATOM     76  C   UNL A   1      36.227  33.407  30.013  1.00  0.00     0.198 A 
ATOM     77  F   UNL A   1      38.014  32.224  29.098  1.00  0.00    -0.203 F 
ATOM     78  F   UNL A   1      34.880  33.472  33.362  1.00  0.00    -0.200 F 
ATOM     79  C   UNL A   1      35.435  33.753  31.090  1.00  0.00     0.200 A 
ATOM     80  F   UNL A   1      36.089  34.049  28.845  1.00  0.00    -0.200 F 
ATOM     81  F   UNL A   1      34.525  34.730  30.969  1.00  0.00    -0.200 F 
ENDBRANCH  47  71
BRANCH  59  82
ATOM     82  C   UNL A   1      42.659  29.305  34.025  1.00  0.00     0.064 A 
ATOM     83  C   UNL A   1      41.966  28.086  33.921  1.00  0.00     0.173 A 
ATOM     84  C   UNL A   1      43.264  29.603  35.253  1.00  0.00     0.173 A 
ATOM     85  F   UNL A   1      41.439  27.691  32.755  1.00  0.00    -0.203 F 
ATOM     86  C   UNL A   1      41.872  27.216  35.007  1.00  0.00     0.198 A 
ATOM     87  C   UNL A   1      43.197  28.718  36.323  1.00  0.00     0.198 A 
ATOM     88  F   UNL A   1      43.980  30.729  35.390  1.00  0.00    -0.203 F 
ATOM     89  F   UNL A   1      41.213  26.053  34.885  1.00  0.00    -0.200 F 
ATOM     90  C   UNL A   1      42.498  27.528  36.203  1.00  0.00     0.200 A 
ATOM     91  F   UNL A   1      43.847  29.003  37.461  1.00  0.00    -0.200 F 
ATOM     92  F   UNL A   1      42.456  26.669  37.231  1.00  0.00    -0.200 F 
ENDBRANCH  59  82
ENDBRANCH  33  34
ENDBRANCH  26  28
ENDBRANCH  25  26
ENDBRANCH  24  25
ENDBRANCH   1  24
TORSDOF 15
ENDMDL
MODEL 3
REMARK VINA RESULT:     -11.6      1.115      3.118
REMARK SMILES Cc1nsc(NC(=O)CC2([NH3+])CCC2)c1C(=O)OCCOC(=O)c1ccc(-c2c3nc(c(-c4c(F)c(F)c(F)c(F)c4F)c4ccc([nH]4)c(-c4c(F)c(F)c(F)c(F)c4F)c4nc(c(-c5c(F)c(F)c(F)c(F)c5F)c5ccc2[nH]5)C=C4)C=C3)cc1
REMARK SMILES IDX 19 1 18 2 16 3 17 4 15 5 1 6 2 7 3 8 4 9 5 10 6 11 7 12 8 14
REMARK SMILES IDX 9 15 10 16 12 17 14 18 13 19 11 20 20 24 21 25 22 26 23 27
REMARK SMILES IDX 24 28 25 29 86 30 26 31 85 32 27 33 28 34 29 35 79 36 30 37
REMARK SMILES IDX 84 38 78 39 80 40 31 41 83 42 77 43 76 44 32 46 64 47 44 48
REMARK SMILES IDX 63 49 45 50 48 51 62 52 81 53 46 54 47 55 61 57 82 58 49 59
REMARK SMILES IDX 33 60 34 61 42 62 35 63 36 64 40 65 43 66 37 67 38 68 41 69
REMARK SMILES IDX 39 70 65 71 66 72 74 73 67 74 68 75 72 76 75 77 69 78 70 79
REMARK SMILES IDX 73 80 71 81 50 82 51 83 59 84 52 85 53 86 57 87 60 88 54 89
REMARK SMILES IDX 55 90 58 91 56 92
REMARK H PARENT 6 13 11 21 11 22 11 23 80 45 48 56
REMARK Flexibility Score: inf
ROOT
ATOM      1  C   UNL A   1      33.724  28.626  26.139  1.00  0.00     0.275 C 
ENDROOT
BRANCH   1   2
ATOM      2  O   UNL A   1      33.068  27.477  26.705  1.00  0.00    -0.458 OA
BRANCH   2   3
ATOM      3  C   UNL A   1      31.708  27.498  26.783  1.00  0.00     0.343 C 
ATOM      4  O   UNL A   1      31.083  27.825  27.791  1.00  0.00    -0.246 OA
BRANCH   3   5
ATOM      5  C   UNL A   1      31.040  27.091  25.554  1.00  0.00     0.117 A 
ATOM      6  C   UNL A   1      30.743  29.380  24.251  1.00  0.00     0.069 C 
ATOM      7  C   UNL A   1      30.701  27.897  24.398  1.00  0.00     0.068 A 
ATOM      8  N   UNL A   1      30.298  27.212  23.323  1.00  0.00    -0.195 NA
ATOM      9  S   UNL A   1      30.257  25.612  23.704  1.00  0.00    -0.017 S 
ATOM     10  C   UNL A   1      30.498  25.821  25.367  1.00  0.00     0.130 A 
BRANCH  10  11
ATOM     11  N   UNL A   1      30.274  24.834  26.306  1.00  0.00    -0.315 N 
ATOM     12  C   UNL A   1      31.069  23.857  26.827  1.00  0.00     0.231 C 
ATOM     13  H   UNL A   1      29.360  24.838  26.672  1.00  0.00     0.170 HD
ATOM     14  O   UNL A   1      30.525  23.080  27.626  1.00  0.00    -0.274 OA
BRANCH  12  15
ATOM     15  C   UNL A   1      32.529  23.631  26.482  1.00  0.00     0.168 C 
BRANCH  15  16
ATOM     16  C   UNL A   1      32.909  22.255  25.942  1.00  0.00     0.103 C 
ATOM     17  C   UNL A   1      33.714  22.226  24.602  1.00  0.00     0.069 C 
ATOM     18  C   UNL A   1      34.081  21.434  26.552  1.00  0.00     0.069 C 
ATOM     19  C   UNL A   1      34.440  20.964  25.122  1.00  0.00     0.013 C 
BRANCH  16  20
ATOM     20  N   UNL A   1      31.779  21.332  25.747  1.00  0.00    -0.352 N 
ATOM     21  H   UNL A   1      31.536  20.898  26.637  1.00  0.00     0.344 HD
ATOM     22  H   UNL A   1      32.042  20.610  25.077  1.00  0.00     0.344 HD
ATOM     23  H   UNL A   1      30.975  21.850  25.391  1.00  0.00     0.344 HD
ENDBRANCH  16  20
ENDBRANCH  15  16
ENDBRANCH  12  15
ENDBRANCH  10  11
ENDBRANCH   3   5
ENDBRANCH   2   3
ENDBRANCH   1   2
BRANCH   1  24
ATOM     24  C   UNL A   1      33.676  29.833  27.068  1.00  0.00     0.275 C 
BRANCH  24  25
ATOM     25  O   UNL A   1      34.981  30.355  27.287  1.00  0.00    -0.458 OA
BRANCH  25  26
ATOM     26  C   UNL A   1      35.117  31.191  28.341  1.00  0.00     0.338 C 
ATOM     27  O   UNL A   1      34.471  32.197  28.573  1.00  0.00    -0.246 OA
BRANCH  26  28
ATOM     28  C   UNL A   1      36.313  30.791  29.088  1.00  0.00     0.060 A 
ATOM     29  C   UNL A   1      37.456  31.575  28.910  1.00  0.00     0.016 A 
ATOM     30  C   UNL A   1      36.364  29.526  29.692  1.00  0.00     0.016 A 
ATOM     31  C   UNL A   1      38.683  30.995  29.131  1.00  0.00     0.010 A 
ATOM     32  C   UNL A   1      37.587  28.940  29.889  1.00  0.00     0.010 A 
ATOM     33  C   UNL A   1      38.724  29.653  29.521  1.00  0.00    -0.014 A 
BRANCH  33  34
ATOM     34  C   UNL A   1      40.013  29.010  29.624  1.00  0.00     0.031 A 
ATOM     35  C   UNL A   1      40.509  28.966  31.017  1.00  0.00     0.074 A 
ATOM     36  C   UNL A   1      40.590  28.430  28.555  1.00  0.00     0.049 A 
ATOM     37  N   UNL A   1      41.546  29.560  31.505  1.00  0.00    -0.248 NA
ATOM     38  C   UNL A   1      39.642  28.340  32.031  1.00  0.00     0.031 C 
ATOM     39  C   UNL A   1      40.018  28.205  27.224  1.00  0.00     0.029 A 
ATOM     40  N   UNL A   1      41.801  27.818  28.472  1.00  0.00    -0.354 N 
ATOM     41  C   UNL A   1      41.570  29.212  32.851  1.00  0.00     0.074 A 
ATOM     42  C   UNL A   1      40.283  28.652  33.155  1.00  0.00     0.031 C 
ATOM     43  C   UNL A   1      40.783  27.312  26.553  1.00  0.00     0.029 A 
ATOM     44  C   UNL A   1      41.954  27.007  27.351  1.00  0.00     0.049 A 
ATOM     45  H   UNL A   1      42.508  27.938  29.146  1.00  0.00     0.167 HD
ATOM     46  C   UNL A   1      42.750  29.140  33.523  1.00  0.00     0.037 A 
ATOM     47  C   UNL A   1      42.932  26.080  27.187  1.00  0.00     0.037 A 
ATOM     48  C   UNL A   1      43.768  29.908  32.852  1.00  0.00     0.049 A 
ATOM     49  C   UNL A   1      44.025  26.425  28.139  1.00  0.00     0.074 A 
ATOM     50  C   UNL A   1      43.914  31.243  32.527  1.00  0.00     0.029 A 
ATOM     51  N   UNL A   1      44.665  29.230  32.063  1.00  0.00    -0.354 N 
ATOM     52  N   UNL A   1      44.749  27.509  28.042  1.00  0.00    -0.248 NA
ATOM     53  C   UNL A   1      43.964  25.830  29.466  1.00  0.00     0.031 C 
ATOM     54  C   UNL A   1      44.530  31.244  31.241  1.00  0.00     0.029 A 
ATOM     55  C   UNL A   1      44.790  29.920  30.887  1.00  0.00     0.049 A 
ATOM     56  H   UNL A   1      45.132  28.397  32.300  1.00  0.00     0.167 HD
ATOM     57  C   UNL A   1      44.879  27.964  29.348  1.00  0.00     0.074 A 
ATOM     58  C   UNL A   1      44.416  26.860  30.186  1.00  0.00     0.031 C 
ATOM     59  C   UNL A   1      45.067  29.288  29.618  1.00  0.00     0.037 A 
BRANCH  46  60
ATOM     60  C   UNL A   1      43.081  28.041  34.507  1.00  0.00     0.064 A 
ATOM     61  C   UNL A   1      43.437  28.403  35.821  1.00  0.00     0.173 A 
ATOM     62  C   UNL A   1      43.374  26.706  34.147  1.00  0.00     0.173 A 
ATOM     63  F   UNL A   1      43.211  29.646  36.272  1.00  0.00    -0.203 F 
ATOM     64  C   UNL A   1      44.131  27.533  36.663  1.00  0.00     0.198 A 
ATOM     65  C   UNL A   1      44.019  25.824  35.010  1.00  0.00     0.198 A 
ATOM     66  F   UNL A   1      43.162  26.222  32.919  1.00  0.00    -0.203 F 
ATOM     67  F   UNL A   1      44.577  27.971  37.848  1.00  0.00    -0.200 F 
ATOM     68  C   UNL A   1      44.432  26.247  36.253  1.00  0.00     0.200 A 
ATOM     69  F   UNL A   1      44.315  24.587  34.584  1.00  0.00    -0.200 F 
ATOM     70  F   UNL A   1      45.161  25.435  37.028  1.00  0.00    -0.200 F 
ENDBRANCH  46  60
BRANCH  47  71
ATOM     71  C   UNL A   1      42.784  24.725  26.596  1.00  0.00     0.064 A 
ATOM     72  C   UNL A   1      43.481  24.350  25.436  1.00  0.00     0.173 A 
ATOM     73  C   UNL A   1      42.158  23.681  27.309  1.00  0.00     0.173 A 
ATOM     74  F   UNL A   1      44.156  25.269  24.730  1.00  0.00    -0.203 F 
ATOM     75  C   UNL A   1      43.550  23.014  25.018  1.00  0.00     0.198 A 
ATOM     76  C   UNL A   1      42.223  22.351  26.890  1.00  0.00     0.198 A 
ATOM     77  F   UNL A   1      41.551  23.916  28.480  1.00  0.00    -0.203 F 
ATOM     78  F   UNL A   1      44.267  22.687  23.933  1.00  0.00    -0.200 F 
ATOM     79  C   UNL A   1      42.926  22.016  25.749  1.00  0.00     0.200 A 
ATOM     80  F   UNL A   1      41.650  21.393  27.631  1.00  0.00    -0.200 F 
ATOM     81  F   UNL A   1      43.035  20.733  25.380  1.00  0.00    -0.200 F 
ENDBRANCH  47  71
BRANCH  59  82
ATOM     82  C   UNL A   1      45.370  30.211  28.473  1.00  0.00     0.064 A 
ATOM     83  C   UNL A   1      44.387  30.863  27.708  1.00  0.00     0.173 A 
ATOM     84  C   UNL A   1      46.703  30.596  28.279  1.00  0.00     0.173 A 
ATOM     85  F   UNL A   1      43.086  30.613  27.901  1.00  0.00    -0.203 F 
ATOM     86  C   UNL A   1      44.732  31.844  26.778  1.00  0.00     0.198 A 
ATOM     87  C   UNL A   1      47.040  31.599  27.376  1.00  0.00     0.198 A 
ATOM     88  F   UNL A   1      47.674  30.042  29.020  1.00  0.00    -0.203 F 
ATOM     89  F   UNL A   1      43.777  32.460  26.064  1.00  0.00    -0.200 F 
ATOM     90  C   UNL A   1      46.056  32.219  26.623  1.00  0.00     0.200 A 
ATOM     91  F   UNL A   1      48.317  31.992  27.266  1.00  0.00    -0.200 F 
ATOM     92  F   UNL A   1      46.383  33.200  25.770  1.00  0.00    -0.200 F 
ENDBRANCH  59  82
ENDBRANCH  33  34
ENDBRANCH  26  28
ENDBRANCH  25  26
ENDBRANCH  24  25
ENDBRANCH   1  24
TORSDOF 15
ENDMDL
