MODEL 1
REMARK VINA RESULT:     -11.4      0.000      0.000
REMARK SMILES COC[C@H]1CC[N@@H+]([C@H]2CCC[C@]([NH2+]C(C)C)(C(=O)OCCOC(=O)c3ccc(-c4c5nc(c(-c6c(F)c(F)c(F)c(F)c6F)c6ccc([nH]6)c(-c6c(F)c(F)c(F)c(F)c6F)c6nc(c(-c7c(F)c(F)c(F)c(F)c7F)c7ccc4[nH]7)C=C6)C=C5)cc3)C2)C1
REMARK SMILES IDX 20 1 19 2 17 3 18 4 12 5 8 6 9 7 88 8 10 9 11 10 7 11 4 12
REMARK SMILES IDX 5 13 89 14 6 15 3 17 2 18 1 19 13 20 14 23 15 24 16 25 21 26
REMARK SMILES IDX 22 27 23 28 24 29 25 30 26 31 87 32 27 33 86 34 28 35 29 36
REMARK SMILES IDX 30 37 80 38 31 39 85 40 79 41 81 42 32 43 84 44 78 45 77 46
REMARK SMILES IDX 33 48 65 49 45 50 64 51 46 52 49 53 63 54 82 55 47 56 48 57
REMARK SMILES IDX 62 59 83 60 50 61 34 62 35 63 43 64 36 65 37 66 41 67 44 68
REMARK SMILES IDX 38 69 39 70 42 71 40 72 66 73 67 74 75 75 68 76 69 77 73 78
REMARK SMILES IDX 76 79 70 80 71 81 74 82 72 83 51 84 52 85 60 86 53 87 54 88
REMARK SMILES IDX 58 89 61 90 55 91 56 92 59 93 57 94
REMARK H PARENT 7 16 13 21 13 22 81 47 49 58
REMARK Flexibility Score: inf
ROOT
ATOM      1  C   UNL A   1      31.612  28.574  24.974  1.00  0.00     0.274 C 
ENDROOT
BRANCH   1   2
ATOM      2  O   UNL A   1      32.476  27.582  25.542  1.00  0.00    -0.457 OA
BRANCH   2   3
ATOM      3  C   UNL A   1      31.949  26.454  26.095  1.00  0.00     0.368 C 
ATOM      4  O   UNL A   1      31.021  26.471  26.892  1.00  0.00    -0.245 OA
BRANCH   3   5
ATOM      5  C   UNL A   1      32.652  25.168  25.502  1.00  0.00     0.200 C 
ATOM      6  C   UNL A   1      33.566  22.768  26.135  1.00  0.00     0.190 C 
ATOM      7  C   UNL A   1      34.966  23.334  26.385  1.00  0.00     0.065 C 
ATOM      8  C   UNL A   1      32.543  23.925  26.412  1.00  0.00     0.146 C 
ATOM      9  C   UNL A   1      35.290  24.481  25.462  1.00  0.00     0.013 C 
ATOM     10  C   UNL A   1      34.190  25.535  25.380  1.00  0.00     0.081 C 
BRANCH   6  11
ATOM     11  N   UNL A   1      33.404  21.885  24.937  1.00  0.00    -0.332 N 
ATOM     12  C   UNL A   1      33.774  19.515  24.404  1.00  0.00     0.076 C 
ATOM     13  C   UNL A   1      32.534  19.660  25.258  1.00  0.00     0.073 C 
ATOM     14  C   UNL A   1      34.426  20.888  24.549  1.00  0.00     0.268 C 
ATOM     15  C   UNL A   1      32.141  21.111  25.004  1.00  0.00     0.263 C 
ATOM     16  H   UNL A   1      33.468  22.618  24.231  1.00  0.00     0.348 HD
BRANCH  12  17
ATOM     17  C   UNL A   1      34.704  18.346  24.744  1.00  0.00     0.169 C 
BRANCH  17  18
ATOM     18  O   UNL A   1      34.237  17.115  24.196  1.00  0.00    -0.384 OA
ATOM     19  C   UNL A   1      33.609  17.269  22.927  1.00  0.00     0.194 C 
ENDBRANCH  17  18
ENDBRANCH  12  17
ENDBRANCH   6  11
BRANCH   5  20
ATOM     20  N   UNL A   1      32.048  24.803  24.181  1.00  0.00    -0.330 N 
ATOM     21  H   UNL A   1      31.108  25.198  24.175  1.00  0.00     0.347 HD
ATOM     22  H   UNL A   1      32.152  23.789  24.165  1.00  0.00     0.347 HD
BRANCH  20  23
ATOM     23  C   UNL A   1      32.678  25.209  22.906  1.00  0.00     0.176 C 
ATOM     24  C   UNL A   1      32.886  23.906  22.105  1.00  0.00     0.075 C 
ATOM     25  C   UNL A   1      31.866  26.130  21.987  1.00  0.00     0.075 C 
ENDBRANCH  20  23
ENDBRANCH   5  20
ENDBRANCH   3   5
ENDBRANCH   2   3
ENDBRANCH   1   2
BRANCH   1  26
ATOM     26  C   UNL A   1      31.693  29.802  25.886  1.00  0.00     0.275 C 
BRANCH  26  27
ATOM     27  O   UNL A   1      33.064  30.247  25.992  1.00  0.00    -0.458 OA
BRANCH  27  28
ATOM     28  C   UNL A   1      33.301  31.206  26.917  1.00  0.00     0.338 C 
ATOM     29  O   UNL A   1      32.583  32.149  27.225  1.00  0.00    -0.246 OA
BRANCH  28  30
ATOM     30  C   UNL A   1      34.587  30.940  27.581  1.00  0.00     0.060 A 
ATOM     31  C   UNL A   1      34.857  29.651  28.047  1.00  0.00     0.016 A 
ATOM     32  C   UNL A   1      35.491  31.978  27.816  1.00  0.00     0.016 A 
ATOM     33  C   UNL A   1      36.038  29.388  28.742  1.00  0.00     0.010 A 
ATOM     34  C   UNL A   1      36.674  31.714  28.514  1.00  0.00     0.010 A 
ATOM     35  C   UNL A   1      36.953  30.418  28.980  1.00  0.00    -0.014 A 
BRANCH  35  36
ATOM     36  C   UNL A   1      38.189  30.155  29.752  1.00  0.00     0.031 A 
ATOM     37  C   UNL A   1      39.220  29.215  29.206  1.00  0.00     0.074 A 
ATOM     38  C   UNL A   1      38.375  30.744  30.945  1.00  0.00     0.049 A 
ATOM     39  N   UNL A   1      40.305  28.755  29.774  1.00  0.00    -0.248 NA
ATOM     40  C   UNL A   1      39.001  28.731  27.836  1.00  0.00     0.031 C 
ATOM     41  C   UNL A   1      37.470  31.718  31.553  1.00  0.00     0.029 A 
ATOM     42  N   UNL A   1      39.376  30.587  31.870  1.00  0.00    -0.354 N 
ATOM     43  C   UNL A   1      40.892  27.915  28.838  1.00  0.00     0.074 A 
ATOM     44  C   UNL A   1      40.041  27.927  27.667  1.00  0.00     0.031 C 
ATOM     45  C   UNL A   1      37.940  32.046  32.769  1.00  0.00     0.029 A 
ATOM     46  C   UNL A   1      39.153  31.276  33.036  1.00  0.00     0.049 A 
ATOM     47  H   UNL A   1      40.176  30.035  31.713  1.00  0.00     0.167 HD
ATOM     48  C   UNL A   1      42.034  27.196  28.954  1.00  0.00     0.037 A 
ATOM     49  C   UNL A   1      39.829  31.254  34.202  1.00  0.00     0.037 A 
ATOM     50  C   UNL A   1      42.873  27.182  30.123  1.00  0.00     0.049 A 
ATOM     51  C   UNL A   1      41.052  30.387  34.333  1.00  0.00     0.074 A 
ATOM     52  C   UNL A   1      44.058  26.498  30.327  1.00  0.00     0.029 A 
ATOM     53  N   UNL A   1      42.605  27.875  31.294  1.00  0.00    -0.354 N 
ATOM     54  N   UNL A   1      41.610  29.603  33.443  1.00  0.00    -0.248 NA
ATOM     55  C   UNL A   1      41.738  30.398  35.634  1.00  0.00     0.031 C 
ATOM     56  C   UNL A   1      44.484  26.742  31.638  1.00  0.00     0.029 A 
ATOM     57  C   UNL A   1      43.588  27.613  32.235  1.00  0.00     0.049 A 
ATOM     58  H   UNL A   1      41.831  28.468  31.436  1.00  0.00     0.167 HD
ATOM     59  C   UNL A   1      42.717  29.044  34.065  1.00  0.00     0.074 A 
ATOM     60  C   UNL A   1      42.761  29.586  35.408  1.00  0.00     0.031 C 
ATOM     61  C   UNL A   1      43.618  28.161  33.567  1.00  0.00     0.037 A 
BRANCH  48  62
ATOM     62  C   UNL A   1      42.415  26.329  27.794  1.00  0.00     0.064 A 
ATOM     63  C   UNL A   1      43.348  26.746  26.834  1.00  0.00     0.173 A 
ATOM     64  C   UNL A   1      41.851  25.051  27.653  1.00  0.00     0.173 A 
ATOM     65  F   UNL A   1      43.902  27.965  26.917  1.00  0.00    -0.203 F 
ATOM     66  C   UNL A   1      43.684  25.925  25.761  1.00  0.00     0.198 A 
ATOM     67  C   UNL A   1      42.206  24.225  26.592  1.00  0.00     0.198 A 
ATOM     68  F   UNL A   1      40.955  24.606  28.548  1.00  0.00    -0.203 F 
ATOM     69  F   UNL A   1      44.545  26.361  24.831  1.00  0.00    -0.200 F 
ATOM     70  C   UNL A   1      43.117  24.665  25.643  1.00  0.00     0.200 A 
ATOM     71  F   UNL A   1      41.663  23.005  26.484  1.00  0.00    -0.200 F 
ATOM     72  F   UNL A   1      43.441  23.877  24.608  1.00  0.00    -0.200 F 
ENDBRANCH  48  62
BRANCH  49  73
ATOM     73  C   UNL A   1      39.332  32.050  35.353  1.00  0.00     0.064 A 
ATOM     74  C   UNL A   1      39.689  33.394  35.511  1.00  0.00     0.173 A 
ATOM     75  C   UNL A   1      38.487  31.478  36.316  1.00  0.00     0.173 A 
ATOM     76  F   UNL A   1      40.516  33.976  34.630  1.00  0.00    -0.203 F 
ATOM     77  C   UNL A   1      39.226  34.137  36.595  1.00  0.00     0.198 A 
ATOM     78  C   UNL A   1      38.006  32.228  37.386  1.00  0.00     0.198 A 
ATOM     79  F   UNL A   1      38.122  30.192  36.210  1.00  0.00    -0.203 F 
ATOM     80  F   UNL A   1      39.611  35.412  36.745  1.00  0.00    -0.200 F 
ATOM     81  C   UNL A   1      38.380  33.555  37.528  1.00  0.00     0.200 A 
ATOM     82  F   UNL A   1      37.181  31.664  38.279  1.00  0.00    -0.200 F 
ATOM     83  F   UNL A   1      37.930  34.272  38.567  1.00  0.00    -0.200 F 
ENDBRANCH  49  73
BRANCH  61  84
ATOM     84  C   UNL A   1      44.744  27.745  34.467  1.00  0.00     0.064 A 
ATOM     85  C   UNL A   1      45.934  28.483  34.544  1.00  0.00     0.173 A 
ATOM     86  C   UNL A   1      44.610  26.624  35.300  1.00  0.00     0.173 A 
ATOM     87  F   UNL A   1      46.117  29.554  33.756  1.00  0.00    -0.203 F 
ATOM     88  C   UNL A   1      46.956  28.103  35.410  1.00  0.00     0.198 A 
ATOM     89  C   UNL A   1      45.624  26.262  36.182  1.00  0.00     0.198 A 
ATOM     90  F   UNL A   1      43.488  25.889  35.267  1.00  0.00    -0.203 F 
ATOM     91  F   UNL A   1      48.100  28.801  35.442  1.00  0.00    -0.200 F 
ATOM     92  C   UNL A   1      46.797  26.998  36.234  1.00  0.00     0.200 A 
ATOM     93  F   UNL A   1      45.464  25.199  36.985  1.00  0.00    -0.200 F 
ATOM     94  F   UNL A   1      47.778  26.639  37.073  1.00  0.00    -0.200 F 
ENDBRANCH  61  84
ENDBRANCH  35  36
ENDBRANCH  28  30
ENDBRANCH  27  28
ENDBRANCH  26  27
ENDBRANCH   1  26
TORSDOF 16
ENDMDL
MODEL 2
REMARK VINA RESULT:     -11.3      0.408      1.648
REMARK SMILES COC[C@H]1CC[N@@H+]([C@H]2CCC[C@]([NH2+]C(C)C)(C(=O)OCCOC(=O)c3ccc(-c4c5nc(c(-c6c(F)c(F)c(F)c(F)c6F)c6ccc([nH]6)c(-c6c(F)c(F)c(F)c(F)c6F)c6nc(c(-c7c(F)c(F)c(F)c(F)c7F)c7ccc4[nH]7)C=C6)C=C5)cc3)C2)C1
REMARK SMILES IDX 20 1 19 2 17 3 18 4 12 5 8 6 9 7 88 8 10 9 11 10 7 11 4 12
REMARK SMILES IDX 5 13 89 14 6 15 3 17 2 18 1 19 13 20 14 23 15 24 16 25 21 26
REMARK SMILES IDX 22 27 23 28 24 29 25 30 26 31 87 32 27 33 86 34 28 35 29 36
REMARK SMILES IDX 30 37 80 38 31 39 85 40 79 41 81 42 32 43 84 44 78 45 77 46
REMARK SMILES IDX 33 48 65 49 45 50 64 51 46 52 49 53 63 54 82 55 47 56 48 57
REMARK SMILES IDX 62 59 83 60 50 61 34 62 35 63 43 64 36 65 37 66 41 67 44 68
REMARK SMILES IDX 38 69 39 70 42 71 40 72 66 73 67 74 75 75 68 76 69 77 73 78
REMARK SMILES IDX 76 79 70 80 71 81 74 82 72 83 51 84 52 85 60 86 53 87 54 88
REMARK SMILES IDX 58 89 61 90 55 91 56 92 59 93 57 94
REMARK H PARENT 7 16 13 21 13 22 81 47 49 58
REMARK Flexibility Score: inf
ROOT
ATOM      1  C   UNL A   1      31.551  28.463  24.910  1.00  0.00     0.274 C 
ENDROOT
BRANCH   1   2
ATOM      2  O   UNL A   1      32.413  27.563  25.616  1.00  0.00    -0.457 OA
BRANCH   2   3
ATOM      3  C   UNL A   1      31.919  26.394  26.112  1.00  0.00     0.368 C 
ATOM      4  O   UNL A   1      30.964  26.341  26.875  1.00  0.00    -0.245 OA
BRANCH   3   5
ATOM      5  C   UNL A   1      32.701  25.161  25.503  1.00  0.00     0.200 C 
ATOM      6  C   UNL A   1      33.623  22.747  26.064  1.00  0.00     0.190 C 
ATOM      7  C   UNL A   1      34.983  23.326  26.461  1.00  0.00     0.065 C 
ATOM      8  C   UNL A   1      32.552  23.863  26.325  1.00  0.00     0.146 C 
ATOM      9  C   UNL A   1      35.351  24.534  25.638  1.00  0.00     0.013 C 
ATOM     10  C   UNL A   1      34.234  25.567  25.530  1.00  0.00     0.081 C 
BRANCH   6  11
ATOM     11  N   UNL A   1      33.581  21.936  24.807  1.00  0.00    -0.332 N 
ATOM     12  C   UNL A   1      33.505  19.551  24.223  1.00  0.00     0.076 C 
ATOM     13  C   UNL A   1      32.153  19.994  24.738  1.00  0.00     0.073 C 
ATOM     14  C   UNL A   1      34.402  20.718  24.626  1.00  0.00     0.268 C 
ATOM     15  C   UNL A   1      32.199  21.499  24.493  1.00  0.00     0.263 C 
ATOM     16  H   UNL A   1      34.003  22.633  24.194  1.00  0.00     0.348 HD
BRANCH  12  17
ATOM     17  C   UNL A   1      34.006  18.186  24.708  1.00  0.00     0.169 C 
BRANCH  17  18
ATOM     18  O   UNL A   1      33.086  17.566  25.604  1.00  0.00    -0.384 OA
ATOM     19  C   UNL A   1      33.295  16.165  25.742  1.00  0.00     0.194 C 
ENDBRANCH  17  18
ENDBRANCH  12  17
ENDBRANCH   6  11
BRANCH   5  20
ATOM     20  N   UNL A   1      32.215  24.866  24.117  1.00  0.00    -0.330 N 
ATOM     21  H   UNL A   1      31.273  25.251  24.055  1.00  0.00     0.347 HD
ATOM     22  H   UNL A   1      32.334  23.855  24.053  1.00  0.00     0.347 HD
BRANCH  20  23
ATOM     23  C   UNL A   1      32.943  25.350  22.925  1.00  0.00     0.176 C 
ATOM     24  C   UNL A   1      33.267  24.092  22.090  1.00  0.00     0.075 C 
ATOM     25  C   UNL A   1      32.186  26.288  21.976  1.00  0.00     0.075 C 
ENDBRANCH  20  23
ENDBRANCH   5  20
ENDBRANCH   3   5
ENDBRANCH   2   3
ENDBRANCH   1   2
BRANCH   1  26
ATOM     26  C   UNL A   1      31.678  29.825  25.599  1.00  0.00     0.275 C 
BRANCH  26  27
ATOM     27  O   UNL A   1      33.059  30.075  25.945  1.00  0.00    -0.458 OA
BRANCH  27  28
ATOM     28  C   UNL A   1      33.268  31.035  26.876  1.00  0.00     0.338 C 
ATOM     29  O   UNL A   1      32.528  31.963  27.179  1.00  0.00    -0.246 OA
BRANCH  28  30
ATOM     30  C   UNL A   1      34.550  30.791  27.553  1.00  0.00     0.060 A 
ATOM     31  C   UNL A   1      34.870  29.491  27.954  1.00  0.00     0.016 A 
ATOM     32  C   UNL A   1      35.401  31.853  27.865  1.00  0.00     0.016 A 
ATOM     33  C   UNL A   1      36.048  29.244  28.661  1.00  0.00     0.010 A 
ATOM     34  C   UNL A   1      36.580  31.605  28.573  1.00  0.00     0.010 A 
ATOM     35  C   UNL A   1      36.909  30.299  28.975  1.00  0.00    -0.014 A 
BRANCH  35  36
ATOM     36  C   UNL A   1      38.141  30.050  29.759  1.00  0.00     0.031 A 
ATOM     37  C   UNL A   1      39.186  29.120  29.225  1.00  0.00     0.074 A 
ATOM     38  C   UNL A   1      38.309  30.643  30.953  1.00  0.00     0.049 A 
ATOM     39  N   UNL A   1      40.270  28.671  29.804  1.00  0.00    -0.248 NA
ATOM     40  C   UNL A   1      38.985  28.631  27.853  1.00  0.00     0.031 C 
ATOM     41  C   UNL A   1      37.389  31.609  31.551  1.00  0.00     0.029 A 
ATOM     42  N   UNL A   1      39.303  30.497  31.888  1.00  0.00    -0.354 N 
ATOM     43  C   UNL A   1      40.874  27.836  28.875  1.00  0.00     0.074 A 
ATOM     44  C   UNL A   1      40.035  27.836  27.695  1.00  0.00     0.031 C 
ATOM     45  C   UNL A   1      37.844  31.944  32.770  1.00  0.00     0.029 A 
ATOM     46  C   UNL A   1      39.062  31.186  33.050  1.00  0.00     0.049 A 
ATOM     47  H   UNL A   1      40.110  29.953  31.739  1.00  0.00     0.167 HD
ATOM     48  C   UNL A   1      42.022  27.128  29.003  1.00  0.00     0.037 A 
ATOM     49  C   UNL A   1      39.727  31.172  34.222  1.00  0.00     0.037 A 
ATOM     50  C   UNL A   1      42.850  27.124  30.180  1.00  0.00     0.049 A 
ATOM     51  C   UNL A   1      40.957  30.318  34.367  1.00  0.00     0.074 A 
ATOM     52  C   UNL A   1      44.040  26.453  30.397  1.00  0.00     0.029 A 
ATOM     53  N   UNL A   1      42.564  27.817  31.347  1.00  0.00    -0.354 N 
ATOM     54  N   UNL A   1      41.531  29.538  33.483  1.00  0.00    -0.248 NA
ATOM     55  C   UNL A   1      41.630  30.338  35.674  1.00  0.00     0.031 C 
ATOM     56  C   UNL A   1      44.451  26.702  31.711  1.00  0.00     0.029 A 
ATOM     57  C   UNL A   1      43.540  27.566  32.298  1.00  0.00     0.049 A 
ATOM     58  H   UNL A   1      41.783  28.401  31.480  1.00  0.00     0.167 HD
ATOM     59  C   UNL A   1      42.638  28.991  34.117  1.00  0.00     0.074 A 
ATOM     60  C   UNL A   1      42.664  29.535  35.459  1.00  0.00     0.031 C 
ATOM     61  C   UNL A   1      43.553  28.116  33.629  1.00  0.00     0.037 A 
BRANCH  48  62
ATOM     62  C   UNL A   1      42.423  26.262  27.848  1.00  0.00     0.064 A 
ATOM     63  C   UNL A   1      41.881  24.983  27.660  1.00  0.00     0.173 A 
ATOM     64  C   UNL A   1      43.353  26.730  26.907  1.00  0.00     0.173 A 
ATOM     65  F   UNL A   1      41.001  24.487  28.542  1.00  0.00    -0.203 F 
ATOM     66  C   UNL A   1      42.273  24.193  26.582  1.00  0.00     0.198 A 
ATOM     67  C   UNL A   1      43.726  25.946  25.819  1.00  0.00     0.198 A 
ATOM     68  F   UNL A   1      43.899  27.948  27.044  1.00  0.00    -0.203 F 
ATOM     69  F   UNL A   1      41.774  22.957  26.444  1.00  0.00    -0.200 F 
ATOM     70  C   UNL A   1      43.190  24.677  25.661  1.00  0.00     0.200 A 
ATOM     71  F   UNL A   1      44.607  26.418  24.926  1.00  0.00    -0.200 F 
ATOM     72  F   UNL A   1      43.567  23.914  24.625  1.00  0.00    -0.200 F 
ENDBRANCH  48  62
BRANCH  49  73
ATOM     73  C   UNL A   1      39.211  31.966  35.367  1.00  0.00     0.064 A 
ATOM     74  C   UNL A   1      38.416  31.376  36.356  1.00  0.00     0.173 A 
ATOM     75  C   UNL A   1      39.506  33.332  35.490  1.00  0.00     0.173 A 
ATOM     76  F   UNL A   1      38.084  30.080  36.265  1.00  0.00    -0.203 F 
ATOM     77  C   UNL A   1      37.927  32.124  37.426  1.00  0.00     0.198 A 
ATOM     78  C   UNL A   1      39.038  34.073  36.572  1.00  0.00     0.198 A 
ATOM     79  F   UNL A   1      40.260  33.942  34.564  1.00  0.00    -0.203 F 
ATOM     80  F   UNL A   1      37.139  31.546  38.341  1.00  0.00    -0.200 F 
ATOM     81  C   UNL A   1      38.245  33.471  37.536  1.00  0.00     0.200 A 
ATOM     82  F   UNL A   1      39.356  35.371  36.679  1.00  0.00    -0.200 F 
ATOM     83  F   UNL A   1      37.781  34.189  38.568  1.00  0.00    -0.200 F 
ENDBRANCH  49  73
BRANCH  61  84
ATOM     84  C   UNL A   1      44.674  27.713  34.541  1.00  0.00     0.064 A 
ATOM     85  C   UNL A   1      45.836  28.487  34.662  1.00  0.00     0.173 A 
ATOM     86  C   UNL A   1      44.561  26.565  35.340  1.00  0.00     0.173 A 
ATOM     87  F   UNL A   1      45.998  29.585  33.908  1.00  0.00    -0.203 F 
ATOM     88  C   UNL A   1      46.853  28.118  35.539  1.00  0.00     0.198 A 
ATOM     89  C   UNL A   1      45.569  26.212  36.233  1.00  0.00     0.198 A 
ATOM     90  F   UNL A   1      43.466  25.794  35.264  1.00  0.00    -0.203 F 
ATOM     91  F   UNL A   1      47.972  28.852  35.613  1.00  0.00    -0.200 F 
ATOM     92  C   UNL A   1      46.716  26.985  36.329  1.00  0.00     0.200 A 
ATOM     93  F   UNL A   1      45.429  25.123  37.003  1.00  0.00    -0.200 F 
ATOM     94  F   UNL A   1      47.691  26.636  37.178  1.00  0.00    -0.200 F 
ENDBRANCH  61  84
ENDBRANCH  35  36
ENDBRANCH  28  30
ENDBRANCH  27  28
ENDBRANCH  26  27
ENDBRANCH   1  26
TORSDOF 16
ENDMDL
MODEL 3
REMARK VINA RESULT:     -11.1      0.707      2.397
REMARK SMILES COC[C@H]1CC[N@@H+]([C@H]2CCC[C@]([NH2+]C(C)C)(C(=O)OCCOC(=O)c3ccc(-c4c5nc(c(-c6c(F)c(F)c(F)c(F)c6F)c6ccc([nH]6)c(-c6c(F)c(F)c(F)c(F)c6F)c6nc(c(-c7c(F)c(F)c(F)c(F)c7F)c7ccc4[nH]7)C=C6)C=C5)cc3)C2)C1
REMARK SMILES IDX 20 1 19 2 17 3 18 4 12 5 8 6 9 7 88 8 10 9 11 10 7 11 4 12
REMARK SMILES IDX 5 13 89 14 6 15 3 17 2 18 1 19 13 20 14 23 15 24 16 25 21 26
REMARK SMILES IDX 22 27 23 28 24 29 25 30 26 31 87 32 27 33 86 34 28 35 29 36
REMARK SMILES IDX 30 37 80 38 31 39 85 40 79 41 81 42 32 43 84 44 78 45 77 46
REMARK SMILES IDX 33 48 65 49 45 50 64 51 46 52 49 53 63 54 82 55 47 56 48 57
REMARK SMILES IDX 62 59 83 60 50 61 34 62 35 63 43 64 36 65 37 66 41 67 44 68
REMARK SMILES IDX 38 69 39 70 42 71 40 72 66 73 67 74 75 75 68 76 69 77 73 78
REMARK SMILES IDX 76 79 70 80 71 81 74 82 72 83 51 84 52 85 60 86 53 87 54 88
REMARK SMILES IDX 58 89 61 90 55 91 56 92 59 93 57 94
REMARK H PARENT 7 16 13 21 13 22 81 47 49 58
REMARK Flexibility Score: inf
ROOT
ATOM      1  C   UNL A   1      31.664  29.160  24.306  1.00  0.00     0.274 C 
ENDROOT
BRANCH   1   2
ATOM      2  O   UNL A   1      31.860  27.754  24.499  1.00  0.00    -0.457 OA
BRANCH   2   3
ATOM      3  C   UNL A   1      33.075  27.193  24.239  1.00  0.00     0.368 C 
ATOM      4  O   UNL A   1      34.083  27.852  24.023  1.00  0.00    -0.245 OA
BRANCH   3   5
ATOM      5  C   UNL A   1      32.987  25.617  24.333  1.00  0.00     0.200 C 
ATOM      6  C   UNL A   1      34.327  23.385  23.865  1.00  0.00     0.190 C 
ATOM      7  C   UNL A   1      33.702  23.268  22.473  1.00  0.00     0.065 C 
ATOM      8  C   UNL A   1      34.356  24.911  24.231  1.00  0.00     0.146 C 
ATOM      9  C   UNL A   1      32.288  23.789  22.437  1.00  0.00     0.013 C 
ATOM     10  C   UNL A   1      32.120  25.157  23.088  1.00  0.00     0.081 C 
BRANCH   6  11
ATOM     11  N   UNL A   1      33.898  22.372  24.880  1.00  0.00    -0.332 N 
ATOM     12  C   UNL A   1      33.676  19.927  24.976  1.00  0.00     0.076 C 
ATOM     13  C   UNL A   1      35.138  20.311  25.041  1.00  0.00     0.073 C 
ATOM     14  C   UNL A   1      33.020  21.232  24.533  1.00  0.00     0.268 C 
ATOM     15  C   UNL A   1      35.067  21.748  25.546  1.00  0.00     0.263 C 
ATOM     16  H   UNL A   1      33.316  22.994  25.440  1.00  0.00     0.348 HD
BRANCH  12  17
ATOM     17  C   UNL A   1      33.325  18.724  24.094  1.00  0.00     0.169 C 
BRANCH  17  18
ATOM     18  O   UNL A   1      34.404  17.798  23.998  1.00  0.00    -0.384 OA
ATOM     19  C   UNL A   1      34.050  16.592  23.330  1.00  0.00     0.194 C 
ENDBRANCH  17  18
ENDBRANCH  12  17
ENDBRANCH   6  11
BRANCH   5  20
ATOM     20  N   UNL A   1      32.373  25.205  25.636  1.00  0.00    -0.330 N 
ATOM     21  H   UNL A   1      32.303  26.051  26.202  1.00  0.00     0.347 HD
ATOM     22  H   UNL A   1      32.997  24.461  25.947  1.00  0.00     0.347 HD
BRANCH  20  23
ATOM     23  C   UNL A   1      31.046  24.555  25.693  1.00  0.00     0.176 C 
ATOM     24  C   UNL A   1      31.137  23.509  26.825  1.00  0.00     0.075 C 
ATOM     25  C   UNL A   1      29.847  25.443  26.051  1.00  0.00     0.075 C 
ENDBRANCH  20  23
ENDBRANCH   5  20
ENDBRANCH   3   5
ENDBRANCH   2   3
ENDBRANCH   1   2
BRANCH   1  26
ATOM     26  C   UNL A   1      31.784  29.815  25.685  1.00  0.00     0.275 C 
BRANCH  26  27
ATOM     27  O   UNL A   1      33.128  30.308  25.881  1.00  0.00    -0.458 OA
BRANCH  27  28
ATOM     28  C   UNL A   1      33.290  31.183  26.902  1.00  0.00     0.338 C 
ATOM     29  O   UNL A   1      32.512  32.047  27.283  1.00  0.00    -0.246 OA
BRANCH  28  30
ATOM     30  C   UNL A   1      34.577  30.927  27.567  1.00  0.00     0.060 A 
ATOM     31  C   UNL A   1      34.886  29.625  27.972  1.00  0.00     0.016 A 
ATOM     32  C   UNL A   1      35.444  31.980  27.863  1.00  0.00     0.016 A 
ATOM     33  C   UNL A   1      36.067  29.367  28.667  1.00  0.00     0.010 A 
ATOM     34  C   UNL A   1      36.627  31.721  28.561  1.00  0.00     0.010 A 
ATOM     35  C   UNL A   1      36.945  30.414  28.967  1.00  0.00    -0.014 A 
BRANCH  35  36
ATOM     36  C   UNL A   1      38.181  30.154  29.739  1.00  0.00     0.031 A 
ATOM     37  C   UNL A   1      39.209  29.206  29.201  1.00  0.00     0.074 A 
ATOM     38  C   UNL A   1      38.370  30.754  30.927  1.00  0.00     0.049 A 
ATOM     39  N   UNL A   1      40.293  28.748  29.771  1.00  0.00    -0.248 NA
ATOM     40  C   UNL A   1      38.987  28.711  27.835  1.00  0.00     0.031 C 
ATOM     41  C   UNL A   1      37.469  31.736  31.528  1.00  0.00     0.029 A 
ATOM     42  N   UNL A   1      39.373  30.602  31.852  1.00  0.00    -0.354 N 
ATOM     43  C   UNL A   1      40.876  27.898  28.843  1.00  0.00     0.074 A 
ATOM     44  C   UNL A   1      40.024  27.901  27.672  1.00  0.00     0.031 C 
ATOM     45  C   UNL A   1      37.942  32.073  32.740  1.00  0.00     0.029 A 
ATOM     46  C   UNL A   1      39.152  31.302  33.012  1.00  0.00     0.049 A 
ATOM     47  H   UNL A   1      40.170  30.045  31.699  1.00  0.00     0.167 HD
ATOM     48  C   UNL A   1      42.016  27.176  28.964  1.00  0.00     0.037 A 
ATOM     49  C   UNL A   1      39.830  31.288  34.177  1.00  0.00     0.037 A 
ATOM     50  C   UNL A   1      42.856  27.169  30.132  1.00  0.00     0.049 A 
ATOM     51  C   UNL A   1      41.050  30.419  34.315  1.00  0.00     0.074 A 
ATOM     52  C   UNL A   1      44.040  26.484  30.341  1.00  0.00     0.029 A 
ATOM     53  N   UNL A   1      42.592  27.875  31.297  1.00  0.00    -0.354 N 
ATOM     54  N   UNL A   1      41.605  29.624  33.431  1.00  0.00    -0.248 NA
ATOM     55  C   UNL A   1      41.738  30.439  35.615  1.00  0.00     0.031 C 
ATOM     56  C   UNL A   1      44.468  26.738  31.649  1.00  0.00     0.029 A 
ATOM     57  C   UNL A   1      43.575  27.618  32.239  1.00  0.00     0.049 A 
ATOM     58  H   UNL A   1      41.820  28.470  31.434  1.00  0.00     0.167 HD
ATOM     59  C   UNL A   1      42.711  29.067  34.057  1.00  0.00     0.074 A 
ATOM     60  C   UNL A   1      42.758  29.621  35.394  1.00  0.00     0.031 C 
ATOM     61  C   UNL A   1      43.609  28.178  33.566  1.00  0.00     0.037 A 
BRANCH  48  62
ATOM     62  C   UNL A   1      42.393  26.297  27.811  1.00  0.00     0.064 A 
ATOM     63  C   UNL A   1      41.832  25.024  27.638  1.00  0.00     0.173 A 
ATOM     64  C   UNL A   1      43.318  26.745  26.856  1.00  0.00     0.173 A 
ATOM     65  F   UNL A   1      40.956  24.545  28.533  1.00  0.00    -0.203 F 
ATOM     66  C   UNL A   1      42.202  24.221  26.562  1.00  0.00     0.198 A 
ATOM     67  C   UNL A   1      43.669  25.950  25.770  1.00  0.00     0.198 A 
ATOM     68  F   UNL A   1      43.881  27.958  26.978  1.00  0.00    -0.203 F 
ATOM     69  F   UNL A   1      41.686  22.990  26.439  1.00  0.00    -0.200 F 
ATOM     70  C   UNL A   1      43.116  24.686  25.627  1.00  0.00     0.200 A 
ATOM     71  F   UNL A   1      44.546  26.403  24.864  1.00  0.00    -0.200 F 
ATOM     72  F   UNL A   1      43.471  23.911  24.593  1.00  0.00    -0.200 F 
ENDBRANCH  48  62
BRANCH  49  73
ATOM     73  C   UNL A   1      39.337  32.096  35.321  1.00  0.00     0.064 A 
ATOM     74  C   UNL A   1      38.524  31.530  36.311  1.00  0.00     0.173 A 
ATOM     75  C   UNL A   1      39.672  33.453  35.445  1.00  0.00     0.173 A 
ATOM     76  F   UNL A   1      38.155  30.244  36.220  1.00  0.00    -0.203 F 
ATOM     77  C   UNL A   1      38.057  32.293  37.380  1.00  0.00     0.198 A 
ATOM     78  C   UNL A   1      39.225  34.208  36.526  1.00  0.00     0.198 A 
ATOM     79  F   UNL A   1      40.444  34.041  34.519  1.00  0.00    -0.203 F 
ATOM     80  F   UNL A   1      37.252  31.738  38.295  1.00  0.00    -0.200 F 
ATOM     81  C   UNL A   1      38.414  33.629  37.490  1.00  0.00     0.200 A 
ATOM     82  F   UNL A   1      39.580  35.496  36.633  1.00  0.00    -0.200 F 
ATOM     83  F   UNL A   1      37.970  34.361  38.521  1.00  0.00    -0.200 F 
ENDBRANCH  49  73
BRANCH  61  84
ATOM     84  C   UNL A   1      44.735  27.766  34.468  1.00  0.00     0.064 A 
ATOM     85  C   UNL A   1      44.665  26.601  35.244  1.00  0.00     0.173 A 
ATOM     86  C   UNL A   1      45.917  28.521  34.518  1.00  0.00     0.173 A 
ATOM     87  F   UNL A   1      43.550  25.854  35.242  1.00  0.00    -0.203 F 
ATOM     88  C   UNL A   1      45.732  26.214  36.050  1.00  0.00     0.198 A 
ATOM     89  C   UNL A   1      46.991  28.117  35.306  1.00  0.00     0.198 A 
ATOM     90  F   UNL A   1      46.033  29.641  33.790  1.00  0.00    -0.203 F 
ATOM     91  F   UNL A   1      45.632  25.115  36.811  1.00  0.00    -0.200 F 
ATOM     92  C   UNL A   1      46.897  26.968  36.075  1.00  0.00     0.200 A 
ATOM     93  F   UNL A   1      48.119  28.842  35.321  1.00  0.00    -0.200 F 
ATOM     94  F   UNL A   1      47.926  26.589  36.845  1.00  0.00    -0.200 F 
ENDBRANCH  61  84
ENDBRANCH  35  36
ENDBRANCH  28  30
ENDBRANCH  27  28
ENDBRANCH  26  27
ENDBRANCH   1  26
TORSDOF 16
ENDMDL
