MODEL 1
REMARK VINA RESULT:     -13.8      0.000      0.000
REMARK SMILES O=C(OCCOC(=O)[C@H]1CC(=O)N(CCc2ccc3c(c2)OCO3)C1)c1ccc(-c2c3nc(c(-c4c(F)c(F)c(F)c(F)c4F)c4ccc([nH]4)c(-c4c(F)c(F)c(F)c(F)c4F)c4nc(c(-c5c(F)c(F)c(F)c(F)c5F)c5ccc2[nH]5)C=C4)C=C3)cc1
REMARK SMILES IDX 5 1 4 2 3 3 2 4 1 5 26 6 27 7 88 8 28 9 87 10 29 11 30 12
REMARK SMILES IDX 31 13 81 14 32 15 86 16 80 17 82 18 33 19 85 20 79 21 78 22
REMARK SMILES IDX 34 24 66 25 46 26 65 27 47 28 50 29 64 30 83 31 48 32 49 33
REMARK SMILES IDX 63 35 84 36 51 37 35 38 36 39 44 40 37 41 38 42 42 43 45 44
REMARK SMILES IDX 39 45 40 46 43 47 41 48 67 49 68 50 76 51 69 52 70 53 74 54
REMARK SMILES IDX 77 55 71 56 72 57 75 58 73 59 52 60 53 61 61 62 54 63 55 64
REMARK SMILES IDX 59 65 62 66 56 67 57 68 60 69 58 70 6 71 7 72 8 73 9 74
REMARK SMILES IDX 10 75 25 76 11 77 13 78 12 79 14 80 15 81 16 82 17 83 21 84
REMARK SMILES IDX 18 85 20 86 19 87 22 88 24 89 23 90
REMARK H PARENT 82 23 50 34
REMARK Flexibility Score: inf
ROOT
ATOM      1  C   UNL A   1      34.027  35.272  31.895  1.00  0.00     0.274 C 
ENDROOT
BRANCH   1   2
ATOM      2  C   UNL A   1      34.251  34.257  33.046  1.00  0.00     0.275 C 
BRANCH   2   3
ATOM      3  O   UNL A   1      34.888  33.035  32.666  1.00  0.00    -0.458 OA
BRANCH   3   4
ATOM      4  C   UNL A   1      35.984  32.481  33.225  1.00  0.00     0.338 C 
ATOM      5  O   UNL A   1      36.273  32.779  34.382  1.00  0.00    -0.246 OA
BRANCH   4   6
ATOM      6  C   UNL A   1      36.941  31.616  32.463  1.00  0.00     0.060 A 
ATOM      7  C   UNL A   1      37.004  31.487  31.074  1.00  0.00     0.016 A 
ATOM      8  C   UNL A   1      37.967  31.039  33.223  1.00  0.00     0.016 A 
ATOM      9  C   UNL A   1      38.156  31.066  30.450  1.00  0.00     0.010 A 
ATOM     10  C   UNL A   1      39.131  30.595  32.607  1.00  0.00     0.010 A 
ATOM     11  C   UNL A   1      39.235  30.663  31.215  1.00  0.00    -0.014 A 
BRANCH  11  12
ATOM     12  C   UNL A   1      40.282  30.026  30.443  1.00  0.00     0.031 A 
ATOM     13  C   UNL A   1      41.443  30.934  30.012  1.00  0.00     0.074 A 
ATOM     14  C   UNL A   1      40.231  28.674  30.298  1.00  0.00     0.049 A 
ATOM     15  N   UNL A   1      42.482  30.730  29.235  1.00  0.00    -0.248 NA
ATOM     16  C   UNL A   1      41.344  32.339  30.473  1.00  0.00     0.031 C 
ATOM     17  C   UNL A   1      38.677  27.449  30.080  1.00  0.00     0.029 A 
ATOM     18  N   UNL A   1      41.595  27.820  29.428  1.00  0.00    -0.354 N 
ATOM     19  C   UNL A   1      43.126  31.972  29.127  1.00  0.00     0.074 A 
ATOM     20  C   UNL A   1      42.299  32.941  29.796  1.00  0.00     0.031 C 
ATOM     21  C   UNL A   1      39.171  26.060  29.118  1.00  0.00     0.029 A 
ATOM     22  C   UNL A   1      41.073  26.249  28.711  1.00  0.00     0.049 A 
ATOM     23  H   UNL A   1      42.510  28.176  29.358  1.00  0.00     0.167 HD
ATOM     24  C   UNL A   1      44.320  32.309  28.579  1.00  0.00     0.037 A 
ATOM     25  C   UNL A   1      41.852  25.483  27.921  1.00  0.00     0.037 A 
ATOM     26  C   UNL A   1      45.169  31.380  27.894  1.00  0.00     0.049 A 
ATOM     27  C   UNL A   1      43.182  26.004  27.400  1.00  0.00     0.074 A 
ATOM     28  C   UNL A   1      46.418  31.603  27.347  1.00  0.00     0.029 A 
ATOM     29  N   UNL A   1      44.838  30.056  27.640  1.00  0.00    -0.354 N 
ATOM     30  N   UNL A   1      43.720  27.206  27.453  1.00  0.00    -0.248 NA
ATOM     31  C   UNL A   1      43.982  25.040  26.631  1.00  0.00     0.031 C 
ATOM     32  C   UNL A   1      46.802  30.439  26.678  1.00  0.00     0.029 A 
ATOM     33  C   UNL A   1      45.850  29.455  26.914  1.00  0.00     0.049 A 
ATOM     34  H   UNL A   1      44.008  29.611  27.931  1.00  0.00     0.167 HD
ATOM     35  C   UNL A   1      44.934  27.127  26.761  1.00  0.00     0.074 A 
ATOM     36  C   UNL A   1      45.042  25.759  26.295  1.00  0.00     0.031 C 
ATOM     37  C   UNL A   1      45.885  28.069  26.511  1.00  0.00     0.037 A 
BRANCH  24  38
ATOM     38  C   UNL A   1      44.769  33.754  28.698  1.00  0.00     0.064 A 
ATOM     39  C   UNL A   1      44.449  34.716  27.722  1.00  0.00     0.173 A 
ATOM     40  C   UNL A   1      45.548  34.182  29.786  1.00  0.00     0.173 A 
ATOM     41  F   UNL A   1      43.709  34.376  26.655  1.00  0.00    -0.203 F 
ATOM     42  C   UNL A   1      44.949  36.017  27.792  1.00  0.00     0.198 A 
ATOM     43  C   UNL A   1      46.006  35.496  29.878  1.00  0.00     0.198 A 
ATOM     44  F   UNL A   1      45.875  33.323  30.762  1.00  0.00    -0.203 F 
ATOM     45  F   UNL A   1      44.706  36.882  26.797  1.00  0.00    -0.200 F 
ATOM     46  C   UNL A   1      45.723  36.406  28.871  1.00  0.00     0.200 A 
ATOM     47  F   UNL A   1      46.736  35.878  30.936  1.00  0.00    -0.200 F 
ATOM     48  F   UNL A   1      46.210  37.654  28.935  1.00  0.00    -0.200 F 
ENDBRANCH  24  38
BRANCH  25  49
ATOM     49  C   UNL A   1      41.375  24.120  27.647  1.00  0.00     0.064 A 
ATOM     50  C   UNL A   1      40.324  23.919  26.737  1.00  0.00     0.173 A 
ATOM     51  C   UNL A   1      41.975  22.996  28.216  1.00  0.00     0.173 A 
ATOM     52  F   UNL A   1      39.703  24.973  26.184  1.00  0.00    -0.203 F 
ATOM     53  C   UNL A   1      39.889  22.639  26.413  1.00  0.00     0.198 A 
ATOM     54  C   UNL A   1      41.571  21.715  27.858  1.00  0.00     0.198 A 
ATOM     55  F   UNL A   1      42.980  23.144  29.092  1.00  0.00    -0.203 F 
ATOM     56  F   UNL A   1      38.859  22.475  25.573  1.00  0.00    -0.200 F 
ATOM     57  C   UNL A   1      40.525  21.537  26.963  1.00  0.00     0.200 A 
ATOM     58  F   UNL A   1      42.208  20.652  28.367  1.00  0.00    -0.200 F 
ATOM     59  F   UNL A   1      40.134  20.301  26.626  1.00  0.00    -0.200 F 
ENDBRANCH  25  49
BRANCH  37  60
ATOM     60  C   UNL A   1      47.145  27.617  25.809  1.00  0.00     0.064 A 
ATOM     61  C   UNL A   1      47.312  27.706  24.418  1.00  0.00     0.173 A 
ATOM     62  C   UNL A   1      48.224  27.121  26.563  1.00  0.00     0.173 A 
ATOM     63  F   UNL A   1      46.321  28.181  23.649  1.00  0.00    -0.203 F 
ATOM     64  C   UNL A   1      48.478  27.251  23.807  1.00  0.00     0.198 A 
ATOM     65  C   UNL A   1      49.408  26.719  25.953  1.00  0.00     0.198 A 
ATOM     66  F   UNL A   1      48.137  27.046  27.900  1.00  0.00    -0.203 F 
ATOM     67  F   UNL A   1      48.579  27.263  22.470  1.00  0.00    -0.200 F 
ATOM     68  C   UNL A   1      49.527  26.764  24.574  1.00  0.00     0.200 A 
ATOM     69  F   UNL A   1      50.431  26.284  26.702  1.00  0.00    -0.200 F 
ATOM     70  F   UNL A   1      50.647  26.327  23.983  1.00  0.00    -0.200 F 
ENDBRANCH  37  60
ENDBRANCH  11  12
ENDBRANCH   4   6
ENDBRANCH   3   4
ENDBRANCH   2   3
ENDBRANCH   1   2
BRANCH   1  71
ATOM     71  O   UNL A   1      33.107  34.901  30.811  1.00  0.00    -0.462 OA
BRANCH  71  72
ATOM     72  C   UNL A   1      33.232  35.483  29.577  1.00  0.00     0.311 C 
ATOM     73  O   UNL A   1      32.865  36.633  29.365  1.00  0.00    -0.252 OA
BRANCH  72  74
ATOM     74  C   UNL A   1      33.787  34.568  28.430  1.00  0.00     0.128 C 
ATOM     75  C   UNL A   1      35.169  33.955  28.545  1.00  0.00     0.117 C 
ATOM     76  C   UNL A   1      32.940  33.362  28.113  1.00  0.00     0.135 C 
ATOM     77  C   UNL A   1      35.073  32.517  27.992  1.00  0.00     0.223 C 
ATOM     78  N   UNL A   1      33.739  32.159  27.800  1.00  0.00    -0.341 N 
ATOM     79  O   UNL A   1      36.035  31.794  27.783  1.00  0.00    -0.275 OA
BRANCH  78  80
ATOM     80  C   UNL A   1      33.256  30.763  27.119  1.00  0.00     0.124 C 
BRANCH  80  81
ATOM     81  C   UNL A   1      34.230  29.112  26.816  1.00  0.00     0.057 C 
BRANCH  81  82
ATOM     82  C   UNL A   1      33.738  27.546  25.297  1.00  0.00    -0.042 A 
ATOM     83  C   UNL A   1      34.027  25.911  25.550  1.00  0.00     0.008 A 
ATOM     84  C   UNL A   1      33.248  27.535  23.893  1.00  0.00     0.054 A 
ATOM     85  C   UNL A   1      34.326  24.885  24.677  1.00  0.00     0.051 A 
ATOM     86  C   UNL A   1      33.328  26.343  23.074  1.00  0.00     0.166 A 
ATOM     87  C   UNL A   1      33.945  25.147  23.425  1.00  0.00     0.165 A 
ATOM     88  O   UNL A   1      32.764  26.171  21.826  1.00  0.00    -0.454 OA
ATOM     89  O   UNL A   1      33.976  24.197  22.457  1.00  0.00    -0.454 OA
ATOM     90  C   UNL A   1      32.980  24.749  21.597  1.00  0.00     0.468 C 
ENDBRANCH  81  82
ENDBRANCH  80  81
ENDBRANCH  78  80
ENDBRANCH  72  74
ENDBRANCH  71  72
ENDBRANCH   1  71
TORSDOF 14
ENDMDL
MODEL 2
REMARK VINA RESULT:     -13.4      5.827     11.669
REMARK SMILES O=C(OCCOC(=O)[C@H]1CC(=O)N(CCc2ccc3c(c2)OCO3)C1)c1ccc(-c2c3nc(c(-c4c(F)c(F)c(F)c(F)c4F)c4ccc([nH]4)c(-c4c(F)c(F)c(F)c(F)c4F)c4nc(c(-c5c(F)c(F)c(F)c(F)c5F)c5ccc2[nH]5)C=C4)C=C3)cc1
REMARK SMILES IDX 5 1 4 2 3 3 2 4 1 5 26 6 27 7 88 8 28 9 87 10 29 11 30 12
REMARK SMILES IDX 31 13 81 14 32 15 86 16 80 17 82 18 33 19 85 20 79 21 78 22
REMARK SMILES IDX 34 24 66 25 46 26 65 27 47 28 50 29 64 30 83 31 48 32 49 33
REMARK SMILES IDX 63 35 84 36 51 37 35 38 36 39 44 40 37 41 38 42 42 43 45 44
REMARK SMILES IDX 39 45 40 46 43 47 41 48 67 49 68 50 76 51 69 52 70 53 74 54
REMARK SMILES IDX 77 55 71 56 72 57 75 58 73 59 52 60 53 61 61 62 54 63 55 64
REMARK SMILES IDX 59 65 62 66 56 67 57 68 60 69 58 70 6 71 7 72 8 73 9 74
REMARK SMILES IDX 10 75 25 76 11 77 13 78 12 79 14 80 15 81 16 82 17 83 21 84
REMARK SMILES IDX 18 85 20 86 19 87 22 88 24 89 23 90
REMARK H PARENT 82 23 50 34
REMARK Flexibility Score: inf
ROOT
ATOM      1  C   UNL A   1      43.392  20.551  25.381  1.00  0.00     0.274 C 
ENDROOT
BRANCH   1   2
ATOM      2  C   UNL A   1      44.589  21.476  25.042  1.00  0.00     0.275 C 
BRANCH   2   3
ATOM      3  O   UNL A   1      44.703  22.647  25.853  1.00  0.00    -0.458 OA
BRANCH   3   4
ATOM      4  C   UNL A   1      44.501  23.925  25.470  1.00  0.00     0.338 C 
ATOM      5  O   UNL A   1      45.091  24.344  24.476  1.00  0.00    -0.246 OA
BRANCH   4   6
ATOM      6  C   UNL A   1      43.692  24.899  26.271  1.00  0.00     0.060 A 
ATOM      7  C   UNL A   1      42.628  24.582  27.117  1.00  0.00     0.016 A 
ATOM      8  C   UNL A   1      44.182  26.212  26.294  1.00  0.00     0.016 A 
ATOM      9  C   UNL A   1      42.254  25.427  28.137  1.00  0.00     0.010 A 
ATOM     10  C   UNL A   1      43.803  27.082  27.308  1.00  0.00     0.010 A 
ATOM     11  C   UNL A   1      42.872  26.658  28.260  1.00  0.00    -0.014 A 
BRANCH  11  12
ATOM     12  C   UNL A   1      42.225  27.534  29.216  1.00  0.00     0.031 A 
ATOM     13  C   UNL A   1      42.766  27.474  30.652  1.00  0.00     0.074 A 
ATOM     14  C   UNL A   1      41.317  28.430  28.742  1.00  0.00     0.049 A 
ATOM     15  N   UNL A   1      42.363  28.032  31.771  1.00  0.00    -0.248 NA
ATOM     16  C   UNL A   1      43.900  26.543  30.856  1.00  0.00     0.031 C 
ATOM     17  C   UNL A   1      39.983  28.273  27.272  1.00  0.00     0.029 A 
ATOM     18  N   UNL A   1      40.562  29.629  29.900  1.00  0.00    -0.354 N 
ATOM     19  C   UNL A   1      43.191  27.508  32.776  1.00  0.00     0.074 A 
ATOM     20  C   UNL A   1      44.016  26.500  32.167  1.00  0.00     0.031 C 
ATOM     21  C   UNL A   1      38.593  29.286  27.649  1.00  0.00     0.029 A 
ATOM     22  C   UNL A   1      38.953  30.213  29.330  1.00  0.00     0.049 A 
ATOM     23  H   UNL A   1      40.986  29.923  30.739  1.00  0.00     0.167 HD
ATOM     24  C   UNL A   1      43.322  27.843  34.084  1.00  0.00     0.037 A 
ATOM     25  C   UNL A   1      38.139  31.008  30.052  1.00  0.00     0.037 A 
ATOM     26  C   UNL A   1      42.513  28.831  34.734  1.00  0.00     0.049 A 
ATOM     27  C   UNL A   1      38.437  31.305  31.514  1.00  0.00     0.074 A 
ATOM     28  C   UNL A   1      42.595  29.284  36.036  1.00  0.00     0.029 A 
ATOM     29  N   UNL A   1      41.455  29.499  34.131  1.00  0.00    -0.354 N 
ATOM     30  N   UNL A   1      39.332  30.793  32.334  1.00  0.00    -0.248 NA
ATOM     31  C   UNL A   1      37.530  32.262  32.163  1.00  0.00     0.031 C 
ATOM     32  C   UNL A   1      41.525  30.156  36.250  1.00  0.00     0.029 A 
ATOM     33  C   UNL A   1      40.853  30.341  35.048  1.00  0.00     0.049 A 
ATOM     34  H   UNL A   1      41.175  29.390  33.193  1.00  0.00     0.167 HD
ATOM     35  C   UNL A   1      39.119  31.396  33.579  1.00  0.00     0.074 A 
ATOM     36  C   UNL A   1      38.004  32.304  33.399  1.00  0.00     0.031 C 
ATOM     37  C   UNL A   1      39.755  31.236  34.773  1.00  0.00     0.037 A 
BRANCH  24  38
ATOM     38  C   UNL A   1      44.381  27.122  34.895  1.00  0.00     0.064 A 
ATOM     39  C   UNL A   1      44.112  25.912  35.564  1.00  0.00     0.173 A 
ATOM     40  C   UNL A   1      45.675  27.652  35.029  1.00  0.00     0.173 A 
ATOM     41  F   UNL A   1      42.896  25.350  35.481  1.00  0.00    -0.203 F 
ATOM     42  C   UNL A   1      45.064  25.309  36.386  1.00  0.00     0.198 A 
ATOM     43  C   UNL A   1      46.641  27.020  35.813  1.00  0.00     0.198 A 
ATOM     44  F   UNL A   1      46.007  28.791  34.404  1.00  0.00    -0.203 F 
ATOM     45  F   UNL A   1      44.745  24.212  37.086  1.00  0.00    -0.200 F 
ATOM     46  C   UNL A   1      46.328  25.862  36.507  1.00  0.00     0.200 A 
ATOM     47  F   UNL A   1      47.871  27.544  35.910  1.00  0.00    -0.200 F 
ATOM     48  F   UNL A   1      47.241  25.286  37.303  1.00  0.00    -0.200 F 
ENDBRANCH  24  38
BRANCH  25  49
ATOM     49  C   UNL A   1      37.000  31.606  29.341  1.00  0.00     0.064 A 
ATOM     50  C   UNL A   1      35.881  30.817  29.028  1.00  0.00     0.173 A 
ATOM     51  C   UNL A   1      36.960  32.962  29.013  1.00  0.00     0.173 A 
ATOM     52  F   UNL A   1      35.887  29.503  29.304  1.00  0.00    -0.203 F 
ATOM     53  C   UNL A   1      34.766  31.367  28.408  1.00  0.00     0.198 A 
ATOM     54  C   UNL A   1      35.827  33.521  28.434  1.00  0.00     0.198 A 
ATOM     55  F   UNL A   1      38.009  33.750  29.292  1.00  0.00    -0.203 F 
ATOM     56  F   UNL A   1      33.727  30.586  28.085  1.00  0.00    -0.200 F 
ATOM     57  C   UNL A   1      34.734  32.724  28.126  1.00  0.00     0.200 A 
ATOM     58  F   UNL A   1      35.787  34.838  28.191  1.00  0.00    -0.200 F 
ATOM     59  F   UNL A   1      33.646  33.265  27.561  1.00  0.00    -0.200 F 
ENDBRANCH  25  49
BRANCH  37  60
ATOM     60  C   UNL A   1      39.331  32.133  35.913  1.00  0.00     0.064 A 
ATOM     61  C   UNL A   1      39.818  33.439  36.073  1.00  0.00     0.173 A 
ATOM     62  C   UNL A   1      38.379  31.676  36.842  1.00  0.00     0.173 A 
ATOM     63  F   UNL A   1      40.720  33.933  35.211  1.00  0.00    -0.203 F 
ATOM     64  C   UNL A   1      39.423  34.224  37.154  1.00  0.00     0.198 A 
ATOM     65  C   UNL A   1      37.946  32.482  37.889  1.00  0.00     0.198 A 
ATOM     66  F   UNL A   1      37.850  30.449  36.721  1.00  0.00    -0.203 F 
ATOM     67  F   UNL A   1      39.969  35.434  37.336  1.00  0.00    -0.200 F 
ATOM     68  C   UNL A   1      38.484  33.748  38.058  1.00  0.00     0.200 A 
ATOM     69  F   UNL A   1      37.011  32.032  38.738  1.00  0.00    -0.200 F 
ATOM     70  F   UNL A   1      38.106  34.504  39.097  1.00  0.00    -0.200 F 
ENDBRANCH  37  60
ENDBRANCH  11  12
ENDBRANCH   4   6
ENDBRANCH   3   4
ENDBRANCH   2   3
ENDBRANCH   1   2
BRANCH   1  71
ATOM     71  O   UNL A   1      42.122  21.175  25.778  1.00  0.00    -0.462 OA
BRANCH  71  72
ATOM     72  C   UNL A   1      41.044  20.392  26.098  1.00  0.00     0.311 C 
ATOM     73  O   UNL A   1      41.093  19.169  26.034  1.00  0.00    -0.252 OA
BRANCH  72  74
ATOM     74  C   UNL A   1      39.720  21.148  26.465  1.00  0.00     0.128 C 
ATOM     75  C   UNL A   1      39.763  22.606  26.880  1.00  0.00     0.117 C 
ATOM     76  C   UNL A   1      38.678  21.169  25.375  1.00  0.00     0.135 C 
ATOM     77  C   UNL A   1      38.547  23.298  26.229  1.00  0.00     0.223 C 
ATOM     78  N   UNL A   1      37.951  22.453  25.293  1.00  0.00    -0.341 N 
ATOM     79  O   UNL A   1      38.184  24.436  26.485  1.00  0.00    -0.275 OA
BRANCH  78  80
ATOM     80  C   UNL A   1      36.575  22.797  24.496  1.00  0.00     0.124 C 
BRANCH  80  81
ATOM     81  C   UNL A   1      34.780  22.102  24.736  1.00  0.00     0.057 C 
BRANCH  81  82
ATOM     82  C   UNL A   1      34.222  19.957  25.043  1.00  0.00    -0.042 A 
ATOM     83  C   UNL A   1      35.257  18.688  24.674  1.00  0.00     0.008 A 
ATOM     84  C   UNL A   1      32.997  19.219  25.447  1.00  0.00     0.054 A 
ATOM     85  C   UNL A   1      35.013  17.392  24.263  1.00  0.00     0.051 A 
ATOM     86  C   UNL A   1      32.876  17.789  25.249  1.00  0.00     0.166 A 
ATOM     87  C   UNL A   1      33.787  16.974  24.584  1.00  0.00     0.165 A 
ATOM     88  O   UNL A   1      31.864  16.981  25.726  1.00  0.00    -0.454 OA
ATOM     89  O   UNL A   1      33.416  15.678  24.439  1.00  0.00    -0.454 OA
ATOM     90  C   UNL A   1      32.373  15.652  25.413  1.00  0.00     0.468 C 
ENDBRANCH  81  82
ENDBRANCH  80  81
ENDBRANCH  78  80
ENDBRANCH  72  74
ENDBRANCH  71  72
ENDBRANCH   1  71
TORSDOF 14
ENDMDL
MODEL 3
REMARK VINA RESULT:     -13.3      5.436     11.447
REMARK SMILES O=C(OCCOC(=O)[C@H]1CC(=O)N(CCc2ccc3c(c2)OCO3)C1)c1ccc(-c2c3nc(c(-c4c(F)c(F)c(F)c(F)c4F)c4ccc([nH]4)c(-c4c(F)c(F)c(F)c(F)c4F)c4nc(c(-c5c(F)c(F)c(F)c(F)c5F)c5ccc2[nH]5)C=C4)C=C3)cc1
REMARK SMILES IDX 5 1 4 2 3 3 2 4 1 5 26 6 27 7 88 8 28 9 87 10 29 11 30 12
REMARK SMILES IDX 31 13 81 14 32 15 86 16 80 17 82 18 33 19 85 20 79 21 78 22
REMARK SMILES IDX 34 24 66 25 46 26 65 27 47 28 50 29 64 30 83 31 48 32 49 33
REMARK SMILES IDX 63 35 84 36 51 37 35 38 36 39 44 40 37 41 38 42 42 43 45 44
REMARK SMILES IDX 39 45 40 46 43 47 41 48 67 49 68 50 76 51 69 52 70 53 74 54
REMARK SMILES IDX 77 55 71 56 72 57 75 58 73 59 52 60 53 61 61 62 54 63 55 64
REMARK SMILES IDX 59 65 62 66 56 67 57 68 60 69 58 70 6 71 7 72 8 73 9 74
REMARK SMILES IDX 10 75 25 76 11 77 13 78 12 79 14 80 15 81 16 82 17 83 21 84
REMARK SMILES IDX 18 85 20 86 19 87 22 88 24 89 23 90
REMARK H PARENT 82 23 50 34
REMARK Flexibility Score: inf
ROOT
ATOM      1  C   UNL A   1      44.448  20.583  25.131  1.00  0.00     0.274 C 
ENDROOT
BRANCH   1   2
ATOM      2  C   UNL A   1      45.535  21.676  24.969  1.00  0.00     0.275 C 
BRANCH   2   3
ATOM      3  O   UNL A   1      45.358  22.838  25.782  1.00  0.00    -0.458 OA
BRANCH   3   4
ATOM      4  C   UNL A   1      45.036  24.081  25.366  1.00  0.00     0.338 C 
ATOM      5  O   UNL A   1      45.562  24.517  24.343  1.00  0.00    -0.246 OA
BRANCH   4   6
ATOM      6  C   UNL A   1      44.167  25.008  26.159  1.00  0.00     0.060 A 
ATOM      7  C   UNL A   1      43.124  24.632  27.007  1.00  0.00     0.016 A 
ATOM      8  C   UNL A   1      44.574  26.349  26.175  1.00  0.00     0.016 A 
ATOM      9  C   UNL A   1      42.696  25.458  28.020  1.00  0.00     0.010 A 
ATOM     10  C   UNL A   1      44.141  27.201  27.183  1.00  0.00     0.010 A 
ATOM     11  C   UNL A   1      43.237  26.726  28.137  1.00  0.00    -0.014 A 
BRANCH  11  12
ATOM     12  C   UNL A   1      42.535  27.566  29.085  1.00  0.00     0.031 A 
ATOM     13  C   UNL A   1      43.064  27.533  30.527  1.00  0.00     0.074 A 
ATOM     14  C   UNL A   1      41.586  28.414  28.603  1.00  0.00     0.049 A 
ATOM     15  N   UNL A   1      42.621  28.068  31.642  1.00  0.00    -0.248 NA
ATOM     16  C   UNL A   1      44.243  26.662  30.742  1.00  0.00     0.031 C 
ATOM     17  C   UNL A   1      40.278  28.189  27.119  1.00  0.00     0.029 A 
ATOM     18  N   UNL A   1      40.759  29.571  29.754  1.00  0.00    -0.354 N 
ATOM     19  C   UNL A   1      43.464  27.587  32.655  1.00  0.00     0.074 A 
ATOM     20  C   UNL A   1      44.347  26.624  32.054  1.00  0.00     0.031 C 
ATOM     21  C   UNL A   1      38.834  29.128  27.482  1.00  0.00     0.029 A 
ATOM     22  C   UNL A   1      39.128  30.072  29.168  1.00  0.00     0.049 A 
ATOM     23  H   UNL A   1      41.158  29.886  30.597  1.00  0.00     0.167 HD
ATOM     24  C   UNL A   1      43.564  27.928  33.965  1.00  0.00     0.037 A 
ATOM     25  C   UNL A   1      38.266  30.822  29.881  1.00  0.00     0.037 A 
ATOM     26  C   UNL A   1      42.699  28.872  34.607  1.00  0.00     0.049 A 
ATOM     27  C   UNL A   1      38.533  31.133  31.346  1.00  0.00     0.074 A 
ATOM     28  C   UNL A   1      42.743  29.327  35.910  1.00  0.00     0.029 A 
ATOM     29  N   UNL A   1      41.614  29.484  33.993  1.00  0.00    -0.354 N 
ATOM     30  N   UNL A   1      39.445  30.668  32.175  1.00  0.00    -0.248 NA
ATOM     31  C   UNL A   1      37.571  32.041  31.986  1.00  0.00     0.031 C 
ATOM     32  C   UNL A   1      41.627  30.142  36.114  1.00  0.00     0.029 A 
ATOM     33  C   UNL A   1      40.960  30.293  34.905  1.00  0.00     0.049 A 
ATOM     34  H   UNL A   1      41.349  29.361  33.053  1.00  0.00     0.167 HD
ATOM     35  C   UNL A   1      39.188  31.258  33.418  1.00  0.00     0.074 A 
ATOM     36  C   UNL A   1      38.030  32.107  33.227  1.00  0.00     0.031 C 
ATOM     37  C   UNL A   1      39.820  31.130  34.618  1.00  0.00     0.037 A 
BRANCH  24  38
ATOM     38  C   UNL A   1      44.651  27.261  34.787  1.00  0.00     0.064 A 
ATOM     39  C   UNL A   1      45.969  27.756  34.821  1.00  0.00     0.173 A 
ATOM     40  C   UNL A   1      44.385  26.101  35.533  1.00  0.00     0.173 A 
ATOM     41  F   UNL A   1      46.294  28.860  34.131  1.00  0.00    -0.203 F 
ATOM     42  C   UNL A   1      46.982  27.080  35.502  1.00  0.00     0.198 A 
ATOM     43  C   UNL A   1      45.390  25.454  36.252  1.00  0.00     0.198 A 
ATOM     44  F   UNL A   1      43.148  25.584  35.560  1.00  0.00    -0.203 F 
ATOM     45  F   UNL A   1      48.245  27.524  35.435  1.00  0.00    -0.200 F 
ATOM     46  C   UNL A   1      46.690  25.932  36.219  1.00  0.00     0.200 A 
ATOM     47  F   UNL A   1      45.101  24.356  36.965  1.00  0.00    -0.200 F 
ATOM     48  F   UNL A   1      47.666  25.278  36.867  1.00  0.00    -0.200 F 
ENDBRANCH  24  38
BRANCH  25  49
ATOM     49  C   UNL A   1      37.105  31.361  29.158  1.00  0.00     0.064 A 
ATOM     50  C   UNL A   1      36.007  30.530  28.883  1.00  0.00     0.173 A 
ATOM     51  C   UNL A   1      37.023  32.703  28.783  1.00  0.00     0.173 A 
ATOM     52  F   UNL A   1      36.054  29.227  29.206  1.00  0.00    -0.203 F 
ATOM     53  C   UNL A   1      34.872  31.024  28.253  1.00  0.00     0.198 A 
ATOM     54  C   UNL A   1      35.870  33.208  28.194  1.00  0.00     0.198 A 
ATOM     55  F   UNL A   1      38.050  33.531  29.025  1.00  0.00    -0.203 F 
ATOM     56  F   UNL A   1      33.854  30.202  27.967  1.00  0.00    -0.200 F 
ATOM     57  C   UNL A   1      34.798  32.368  27.923  1.00  0.00     0.200 A 
ATOM     58  F   UNL A   1      35.790  34.513  27.904  1.00  0.00    -0.200 F 
ATOM     59  F   UNL A   1      33.691  32.857  27.348  1.00  0.00    -0.200 F 
ENDBRANCH  25  49
BRANCH  37  60
ATOM     60  C   UNL A   1      39.338  32.002  35.754  1.00  0.00     0.064 A 
ATOM     61  C   UNL A   1      38.384  31.572  36.689  1.00  0.00     0.173 A 
ATOM     62  C   UNL A   1      39.882  33.288  35.926  1.00  0.00     0.173 A 
ATOM     63  F   UNL A   1      37.837  30.351  36.582  1.00  0.00    -0.203 F 
ATOM     64  C   UNL A   1      37.945  32.418  37.706  1.00  0.00     0.198 A 
ATOM     65  C   UNL A   1      39.481  34.108  36.975  1.00  0.00     0.198 A 
ATOM     66  F   UNL A   1      40.824  33.741  35.085  1.00  0.00    -0.203 F 
ATOM     67  F   UNL A   1      36.969  32.017  38.533  1.00  0.00    -0.200 F 
ATOM     68  C   UNL A   1      38.497  33.682  37.852  1.00  0.00     0.200 A 
ATOM     69  F   UNL A   1      40.044  35.314  37.133  1.00  0.00    -0.200 F 
ATOM     70  F   UNL A   1      38.073  34.493  38.830  1.00  0.00    -0.200 F 
ENDBRANCH  37  60
ENDBRANCH  11  12
ENDBRANCH   4   6
ENDBRANCH   3   4
ENDBRANCH   2   3
ENDBRANCH   1   2
BRANCH   1  71
ATOM     71  O   UNL A   1      43.336  20.841  26.057  1.00  0.00    -0.462 OA
BRANCH  71  72
ATOM     72  C   UNL A   1      42.192  20.090  25.980  1.00  0.00     0.311 C 
ATOM     73  O   UNL A   1      42.139  19.061  25.316  1.00  0.00    -0.252 OA
BRANCH  72  74
ATOM     74  C   UNL A   1      40.932  20.665  26.716  1.00  0.00     0.128 C 
ATOM     75  C   UNL A   1      40.973  22.051  27.330  1.00  0.00     0.117 C 
ATOM     76  C   UNL A   1      39.683  20.737  25.875  1.00  0.00     0.135 C 
ATOM     77  C   UNL A   1      39.606  22.710  27.050  1.00  0.00     0.223 C 
ATOM     78  N   UNL A   1      38.878  21.949  26.136  1.00  0.00    -0.341 N 
ATOM     79  O   UNL A   1      39.236  23.765  27.543  1.00  0.00    -0.275 OA
BRANCH  78  80
ATOM     80  C   UNL A   1      37.346  22.270  25.694  1.00  0.00     0.124 C 
BRANCH  80  81
ATOM     81  C   UNL A   1      36.563  23.890  24.968  1.00  0.00     0.057 C 
BRANCH  81  82
ATOM     82  C   UNL A   1      34.439  24.552  25.202  1.00  0.00    -0.042 A 
ATOM     83  C   UNL A   1      33.999  26.167  25.334  1.00  0.00     0.008 A 
ATOM     84  C   UNL A   1      33.126  23.882  25.396  1.00  0.00     0.054 A 
ATOM     85  C   UNL A   1      32.951  26.784  25.986  1.00  0.00     0.051 A 
ATOM     86  C   UNL A   1      31.957  24.621  25.827  1.00  0.00     0.166 A 
ATOM     87  C   UNL A   1      31.928  25.957  26.212  1.00  0.00     0.165 A 
ATOM     88  O   UNL A   1      30.664  24.141  25.884  1.00  0.00    -0.454 OA
ATOM     89  O   UNL A   1      30.734  26.410  26.668  1.00  0.00    -0.454 OA
ATOM     90  C   UNL A   1      29.911  25.355  26.170  1.00  0.00     0.468 C 
ENDBRANCH  81  82
ENDBRANCH  80  81
ENDBRANCH  78  80
ENDBRANCH  72  74
ENDBRANCH  71  72
ENDBRANCH   1  71
TORSDOF 14
ENDMDL
