MODEL 1
REMARK VINA RESULT:     -12.6      0.000      0.000
REMARK SMILES C[N@H+](Cc1ccc(C(=O)OCCOC(=O)c2ccc(-c3c4nc(c(-c5c(F)c(F)c(F)c(F)c5F)c5ccc([nH]5)c(-c5c(F)c(F)c(F)c(F)c5F)c5nc(c(-c6c(F)c(F)c(F)c(F)c6F)c6ccc3[nH]6)C=C5)C=C4)cc2)cc1)[C@H]1CC(C)(C)OC1(C)C
REMARK SMILES IDX 11 1 10 2 8 3 9 4 7 5 4 6 5 7 80 8 6 9 79 10 3 11 2 12 1 13
REMARK SMILES IDX 81 15 82 16 87 17 83 18 86 19 88 20 89 21 84 22 85 23 12 24
REMARK SMILES IDX 13 25 14 26 15 27 16 28 17 29 78 30 18 31 77 32 19 33 20 34
REMARK SMILES IDX 21 35 71 36 22 37 76 38 70 39 72 40 23 41 75 42 69 43 68 44
REMARK SMILES IDX 24 46 56 47 36 48 55 49 37 50 40 51 54 52 73 53 38 54 39 55
REMARK SMILES IDX 53 57 74 58 41 59 25 60 26 61 34 62 27 63 28 64 32 65 35 66
REMARK SMILES IDX 29 67 30 68 33 69 31 70 57 71 58 72 66 73 59 74 60 75 64 76
REMARK SMILES IDX 67 77 61 78 62 79 65 80 63 81 42 82 43 83 51 84 44 85 45 86
REMARK SMILES IDX 49 87 52 88 46 89 47 90 50 91 48 92
REMARK H PARENT 2 14 72 45 40 56
REMARK Flexibility Score: inf
ROOT
ATOM      1  C   UNL A   1      31.036  29.560  24.496  1.00  0.00     0.275 C 
ENDROOT
BRANCH   1   2
ATOM      2  O   UNL A   1      30.296  28.353  24.235  1.00  0.00    -0.458 OA
BRANCH   2   3
ATOM      3  C   UNL A   1      30.331  27.913  22.955  1.00  0.00     0.338 C 
ATOM      4  O   UNL A   1      29.878  28.486  21.976  1.00  0.00    -0.246 OA
BRANCH   3   5
ATOM      5  C   UNL A   1      31.114  26.661  22.858  1.00  0.00     0.060 A 
ATOM      6  C   UNL A   1      32.513  24.235  22.771  1.00  0.00     0.006 A 
ATOM      7  C   UNL A   1      31.185  24.264  23.206  1.00  0.00     0.010 A 
ATOM      8  C   UNL A   1      33.132  25.427  22.362  1.00  0.00     0.010 A 
ATOM      9  C   UNL A   1      30.506  25.474  23.283  1.00  0.00     0.016 A 
ATOM     10  C   UNL A   1      32.430  26.637  22.392  1.00  0.00     0.016 A 
BRANCH   6  11
ATOM     11  C   UNL A   1      33.279  22.929  22.839  1.00  0.00     0.299 C 
BRANCH  11  12
ATOM     12  N   UNL A   1      32.881  22.028  23.918  1.00  0.00    -0.329 N 
ATOM     13  C   UNL A   1      32.389  20.743  23.413  1.00  0.00     0.333 C 
ATOM     14  H   UNL A   1      32.100  22.528  24.343  1.00  0.00     0.348 HD
BRANCH  12  15
ATOM     15  C   UNL A   1      33.795  21.888  25.087  1.00  0.00     0.218 C 
ATOM     16  C   UNL A   1      35.196  21.315  24.773  1.00  0.00     0.103 C 
ATOM     17  C   UNL A   1      34.218  23.106  25.979  1.00  0.00     0.115 C 
ATOM     18  C   UNL A   1      36.122  22.532  24.710  1.00  0.00     0.069 C 
ATOM     19  O   UNL A   1      35.411  23.623  25.336  1.00  0.00    -0.363 OA
ATOM     20  C   UNL A   1      33.223  24.252  26.192  1.00  0.00     0.048 C 
ATOM     21  C   UNL A   1      34.591  22.628  27.408  1.00  0.00     0.048 C 
ATOM     22  C   UNL A   1      37.433  22.317  25.473  1.00  0.00     0.042 C 
ATOM     23  C   UNL A   1      36.488  22.889  23.266  1.00  0.00     0.042 C 
ENDBRANCH  12  15
ENDBRANCH  11  12
ENDBRANCH   6  11
ENDBRANCH   3   5
ENDBRANCH   2   3
ENDBRANCH   1   2
BRANCH   1  24
ATOM     24  C   UNL A   1      31.780  29.466  25.829  1.00  0.00     0.275 C 
BRANCH  24  25
ATOM     25  O   UNL A   1      32.992  30.242  25.791  1.00  0.00    -0.458 OA
BRANCH  25  26
ATOM     26  C   UNL A   1      33.189  31.070  26.842  1.00  0.00     0.338 C 
ATOM     27  O   UNL A   1      32.415  31.892  27.301  1.00  0.00    -0.246 OA
BRANCH  26  28
ATOM     28  C   UNL A   1      34.531  30.854  27.404  1.00  0.00     0.060 A 
ATOM     29  C   UNL A   1      34.917  29.571  27.778  1.00  0.00     0.016 A 
ATOM     30  C   UNL A   1      35.347  31.942  27.700  1.00  0.00     0.016 A 
ATOM     31  C   UNL A   1      36.063  29.377  28.548  1.00  0.00     0.010 A 
ATOM     32  C   UNL A   1      36.560  31.731  28.367  1.00  0.00     0.010 A 
ATOM     33  C   UNL A   1      36.919  30.451  28.831  1.00  0.00    -0.014 A 
BRANCH  33  34
ATOM     34  C   UNL A   1      38.180  30.262  29.610  1.00  0.00     0.031 A 
ATOM     35  C   UNL A   1      39.294  29.418  29.044  1.00  0.00     0.074 A 
ATOM     36  C   UNL A   1      38.325  30.803  30.836  1.00  0.00     0.049 A 
ATOM     37  N   UNL A   1      40.316  28.873  29.654  1.00  0.00    -0.248 NA
ATOM     38  C   UNL A   1      39.236  29.136  27.602  1.00  0.00     0.031 C 
ATOM     39  C   UNL A   1      37.372  31.697  31.493  1.00  0.00     0.029 A 
ATOM     40  N   UNL A   1      39.335  30.664  31.761  1.00  0.00    -0.354 N 
ATOM     41  C   UNL A   1      40.979  28.124  28.688  1.00  0.00     0.074 A 
ATOM     42  C   UNL A   1      40.251  28.295  27.448  1.00  0.00     0.031 C 
ATOM     43  C   UNL A   1      37.846  32.042  32.699  1.00  0.00     0.029 A 
ATOM     44  C   UNL A   1      39.080  31.307  32.949  1.00  0.00     0.049 A 
ATOM     45  H   UNL A   1      40.159  30.153  31.590  1.00  0.00     0.167 HD
ATOM     46  C   UNL A   1      42.087  27.358  28.832  1.00  0.00     0.037 A 
ATOM     47  C   UNL A   1      39.721  31.262  34.133  1.00  0.00     0.037 A 
ATOM     48  C   UNL A   1      42.843  27.247  30.053  1.00  0.00     0.049 A 
ATOM     49  C   UNL A   1      40.922  30.373  34.284  1.00  0.00     0.074 A 
ATOM     50  C   UNL A   1      43.988  26.509  30.297  1.00  0.00     0.029 A 
ATOM     51  N   UNL A   1      42.537  27.913  31.231  1.00  0.00    -0.354 N 
ATOM     52  N   UNL A   1      41.498  29.605  33.392  1.00  0.00    -0.248 NA
ATOM     53  C   UNL A   1      41.550  30.324  35.612  1.00  0.00     0.031 C 
ATOM     54  C   UNL A   1      44.356  26.700  31.633  1.00  0.00     0.029 A 
ATOM     55  C   UNL A   1      43.468  27.594  32.208  1.00  0.00     0.049 A 
ATOM     56  H   UNL A   1      41.773  28.521  31.354  1.00  0.00     0.167 HD
ATOM     57  C   UNL A   1      42.565  29.001  34.041  1.00  0.00     0.074 A 
ATOM     58  C   UNL A   1      42.562  29.494  35.402  1.00  0.00     0.031 C 
ATOM     59  C   UNL A   1      43.464  28.115  33.550  1.00  0.00     0.037 A 
BRANCH  46  60
ATOM     60  C   UNL A   1      42.535  26.541  27.653  1.00  0.00     0.064 A 
ATOM     61  C   UNL A   1      43.531  26.984  26.773  1.00  0.00     0.173 A 
ATOM     62  C   UNL A   1      41.988  25.266  27.434  1.00  0.00     0.173 A 
ATOM     63  F   UNL A   1      44.080  28.198  26.931  1.00  0.00    -0.203 F 
ATOM     64  C   UNL A   1      43.948  26.191  25.705  1.00  0.00     0.198 A 
ATOM     65  C   UNL A   1      42.425  24.465  26.384  1.00  0.00     0.198 A 
ATOM     66  F   UNL A   1      41.037  24.790  28.253  1.00  0.00    -0.203 F 
ATOM     67  F   UNL A   1      44.873  26.652  24.852  1.00  0.00    -0.200 F 
ATOM     68  C   UNL A   1      43.400  24.931  25.516  1.00  0.00     0.200 A 
ATOM     69  F   UNL A   1      41.905  23.242  26.213  1.00  0.00    -0.200 F 
ATOM     70  F   UNL A   1      43.810  24.166  24.494  1.00  0.00    -0.200 F 
ENDBRANCH  46  60
BRANCH  47  71
ATOM     71  C   UNL A   1      39.195  32.041  35.285  1.00  0.00     0.064 A 
ATOM     72  C   UNL A   1      38.427  31.424  36.281  1.00  0.00     0.173 A 
ATOM     73  C   UNL A   1      39.468  33.411  35.425  1.00  0.00     0.173 A 
ATOM     74  F   UNL A   1      38.114  30.124  36.176  1.00  0.00    -0.203 F 
ATOM     75  C   UNL A   1      37.948  32.147  37.372  1.00  0.00     0.198 A 
ATOM     76  C   UNL A   1      39.018  34.125  36.532  1.00  0.00     0.198 A 
ATOM     77  F   UNL A   1      40.197  34.049  34.498  1.00  0.00    -0.203 F 
ATOM     78  F   UNL A   1      37.187  31.542  38.292  1.00  0.00    -0.200 F 
ATOM     79  C   UNL A   1      38.254  33.495  37.502  1.00  0.00     0.200 A 
ATOM     80  F   UNL A   1      39.329  35.422  36.662  1.00  0.00    -0.200 F 
ATOM     81  F   UNL A   1      37.807  34.186  38.559  1.00  0.00    -0.200 F 
ENDBRANCH  47  71
BRANCH  59  82
ATOM     82  C   UNL A   1      44.559  27.664  34.468  1.00  0.00     0.064 A 
ATOM     83  C   UNL A   1      45.750  28.390  34.606  1.00  0.00     0.173 A 
ATOM     84  C   UNL A   1      44.383  26.524  35.267  1.00  0.00     0.173 A 
ATOM     85  F   UNL A   1      45.969  29.476  33.850  1.00  0.00    -0.203 F 
ATOM     86  C   UNL A   1      46.731  27.985  35.506  1.00  0.00     0.198 A 
ATOM     87  C   UNL A   1      45.355  26.136  36.183  1.00  0.00     0.198 A 
ATOM     88  F   UNL A   1      43.257  25.800  35.172  1.00  0.00    -0.203 F 
ATOM     89  F   UNL A   1      47.875  28.675  35.604  1.00  0.00    -0.200 F 
ATOM     90  C   UNL A   1      46.529  26.864  36.301  1.00  0.00     0.200 A 
ATOM     91  F   UNL A   1      45.154  25.059  36.956  1.00  0.00    -0.200 F 
ATOM     92  F   UNL A   1      47.469  26.484  37.176  1.00  0.00    -0.200 F 
ENDBRANCH  59  82
ENDBRANCH  33  34
ENDBRANCH  26  28
ENDBRANCH  25  26
ENDBRANCH  24  25
ENDBRANCH   1  24
TORSDOF 14
ENDMDL
MODEL 2
REMARK VINA RESULT:     -12.5      3.197      8.250
REMARK SMILES C[N@H+](Cc1ccc(C(=O)OCCOC(=O)c2ccc(-c3c4nc(c(-c5c(F)c(F)c(F)c(F)c5F)c5ccc([nH]5)c(-c5c(F)c(F)c(F)c(F)c5F)c5nc(c(-c6c(F)c(F)c(F)c(F)c6F)c6ccc3[nH]6)C=C5)C=C4)cc2)cc1)[C@H]1CC(C)(C)OC1(C)C
REMARK SMILES IDX 11 1 10 2 8 3 9 4 7 5 4 6 5 7 80 8 6 9 79 10 3 11 2 12 1 13
REMARK SMILES IDX 81 15 82 16 87 17 83 18 86 19 88 20 89 21 84 22 85 23 12 24
REMARK SMILES IDX 13 25 14 26 15 27 16 28 17 29 78 30 18 31 77 32 19 33 20 34
REMARK SMILES IDX 21 35 71 36 22 37 76 38 70 39 72 40 23 41 75 42 69 43 68 44
REMARK SMILES IDX 24 46 56 47 36 48 55 49 37 50 40 51 54 52 73 53 38 54 39 55
REMARK SMILES IDX 53 57 74 58 41 59 25 60 26 61 34 62 27 63 28 64 32 65 35 66
REMARK SMILES IDX 29 67 30 68 33 69 31 70 57 71 58 72 66 73 59 74 60 75 64 76
REMARK SMILES IDX 67 77 61 78 62 79 65 80 63 81 42 82 43 83 51 84 44 85 45 86
REMARK SMILES IDX 49 87 52 88 46 89 47 90 50 91 48 92
REMARK H PARENT 2 14 72 45 40 56
REMARK Flexibility Score: inf
ROOT
ATOM      1  C   UNL A   1      42.648  20.627  26.155  1.00  0.00     0.275 C 
ENDROOT
BRANCH   1   2
ATOM      2  O   UNL A   1      41.267  20.827  25.799  1.00  0.00    -0.458 OA
BRANCH   2   3
ATOM      3  C   UNL A   1      40.469  21.289  26.792  1.00  0.00     0.338 C 
ATOM      4  O   UNL A   1      40.722  21.290  27.987  1.00  0.00    -0.246 OA
BRANCH   3   5
ATOM      5  C   UNL A   1      39.256  21.923  26.230  1.00  0.00     0.060 A 
ATOM      6  C   UNL A   1      36.962  23.029  25.063  1.00  0.00     0.006 A 
ATOM      7  C   UNL A   1      37.297  21.693  24.823  1.00  0.00     0.010 A 
ATOM      8  C   UNL A   1      37.774  23.803  25.907  1.00  0.00     0.010 A 
ATOM      9  C   UNL A   1      38.455  21.159  25.373  1.00  0.00     0.016 A 
ATOM     10  C   UNL A   1      38.912  23.249  26.501  1.00  0.00     0.016 A 
BRANCH   6  11
ATOM     11  C   UNL A   1      35.779  23.631  24.333  1.00  0.00     0.299 C 
BRANCH  11  12
ATOM     12  N   UNL A   1      34.599  23.883  25.157  1.00  0.00    -0.329 N 
ATOM     13  C   UNL A   1      34.410  25.311  25.430  1.00  0.00     0.333 C 
ATOM     14  H   UNL A   1      34.840  23.417  26.031  1.00  0.00     0.348 HD
BRANCH  12  15
ATOM     15  C   UNL A   1      33.333  23.180  24.802  1.00  0.00     0.218 C 
ATOM     16  C   UNL A   1      33.488  21.960  23.866  1.00  0.00     0.103 C 
ATOM     17  C   UNL A   1      32.386  22.550  25.881  1.00  0.00     0.115 C 
ATOM     18  C   UNL A   1      33.431  20.740  24.788  1.00  0.00     0.069 C 
ATOM     19  O   UNL A   1      32.881  21.196  26.044  1.00  0.00    -0.363 OA
ATOM     20  C   UNL A   1      32.279  23.217  27.257  1.00  0.00     0.048 C 
ATOM     21  C   UNL A   1      30.929  22.486  25.352  1.00  0.00     0.048 C 
ATOM     22  C   UNL A   1      32.523  19.631  24.245  1.00  0.00     0.042 C 
ATOM     23  C   UNL A   1      34.819  20.127  25.001  1.00  0.00     0.042 C 
ENDBRANCH  12  15
ENDBRANCH  11  12
ENDBRANCH   6  11
ENDBRANCH   3   5
ENDBRANCH   2   3
ENDBRANCH   1   2
BRANCH   1  24
ATOM     24  C   UNL A   1      43.553  21.591  25.387  1.00  0.00     0.275 C 
BRANCH  24  25
ATOM     25  O   UNL A   1      42.838  22.791  25.038  1.00  0.00    -0.458 OA
BRANCH  25  26
ATOM     26  C   UNL A   1      43.578  23.921  24.996  1.00  0.00     0.338 C 
ATOM     27  O   UNL A   1      44.572  24.141  24.324  1.00  0.00    -0.246 OA
BRANCH  26  28
ATOM     28  C   UNL A   1      43.016  24.923  25.915  1.00  0.00     0.060 A 
ATOM     29  C   UNL A   1      43.312  26.268  25.724  1.00  0.00     0.016 A 
ATOM     30  C   UNL A   1      42.321  24.516  27.051  1.00  0.00     0.016 A 
ATOM     31  C   UNL A   1      43.016  27.201  26.717  1.00  0.00     0.010 A 
ATOM     32  C   UNL A   1      41.916  25.472  27.989  1.00  0.00     0.010 A 
ATOM     33  C   UNL A   1      42.288  26.824  27.853  1.00  0.00    -0.014 A 
BRANCH  33  34
ATOM     34  C   UNL A   1      41.914  27.814  28.908  1.00  0.00     0.031 A 
ATOM     35  C   UNL A   1      42.744  27.928  30.161  1.00  0.00     0.074 A 
ATOM     36  C   UNL A   1      40.815  28.584  28.777  1.00  0.00     0.049 A 
ATOM     37  N   UNL A   1      42.443  28.473  31.313  1.00  0.00    -0.248 NA
ATOM     38  C   UNL A   1      44.088  27.331  30.115  1.00  0.00     0.031 C 
ATOM     39  C   UNL A   1      39.948  28.641  27.601  1.00  0.00     0.029 A 
ATOM     40  N   UNL A   1      40.228  29.463  29.660  1.00  0.00    -0.354 N 
ATOM     41  C   UNL A   1      43.525  28.220  32.148  1.00  0.00     0.074 A 
ATOM     42  C   UNL A   1      44.497  27.484  31.368  1.00  0.00     0.031 C 
ATOM     43  C   UNL A   1      38.957  29.517  27.822  1.00  0.00     0.029 A 
ATOM     44  C   UNL A   1      39.052  29.999  29.195  1.00  0.00     0.049 A 
ATOM     45  H   UNL A   1      40.613  29.684  30.538  1.00  0.00     0.167 HD
ATOM     46  C   UNL A   1      43.681  28.564  33.449  1.00  0.00     0.037 A 
ATOM     47  C   UNL A   1      38.113  30.739  29.816  1.00  0.00     0.037 A 
ATOM     48  C   UNL A   1      42.738  29.354  34.197  1.00  0.00     0.049 A 
ATOM     49  C   UNL A   1      38.285  31.074  31.270  1.00  0.00     0.074 A 
ATOM     50  C   UNL A   1      42.811  29.769  35.515  1.00  0.00     0.029 A 
ATOM     51  N   UNL A   1      41.557  29.866  33.682  1.00  0.00    -0.354 N 
ATOM     52  N   UNL A   1      39.269  30.764  32.077  1.00  0.00    -0.248 NA
ATOM     53  C   UNL A   1      37.204  31.840  31.908  1.00  0.00     0.031 C 
ATOM     54  C   UNL A   1      41.657  30.503  35.809  1.00  0.00     0.029 A 
ATOM     55  C   UNL A   1      40.888  30.586  34.660  1.00  0.00     0.049 A 
ATOM     56  H   UNL A   1      41.240  29.738  32.759  1.00  0.00     0.167 HD
ATOM     57  C   UNL A   1      38.940  31.314  33.308  1.00  0.00     0.074 A 
ATOM     58  C   UNL A   1      37.667  31.982  33.142  1.00  0.00     0.031 C 
ATOM     59  C   UNL A   1      39.634  31.266  34.470  1.00  0.00     0.037 A 
BRANCH  46  60
ATOM     60  C   UNL A   1      44.899  28.057  34.168  1.00  0.00     0.064 A 
ATOM     61  C   UNL A   1      46.127  28.728  34.122  1.00  0.00     0.173 A 
ATOM     62  C   UNL A   1      44.813  26.900  34.962  1.00  0.00     0.173 A 
ATOM     63  F   UNL A   1      46.266  29.831  33.372  1.00  0.00    -0.203 F 
ATOM     64  C   UNL A   1      47.232  28.249  34.825  1.00  0.00     0.198 A 
ATOM     65  C   UNL A   1      45.910  26.440  35.684  1.00  0.00     0.198 A 
ATOM     66  F   UNL A   1      43.658  26.224  35.048  1.00  0.00    -0.203 F 
ATOM     67  F   UNL A   1      48.409  28.885  34.734  1.00  0.00    -0.200 F 
ATOM     68  C   UNL A   1      47.121  27.112  35.611  1.00  0.00     0.200 A 
ATOM     69  F   UNL A   1      45.796  25.350  36.455  1.00  0.00    -0.200 F 
ATOM     70  F   UNL A   1      48.182  26.660  36.293  1.00  0.00    -0.200 F 
ENDBRANCH  46  60
BRANCH  47  71
ATOM     71  C   UNL A   1      36.896  31.159  29.072  1.00  0.00     0.064 A 
ATOM     72  C   UNL A   1      35.879  30.241  28.777  1.00  0.00     0.173 A 
ATOM     73  C   UNL A   1      36.714  32.490  28.662  1.00  0.00     0.173 A 
ATOM     74  F   UNL A   1      36.020  28.954  29.122  1.00  0.00    -0.203 F 
ATOM     75  C   UNL A   1      34.729  30.636  28.096  1.00  0.00     0.198 A 
ATOM     76  C   UNL A   1      35.550  32.890  28.011  1.00  0.00     0.198 A 
ATOM     77  F   UNL A   1      37.658  33.407  28.918  1.00  0.00    -0.203 F 
ATOM     78  F   UNL A   1      33.788  29.732  27.795  1.00  0.00    -0.200 F 
ATOM     79  C   UNL A   1      34.560  31.963  27.725  1.00  0.00     0.200 A 
ATOM     80  F   UNL A   1      35.384  34.175  27.668  1.00  0.00    -0.200 F 
ATOM     81  F   UNL A   1      33.447  32.344  27.084  1.00  0.00    -0.200 F 
ENDBRANCH  47  71
BRANCH  59  82
ATOM     82  C   UNL A   1      39.064  32.004  35.643  1.00  0.00     0.064 A 
ATOM     83  C   UNL A   1      38.248  31.367  36.588  1.00  0.00     0.173 A 
ATOM     84  C   UNL A   1      39.396  33.350  35.856  1.00  0.00     0.173 A 
ATOM     85  F   UNL A   1      37.892  30.085  36.417  1.00  0.00    -0.203 F 
ATOM     86  C   UNL A   1      37.776  32.056  37.702  1.00  0.00     0.198 A 
ATOM     87  C   UNL A   1      38.941  34.029  36.983  1.00  0.00     0.198 A 
ATOM     88  F   UNL A   1      40.178  34.000  34.981  1.00  0.00    -0.203 F 
ATOM     89  F   UNL A   1      36.974  31.439  38.579  1.00  0.00    -0.200 F 
ATOM     90  C   UNL A   1      38.131  33.383  37.903  1.00  0.00     0.200 A 
ATOM     91  F   UNL A   1      39.293  35.308  37.180  1.00  0.00    -0.200 F 
ATOM     92  F   UNL A   1      37.686  34.040  38.983  1.00  0.00    -0.200 F 
ENDBRANCH  59  82
ENDBRANCH  33  34
ENDBRANCH  26  28
ENDBRANCH  25  26
ENDBRANCH  24  25
ENDBRANCH   1  24
TORSDOF 14
ENDMDL
MODEL 3
REMARK VINA RESULT:     -12.4      0.486      1.737
REMARK SMILES C[N@H+](Cc1ccc(C(=O)OCCOC(=O)c2ccc(-c3c4nc(c(-c5c(F)c(F)c(F)c(F)c5F)c5ccc([nH]5)c(-c5c(F)c(F)c(F)c(F)c5F)c5nc(c(-c6c(F)c(F)c(F)c(F)c6F)c6ccc3[nH]6)C=C5)C=C4)cc2)cc1)[C@H]1CC(C)(C)OC1(C)C
REMARK SMILES IDX 11 1 10 2 8 3 9 4 7 5 4 6 5 7 80 8 6 9 79 10 3 11 2 12 1 13
REMARK SMILES IDX 81 15 82 16 87 17 83 18 86 19 88 20 89 21 84 22 85 23 12 24
REMARK SMILES IDX 13 25 14 26 15 27 16 28 17 29 78 30 18 31 77 32 19 33 20 34
REMARK SMILES IDX 21 35 71 36 22 37 76 38 70 39 72 40 23 41 75 42 69 43 68 44
REMARK SMILES IDX 24 46 56 47 36 48 55 49 37 50 40 51 54 52 73 53 38 54 39 55
REMARK SMILES IDX 53 57 74 58 41 59 25 60 26 61 34 62 27 63 28 64 32 65 35 66
REMARK SMILES IDX 29 67 30 68 33 69 31 70 57 71 58 72 66 73 59 74 60 75 64 76
REMARK SMILES IDX 67 77 61 78 62 79 65 80 63 81 42 82 43 83 51 84 44 85 45 86
REMARK SMILES IDX 49 87 52 88 46 89 47 90 50 91 48 92
REMARK H PARENT 2 14 72 45 40 56
REMARK Flexibility Score: inf
ROOT
ATOM      1  C   UNL A   1      31.353  29.112  25.000  1.00  0.00     0.275 C 
ENDROOT
BRANCH   1   2
ATOM      2  O   UNL A   1      31.830  29.098  23.642  1.00  0.00    -0.458 OA
BRANCH   2   3
ATOM      3  C   UNL A   1      31.143  28.299  22.790  1.00  0.00     0.338 C 
ATOM      4  O   UNL A   1      30.282  28.650  21.998  1.00  0.00    -0.246 OA
BRANCH   3   5
ATOM      5  C   UNL A   1      31.657  26.913  22.851  1.00  0.00     0.060 A 
ATOM      6  C   UNL A   1      32.736  24.328  22.884  1.00  0.00     0.006 A 
ATOM      7  C   UNL A   1      33.561  25.429  22.636  1.00  0.00     0.010 A 
ATOM      8  C   UNL A   1      31.370  24.530  23.133  1.00  0.00     0.010 A 
ATOM      9  C   UNL A   1      33.015  26.706  22.583  1.00  0.00     0.016 A 
ATOM     10  C   UNL A   1      30.832  25.821  23.131  1.00  0.00     0.016 A 
BRANCH   6  11
ATOM     11  C   UNL A   1      33.325  22.934  22.787  1.00  0.00     0.299 C 
BRANCH  11  12
ATOM     12  N   UNL A   1      32.818  21.973  23.764  1.00  0.00    -0.329 N 
ATOM     13  C   UNL A   1      32.256  20.780  23.126  1.00  0.00     0.333 C 
ATOM     14  H   UNL A   1      32.059  22.492  24.205  1.00  0.00     0.348 HD
BRANCH  12  15
ATOM     15  C   UNL A   1      33.671  21.661  24.946  1.00  0.00     0.218 C 
ATOM     16  C   UNL A   1      35.101  21.168  24.626  1.00  0.00     0.103 C 
ATOM     17  C   UNL A   1      34.013  22.725  26.045  1.00  0.00     0.115 C 
ATOM     18  C   UNL A   1      35.997  22.394  24.813  1.00  0.00     0.069 C 
ATOM     19  O   UNL A   1      35.227  23.358  25.564  1.00  0.00    -0.363 OA
ATOM     20  C   UNL A   1      32.980  23.806  26.382  1.00  0.00     0.048 C 
ATOM     21  C   UNL A   1      34.320  22.028  27.398  1.00  0.00     0.048 C 
ATOM     22  C   UNL A   1      37.270  22.079  25.606  1.00  0.00     0.042 C 
ATOM     23  C   UNL A   1      36.433  22.986  23.469  1.00  0.00     0.042 C 
ENDBRANCH  12  15
ENDBRANCH  11  12
ENDBRANCH   6  11
ENDBRANCH   3   5
ENDBRANCH   2   3
ENDBRANCH   1   2
BRANCH   1  24
ATOM     24  C   UNL A   1      31.735  30.418  25.697  1.00  0.00     0.275 C 
BRANCH  24  25
ATOM     25  O   UNL A   1      32.845  30.212  26.591  1.00  0.00    -0.458 OA
BRANCH  25  26
ATOM     26  C   UNL A   1      33.344  31.327  27.170  1.00  0.00     0.338 C 
ATOM     27  O   UNL A   1      32.815  32.422  27.265  1.00  0.00    -0.246 OA
BRANCH  26  28
ATOM     28  C   UNL A   1      34.686  31.055  27.707  1.00  0.00     0.060 A 
ATOM     29  C   UNL A   1      35.029  29.755  28.062  1.00  0.00     0.016 A 
ATOM     30  C   UNL A   1      35.548  32.108  28.000  1.00  0.00     0.016 A 
ATOM     31  C   UNL A   1      36.180  29.510  28.810  1.00  0.00     0.010 A 
ATOM     32  C   UNL A   1      36.762  31.844  28.643  1.00  0.00     0.010 A 
ATOM     33  C   UNL A   1      37.081  30.547  29.088  1.00  0.00    -0.014 A 
BRANCH  33  34
ATOM     34  C   UNL A   1      38.346  30.302  29.843  1.00  0.00     0.031 A 
ATOM     35  C   UNL A   1      39.397  29.384  29.272  1.00  0.00     0.074 A 
ATOM     36  C   UNL A   1      38.551  30.859  31.054  1.00  0.00     0.049 A 
ATOM     37  N   UNL A   1      40.401  28.794  29.871  1.00  0.00    -0.248 NA
ATOM     38  C   UNL A   1      39.291  29.076  27.837  1.00  0.00     0.031 C 
ATOM     39  C   UNL A   1      37.665  31.818  31.712  1.00  0.00     0.029 A 
ATOM     40  N   UNL A   1      39.572  30.681  31.960  1.00  0.00    -0.354 N 
ATOM     41  C   UNL A   1      40.998  27.989  28.907  1.00  0.00     0.074 A 
ATOM     42  C   UNL A   1      40.253  28.176  27.680  1.00  0.00     0.031 C 
ATOM     43  C   UNL A   1      38.185  32.160  32.899  1.00  0.00     0.029 A 
ATOM     44  C   UNL A   1      39.381  31.361  33.138  1.00  0.00     0.049 A 
ATOM     45  H   UNL A   1      40.361  30.121  31.781  1.00  0.00     0.167 HD
ATOM     46  C   UNL A   1      42.064  27.164  29.043  1.00  0.00     0.037 A 
ATOM     47  C   UNL A   1      40.045  31.304  34.309  1.00  0.00     0.037 A 
ATOM     48  C   UNL A   1      42.840  27.035  30.250  1.00  0.00     0.049 A 
ATOM     49  C   UNL A   1      41.198  30.351  34.453  1.00  0.00     0.074 A 
ATOM     50  C   UNL A   1      43.946  26.238  30.485  1.00  0.00     0.029 A 
ATOM     51  N   UNL A   1      42.599  27.741  31.419  1.00  0.00    -0.354 N 
ATOM     52  N   UNL A   1      41.708  29.533  33.565  1.00  0.00    -0.248 NA
ATOM     53  C   UNL A   1      41.852  30.294  35.768  1.00  0.00     0.031 C 
ATOM     54  C   UNL A   1      44.355  26.435  31.808  1.00  0.00     0.029 A 
ATOM     55  C   UNL A   1      43.533  27.389  32.382  1.00  0.00     0.049 A 
ATOM     56  H   UNL A   1      41.875  28.394  31.546  1.00  0.00     0.167 HD
ATOM     57  C   UNL A   1      42.754  28.883  34.204  1.00  0.00     0.074 A 
ATOM     58  C   UNL A   1      42.811  29.403  35.553  1.00  0.00     0.031 C 
ATOM     59  C   UNL A   1      43.590  27.937  33.713  1.00  0.00     0.037 A 
BRANCH  46  60
ATOM     60  C   UNL A   1      42.437  26.299  27.873  1.00  0.00     0.064 A 
ATOM     61  C   UNL A   1      41.788  25.088  27.602  1.00  0.00     0.173 A 
ATOM     62  C   UNL A   1      43.434  26.723  26.977  1.00  0.00     0.173 A 
ATOM     63  F   UNL A   1      40.836  24.632  28.430  1.00  0.00    -0.203 F 
ATOM     64  C   UNL A   1      42.136  24.322  26.490  1.00  0.00     0.198 A 
ATOM     65  C   UNL A   1      43.760  25.970  25.854  1.00  0.00     0.198 A 
ATOM     66  F   UNL A   1      44.081  27.880  27.185  1.00  0.00    -0.203 F 
ATOM     67  F   UNL A   1      41.530  23.146  26.273  1.00  0.00    -0.200 F 
ATOM     68  C   UNL A   1      43.115  24.767  25.614  1.00  0.00     0.200 A 
ATOM     69  F   UNL A   1      44.695  26.410  25.001  1.00  0.00    -0.200 F 
ATOM     70  F   UNL A   1      43.441  24.032  24.541  1.00  0.00    -0.200 F 
ENDBRANCH  46  60
BRANCH  47  71
ATOM     71  C   UNL A   1      39.591  32.135  35.455  1.00  0.00     0.064 A 
ATOM     72  C   UNL A   1      38.655  31.644  36.375  1.00  0.00     0.173 A 
ATOM     73  C   UNL A   1      40.100  33.426  35.667  1.00  0.00     0.173 A 
ATOM     74  F   UNL A   1      38.119  30.428  36.199  1.00  0.00    -0.203 F 
ATOM     75  C   UNL A   1      38.242  32.414  37.461  1.00  0.00     0.198 A 
ATOM     76  C   UNL A   1      39.711  34.182  36.770  1.00  0.00     0.198 A 
ATOM     77  F   UNL A   1      40.997  33.944  34.815  1.00  0.00    -0.203 F 
ATOM     78  F   UNL A   1      37.320  31.935  38.306  1.00  0.00    -0.200 F 
ATOM     79  C   UNL A   1      38.779  33.677  37.664  1.00  0.00     0.200 A 
ATOM     80  F   UNL A   1      40.244  35.394  36.971  1.00  0.00    -0.200 F 
ATOM     81  F   UNL A   1      38.392  34.410  38.716  1.00  0.00    -0.200 F 
ENDBRANCH  47  71
BRANCH  59  82
ATOM     82  C   UNL A   1      44.678  27.443  34.616  1.00  0.00     0.064 A 
ATOM     83  C   UNL A   1      44.486  26.348  35.471  1.00  0.00     0.173 A 
ATOM     84  C   UNL A   1      45.950  28.034  34.574  1.00  0.00     0.173 A 
ATOM     85  F   UNL A   1      43.283  25.762  35.556  1.00  0.00    -0.203 F 
ATOM     86  C   UNL A   1      45.527  25.870  36.260  1.00  0.00     0.198 A 
ATOM     87  C   UNL A   1      46.995  27.537  35.347  1.00  0.00     0.198 A 
ATOM     88  F   UNL A   1      46.182  29.081  33.768  1.00  0.00    -0.203 F 
ATOM     89  F   UNL A   1      45.317  24.841  37.092  1.00  0.00    -0.200 F 
ATOM     90  C   UNL A   1      46.783  26.458  36.191  1.00  0.00     0.200 A 
ATOM     91  F   UNL A   1      48.209  28.101  35.272  1.00  0.00    -0.200 F 
ATOM     92  F   UNL A   1      47.787  25.986  36.942  1.00  0.00    -0.200 F 
ENDBRANCH  59  82
ENDBRANCH  33  34
ENDBRANCH  26  28
ENDBRANCH  25  26
ENDBRANCH  24  25
ENDBRANCH   1  24
TORSDOF 14
ENDMDL
