MODEL 1
REMARK VINA RESULT:     -10.8      0.000      0.000
REMARK SMILES CC[C@@H](C)CN(CC)C(=O)N1CC[C@@](CC)(C(=O)OCCOC(=O)c2ccc(-c3c4nc(c(-c5c(F)c(F)c(F)c(F)c5F)c5ccc([nH]5)c(-c5c(F)c(F)c(F)c(F)c5F)c5nc(c(-c6c(F)c(F)c(F)c(F)c6F)c6ccc3[nH]6)C=C5)C=C4)cc2)C1
REMARK SMILES IDX 19 1 17 2 18 3 14 4 11 5 12 6 88 7 13 8 9 9 10 10 6 11 5 12
REMARK SMILES IDX 3 13 4 14 2 15 1 16 7 17 8 18 15 19 16 20 20 21 21 22 22 23
REMARK SMILES IDX 23 24 24 25 25 26 26 27 87 28 27 29 86 30 28 31 29 32 30 33
REMARK SMILES IDX 80 34 31 35 85 36 79 37 81 38 32 39 84 40 78 41 77 42 33 44
REMARK SMILES IDX 65 45 45 46 64 47 46 48 49 49 63 50 82 51 47 52 48 53 62 55
REMARK SMILES IDX 83 56 50 57 34 58 35 59 43 60 36 61 37 62 41 63 44 64 38 65
REMARK SMILES IDX 39 66 42 67 40 68 66 69 67 70 75 71 68 72 69 73 73 74 76 75
REMARK SMILES IDX 70 76 71 77 74 78 72 79 51 80 52 81 60 82 53 83 54 84 58 85
REMARK SMILES IDX 61 86 55 87 56 88 59 89 57 90
REMARK H PARENT 81 43 49 54
REMARK Flexibility Score: inf
ROOT
ATOM      1  O   UNL A   1      31.943  28.134  25.991  1.00  0.00    -0.462 OA
ENDROOT
BRANCH   1   2
ATOM      2  C   UNL A   1      31.022  27.168  25.723  1.00  0.00     0.314 C 
ATOM      3  O   UNL A   1      30.501  26.455  26.572  1.00  0.00    -0.252 OA
BRANCH   2   4
ATOM      4  C   UNL A   1      30.788  26.981  24.221  1.00  0.00     0.087 C 
ATOM      5  N   UNL A   1      32.063  25.286  23.066  1.00  0.00    -0.323 N 
ATOM      6  C   UNL A   1      30.920  24.633  23.670  1.00  0.00     0.122 C 
ATOM      7  C   UNL A   1      32.137  26.666  23.539  1.00  0.00     0.140 C 
ATOM      8  C   UNL A   1      29.919  25.765  23.840  1.00  0.00     0.042 C 
BRANCH   5   9
ATOM      9  C   UNL A   1      33.228  24.644  22.720  1.00  0.00     0.320 C 
ATOM     10  O   UNL A   1      33.468  24.415  21.537  1.00  0.00    -0.248 OA
BRANCH   9  11
ATOM     11  N   UNL A   1      34.058  24.172  23.717  1.00  0.00    -0.325 N 
BRANCH  11  12
ATOM     12  C   UNL A   1      34.563  22.791  23.597  1.00  0.00     0.124 C 
BRANCH  12  13
ATOM     13  C   UNL A   1      35.761  22.446  24.531  1.00  0.00     0.005 C 
ATOM     14  C   UNL A   1      37.013  22.224  23.672  1.00  0.00     0.009 C 
BRANCH  13  15
ATOM     15  C   UNL A   1      35.465  21.212  25.417  1.00  0.00     0.002 C 
ATOM     16  C   UNL A   1      34.537  20.163  24.821  1.00  0.00     0.004 C 
ENDBRANCH  13  15
ENDBRANCH  12  13
ENDBRANCH  11  12
BRANCH  11  17
ATOM     17  C   UNL A   1      34.453  24.909  24.916  1.00  0.00     0.118 C 
ATOM     18  C   UNL A   1      33.620  24.485  26.122  1.00  0.00     0.027 C 
ENDBRANCH  11  17
ENDBRANCH   9  11
ENDBRANCH   5   9
BRANCH   4  19
ATOM     19  C   UNL A   1      30.213  28.309  23.681  1.00  0.00     0.017 C 
ATOM     20  C   UNL A   1      31.024  28.928  22.550  1.00  0.00     0.005 C 
ENDBRANCH   4  19
ENDBRANCH   2   4
ENDBRANCH   1   2
BRANCH   1  21
ATOM     21  C   UNL A   1      31.744  28.920  27.187  1.00  0.00     0.274 C 
BRANCH  21  22
ATOM     22  C   UNL A   1      31.667  30.403  26.837  1.00  0.00     0.275 C 
BRANCH  22  23
ATOM     23  O   UNL A   1      32.994  30.854  26.528  1.00  0.00    -0.458 OA
BRANCH  23  24
ATOM     24  C   UNL A   1      33.495  31.851  27.288  1.00  0.00     0.338 C 
ATOM     25  O   UNL A   1      32.955  32.911  27.569  1.00  0.00    -0.246 OA
BRANCH  24  26
ATOM     26  C   UNL A   1      34.822  31.443  27.791  1.00  0.00     0.060 A 
ATOM     27  C   UNL A   1      35.052  30.106  28.099  1.00  0.00     0.016 A 
ATOM     28  C   UNL A   1      35.807  32.392  28.063  1.00  0.00     0.016 A 
ATOM     29  C   UNL A   1      36.219  29.733  28.756  1.00  0.00     0.010 A 
ATOM     30  C   UNL A   1      37.018  31.994  28.651  1.00  0.00     0.010 A 
ATOM     31  C   UNL A   1      37.221  30.663  29.057  1.00  0.00    -0.014 A 
BRANCH  31  32
ATOM     32  C   UNL A   1      38.412  30.242  29.863  1.00  0.00     0.031 A 
ATOM     33  C   UNL A   1      39.481  29.366  29.258  1.00  0.00     0.074 A 
ATOM     34  C   UNL A   1      38.590  30.683  31.126  1.00  0.00     0.049 A 
ATOM     35  N   UNL A   1      40.476  28.742  29.844  1.00  0.00    -0.248 NA
ATOM     36  C   UNL A   1      39.409  29.134  27.809  1.00  0.00     0.031 C 
ATOM     37  C   UNL A   1      37.685  31.575  31.851  1.00  0.00     0.029 A 
ATOM     38  N   UNL A   1      39.614  30.462  32.018  1.00  0.00    -0.354 N 
ATOM     39  C   UNL A   1      41.074  27.965  28.859  1.00  0.00     0.074 A 
ATOM     40  C   UNL A   1      40.350  28.216  27.631  1.00  0.00     0.031 C 
ATOM     41  C   UNL A   1      38.227  31.889  33.034  1.00  0.00     0.029 A 
ATOM     42  C   UNL A   1      39.465  31.137  33.204  1.00  0.00     0.049 A 
ATOM     43  H   UNL A   1      40.381  29.876  31.823  1.00  0.00     0.167 HD
ATOM     44  C   UNL A   1      42.120  27.112  28.975  1.00  0.00     0.037 A 
ATOM     45  C   UNL A   1      40.212  31.129  34.324  1.00  0.00     0.037 A 
ATOM     46  C   UNL A   1      42.919  26.952  30.164  1.00  0.00     0.049 A 
ATOM     47  C   UNL A   1      41.417  30.240  34.408  1.00  0.00     0.074 A 
ATOM     48  C   UNL A   1      44.022  26.138  30.362  1.00  0.00     0.029 A 
ATOM     49  N   UNL A   1      42.726  27.650  31.347  1.00  0.00    -0.354 N 
ATOM     50  N   UNL A   1      41.902  29.422  33.508  1.00  0.00    -0.248 NA
ATOM     51  C   UNL A   1      42.159  30.250  35.676  1.00  0.00     0.031 C 
ATOM     52  C   UNL A   1      44.483  26.327  31.670  1.00  0.00     0.029 A 
ATOM     53  C   UNL A   1      43.689  27.287  32.276  1.00  0.00     0.049 A 
ATOM     54  H   UNL A   1      42.009  28.306  31.504  1.00  0.00     0.167 HD
ATOM     55  C   UNL A   1      42.993  28.807  34.103  1.00  0.00     0.074 A 
ATOM     56  C   UNL A   1      43.125  29.376  35.428  1.00  0.00     0.031 C 
ATOM     57  C   UNL A   1      43.802  27.842  33.600  1.00  0.00     0.037 A 
BRANCH  44  58
ATOM     58  C   UNL A   1      42.436  26.237  27.796  1.00  0.00     0.064 A 
ATOM     59  C   UNL A   1      43.416  26.568  26.851  1.00  0.00     0.173 A 
ATOM     60  C   UNL A   1      41.754  25.018  27.635  1.00  0.00     0.173 A 
ATOM     61  F   UNL A   1      44.087  27.726  26.952  1.00  0.00    -0.203 F 
ATOM     62  C   UNL A   1      43.681  25.728  25.772  1.00  0.00     0.198 A 
ATOM     63  C   UNL A   1      42.043  24.168  26.571  1.00  0.00     0.198 A 
ATOM     64  F   UNL A   1      40.813  24.647  28.515  1.00  0.00    -0.203 F 
ATOM     65  F   UNL A   1      44.588  26.088  24.853  1.00  0.00    -0.200 F 
ATOM     66  C   UNL A   1      43.000  24.527  25.636  1.00  0.00     0.200 A 
ATOM     67  F   UNL A   1      41.393  23.001  26.452  1.00  0.00    -0.200 F 
ATOM     68  F   UNL A   1      43.263  23.718  24.600  1.00  0.00    -0.200 F 
ENDBRANCH  44  58
BRANCH  45  69
ATOM     69  C   UNL A   1      39.800  31.973  35.475  1.00  0.00     0.064 A 
ATOM     70  C   UNL A   1      40.321  33.261  35.646  1.00  0.00     0.173 A 
ATOM     71  C   UNL A   1      38.841  31.525  36.397  1.00  0.00     0.173 A 
ATOM     72  F   UNL A   1      41.264  33.721  34.809  1.00  0.00    -0.203 F 
ATOM     73  C   UNL A   1      39.893  34.075  36.692  1.00  0.00     0.198 A 
ATOM     74  C   UNL A   1      38.392  32.351  37.423  1.00  0.00     0.198 A 
ATOM     75  F   UNL A   1      38.315  30.298  36.276  1.00  0.00    -0.203 F 
ATOM     76  F   UNL A   1      40.425  35.295  36.851  1.00  0.00    -0.200 F 
ATOM     77  C   UNL A   1      38.919  33.625  37.571  1.00  0.00     0.200 A 
ATOM     78  F   UNL A   1      37.440  31.917  38.260  1.00  0.00    -0.200 F 
ATOM     79  F   UNL A   1      38.491  34.417  38.564  1.00  0.00    -0.200 F 
ENDBRANCH  45  69
BRANCH  57  80
ATOM     80  C   UNL A   1      44.896  27.342  34.493  1.00  0.00     0.064 A 
ATOM     81  C   UNL A   1      44.694  26.253  35.355  1.00  0.00     0.173 A 
ATOM     82  C   UNL A   1      46.158  27.953  34.490  1.00  0.00     0.173 A 
ATOM     83  F   UNL A   1      43.499  25.645  35.405  1.00  0.00    -0.203 F 
ATOM     84  C   UNL A   1      45.707  25.814  36.203  1.00  0.00     0.198 A 
ATOM     85  C   UNL A   1      47.176  27.497  35.324  1.00  0.00     0.198 A 
ATOM     86  F   UNL A   1      46.403  28.996  33.682  1.00  0.00    -0.203 F 
ATOM     87  F   UNL A   1      45.476  24.804  37.053  1.00  0.00    -0.200 F 
ATOM     88  C   UNL A   1      46.947  26.434  36.185  1.00  0.00     0.200 A 
ATOM     89  F   UNL A   1      48.376  28.093  35.301  1.00  0.00    -0.200 F 
ATOM     90  F   UNL A   1      47.919  26.016  37.007  1.00  0.00    -0.200 F 
ENDBRANCH  57  80
ENDBRANCH  31  32
ENDBRANCH  24  26
ENDBRANCH  23  24
ENDBRANCH  22  23
ENDBRANCH  21  22
ENDBRANCH   1  21
TORSDOF 18
ENDMDL
MODEL 2
REMARK VINA RESULT:     -10.7      1.176      2.634
REMARK SMILES CC[C@@H](C)CN(CC)C(=O)N1CC[C@@](CC)(C(=O)OCCOC(=O)c2ccc(-c3c4nc(c(-c5c(F)c(F)c(F)c(F)c5F)c5ccc([nH]5)c(-c5c(F)c(F)c(F)c(F)c5F)c5nc(c(-c6c(F)c(F)c(F)c(F)c6F)c6ccc3[nH]6)C=C5)C=C4)cc2)C1
REMARK SMILES IDX 19 1 17 2 18 3 14 4 11 5 12 6 88 7 13 8 9 9 10 10 6 11 5 12
REMARK SMILES IDX 3 13 4 14 2 15 1 16 7 17 8 18 15 19 16 20 20 21 21 22 22 23
REMARK SMILES IDX 23 24 24 25 25 26 26 27 87 28 27 29 86 30 28 31 29 32 30 33
REMARK SMILES IDX 80 34 31 35 85 36 79 37 81 38 32 39 84 40 78 41 77 42 33 44
REMARK SMILES IDX 65 45 45 46 64 47 46 48 49 49 63 50 82 51 47 52 48 53 62 55
REMARK SMILES IDX 83 56 50 57 34 58 35 59 43 60 36 61 37 62 41 63 44 64 38 65
REMARK SMILES IDX 39 66 42 67 40 68 66 69 67 70 75 71 68 72 69 73 73 74 76 75
REMARK SMILES IDX 70 76 71 77 74 78 72 79 51 80 52 81 60 82 53 83 54 84 58 85
REMARK SMILES IDX 61 86 55 87 56 88 59 89 57 90
REMARK H PARENT 81 43 49 54
REMARK Flexibility Score: inf
ROOT
ATOM      1  O   UNL A   1      31.794  27.721  24.979  1.00  0.00    -0.462 OA
ENDROOT
BRANCH   1   2
ATOM      2  C   UNL A   1      32.789  27.032  24.358  1.00  0.00     0.314 C 
ATOM      3  O   UNL A   1      33.843  27.530  23.980  1.00  0.00    -0.252 OA
BRANCH   2   4
ATOM      4  C   UNL A   1      32.407  25.577  24.070  1.00  0.00     0.087 C 
ATOM      5  N   UNL A   1      33.551  23.830  25.285  1.00  0.00    -0.323 N 
ATOM      6  C   UNL A   1      32.469  24.305  26.122  1.00  0.00     0.122 C 
ATOM      7  C   UNL A   1      33.680  24.705  24.122  1.00  0.00     0.140 C 
ATOM      8  C   UNL A   1      31.497  24.917  25.127  1.00  0.00     0.042 C 
BRANCH   5   9
ATOM      9  C   UNL A   1      34.672  23.190  25.756  1.00  0.00     0.320 C 
ATOM     10  O   UNL A   1      35.432  23.778  26.522  1.00  0.00    -0.248 OA
BRANCH   9  11
ATOM     11  N   UNL A   1      34.981  21.934  25.274  1.00  0.00    -0.325 N 
BRANCH  11  12
ATOM     12  C   UNL A   1      33.989  20.859  25.461  1.00  0.00     0.124 C 
BRANCH  12  13
ATOM     13  C   UNL A   1      33.384  20.287  24.145  1.00  0.00     0.005 C 
ATOM     14  C   UNL A   1      32.168  21.135  23.747  1.00  0.00     0.009 C 
BRANCH  13  15
ATOM     15  C   UNL A   1      33.001  18.794  24.286  1.00  0.00     0.002 C 
ATOM     16  C   UNL A   1      32.852  18.014  22.987  1.00  0.00     0.004 C 
ENDBRANCH  13  15
ENDBRANCH  12  13
ENDBRANCH  11  12
BRANCH  11  17
ATOM     17  C   UNL A   1      36.236  21.557  24.624  1.00  0.00     0.118 C 
ATOM     18  C   UNL A   1      36.613  22.558  23.536  1.00  0.00     0.027 C 
ENDBRANCH  11  17
ENDBRANCH   9  11
ENDBRANCH   5   9
BRANCH   4  19
ATOM     19  C   UNL A   1      31.790  25.540  22.655  1.00  0.00     0.017 C 
ATOM     20  C   UNL A   1      32.793  25.268  21.541  1.00  0.00     0.005 C 
ENDBRANCH   4  19
ENDBRANCH   2   4
ENDBRANCH   1   2
BRANCH   1  21
ATOM     21  C   UNL A   1      31.387  28.972  24.383  1.00  0.00     0.274 C 
BRANCH  21  22
ATOM     22  C   UNL A   1      31.425  30.089  25.423  1.00  0.00     0.275 C 
BRANCH  22  23
ATOM     23  O   UNL A   1      32.726  30.086  26.028  1.00  0.00    -0.458 OA
BRANCH  23  24
ATOM     24  C   UNL A   1      33.014  31.103  26.868  1.00  0.00     0.338 C 
ATOM     25  O   UNL A   1      32.295  32.047  27.161  1.00  0.00    -0.246 OA
BRANCH  24  26
ATOM     26  C   UNL A   1      34.355  30.878  27.443  1.00  0.00     0.060 A 
ATOM     27  C   UNL A   1      34.850  29.582  27.532  1.00  0.00     0.016 A 
ATOM     28  C   UNL A   1      35.083  31.933  27.994  1.00  0.00     0.016 A 
ATOM     29  C   UNL A   1      36.016  29.327  28.245  1.00  0.00     0.010 A 
ATOM     30  C   UNL A   1      36.304  31.678  28.640  1.00  0.00     0.010 A 
ATOM     31  C   UNL A   1      36.763  30.361  28.823  1.00  0.00    -0.014 A 
BRANCH  31  32
ATOM     32  C   UNL A   1      37.951  30.037  29.675  1.00  0.00     0.031 A 
ATOM     33  C   UNL A   1      39.098  29.227  29.121  1.00  0.00     0.074 A 
ATOM     34  C   UNL A   1      38.055  30.508  30.935  1.00  0.00     0.049 A 
ATOM     35  N   UNL A   1      40.113  28.682  29.751  1.00  0.00    -0.248 NA
ATOM     36  C   UNL A   1      39.092  28.968  27.675  1.00  0.00     0.031 C 
ATOM     37  C   UNL A   1      37.067  31.346  31.613  1.00  0.00     0.029 A 
ATOM     38  N   UNL A   1      39.061  30.372  31.864  1.00  0.00    -0.354 N 
ATOM     39  C   UNL A   1      40.796  27.934  28.801  1.00  0.00     0.074 A 
ATOM     40  C   UNL A   1      40.099  28.115  27.545  1.00  0.00     0.031 C 
ATOM     41  C   UNL A   1      37.546  31.716  32.808  1.00  0.00     0.029 A 
ATOM     42  C   UNL A   1      38.826  31.054  33.033  1.00  0.00     0.049 A 
ATOM     43  H   UNL A   1      39.872  29.838  31.705  1.00  0.00     0.167 HD
ATOM     44  C   UNL A   1      41.894  27.157  28.966  1.00  0.00     0.037 A 
ATOM     45  C   UNL A   1      39.532  31.115  34.176  1.00  0.00     0.037 A 
ATOM     46  C   UNL A   1      42.661  27.071  30.184  1.00  0.00     0.049 A 
ATOM     47  C   UNL A   1      40.792  30.313  34.316  1.00  0.00     0.074 A 
ATOM     48  C   UNL A   1      43.810  26.339  30.432  1.00  0.00     0.029 A 
ATOM     49  N   UNL A   1      42.380  27.773  31.347  1.00  0.00    -0.354 N 
ATOM     50  N   UNL A   1      41.363  29.517  33.447  1.00  0.00    -0.248 NA
ATOM     51  C   UNL A   1      41.487  30.394  35.608  1.00  0.00     0.031 C 
ATOM     52  C   UNL A   1      44.212  26.580  31.752  1.00  0.00     0.029 A 
ATOM     53  C   UNL A   1      43.334  27.492  32.314  1.00  0.00     0.049 A 
ATOM     54  H   UNL A   1      41.615  28.380  31.468  1.00  0.00     0.167 HD
ATOM     55  C   UNL A   1      42.473  28.988  34.089  1.00  0.00     0.074 A 
ATOM     56  C   UNL A   1      42.519  29.586  35.408  1.00  0.00     0.031 C 
ATOM     57  C   UNL A   1      43.362  28.074  33.630  1.00  0.00     0.037 A 
BRANCH  44  58
ATOM     58  C   UNL A   1      42.309  26.288  27.814  1.00  0.00     0.064 A 
ATOM     59  C   UNL A   1      41.719  25.044  27.557  1.00  0.00     0.173 A 
ATOM     60  C   UNL A   1      43.305  26.737  26.930  1.00  0.00     0.173 A 
ATOM     61  F   UNL A   1      40.773  24.562  28.378  1.00  0.00    -0.203 F 
ATOM     62  C   UNL A   1      42.130  24.267  26.475  1.00  0.00     0.198 A 
ATOM     63  C   UNL A   1      43.692  25.972  25.834  1.00  0.00     0.198 A 
ATOM     64  F   UNL A   1      43.897  27.925  27.124  1.00  0.00    -0.203 F 
ATOM     65  F   UNL A   1      41.586  23.059  26.277  1.00  0.00    -0.200 F 
ATOM     66  C   UNL A   1      43.110  24.734  25.612  1.00  0.00     0.200 A 
ATOM     67  F   UNL A   1      44.630  26.432  24.993  1.00  0.00    -0.200 F 
ATOM     68  F   UNL A   1      43.499  23.987  24.569  1.00  0.00    -0.200 F 
ENDBRANCH  44  58
BRANCH  45  69
ATOM     69  C   UNL A   1      39.024  31.947  35.298  1.00  0.00     0.064 A 
ATOM     70  C   UNL A   1      38.269  31.377  36.331  1.00  0.00     0.173 A 
ATOM     71  C   UNL A   1      39.324  33.315  35.382  1.00  0.00     0.173 A 
ATOM     72  F   UNL A   1      37.929  30.080  36.277  1.00  0.00    -0.203 F 
ATOM     73  C   UNL A   1      37.840  32.144  37.412  1.00  0.00     0.198 A 
ATOM     74  C   UNL A   1      38.921  34.072  36.478  1.00  0.00     0.198 A 
ATOM     75  F   UNL A   1      40.042  33.905  34.415  1.00  0.00    -0.203 F 
ATOM     76  F   UNL A   1      37.097  31.583  38.376  1.00  0.00    -0.200 F 
ATOM     77  C   UNL A   1      38.178  33.487  37.491  1.00  0.00     0.200 A 
ATOM     78  F   UNL A   1      39.264  35.365  36.557  1.00  0.00    -0.200 F 
ATOM     79  F   UNL A   1      37.785  34.219  38.543  1.00  0.00    -0.200 F 
ENDBRANCH  45  69
BRANCH  57  80
ATOM     80  C   UNL A   1      44.457  27.665  34.568  1.00  0.00     0.064 A 
ATOM     81  C   UNL A   1      45.675  28.361  34.617  1.00  0.00     0.173 A 
ATOM     82  C   UNL A   1      44.291  26.569  35.427  1.00  0.00     0.173 A 
ATOM     83  F   UNL A   1      45.888  29.406  33.803  1.00  0.00    -0.203 F 
ATOM     84  C   UNL A   1      46.697  27.955  35.470  1.00  0.00     0.198 A 
ATOM     85  C   UNL A   1      45.307  26.179  36.296  1.00  0.00     0.198 A 
ATOM     86  F   UNL A   1      43.144  25.873  35.421  1.00  0.00    -0.203 F 
ATOM     87  F   UNL A   1      47.870  28.603  35.465  1.00  0.00    -0.200 F 
ATOM     88  C   UNL A   1      46.512  26.867  36.310  1.00  0.00     0.200 A 
ATOM     89  F   UNL A   1      45.125  25.132  37.111  1.00  0.00    -0.200 F 
ATOM     90  F   UNL A   1      47.499  26.473  37.125  1.00  0.00    -0.200 F 
ENDBRANCH  57  80
ENDBRANCH  31  32
ENDBRANCH  24  26
ENDBRANCH  23  24
ENDBRANCH  22  23
ENDBRANCH  21  22
ENDBRANCH   1  21
TORSDOF 18
ENDMDL
MODEL 3
REMARK VINA RESULT:     -10.7      4.383      9.719
REMARK SMILES CC[C@@H](C)CN(CC)C(=O)N1CC[C@@](CC)(C(=O)OCCOC(=O)c2ccc(-c3c4nc(c(-c5c(F)c(F)c(F)c(F)c5F)c5ccc([nH]5)c(-c5c(F)c(F)c(F)c(F)c5F)c5nc(c(-c6c(F)c(F)c(F)c(F)c6F)c6ccc3[nH]6)C=C5)C=C4)cc2)C1
REMARK SMILES IDX 19 1 17 2 18 3 14 4 11 5 12 6 88 7 13 8 9 9 10 10 6 11 5 12
REMARK SMILES IDX 3 13 4 14 2 15 1 16 7 17 8 18 15 19 16 20 20 21 21 22 22 23
REMARK SMILES IDX 23 24 24 25 25 26 26 27 87 28 27 29 86 30 28 31 29 32 30 33
REMARK SMILES IDX 80 34 31 35 85 36 79 37 81 38 32 39 84 40 78 41 77 42 33 44
REMARK SMILES IDX 65 45 45 46 64 47 46 48 49 49 63 50 82 51 47 52 48 53 62 55
REMARK SMILES IDX 83 56 50 57 34 58 35 59 43 60 36 61 37 62 41 63 44 64 38 65
REMARK SMILES IDX 39 66 42 67 40 68 66 69 67 70 75 71 68 72 69 73 73 74 76 75
REMARK SMILES IDX 70 76 71 77 74 78 72 79 51 80 52 81 60 82 53 83 54 84 58 85
REMARK SMILES IDX 61 86 55 87 56 88 59 89 57 90
REMARK H PARENT 81 43 49 54
REMARK Flexibility Score: inf
ROOT
ATOM      1  O   UNL A   1      35.353  22.215  24.433  1.00  0.00    -0.462 OA
ENDROOT
BRANCH   1   2
ATOM      2  C   UNL A   1      34.383  22.599  23.559  1.00  0.00     0.314 C 
ATOM      3  O   UNL A   1      34.569  23.343  22.603  1.00  0.00    -0.252 OA
BRANCH   2   4
ATOM      4  C   UNL A   1      32.994  22.095  23.964  1.00  0.00     0.087 C 
ATOM      5  N   UNL A   1      31.487  23.642  25.046  1.00  0.00    -0.323 N 
ATOM      6  C   UNL A   1      31.369  23.848  23.618  1.00  0.00     0.122 C 
ATOM      7  C   UNL A   1      32.602  22.738  25.312  1.00  0.00     0.140 C 
ATOM      8  C   UNL A   1      31.843  22.527  23.032  1.00  0.00     0.042 C 
BRANCH   5   9
ATOM      9  C   UNL A   1      31.159  24.581  25.994  1.00  0.00     0.320 C 
ATOM     10  O   UNL A   1      31.134  24.265  27.181  1.00  0.00    -0.248 OA
BRANCH   9  11
ATOM     11  N   UNL A   1      30.755  25.837  25.586  1.00  0.00    -0.325 N 
BRANCH  11  12
ATOM     12  C   UNL A   1      31.617  26.983  25.930  1.00  0.00     0.124 C 
BRANCH  12  13
ATOM     13  C   UNL A   1      33.138  26.761  25.681  1.00  0.00     0.005 C 
ATOM     14  C   UNL A   1      33.928  27.842  26.432  1.00  0.00     0.009 C 
BRANCH  13  15
ATOM     15  C   UNL A   1      33.484  26.763  24.173  1.00  0.00     0.002 C 
ATOM     16  C   UNL A   1      33.866  28.109  23.573  1.00  0.00     0.004 C 
ENDBRANCH  13  15
ENDBRANCH  12  13
ENDBRANCH  11  12
BRANCH  11  17
ATOM     17  C   UNL A   1      29.517  26.143  24.870  1.00  0.00     0.118 C 
ATOM     18  C   UNL A   1      29.763  27.150  23.752  1.00  0.00     0.027 C 
ENDBRANCH  11  17
ENDBRANCH   9  11
ENDBRANCH   5   9
BRANCH   4  19
ATOM     19  C   UNL A   1      33.090  20.561  24.110  1.00  0.00     0.017 C 
ATOM     20  C   UNL A   1      32.877  20.052  25.530  1.00  0.00     0.005 C 
ENDBRANCH   4  19
ENDBRANCH   2   4
ENDBRANCH   1   2
BRANCH   1  21
ATOM     21  C   UNL A   1      36.691  22.067  23.910  1.00  0.00     0.274 C 
BRANCH  21  22
ATOM     22  C   UNL A   1      37.418  20.936  24.632  1.00  0.00     0.275 C 
BRANCH  22  23
ATOM     23  O   UNL A   1      37.864  21.436  25.900  1.00  0.00    -0.458 OA
BRANCH  23  24
ATOM     24  C   UNL A   1      39.160  21.230  26.219  1.00  0.00     0.338 C 
ATOM     25  O   UNL A   1      39.809  20.208  26.054  1.00  0.00    -0.246 OA
BRANCH  24  26
ATOM     26  C   UNL A   1      39.717  22.480  26.773  1.00  0.00     0.060 A 
ATOM     27  C   UNL A   1      39.194  23.701  26.360  1.00  0.00     0.016 A 
ATOM     28  C   UNL A   1      40.827  22.457  27.618  1.00  0.00     0.016 A 
ATOM     29  C   UNL A   1      39.828  24.887  26.713  1.00  0.00     0.010 A 
ATOM     30  C   UNL A   1      41.412  23.662  28.038  1.00  0.00     0.010 A 
ATOM     31  C   UNL A   1      40.953  24.898  27.547  1.00  0.00    -0.014 A 
BRANCH  31  32
ATOM     32  C   UNL A   1      41.672  26.184  27.812  1.00  0.00     0.031 A 
ATOM     33  C   UNL A   1      41.058  27.241  28.698  1.00  0.00     0.074 A 
ATOM     34  C   UNL A   1      42.908  26.407  27.320  1.00  0.00     0.049 A 
ATOM     35  N   UNL A   1      41.430  28.486  28.890  1.00  0.00    -0.248 NA
ATOM     36  C   UNL A   1      39.851  26.864  29.445  1.00  0.00     0.031 C 
ATOM     37  C   UNL A   1      43.672  25.477  26.489  1.00  0.00     0.029 A 
ATOM     38  N   UNL A   1      43.756  27.480  27.473  1.00  0.00    -0.354 N 
ATOM     39  C   UNL A   1      40.447  29.060  29.686  1.00  0.00     0.074 A 
ATOM     40  C   UNL A   1      39.476  28.024  29.966  1.00  0.00     0.031 C 
ATOM     41  C   UNL A   1      44.896  25.978  26.274  1.00  0.00     0.029 A 
ATOM     42  C   UNL A   1      44.971  27.313  26.856  1.00  0.00     0.049 A 
ATOM     43  H   UNL A   1      43.513  28.290  27.977  1.00  0.00     0.167 HD
ATOM     44  C   UNL A   1      40.358  30.338  30.128  1.00  0.00     0.037 A 
ATOM     45  C   UNL A   1      46.020  28.147  26.732  1.00  0.00     0.037 A 
ATOM     46  C   UNL A   1      41.382  31.338  29.955  1.00  0.00     0.049 A 
ATOM     47  C   UNL A   1      45.939  29.533  27.300  1.00  0.00     0.074 A 
ATOM     48  C   UNL A   1      41.395  32.649  30.402  1.00  0.00     0.029 A 
ATOM     49  N   UNL A   1      42.594  31.127  29.314  1.00  0.00    -0.354 N 
ATOM     50  N   UNL A   1      44.955  30.102  27.949  1.00  0.00    -0.248 NA
ATOM     51  C   UNL A   1      47.104  30.403  27.088  1.00  0.00     0.031 C 
ATOM     52  C   UNL A   1      42.604  33.237  30.013  1.00  0.00     0.029 A 
ATOM     53  C   UNL A   1      43.362  32.281  29.356  1.00  0.00     0.049 A 
ATOM     54  H   UNL A   1      42.868  30.281  28.891  1.00  0.00     0.167 HD
ATOM     55  C   UNL A   1      45.371  31.399  28.209  1.00  0.00     0.074 A 
ATOM     56  C   UNL A   1      46.715  31.522  27.684  1.00  0.00     0.031 C 
ATOM     57  C   UNL A   1      44.689  32.403  28.814  1.00  0.00     0.037 A 
BRANCH  44  58
ATOM     58  C   UNL A   1      39.082  30.752  30.802  1.00  0.00     0.064 A 
ATOM     59  C   UNL A   1      38.908  30.691  32.191  1.00  0.00     0.173 A 
ATOM     60  C   UNL A   1      38.020  31.253  30.029  1.00  0.00     0.173 A 
ATOM     61  F   UNL A   1      39.885  30.208  32.973  1.00  0.00    -0.203 F 
ATOM     62  C   UNL A   1      37.708  31.087  32.779  1.00  0.00     0.198 A 
ATOM     63  C   UNL A   1      36.834  31.675  30.623  1.00  0.00     0.198 A 
ATOM     64  F   UNL A   1      38.137  31.342  28.695  1.00  0.00    -0.203 F 
ATOM     65  F   UNL A   1      37.546  30.973  34.104  1.00  0.00    -0.200 F 
ATOM     66  C   UNL A   1      36.676  31.584  31.997  1.00  0.00     0.200 A 
ATOM     67  F   UNL A   1      35.844  32.169  29.865  1.00  0.00    -0.200 F 
ATOM     68  F   UNL A   1      35.526  31.970  32.566  1.00  0.00    -0.200 F 
ENDBRANCH  44  58
BRANCH  45  69
ATOM     69  C   UNL A   1      47.226  27.689  25.994  1.00  0.00     0.064 A 
ATOM     70  C   UNL A   1      47.281  27.755  24.596  1.00  0.00     0.173 A 
ATOM     71  C   UNL A   1      48.361  27.223  26.675  1.00  0.00     0.173 A 
ATOM     72  F   UNL A   1      46.209  28.163  23.900  1.00  0.00    -0.203 F 
ATOM     73  C   UNL A   1      48.432  27.380  23.907  1.00  0.00     0.198 A 
ATOM     74  C   UNL A   1      49.520  26.879  25.986  1.00  0.00     0.198 A 
ATOM     75  F   UNL A   1      48.354  27.140  28.013  1.00  0.00    -0.203 F 
ATOM     76  F   UNL A   1      48.453  27.428  22.567  1.00  0.00    -0.200 F 
ATOM     77  C   UNL A   1      49.555  26.956  24.602  1.00  0.00     0.200 A 
ATOM     78  F   UNL A   1      50.606  26.484  26.664  1.00  0.00    -0.200 F 
ATOM     79  F   UNL A   1      50.669  26.617  23.939  1.00  0.00    -0.200 F 
ENDBRANCH  45  69
BRANCH  57  80
ATOM     80  C   UNL A   1      45.391  33.722  28.932  1.00  0.00     0.064 A 
ATOM     81  C   UNL A   1      45.257  34.710  27.945  1.00  0.00     0.173 A 
ATOM     82  C   UNL A   1      46.204  34.003  30.039  1.00  0.00     0.173 A 
ATOM     83  F   UNL A   1      44.504  34.482  26.858  1.00  0.00    -0.203 F 
ATOM     84  C   UNL A   1      45.937  35.921  28.048  1.00  0.00     0.198 A 
ATOM     85  C   UNL A   1      46.864  35.224  30.151  1.00  0.00     0.198 A 
ATOM     86  F   UNL A   1      46.361  33.093  31.012  1.00  0.00    -0.203 F 
ATOM     87  F   UNL A   1      45.834  36.831  27.069  1.00  0.00    -0.200 F 
ATOM     88  C   UNL A   1      46.737  36.178  29.151  1.00  0.00     0.200 A 
ATOM     89  F   UNL A   1      47.632  35.474  31.220  1.00  0.00    -0.200 F 
ATOM     90  F   UNL A   1      47.396  37.341  29.246  1.00  0.00    -0.200 F 
ENDBRANCH  57  80
ENDBRANCH  31  32
ENDBRANCH  24  26
ENDBRANCH  23  24
ENDBRANCH  22  23
ENDBRANCH  21  22
ENDBRANCH   1  21
TORSDOF 18
ENDMDL
