MODEL 1
REMARK VINA RESULT:     -12.3      0.000      0.000
REMARK SMILES O=C(C[C@@H]([NH2+]Cc1cccnc1)C(=O)OCCOC(=O)c1ccc(-c2c3nc(c(-c4c(F)c(F)c(F)c(F)c4F)c4ccc([nH]4)c(-c4c(F)c(F)c(F)c(F)c4F)c4nc(c(-c5c(F)c(F)c(F)c(F)c5F)c5ccc2[nH]5)C=C4)C=C3)cc1)Nc1ccc2ccccc2c1
REMARK SMILES IDX 16 1 15 2 13 3 14 4 4 5 3 6 2 7 1 8 84 9 85 11 86 12 94 13
REMARK SMILES IDX 87 14 93 15 88 16 92 17 89 18 91 19 90 20 5 21 6 24 7 25
REMARK SMILES IDX 8 26 12 27 9 28 11 29 10 30 17 31 18 32 19 33 20 34 21 35
REMARK SMILES IDX 22 36 83 37 23 38 82 39 24 40 25 41 26 42 76 43 27 44 81 45
REMARK SMILES IDX 75 46 77 47 28 48 80 49 74 50 73 51 29 53 61 54 41 55 60 56
REMARK SMILES IDX 42 57 45 58 59 59 78 60 43 61 44 62 58 64 79 65 46 66 30 67
REMARK SMILES IDX 31 68 39 69 32 70 33 71 37 72 40 73 34 74 35 75 38 76 36 77
REMARK SMILES IDX 62 78 63 79 71 80 64 81 65 82 69 83 72 84 66 85 67 86 70 87
REMARK SMILES IDX 68 88 47 89 48 90 56 91 49 92 50 93 54 94 57 95 51 96 52 97
REMARK SMILES IDX 55 98 53 99
REMARK H PARENT 84 10 5 22 5 23 77 52 45 63
REMARK Flexibility Score: inf
ROOT
ATOM      1  C   UNL A   1      31.397  28.710  26.244  1.00  0.00     0.274 C 
ENDROOT
BRANCH   1   2
ATOM      2  O   UNL A   1      32.075  27.612  25.599  1.00  0.00    -0.458 OA
BRANCH   2   3
ATOM      3  C   UNL A   1      31.519  26.388  25.801  1.00  0.00     0.365 C 
ATOM      4  O   UNL A   1      31.075  26.026  26.888  1.00  0.00    -0.245 OA
BRANCH   3   5
ATOM      5  C   UNL A   1      31.496  25.490  24.548  1.00  0.00     0.303 C 
BRANCH   5   6
ATOM      6  C   UNL A   1      31.131  24.025  24.885  1.00  0.00     0.177 C 
BRANCH   6   7
ATOM      7  C   UNL A   1      32.329  23.227  25.376  1.00  0.00     0.231 C 
ATOM      8  O   UNL A   1      32.366  22.725  26.494  1.00  0.00    -0.274 OA
ATOM      9  N   UNL A   1      33.365  23.234  24.459  1.00  0.00    -0.326 N 
ATOM     10  H   UNL A   1      33.164  23.537  23.544  1.00  0.00     0.169 HD
BRANCH   9  11
ATOM     11  C   UNL A   1      34.682  22.840  24.739  1.00  0.00     0.041 A 
ATOM     12  C   UNL A   1      34.980  21.483  24.618  1.00  0.00     0.027 A 
ATOM     13  C   UNL A   1      35.658  23.729  25.189  1.00  0.00     0.034 A 
ATOM     14  C   UNL A   1      36.263  21.014  24.882  1.00  0.00     0.011 A 
ATOM     15  C   UNL A   1      36.923  23.245  25.583  1.00  0.00    -0.016 A 
ATOM     16  C   UNL A   1      37.236  21.877  25.393  1.00  0.00    -0.018 A 
ATOM     17  C   UNL A   1      37.882  24.073  26.193  1.00  0.00     0.009 A 
ATOM     18  C   UNL A   1      38.500  21.389  25.754  1.00  0.00     0.009 A 
ATOM     19  C   UNL A   1      39.118  23.560  26.598  1.00  0.00     0.001 A 
ATOM     20  C   UNL A   1      39.433  22.225  26.363  1.00  0.00     0.001 A 
ENDBRANCH   9  11
ENDBRANCH   6   7
ENDBRANCH   5   6
BRANCH   5  21
ATOM     21  N   UNL A   1      30.620  26.031  23.456  1.00  0.00    -0.330 N 
ATOM     22  H   UNL A   1      30.332  25.246  22.871  1.00  0.00     0.347 HD
ATOM     23  H   UNL A   1      31.186  26.728  22.972  1.00  0.00     0.347 HD
BRANCH  21  24
ATOM     24  C   UNL A   1      29.403  26.740  23.891  1.00  0.00     0.299 C 
BRANCH  24  25
ATOM     25  C   UNL A   1      29.108  28.001  23.124  1.00  0.00     0.024 A 
ATOM     26  C   UNL A   1      27.837  28.576  23.118  1.00  0.00     0.013 A 
ATOM     27  C   UNL A   1      30.086  28.639  22.365  1.00  0.00     0.120 A 
ATOM     28  C   UNL A   1      27.608  29.752  22.410  1.00  0.00     0.021 A 
ATOM     29  N   UNL A   1      29.897  29.788  21.677  1.00  0.00    -0.264 NA
ATOM     30  C   UNL A   1      28.662  30.325  21.723  1.00  0.00     0.111 A 
ENDBRANCH  24  25
ENDBRANCH  21  24
ENDBRANCH   5  21
ENDBRANCH   3   5
ENDBRANCH   2   3
ENDBRANCH   1   2
BRANCH   1  31
ATOM     31  C   UNL A   1      31.879  30.085  25.757  1.00  0.00     0.275 C 
BRANCH  31  32
ATOM     32  O   UNL A   1      33.280  30.318  26.006  1.00  0.00    -0.458 OA
BRANCH  32  33
ATOM     33  C   UNL A   1      33.542  31.268  26.936  1.00  0.00     0.338 C 
ATOM     34  O   UNL A   1      32.798  32.170  27.285  1.00  0.00    -0.246 OA
BRANCH  33  35
ATOM     35  C   UNL A   1      34.815  30.988  27.623  1.00  0.00     0.060 A 
ATOM     36  C   UNL A   1      35.051  29.669  28.027  1.00  0.00     0.016 A 
ATOM     37  C   UNL A   1      35.725  31.995  27.950  1.00  0.00     0.016 A 
ATOM     38  C   UNL A   1      36.193  29.344  28.748  1.00  0.00     0.010 A 
ATOM     39  C   UNL A   1      36.866  31.672  28.696  1.00  0.00     0.010 A 
ATOM     40  C   UNL A   1      37.101  30.347  29.104  1.00  0.00    -0.014 A 
BRANCH  40  41
ATOM     41  C   UNL A   1      38.252  29.995  29.964  1.00  0.00     0.031 A 
ATOM     42  C   UNL A   1      39.349  29.132  29.420  1.00  0.00     0.074 A 
ATOM     43  C   UNL A   1      38.340  30.508  31.204  1.00  0.00     0.049 A 
ATOM     44  N   UNL A   1      40.420  28.680  30.019  1.00  0.00    -0.248 NA
ATOM     45  C   UNL A   1      39.222  28.719  28.015  1.00  0.00     0.031 C 
ATOM     46  C   UNL A   1      37.356  31.399  31.812  1.00  0.00     0.029 A 
ATOM     47  N   UNL A   1      39.305  30.365  32.168  1.00  0.00    -0.354 N 
ATOM     48  C   UNL A   1      41.083  27.911  29.074  1.00  0.00     0.074 A 
ATOM     49  C   UNL A   1      40.294  27.955  27.861  1.00  0.00     0.031 C 
ATOM     50  C   UNL A   1      37.777  31.747  33.038  1.00  0.00     0.029 A 
ATOM     51  C   UNL A   1      39.033  31.055  33.323  1.00  0.00     0.049 A 
ATOM     52  H   UNL A   1      40.116  29.821  32.042  1.00  0.00     0.167 HD
ATOM     53  C   UNL A   1      42.243  27.227  29.213  1.00  0.00     0.037 A 
ATOM     54  C   UNL A   1      39.708  31.097  34.487  1.00  0.00     0.037 A 
ATOM     55  C   UNL A   1      43.025  27.194  30.421  1.00  0.00     0.049 A 
ATOM     56  C   UNL A   1      40.969  30.284  34.630  1.00  0.00     0.074 A 
ATOM     57  C   UNL A   1      44.207  26.518  30.669  1.00  0.00     0.029 A 
ATOM     58  N   UNL A   1      42.700  27.871  31.587  1.00  0.00    -0.354 N 
ATOM     59  N   UNL A   1      41.576  29.537  33.740  1.00  0.00    -0.248 NA
ATOM     60  C   UNL A   1      41.626  30.308  35.944  1.00  0.00     0.031 C 
ATOM     61  C   UNL A   1      44.575  26.752  31.999  1.00  0.00     0.029 A 
ATOM     62  C   UNL A   1      43.647  27.612  32.566  1.00  0.00     0.049 A 
ATOM     63  H   UNL A   1      41.912  28.450  31.704  1.00  0.00     0.167 HD
ATOM     64  C   UNL A   1      42.691  29.011  34.380  1.00  0.00     0.074 A 
ATOM     65  C   UNL A   1      42.688  29.544  35.727  1.00  0.00     0.031 C 
ATOM     66  C   UNL A   1      43.627  28.156  33.900  1.00  0.00     0.037 A 
BRANCH  53  67
ATOM     67  C   UNL A   1      42.708  26.413  28.041  1.00  0.00     0.064 A 
ATOM     68  C   UNL A   1      43.536  26.954  27.046  1.00  0.00     0.173 A 
ATOM     69  C   UNL A   1      42.333  25.066  27.925  1.00  0.00     0.173 A 
ATOM     70  F   UNL A   1      43.909  28.241  27.103  1.00  0.00    -0.203 F 
ATOM     71  C   UNL A   1      43.953  26.180  25.965  1.00  0.00     0.198 A 
ATOM     72  C   UNL A   1      42.771  24.289  26.857  1.00  0.00     0.198 A 
ATOM     73  F   UNL A   1      41.544  24.502  28.851  1.00  0.00    -0.203 F 
ATOM     74  F   UNL A   1      44.708  26.726  25.002  1.00  0.00    -0.200 F 
ATOM     75  C   UNL A   1      43.575  24.848  25.874  1.00  0.00     0.200 A 
ATOM     76  F   UNL A   1      42.414  23.000  26.777  1.00  0.00    -0.200 F 
ATOM     77  F   UNL A   1      43.979  24.104  24.836  1.00  0.00    -0.200 F 
ENDBRANCH  53  67
BRANCH  54  78
ATOM     78  C   UNL A   1      39.192  31.907  35.621  1.00  0.00     0.064 A 
ATOM     79  C   UNL A   1      39.546  33.255  35.767  1.00  0.00     0.173 A 
ATOM     80  C   UNL A   1      38.344  31.349  36.590  1.00  0.00     0.173 A 
ATOM     81  F   UNL A   1      40.376  33.828  34.882  1.00  0.00    -0.203 F 
ATOM     82  C   UNL A   1      39.086  34.010  36.845  1.00  0.00     0.198 A 
ATOM     83  C   UNL A   1      37.859  32.111  37.650  1.00  0.00     0.198 A 
ATOM     84  F   UNL A   1      37.976  30.062  36.499  1.00  0.00    -0.203 F 
ATOM     85  F   UNL A   1      39.476  35.283  36.984  1.00  0.00    -0.200 F 
ATOM     86  C   UNL A   1      38.237  33.439  37.781  1.00  0.00     0.200 A 
ATOM     87  F   UNL A   1      37.029  31.559  38.544  1.00  0.00    -0.200 F 
ATOM     88  F   UNL A   1      37.789  34.165  38.814  1.00  0.00    -0.200 F 
ENDBRANCH  54  78
BRANCH  66  89
ATOM     89  C   UNL A   1      44.735  27.761  34.830  1.00  0.00     0.064 A 
ATOM     90  C   UNL A   1      44.644  26.617  35.635  1.00  0.00     0.173 A 
ATOM     91  C   UNL A   1      45.920  28.513  34.884  1.00  0.00     0.173 A 
ATOM     92  F   UNL A   1      43.526  25.875  35.629  1.00  0.00    -0.203 F 
ATOM     93  C   UNL A   1      45.690  26.250  36.477  1.00  0.00     0.198 A 
ATOM     94  C   UNL A   1      46.973  28.128  35.708  1.00  0.00     0.198 A 
ATOM     95  F   UNL A   1      46.058  29.613  34.130  1.00  0.00    -0.203 F 
ATOM     96  F   UNL A   1      45.565  25.176  37.269  1.00  0.00    -0.200 F 
ATOM     97  C   UNL A   1      46.856  27.000  36.508  1.00  0.00     0.200 A 
ATOM     98  F   UNL A   1      48.103  28.848  35.728  1.00  0.00    -0.200 F 
ATOM     99  F   UNL A   1      47.864  26.642  37.314  1.00  0.00    -0.200 F 
ENDBRANCH  66  89
ENDBRANCH  40  41
ENDBRANCH  33  35
ENDBRANCH  32  33
ENDBRANCH  31  32
ENDBRANCH   1  31
TORSDOF 17
ENDMDL
MODEL 2
REMARK VINA RESULT:     -12.3      1.691      3.307
REMARK SMILES O=C(C[C@@H]([NH2+]Cc1cccnc1)C(=O)OCCOC(=O)c1ccc(-c2c3nc(c(-c4c(F)c(F)c(F)c(F)c4F)c4ccc([nH]4)c(-c4c(F)c(F)c(F)c(F)c4F)c4nc(c(-c5c(F)c(F)c(F)c(F)c5F)c5ccc2[nH]5)C=C4)C=C3)cc1)Nc1ccc2ccccc2c1
REMARK SMILES IDX 16 1 15 2 13 3 14 4 4 5 3 6 2 7 1 8 84 9 85 11 86 12 94 13
REMARK SMILES IDX 87 14 93 15 88 16 92 17 89 18 91 19 90 20 5 21 6 24 7 25
REMARK SMILES IDX 8 26 12 27 9 28 11 29 10 30 17 31 18 32 19 33 20 34 21 35
REMARK SMILES IDX 22 36 83 37 23 38 82 39 24 40 25 41 26 42 76 43 27 44 81 45
REMARK SMILES IDX 75 46 77 47 28 48 80 49 74 50 73 51 29 53 61 54 41 55 60 56
REMARK SMILES IDX 42 57 45 58 59 59 78 60 43 61 44 62 58 64 79 65 46 66 30 67
REMARK SMILES IDX 31 68 39 69 32 70 33 71 37 72 40 73 34 74 35 75 38 76 36 77
REMARK SMILES IDX 62 78 63 79 71 80 64 81 65 82 69 83 72 84 66 85 67 86 70 87
REMARK SMILES IDX 68 88 47 89 48 90 56 91 49 92 50 93 54 94 57 95 51 96 52 97
REMARK SMILES IDX 55 98 53 99
REMARK H PARENT 84 10 5 22 5 23 77 52 45 63
REMARK Flexibility Score: inf
ROOT
ATOM      1  C   UNL A   1      31.461  29.692  24.243  1.00  0.00     0.274 C 
ENDROOT
BRANCH   1   2
ATOM      2  O   UNL A   1      30.774  28.423  24.219  1.00  0.00    -0.458 OA
BRANCH   2   3
ATOM      3  C   UNL A   1      30.998  27.665  23.113  1.00  0.00     0.365 C 
ATOM      4  O   UNL A   1      30.601  27.979  21.994  1.00  0.00    -0.245 OA
BRANCH   3   5
ATOM      5  C   UNL A   1      31.790  26.370  23.385  1.00  0.00     0.303 C 
BRANCH   5   6
ATOM      6  C   UNL A   1      31.848  25.449  22.145  1.00  0.00     0.177 C 
BRANCH   6   7
ATOM      7  C   UNL A   1      32.585  24.147  22.423  1.00  0.00     0.231 C 
ATOM      8  O   UNL A   1      33.769  23.994  22.144  1.00  0.00    -0.274 OA
ATOM      9  N   UNL A   1      31.739  23.171  22.921  1.00  0.00    -0.326 N 
ATOM     10  H   UNL A   1      30.853  23.455  23.243  1.00  0.00     0.169 HD
BRANCH   9  11
ATOM     11  C   UNL A   1      32.053  21.807  22.999  1.00  0.00     0.041 A 
ATOM     12  C   UNL A   1      31.867  21.044  21.847  1.00  0.00     0.027 A 
ATOM     13  C   UNL A   1      32.472  21.193  24.179  1.00  0.00     0.034 A 
ATOM     14  C   UNL A   1      32.154  19.682  21.846  1.00  0.00     0.011 A 
ATOM     15  C   UNL A   1      32.641  19.793  24.224  1.00  0.00    -0.016 A 
ATOM     16  C   UNL A   1      32.513  19.038  23.032  1.00  0.00    -0.018 A 
ATOM     17  C   UNL A   1      32.902  19.111  25.424  1.00  0.00     0.009 A 
ATOM     18  C   UNL A   1      32.708  17.650  23.057  1.00  0.00     0.009 A 
ATOM     19  C   UNL A   1      33.039  17.720  25.443  1.00  0.00     0.001 A 
ATOM     20  C   UNL A   1      32.959  16.992  24.259  1.00  0.00     0.001 A 
ENDBRANCH   9  11
ENDBRANCH   6   7
ENDBRANCH   5   6
BRANCH   5  21
ATOM     21  N   UNL A   1      33.163  26.629  23.935  1.00  0.00    -0.330 N 
ATOM     22  H   UNL A   1      33.468  27.540  23.592  1.00  0.00     0.347 HD
ATOM     23  H   UNL A   1      33.736  25.848  23.616  1.00  0.00     0.347 HD
BRANCH  21  24
ATOM     24  C   UNL A   1      33.283  26.637  25.404  1.00  0.00     0.299 C 
BRANCH  24  25
ATOM     25  C   UNL A   1      33.008  25.310  26.059  1.00  0.00     0.024 A 
ATOM     26  C   UNL A   1      33.979  24.310  26.128  1.00  0.00     0.013 A 
ATOM     27  C   UNL A   1      31.763  25.010  26.606  1.00  0.00     0.120 A 
ATOM     28  C   UNL A   1      33.691  23.102  26.756  1.00  0.00     0.021 A 
ATOM     29  N   UNL A   1      31.457  23.851  27.232  1.00  0.00    -0.264 NA
ATOM     30  C   UNL A   1      32.433  22.925  27.303  1.00  0.00     0.111 A 
ENDBRANCH  24  25
ENDBRANCH  21  24
ENDBRANCH   5  21
ENDBRANCH   3   5
ENDBRANCH   2   3
ENDBRANCH   1   2
BRANCH   1  31
ATOM     31  C   UNL A   1      31.591  30.279  25.657  1.00  0.00     0.275 C 
BRANCH  31  32
ATOM     32  O   UNL A   1      32.932  30.205  26.182  1.00  0.00    -0.458 OA
BRANCH  32  33
ATOM     33  C   UNL A   1      33.292  31.245  26.973  1.00  0.00     0.338 C 
ATOM     34  O   UNL A   1      32.619  32.229  27.231  1.00  0.00    -0.246 OA
BRANCH  33  35
ATOM     35  C   UNL A   1      34.576  30.971  27.643  1.00  0.00     0.060 A 
ATOM     36  C   UNL A   1      34.845  29.646  27.999  1.00  0.00     0.016 A 
ATOM     37  C   UNL A   1      35.462  31.988  28.002  1.00  0.00     0.016 A 
ATOM     38  C   UNL A   1      35.999  29.322  28.702  1.00  0.00     0.010 A 
ATOM     39  C   UNL A   1      36.615  31.666  28.730  1.00  0.00     0.010 A 
ATOM     40  C   UNL A   1      36.884  30.334  29.088  1.00  0.00    -0.014 A 
BRANCH  40  41
ATOM     41  C   UNL A   1      38.049  29.980  29.930  1.00  0.00     0.031 A 
ATOM     42  C   UNL A   1      39.131  29.107  29.371  1.00  0.00     0.074 A 
ATOM     43  C   UNL A   1      38.162  30.498  31.165  1.00  0.00     0.049 A 
ATOM     44  N   UNL A   1      40.210  28.652  29.953  1.00  0.00    -0.248 NA
ATOM     45  C   UNL A   1      38.976  28.688  27.970  1.00  0.00     0.031 C 
ATOM     46  C   UNL A   1      37.194  31.398  31.786  1.00  0.00     0.029 A 
ATOM     47  N   UNL A   1      39.144  30.355  32.113  1.00  0.00    -0.354 N 
ATOM     48  C   UNL A   1      40.852  27.875  29.000  1.00  0.00     0.074 A 
ATOM     49  C   UNL A   1      40.041  27.917  27.801  1.00  0.00     0.031 C 
ATOM     50  C   UNL A   1      37.640  31.750  33.003  1.00  0.00     0.029 A 
ATOM     51  C   UNL A   1      38.896  31.052  33.269  1.00  0.00     0.049 A 
ATOM     52  H   UNL A   1      39.948  29.805  31.976  1.00  0.00     0.167 HD
ATOM     53  C   UNL A   1      42.010  27.184  29.121  1.00  0.00     0.037 A 
ATOM     54  C   UNL A   1      39.592  31.095  34.421  1.00  0.00     0.037 A 
ATOM     55  C   UNL A   1      42.813  27.153  30.316  1.00  0.00     0.049 A 
ATOM     56  C   UNL A   1      40.850  30.276  34.545  1.00  0.00     0.074 A 
ATOM     57  C   UNL A   1      43.996  26.471  30.546  1.00  0.00     0.029 A 
ATOM     58  N   UNL A   1      42.513  27.838  31.484  1.00  0.00    -0.354 N 
ATOM     59  N   UNL A   1      41.438  29.521  33.648  1.00  0.00    -0.248 NA
ATOM     60  C   UNL A   1      41.532  30.303  35.847  1.00  0.00     0.031 C 
ATOM     61  C   UNL A   1      44.388  26.710  31.868  1.00  0.00     0.029 A 
ATOM     62  C   UNL A   1      43.476  27.578  32.447  1.00  0.00     0.049 A 
ATOM     63  H   UNL A   1      41.730  28.422  31.612  1.00  0.00     0.167 HD
ATOM     64  C   UNL A   1      42.560  28.992  34.271  1.00  0.00     0.074 A 
ATOM     65  C   UNL A   1      42.585  29.531  35.614  1.00  0.00     0.031 C 
ATOM     66  C   UNL A   1      43.482  28.129  33.778  1.00  0.00     0.037 A 
BRANCH  53  67
ATOM     67  C   UNL A   1      42.449  26.362  27.946  1.00  0.00     0.064 A 
ATOM     68  C   UNL A   1      41.982  25.056  27.740  1.00  0.00     0.173 A 
ATOM     69  C   UNL A   1      43.339  26.900  27.003  1.00  0.00     0.173 A 
ATOM     70  F   UNL A   1      41.143  24.491  28.621  1.00  0.00    -0.203 F 
ATOM     71  C   UNL A   1      42.407  24.310  26.642  1.00  0.00     0.198 A 
ATOM     72  C   UNL A   1      43.742  26.160  25.895  1.00  0.00     0.198 A 
ATOM     73  F   UNL A   1      43.814  28.144  27.155  1.00  0.00    -0.203 F 
ATOM     74  F   UNL A   1      41.982  23.049  26.485  1.00  0.00    -0.200 F 
ATOM     75  C   UNL A   1      43.282  24.864  25.719  1.00  0.00     0.200 A 
ATOM     76  F   UNL A   1      44.579  26.702  24.999  1.00  0.00    -0.200 F 
ATOM     77  F   UNL A   1      43.687  24.147  24.662  1.00  0.00    -0.200 F 
ENDBRANCH  53  67
BRANCH  54  78
ATOM     78  C   UNL A   1      39.101  31.915  35.559  1.00  0.00     0.064 A 
ATOM     79  C   UNL A   1      39.462  33.262  35.689  1.00  0.00     0.173 A 
ATOM     80  C   UNL A   1      38.271  31.365  36.549  1.00  0.00     0.173 A 
ATOM     81  F   UNL A   1      40.275  33.828  34.784  1.00  0.00    -0.203 F 
ATOM     82  C   UNL A   1      39.025  34.025  36.771  1.00  0.00     0.198 A 
ATOM     83  C   UNL A   1      37.810  32.136  37.613  1.00  0.00     0.198 A 
ATOM     84  F   UNL A   1      37.898  30.079  36.474  1.00  0.00    -0.203 F 
ATOM     85  F   UNL A   1      39.422  35.299  36.894  1.00  0.00    -0.200 F 
ATOM     86  C   UNL A   1      38.193  33.463  37.728  1.00  0.00     0.200 A 
ATOM     87  F   UNL A   1      36.997  31.591  38.528  1.00  0.00    -0.200 F 
ATOM     88  F   UNL A   1      37.769  34.197  38.765  1.00  0.00    -0.200 F 
ENDBRANCH  54  78
BRANCH  66  89
ATOM     89  C   UNL A   1      44.605  27.732  34.690  1.00  0.00     0.064 A 
ATOM     90  C   UNL A   1      44.522  26.593  35.504  1.00  0.00     0.173 A 
ATOM     91  C   UNL A   1      45.795  28.476  34.719  1.00  0.00     0.173 A 
ATOM     92  F   UNL A   1      43.399  25.859  35.523  1.00  0.00    -0.203 F 
ATOM     93  C   UNL A   1      45.580  26.224  36.329  1.00  0.00     0.198 A 
ATOM     94  C   UNL A   1      46.861  28.089  35.526  1.00  0.00     0.198 A 
ATOM     95  F   UNL A   1      45.927  29.571  33.955  1.00  0.00    -0.203 F 
ATOM     96  F   UNL A   1      45.462  25.156  37.129  1.00  0.00    -0.200 F 
ATOM     97  C   UNL A   1      46.751  26.967  36.334  1.00  0.00     0.200 A 
ATOM     98  F   UNL A   1      47.996  28.802  35.520  1.00  0.00    -0.200 F 
ATOM     99  F   UNL A   1      47.771  26.607  37.124  1.00  0.00    -0.200 F 
ENDBRANCH  66  89
ENDBRANCH  40  41
ENDBRANCH  33  35
ENDBRANCH  32  33
ENDBRANCH  31  32
ENDBRANCH   1  31
TORSDOF 17
ENDMDL
MODEL 3
REMARK VINA RESULT:     -12.2      0.648      7.312
REMARK SMILES O=C(C[C@@H]([NH2+]Cc1cccnc1)C(=O)OCCOC(=O)c1ccc(-c2c3nc(c(-c4c(F)c(F)c(F)c(F)c4F)c4ccc([nH]4)c(-c4c(F)c(F)c(F)c(F)c4F)c4nc(c(-c5c(F)c(F)c(F)c(F)c5F)c5ccc2[nH]5)C=C4)C=C3)cc1)Nc1ccc2ccccc2c1
REMARK SMILES IDX 16 1 15 2 13 3 14 4 4 5 3 6 2 7 1 8 84 9 85 11 86 12 94 13
REMARK SMILES IDX 87 14 93 15 88 16 92 17 89 18 91 19 90 20 5 21 6 24 7 25
REMARK SMILES IDX 8 26 12 27 9 28 11 29 10 30 17 31 18 32 19 33 20 34 21 35
REMARK SMILES IDX 22 36 83 37 23 38 82 39 24 40 25 41 26 42 76 43 27 44 81 45
REMARK SMILES IDX 75 46 77 47 28 48 80 49 74 50 73 51 29 53 61 54 41 55 60 56
REMARK SMILES IDX 42 57 45 58 59 59 78 60 43 61 44 62 58 64 79 65 46 66 30 67
REMARK SMILES IDX 31 68 39 69 32 70 33 71 37 72 40 73 34 74 35 75 38 76 36 77
REMARK SMILES IDX 62 78 63 79 71 80 64 81 65 82 69 83 72 84 66 85 67 86 70 87
REMARK SMILES IDX 68 88 47 89 48 90 56 91 49 92 50 93 54 94 57 95 51 96 52 97
REMARK SMILES IDX 55 98 53 99
REMARK H PARENT 84 10 5 22 5 23 77 52 45 63
REMARK Flexibility Score: inf
ROOT
ATOM      1  C   UNL A   1      31.491  28.661  26.311  1.00  0.00     0.274 C 
ENDROOT
BRANCH   1   2
ATOM      2  O   UNL A   1      32.187  27.581  25.655  1.00  0.00    -0.458 OA
BRANCH   2   3
ATOM      3  C   UNL A   1      31.639  26.349  25.828  1.00  0.00     0.365 C 
ATOM      4  O   UNL A   1      31.161  25.973  26.896  1.00  0.00    -0.245 OA
BRANCH   3   5
ATOM      5  C   UNL A   1      31.674  25.459  24.570  1.00  0.00     0.303 C 
BRANCH   5   6
ATOM      6  C   UNL A   1      31.363  23.979  24.891  1.00  0.00     0.177 C 
BRANCH   6   7
ATOM      7  C   UNL A   1      32.589  23.220  25.375  1.00  0.00     0.231 C 
ATOM      8  O   UNL A   1      32.621  22.658  26.464  1.00  0.00    -0.274 OA
ATOM      9  N   UNL A   1      33.649  23.335  24.493  1.00  0.00    -0.326 N 
ATOM     10  H   UNL A   1      33.458  23.678  23.591  1.00  0.00     0.169 HD
BRANCH   9  11
ATOM     11  C   UNL A   1      34.977  22.998  24.794  1.00  0.00     0.041 A 
ATOM     12  C   UNL A   1      35.377  21.689  24.529  1.00  0.00     0.027 A 
ATOM     13  C   UNL A   1      35.866  23.889  25.396  1.00  0.00     0.034 A 
ATOM     14  C   UNL A   1      36.678  21.278  24.803  1.00  0.00     0.011 A 
ATOM     15  C   UNL A   1      37.144  23.446  25.796  1.00  0.00    -0.016 A 
ATOM     16  C   UNL A   1      37.562  22.135  25.462  1.00  0.00    -0.018 A 
ATOM     17  C   UNL A   1      38.013  24.254  26.550  1.00  0.00     0.009 A 
ATOM     18  C   UNL A   1      38.842  21.692  25.828  1.00  0.00     0.009 A 
ATOM     19  C   UNL A   1      39.263  23.780  26.955  1.00  0.00     0.001 A 
ATOM     20  C   UNL A   1      39.684  22.507  26.580  1.00  0.00     0.001 A 
ENDBRANCH   9  11
ENDBRANCH   6   7
ENDBRANCH   5   6
BRANCH   5  21
ATOM     21  N   UNL A   1      30.794  25.972  23.466  1.00  0.00    -0.330 N 
ATOM     22  H   UNL A   1      30.555  25.182  22.867  1.00  0.00     0.347 HD
ATOM     23  H   UNL A   1      31.336  26.701  23.002  1.00  0.00     0.347 HD
BRANCH  21  24
ATOM     24  C   UNL A   1      29.537  26.618  23.885  1.00  0.00     0.299 C 
BRANCH  24  25
ATOM     25  C   UNL A   1      29.220  27.896  23.156  1.00  0.00     0.024 A 
ATOM     26  C   UNL A   1      27.931  28.429  23.136  1.00  0.00     0.013 A 
ATOM     27  C   UNL A   1      30.196  28.594  22.448  1.00  0.00     0.120 A 
ATOM     28  C   UNL A   1      27.681  29.622  22.464  1.00  0.00     0.021 A 
ATOM     29  N   UNL A   1      29.986  29.760  21.796  1.00  0.00    -0.264 NA
ATOM     30  C   UNL A   1      28.733  30.255  21.828  1.00  0.00     0.111 A 
ENDBRANCH  24  25
ENDBRANCH  21  24
ENDBRANCH   5  21
ENDBRANCH   3   5
ENDBRANCH   2   3
ENDBRANCH   1   2
BRANCH   1  31
ATOM     31  C   UNL A   1      31.983  30.049  25.873  1.00  0.00     0.275 C 
BRANCH  31  32
ATOM     32  O   UNL A   1      33.393  30.250  26.100  1.00  0.00    -0.458 OA
BRANCH  32  33
ATOM     33  C   UNL A   1      33.690  31.143  27.075  1.00  0.00     0.338 C 
ATOM     34  O   UNL A   1      32.947  31.996  27.531  1.00  0.00    -0.246 OA
BRANCH  33  35
ATOM     35  C   UNL A   1      35.012  30.855  27.660  1.00  0.00     0.060 A 
ATOM     36  C   UNL A   1      35.284  29.529  28.012  1.00  0.00     0.016 A 
ATOM     37  C   UNL A   1      35.936  31.861  27.946  1.00  0.00     0.016 A 
ATOM     38  C   UNL A   1      36.478  29.195  28.639  1.00  0.00     0.010 A 
ATOM     39  C   UNL A   1      37.131  31.529  28.599  1.00  0.00     0.010 A 
ATOM     40  C   UNL A   1      37.403  30.195  28.954  1.00  0.00    -0.014 A 
BRANCH  40  41
ATOM     41  C   UNL A   1      38.616  29.832  29.719  1.00  0.00     0.031 A 
ATOM     42  C   UNL A   1      38.805  30.364  31.107  1.00  0.00     0.074 A 
ATOM     43  C   UNL A   1      39.506  28.973  29.192  1.00  0.00     0.049 A 
ATOM     44  N   UNL A   1      39.810  30.197  31.928  1.00  0.00    -0.248 NA
ATOM     45  C   UNL A   1      37.719  31.198  31.642  1.00  0.00     0.031 C 
ATOM     46  C   UNL A   1      39.392  28.357  27.873  1.00  0.00     0.029 A 
ATOM     47  N   UNL A   1      40.671  28.461  29.703  1.00  0.00    -0.354 N 
ATOM     48  C   UNL A   1      39.490  30.922  33.066  1.00  0.00     0.074 A 
ATOM     49  C   UNL A   1      38.199  31.533  32.831  1.00  0.00     0.031 C 
ATOM     50  C   UNL A   1      40.432  27.528  27.685  1.00  0.00     0.029 A 
ATOM     51  C   UNL A   1      41.314  27.601  28.848  1.00  0.00     0.049 A 
ATOM     52  H   UNL A   1      41.012  28.688  30.598  1.00  0.00     0.167 HD
ATOM     53  C   UNL A   1      40.216  31.068  34.200  1.00  0.00     0.037 A 
ATOM     54  C   UNL A   1      42.497  26.970  28.981  1.00  0.00     0.037 A 
ATOM     55  C   UNL A   1      41.496  30.450  34.426  1.00  0.00     0.049 A 
ATOM     56  C   UNL A   1      43.306  27.191  30.231  1.00  0.00     0.074 A 
ATOM     57  C   UNL A   1      42.319  30.547  35.535  1.00  0.00     0.029 A 
ATOM     58  N   UNL A   1      42.140  29.618  33.523  1.00  0.00    -0.354 N 
ATOM     59  N   UNL A   1      43.011  27.901  31.294  1.00  0.00    -0.248 NA
ATOM     60  C   UNL A   1      44.620  26.537  30.293  1.00  0.00     0.031 C 
ATOM     61  C   UNL A   1      43.480  29.807  35.284  1.00  0.00     0.029 A 
ATOM     62  C   UNL A   1      43.360  29.210  34.039  1.00  0.00     0.049 A 
ATOM     63  H   UNL A   1      41.783  29.355  32.643  1.00  0.00     0.167 HD
ATOM     64  C   UNL A   1      44.093  27.771  32.153  1.00  0.00     0.074 A 
ATOM     65  C   UNL A   1      45.042  26.896  31.498  1.00  0.00     0.031 C 
ATOM     66  C   UNL A   1      44.289  28.335  33.371  1.00  0.00     0.037 A 
BRANCH  53  67
ATOM     67  C   UNL A   1      39.663  31.972  35.261  1.00  0.00     0.064 A 
ATOM     68  C   UNL A   1      38.823  31.494  36.277  1.00  0.00     0.173 A 
ATOM     69  C   UNL A   1      39.995  33.335  35.268  1.00  0.00     0.173 A 
ATOM     70  F   UNL A   1      38.463  30.202  36.305  1.00  0.00    -0.203 F 
ATOM     71  C   UNL A   1      38.319  32.354  37.251  1.00  0.00     0.198 A 
ATOM     72  C   UNL A   1      39.510  34.186  36.257  1.00  0.00     0.198 A 
ATOM     73  F   UNL A   1      40.796  33.841  34.319  1.00  0.00    -0.203 F 
ATOM     74  F   UNL A   1      37.484  31.886  38.189  1.00  0.00    -0.200 F 
ATOM     75  C   UNL A   1      38.666  33.697  37.243  1.00  0.00     0.200 A 
ATOM     76  F   UNL A   1      39.855  35.481  36.253  1.00  0.00    -0.200 F 
ATOM     77  F   UNL A   1      38.183  34.522  38.181  1.00  0.00    -0.200 F 
ENDBRANCH  53  67
BRANCH  54  78
ATOM     78  C   UNL A   1      43.003  26.099  27.889  1.00  0.00     0.064 A 
ATOM     79  C   UNL A   1      42.710  24.729  27.863  1.00  0.00     0.173 A 
ATOM     80  C   UNL A   1      43.803  26.613  26.856  1.00  0.00     0.173 A 
ATOM     81  F   UNL A   1      41.971  24.183  28.841  1.00  0.00    -0.203 F 
ATOM     82  C   UNL A   1      43.207  23.903  26.855  1.00  0.00     0.198 A 
ATOM     83  C   UNL A   1      44.274  25.794  25.833  1.00  0.00     0.198 A 
ATOM     84  F   UNL A   1      44.116  27.917  26.836  1.00  0.00    -0.203 F 
ATOM     85  F   UNL A   1      42.948  22.590  26.879  1.00  0.00    -0.200 F 
ATOM     86  C   UNL A   1      43.983  24.439  25.838  1.00  0.00     0.200 A 
ATOM     87  F   UNL A   1      45.012  26.318  24.846  1.00  0.00    -0.200 F 
ATOM     88  F   UNL A   1      44.456  23.647  24.866  1.00  0.00    -0.200 F 
ENDBRANCH  54  78
BRANCH  66  89
ATOM     89  C   UNL A   1      45.568  28.004  34.081  1.00  0.00     0.064 A 
ATOM     90  C   UNL A   1      46.712  28.804  33.942  1.00  0.00     0.173 A 
ATOM     91  C   UNL A   1      45.638  26.899  34.943  1.00  0.00     0.173 A 
ATOM     92  F   UNL A   1      46.699  29.862  33.117  1.00  0.00    -0.203 F 
ATOM     93  C   UNL A   1      47.885  28.497  34.624  1.00  0.00     0.198 A 
ATOM     94  C   UNL A   1      46.805  26.611  35.644  1.00  0.00     0.198 A 
ATOM     95  F   UNL A   1      44.569  26.106  35.115  1.00  0.00    -0.203 F 
ATOM     96  F   UNL A   1      48.979  29.250  34.444  1.00  0.00    -0.200 F 
ATOM     97  C   UNL A   1      47.929  27.407  35.480  1.00  0.00     0.200 A 
ATOM     98  F   UNL A   1      46.842  25.564  36.479  1.00  0.00    -0.200 F 
ATOM     99  F   UNL A   1      49.058  27.117  36.141  1.00  0.00    -0.200 F 
ENDBRANCH  66  89
ENDBRANCH  40  41
ENDBRANCH  33  35
ENDBRANCH  32  33
ENDBRANCH  31  32
ENDBRANCH   1  31
TORSDOF 17
ENDMDL
