MODEL 1
REMARK VINA RESULT:     -11.7      0.000      0.000
REMARK SMILES Cc1ccnc(C(=O)c2[nH]c3ccc(OC(F)(F)F)cc3c2CC(=O)OCCOC(=O)c2ccc(-c3c4nc(c(-c5c(F)c(F)c(F)c(F)c5F)c5ccc([nH]5)c(-c5c(F)c(F)c(F)c(F)c5F)c5nc(c(-c6c(F)c(F)c(F)c(F)c6F)c6ccc3[nH]6)C=C5)C=C4)cc2)c1
REMARK SMILES IDX 27 1 26 2 24 3 25 4 23 5 22 6 9 7 10 8 11 9 21 11 12 12
REMARK SMILES IDX 20 13 13 14 14 15 7 16 8 17 6 18 1 19 2 20 3 21 95 22 4 23
REMARK SMILES IDX 5 24 15 25 16 26 17 27 18 28 19 29 28 30 29 31 30 32 31 33
REMARK SMILES IDX 32 34 33 35 94 36 34 37 93 38 35 39 36 40 37 41 87 42 38 43
REMARK SMILES IDX 92 44 86 45 88 46 39 47 91 48 85 49 84 50 40 52 72 53 52 54
REMARK SMILES IDX 71 55 53 56 56 57 70 58 89 59 54 60 55 61 69 63 90 64 57 65
REMARK SMILES IDX 41 66 42 67 50 68 43 69 44 70 48 71 51 72 45 73 46 74 49 75
REMARK SMILES IDX 47 76 73 77 74 78 82 79 75 80 76 81 80 82 83 83 77 84 78 85
REMARK SMILES IDX 81 86 79 87 58 88 59 89 67 90 60 91 61 92 65 93 68 94 62 95
REMARK SMILES IDX 63 96 66 97 64 98
REMARK H PARENT 10 10 88 51 56 62
REMARK Flexibility Score: inf
ROOT
ATOM      1  C   UNL A   1      35.718  22.005  25.532  1.00  0.00     0.274 C 
ENDROOT
BRANCH   1   2
ATOM      2  O   UNL A   1      35.484  22.833  24.369  1.00  0.00    -0.462 OA
BRANCH   2   3
ATOM      3  C   UNL A   1      34.747  23.951  24.575  1.00  0.00     0.310 C 
ATOM      4  O   UNL A   1      34.276  24.636  23.667  1.00  0.00    -0.252 OA
BRANCH   3   5
ATOM      5  C   UNL A   1      34.405  24.256  26.016  1.00  0.00     0.161 C 
BRANCH   5   6
ATOM      6  C   UNL A   1      33.207  25.088  26.349  1.00  0.00     0.000 A 
ATOM      7  C   UNL A   1      31.875  24.689  26.466  1.00  0.00     0.093 A 
ATOM      8  N   UNL A   1      31.138  25.816  26.735  1.00  0.00    -0.352 N 
ATOM      9  C   UNL A   1      31.899  26.943  26.597  1.00  0.00     0.046 A 
ATOM     10  H   UNL A   1      30.188  25.814  26.991  1.00  0.00     0.167 HD
ATOM     11  C   UNL A   1      33.215  26.527  26.438  1.00  0.00     0.008 A 
ATOM     12  C   UNL A   1      31.517  28.285  26.612  1.00  0.00     0.030 A 
ATOM     13  C   UNL A   1      34.215  27.521  26.343  1.00  0.00     0.057 A 
ATOM     14  C   UNL A   1      32.522  29.248  26.483  1.00  0.00     0.049 A 
ATOM     15  C   UNL A   1      33.863  28.882  26.371  1.00  0.00     0.130 A 
BRANCH   7  16
ATOM     16  C   UNL A   1      31.189  23.407  26.404  1.00  0.00     0.227 C 
ATOM     17  O   UNL A   1      30.243  23.178  27.157  1.00  0.00    -0.285 OA
BRANCH  16  18
ATOM     18  C   UNL A   1      31.422  22.491  25.223  1.00  0.00     0.113 A 
ATOM     19  C   UNL A   1      33.200  19.243  24.372  1.00  0.00     0.044 C 
ATOM     20  C   UNL A   1      32.455  20.540  24.254  1.00  0.00    -0.047 A 
ATOM     21  C   UNL A   1      32.277  21.120  22.998  1.00  0.00     0.023 A 
ATOM     22  C   UNL A   1      32.001  21.231  25.387  1.00  0.00     0.036 A 
ATOM     23  C   UNL A   1      31.668  22.358  22.922  1.00  0.00     0.112 A 
ATOM     24  N   UNL A   1      31.243  23.052  23.996  1.00  0.00    -0.253 NA
ENDBRANCH  16  18
ENDBRANCH   7  16
BRANCH  15  25
ATOM     25  O   UNL A   1      34.924  29.739  26.270  1.00  0.00    -0.406 OA
BRANCH  25  26
ATOM     26  C   UNL A   1      35.613  30.073  27.463  1.00  0.00     0.573 C 
ATOM     27  F   UNL A   1      35.550  31.401  27.702  1.00  0.00    -0.132 F 
ATOM     28  F   UNL A   1      35.118  29.401  28.525  1.00  0.00    -0.132 F 
ATOM     29  F   UNL A   1      36.914  29.734  27.324  1.00  0.00    -0.132 F 
ENDBRANCH  25  26
ENDBRANCH  15  25
ENDBRANCH   5   6
ENDBRANCH   3   5
ENDBRANCH   2   3
ENDBRANCH   1   2
BRANCH   1  30
ATOM     30  C   UNL A   1      36.870  21.009  25.318  1.00  0.00     0.275 C 
BRANCH  30  31
ATOM     31  O   UNL A   1      38.146  21.654  25.115  1.00  0.00    -0.458 OA
BRANCH  31  32
ATOM     32  C   UNL A   1      39.000  21.473  26.143  1.00  0.00     0.338 C 
ATOM     33  O   UNL A   1      39.451  20.409  26.535  1.00  0.00    -0.246 OA
BRANCH  32  34
ATOM     34  C   UNL A   1      39.498  22.721  26.719  1.00  0.00     0.060 A 
ATOM     35  C   UNL A   1      39.071  23.904  26.117  1.00  0.00     0.016 A 
ATOM     36  C   UNL A   1      40.565  22.723  27.617  1.00  0.00     0.016 A 
ATOM     37  C   UNL A   1      39.762  25.084  26.342  1.00  0.00     0.010 A 
ATOM     38  C   UNL A   1      41.212  23.932  27.905  1.00  0.00     0.010 A 
ATOM     39  C   UNL A   1      40.834  25.113  27.245  1.00  0.00    -0.014 A 
BRANCH  39  40
ATOM     40  C   UNL A   1      41.497  26.414  27.495  1.00  0.00     0.031 A 
ATOM     41  C   UNL A   1      40.829  27.494  28.294  1.00  0.00     0.074 A 
ATOM     42  C   UNL A   1      42.767  26.566  27.076  1.00  0.00     0.049 A 
ATOM     43  N   UNL A   1      41.314  28.642  28.696  1.00  0.00    -0.248 NA
ATOM     44  C   UNL A   1      39.440  27.252  28.711  1.00  0.00     0.031 C 
ATOM     45  C   UNL A   1      43.526  25.567  26.321  1.00  0.00     0.029 A 
ATOM     46  N   UNL A   1      43.651  27.598  27.249  1.00  0.00    -0.354 N 
ATOM     47  C   UNL A   1      40.303  29.248  29.428  1.00  0.00     0.074 A 
ATOM     48  C   UNL A   1      39.161  28.358  29.389  1.00  0.00     0.031 C 
ATOM     49  C   UNL A   1      44.773  26.020  26.125  1.00  0.00     0.029 A 
ATOM     50  C   UNL A   1      44.882  27.359  26.692  1.00  0.00     0.049 A 
ATOM     51  H   UNL A   1      43.425  28.430  27.724  1.00  0.00     0.167 HD
ATOM     52  C   UNL A   1      40.332  30.435  30.079  1.00  0.00     0.037 A 
ATOM     53  C   UNL A   1      45.974  28.140  26.628  1.00  0.00     0.037 A 
ATOM     54  C   UNL A   1      41.455  31.337  30.080  1.00  0.00     0.049 A 
ATOM     55  C   UNL A   1      45.936  29.498  27.265  1.00  0.00     0.074 A 
ATOM     56  C   UNL A   1      41.572  32.576  30.690  1.00  0.00     0.029 A 
ATOM     57  N   UNL A   1      42.654  31.104  29.422  1.00  0.00    -0.354 N 
ATOM     58  N   UNL A   1      44.979  30.054  27.965  1.00  0.00    -0.248 NA
ATOM     59  C   UNL A   1      47.126  30.338  27.092  1.00  0.00     0.031 C 
ATOM     60  C   UNL A   1      42.827  33.107  30.368  1.00  0.00     0.029 A 
ATOM     61  C   UNL A   1      43.504  32.186  29.587  1.00  0.00     0.049 A 
ATOM     62  H   UNL A   1      42.869  30.288  28.913  1.00  0.00     0.167 HD
ATOM     63  C   UNL A   1      45.449  31.309  28.320  1.00  0.00     0.074 A 
ATOM     64  C   UNL A   1      46.790  31.420  27.780  1.00  0.00     0.031 C 
ATOM     65  C   UNL A   1      44.826  32.284  29.024  1.00  0.00     0.037 A 
BRANCH  52  66
ATOM     66  C   UNL A   1      39.105  30.841  30.839  1.00  0.00     0.064 A 
ATOM     67  C   UNL A   1      38.055  31.525  30.210  1.00  0.00     0.173 A 
ATOM     68  C   UNL A   1      38.949  30.490  32.187  1.00  0.00     0.173 A 
ATOM     69  F   UNL A   1      38.165  31.900  28.926  1.00  0.00    -0.203 F 
ATOM     70  C   UNL A   1      36.890  31.843  30.906  1.00  0.00     0.198 A 
ATOM     71  C   UNL A   1      37.779  30.799  32.877  1.00  0.00     0.198 A 
ATOM     72  F   UNL A   1      39.928  29.838  32.833  1.00  0.00    -0.203 F 
ATOM     73  F   UNL A   1      35.907  32.514  30.291  1.00  0.00    -0.200 F 
ATOM     74  C   UNL A   1      36.752  31.474  32.236  1.00  0.00     0.200 A 
ATOM     75  F   UNL A   1      37.645  30.440  34.161  1.00  0.00    -0.200 F 
ATOM     76  F   UNL A   1      35.628  31.776  32.902  1.00  0.00    -0.200 F 
ENDBRANCH  52  66
BRANCH  53  77
ATOM     77  C   UNL A   1      47.176  27.659  25.905  1.00  0.00     0.064 A 
ATOM     78  C   UNL A   1      48.234  27.045  26.587  1.00  0.00     0.173 A 
ATOM     79  C   UNL A   1      47.281  27.794  24.513  1.00  0.00     0.173 A 
ATOM     80  F   UNL A   1      48.186  26.914  27.921  1.00  0.00    -0.203 F 
ATOM     81  C   UNL A   1      49.356  26.586  25.900  1.00  0.00     0.198 A 
ATOM     82  C   UNL A   1      48.391  27.313  23.826  1.00  0.00     0.198 A 
ATOM     83  F   UNL A   1      46.292  28.376  23.818  1.00  0.00    -0.203 F 
ATOM     84  F   UNL A   1      50.370  26.032  26.577  1.00  0.00    -0.200 F 
ATOM     85  C   UNL A   1      49.430  26.715  24.521  1.00  0.00     0.200 A 
ATOM     86  F   UNL A   1      48.451  27.427  22.493  1.00  0.00    -0.200 F 
ATOM     87  F   UNL A   1      50.508  26.267  23.862  1.00  0.00    -0.200 F 
ENDBRANCH  53  77
BRANCH  65  88
ATOM     88  C   UNL A   1      45.595  33.551  29.238  1.00  0.00     0.064 A 
ATOM     89  C   UNL A   1      45.501  34.619  28.334  1.00  0.00     0.173 A 
ATOM     90  C   UNL A   1      46.438  33.698  30.349  1.00  0.00     0.173 A 
ATOM     91  F   UNL A   1      44.723  34.514  27.246  1.00  0.00    -0.203 F 
ATOM     92  C   UNL A   1      46.247  35.779  28.519  1.00  0.00     0.198 A 
ATOM     93  C   UNL A   1      47.165  34.869  30.542  1.00  0.00     0.198 A 
ATOM     94  F   UNL A   1      46.560  32.704  31.241  1.00  0.00    -0.203 F 
ATOM     95  F   UNL A   1      46.180  36.768  27.616  1.00  0.00    -0.200 F 
ATOM     96  C   UNL A   1      47.075  35.904  29.624  1.00  0.00     0.200 A 
ATOM     97  F   UNL A   1      47.962  34.991  31.614  1.00  0.00    -0.200 F 
ATOM     98  F   UNL A   1      47.798  37.019  29.798  1.00  0.00    -0.200 F 
ENDBRANCH  65  88
ENDBRANCH  39  40
ENDBRANCH  32  34
ENDBRANCH  31  32
ENDBRANCH  30  31
ENDBRANCH   1  30
TORSDOF 16
ENDMDL
MODEL 2
REMARK VINA RESULT:     -11.7      2.571      8.336
REMARK SMILES Cc1ccnc(C(=O)c2[nH]c3ccc(OC(F)(F)F)cc3c2CC(=O)OCCOC(=O)c2ccc(-c3c4nc(c(-c5c(F)c(F)c(F)c(F)c5F)c5ccc([nH]5)c(-c5c(F)c(F)c(F)c(F)c5F)c5nc(c(-c6c(F)c(F)c(F)c(F)c6F)c6ccc3[nH]6)C=C5)C=C4)cc2)c1
REMARK SMILES IDX 27 1 26 2 24 3 25 4 23 5 22 6 9 7 10 8 11 9 21 11 12 12
REMARK SMILES IDX 20 13 13 14 14 15 7 16 8 17 6 18 1 19 2 20 3 21 95 22 4 23
REMARK SMILES IDX 5 24 15 25 16 26 17 27 18 28 19 29 28 30 29 31 30 32 31 33
REMARK SMILES IDX 32 34 33 35 94 36 34 37 93 38 35 39 36 40 37 41 87 42 38 43
REMARK SMILES IDX 92 44 86 45 88 46 39 47 91 48 85 49 84 50 40 52 72 53 52 54
REMARK SMILES IDX 71 55 53 56 56 57 70 58 89 59 54 60 55 61 69 63 90 64 57 65
REMARK SMILES IDX 41 66 42 67 50 68 43 69 44 70 48 71 51 72 45 73 46 74 49 75
REMARK SMILES IDX 47 76 73 77 74 78 82 79 75 80 76 81 80 82 83 83 77 84 78 85
REMARK SMILES IDX 81 86 79 87 58 88 59 89 67 90 60 91 61 92 65 93 68 94 62 95
REMARK SMILES IDX 63 96 66 97 64 98
REMARK H PARENT 10 10 88 51 56 62
REMARK Flexibility Score: inf
ROOT
ATOM      1  C   UNL A   1      35.893  21.104  25.767  1.00  0.00     0.274 C 
ENDROOT
BRANCH   1   2
ATOM      2  O   UNL A   1      35.716  22.537  25.845  1.00  0.00    -0.462 OA
BRANCH   2   3
ATOM      3  C   UNL A   1      34.584  22.964  26.454  1.00  0.00     0.310 C 
ATOM      4  O   UNL A   1      34.350  22.805  27.652  1.00  0.00    -0.252 OA
BRANCH   3   5
ATOM      5  C   UNL A   1      33.649  23.789  25.598  1.00  0.00     0.161 C 
BRANCH   5   6
ATOM      6  C   UNL A   1      33.342  23.371  24.195  1.00  0.00     0.000 A 
ATOM      7  C   UNL A   1      33.203  24.169  23.058  1.00  0.00     0.093 A 
ATOM      8  N   UNL A   1      32.872  23.336  22.018  1.00  0.00    -0.352 N 
ATOM      9  C   UNL A   1      32.596  22.076  22.468  1.00  0.00     0.046 A 
ATOM     10  H   UNL A   1      32.837  23.610  21.073  1.00  0.00     0.167 HD
ATOM     11  C   UNL A   1      32.957  22.036  23.810  1.00  0.00     0.008 A 
ATOM     12  C   UNL A   1      32.066  20.981  21.786  1.00  0.00     0.030 A 
ATOM     13  C   UNL A   1      32.830  20.805  24.491  1.00  0.00     0.057 A 
ATOM     14  C   UNL A   1      31.920  19.783  22.492  1.00  0.00     0.049 A 
ATOM     15  C   UNL A   1      32.314  19.679  23.826  1.00  0.00     0.130 A 
BRANCH   7  16
ATOM     16  C   UNL A   1      33.369  25.590  22.787  1.00  0.00     0.227 C 
ATOM     17  O   UNL A   1      33.693  25.968  21.662  1.00  0.00    -0.285 OA
BRANCH  16  18
ATOM     18  C   UNL A   1      32.847  26.606  23.778  1.00  0.00     0.113 A 
ATOM     19  C   UNL A   1      34.045  28.649  26.749  1.00  0.00     0.044 C 
ATOM     20  C   UNL A   1      33.169  28.001  25.718  1.00  0.00    -0.047 A 
ATOM     21  C   UNL A   1      31.783  28.032  25.876  1.00  0.00     0.023 A 
ATOM     22  C   UNL A   1      33.710  27.290  24.638  1.00  0.00     0.036 A 
ATOM     23  C   UNL A   1      31.000  27.351  24.963  1.00  0.00     0.112 A 
ATOM     24  N   UNL A   1      31.495  26.643  23.929  1.00  0.00    -0.253 NA
ENDBRANCH  16  18
ENDBRANCH   7  16
BRANCH  15  25
ATOM     25  O   UNL A   1      32.244  18.553  24.598  1.00  0.00    -0.406 OA
BRANCH  25  26
ATOM     26  C   UNL A   1      33.268  17.584  24.442  1.00  0.00     0.573 C 
ATOM     27  F   UNL A   1      33.465  16.900  25.590  1.00  0.00    -0.132 F 
ATOM     28  F   UNL A   1      32.981  16.719  23.445  1.00  0.00    -0.132 F 
ATOM     29  F   UNL A   1      34.420  18.216  24.128  1.00  0.00    -0.132 F 
ENDBRANCH  25  26
ENDBRANCH  15  25
ENDBRANCH   5   6
ENDBRANCH   3   5
ENDBRANCH   2   3
ENDBRANCH   1   2
BRANCH   1  30
ATOM     30  C   UNL A   1      37.153  20.713  24.976  1.00  0.00     0.275 C 
BRANCH  30  31
ATOM     31  O   UNL A   1      38.204  21.700  25.063  1.00  0.00    -0.458 OA
BRANCH  31  32
ATOM     32  C   UNL A   1      39.120  21.416  26.011  1.00  0.00     0.338 C 
ATOM     33  O   UNL A   1      39.608  20.323  26.247  1.00  0.00    -0.246 OA
BRANCH  32  34
ATOM     34  C   UNL A   1      39.635  22.597  26.702  1.00  0.00     0.060 A 
ATOM     35  C   UNL A   1      39.237  23.838  26.205  1.00  0.00     0.016 A 
ATOM     36  C   UNL A   1      40.692  22.498  27.606  1.00  0.00     0.016 A 
ATOM     37  C   UNL A   1      39.948  24.979  26.542  1.00  0.00     0.010 A 
ATOM     38  C   UNL A   1      41.359  23.662  28.008  1.00  0.00     0.010 A 
ATOM     39  C   UNL A   1      41.009  24.905  27.453  1.00  0.00    -0.014 A 
BRANCH  39  40
ATOM     40  C   UNL A   1      41.695  26.165  27.826  1.00  0.00     0.031 A 
ATOM     41  C   UNL A   1      43.090  26.464  27.365  1.00  0.00     0.074 A 
ATOM     42  C   UNL A   1      40.991  27.090  28.506  1.00  0.00     0.049 A 
ATOM     43  N   UNL A   1      43.789  27.563  27.510  1.00  0.00    -0.248 NA
ATOM     44  C   UNL A   1      43.793  25.401  26.631  1.00  0.00     0.031 C 
ATOM     45  C   UNL A   1      39.614  26.918  28.975  1.00  0.00     0.029 A 
ATOM     46  N   UNL A   1      41.321  28.361  28.894  1.00  0.00    -0.354 N 
ATOM     47  C   UNL A   1      44.999  27.333  26.870  1.00  0.00     0.074 A 
ATOM     48  C   UNL A   1      44.957  25.977  26.363  1.00  0.00     0.031 C 
ATOM     49  C   UNL A   1      39.205  28.053  29.557  1.00  0.00     0.029 A 
ATOM     50  C   UNL A   1      40.306  29.010  29.549  1.00  0.00     0.049 A 
ATOM     51  H   UNL A   1      42.200  28.769  28.721  1.00  0.00     0.167 HD
ATOM     52  C   UNL A   1      46.043  28.181  26.716  1.00  0.00     0.037 A 
ATOM     53  C   UNL A   1      40.270  30.235  30.102  1.00  0.00     0.037 A 
ATOM     54  C   UNL A   1      46.097  29.515  27.258  1.00  0.00     0.049 A 
ATOM     55  C   UNL A   1      41.484  31.111  30.009  1.00  0.00     0.074 A 
ATOM     56  C   UNL A   1      47.122  30.444  27.176  1.00  0.00     0.029 A 
ATOM     57  N   UNL A   1      45.085  30.105  28.001  1.00  0.00    -0.354 N 
ATOM     58  N   UNL A   1      42.617  30.887  29.390  1.00  0.00    -0.248 NA
ATOM     59  C   UNL A   1      41.417  32.403  30.701  1.00  0.00     0.031 C 
ATOM     60  C   UNL A   1      46.744  31.579  27.903  1.00  0.00     0.029 A 
ATOM     61  C   UNL A   1      45.472  31.372  28.408  1.00  0.00     0.049 A 
ATOM     62  H   UNL A   1      44.219  29.685  28.209  1.00  0.00     0.167 HD
ATOM     63  C   UNL A   1      43.399  32.009  29.614  1.00  0.00     0.074 A 
ATOM     64  C   UNL A   1      42.600  32.925  30.404  1.00  0.00     0.031 C 
ATOM     65  C   UNL A   1      44.668  32.258  29.209  1.00  0.00     0.037 A 
BRANCH  52  66
ATOM     66  C   UNL A   1      47.226  27.692  25.937  1.00  0.00     0.064 A 
ATOM     67  C   UNL A   1      47.241  27.735  24.535  1.00  0.00     0.173 A 
ATOM     68  C   UNL A   1      48.378  27.236  26.594  1.00  0.00     0.173 A 
ATOM     69  F   UNL A   1      46.156  28.145  23.860  1.00  0.00    -0.203 F 
ATOM     70  C   UNL A   1      48.368  27.338  23.819  1.00  0.00     0.198 A 
ATOM     71  C   UNL A   1      49.508  26.852  25.875  1.00  0.00     0.198 A 
ATOM     72  F   UNL A   1      48.411  27.174  27.934  1.00  0.00    -0.203 F 
ATOM     73  F   UNL A   1      48.354  27.369  22.479  1.00  0.00    -0.200 F 
ATOM     74  C   UNL A   1      49.502  26.903  24.490  1.00  0.00     0.200 A 
ATOM     75  F   UNL A   1      50.603  26.434  26.525  1.00  0.00    -0.200 F 
ATOM     76  F   UNL A   1      50.587  26.528  23.799  1.00  0.00    -0.200 F 
ENDBRANCH  52  66
BRANCH  53  77
ATOM     77  C   UNL A   1      39.049  30.682  30.814  1.00  0.00     0.064 A 
ATOM     78  C   UNL A   1      37.988  31.284  30.127  1.00  0.00     0.173 A 
ATOM     79  C   UNL A   1      38.917  30.499  32.199  1.00  0.00     0.173 A 
ATOM     80  F   UNL A   1      38.080  31.498  28.807  1.00  0.00    -0.203 F 
ATOM     81  C   UNL A   1      36.839  31.692  30.802  1.00  0.00     0.198 A 
ATOM     82  C   UNL A   1      37.758  30.884  32.867  1.00  0.00     0.198 A 
ATOM     83  F   UNL A   1      39.907  29.926  32.898  1.00  0.00    -0.203 F 
ATOM     84  F   UNL A   1      35.851  32.296  30.129  1.00  0.00    -0.200 F 
ATOM     85  C   UNL A   1      36.723  31.486  32.169  1.00  0.00     0.200 A 
ATOM     86  F   UNL A   1      37.645  30.669  34.184  1.00  0.00    -0.200 F 
ATOM     87  F   UNL A   1      35.614  31.873  32.815  1.00  0.00    -0.200 F 
ENDBRANCH  53  77
BRANCH  65  88
ATOM     88  C   UNL A   1      45.258  33.571  29.623  1.00  0.00     0.064 A 
ATOM     89  C   UNL A   1      45.980  33.697  30.820  1.00  0.00     0.173 A 
ATOM     90  C   UNL A   1      45.095  34.712  28.826  1.00  0.00     0.173 A 
ATOM     91  F   UNL A   1      46.141  32.637  31.625  1.00  0.00    -0.203 F 
ATOM     92  C   UNL A   1      46.493  34.929  31.216  1.00  0.00     0.198 A 
ATOM     93  C   UNL A   1      45.631  35.936  29.215  1.00  0.00     0.198 A 
ATOM     94  F   UNL A   1      44.414  34.640  27.673  1.00  0.00    -0.203 F 
ATOM     95  F   UNL A   1      47.136  35.038  32.388  1.00  0.00    -0.200 F 
ATOM     96  C   UNL A   1      46.321  36.045  30.412  1.00  0.00     0.200 A 
ATOM     97  F   UNL A   1      45.468  37.015  28.435  1.00  0.00    -0.200 F 
ATOM     98  F   UNL A   1      46.810  37.232  30.799  1.00  0.00    -0.200 F 
ENDBRANCH  65  88
ENDBRANCH  39  40
ENDBRANCH  32  34
ENDBRANCH  31  32
ENDBRANCH  30  31
ENDBRANCH   1  30
TORSDOF 16
ENDMDL
MODEL 3
REMARK VINA RESULT:     -11.7      1.040      7.255
REMARK SMILES Cc1ccnc(C(=O)c2[nH]c3ccc(OC(F)(F)F)cc3c2CC(=O)OCCOC(=O)c2ccc(-c3c4nc(c(-c5c(F)c(F)c(F)c(F)c5F)c5ccc([nH]5)c(-c5c(F)c(F)c(F)c(F)c5F)c5nc(c(-c6c(F)c(F)c(F)c(F)c6F)c6ccc3[nH]6)C=C5)C=C4)cc2)c1
REMARK SMILES IDX 27 1 26 2 24 3 25 4 23 5 22 6 9 7 10 8 11 9 21 11 12 12
REMARK SMILES IDX 20 13 13 14 14 15 7 16 8 17 6 18 1 19 2 20 3 21 95 22 4 23
REMARK SMILES IDX 5 24 15 25 16 26 17 27 18 28 19 29 28 30 29 31 30 32 31 33
REMARK SMILES IDX 32 34 33 35 94 36 34 37 93 38 35 39 36 40 37 41 87 42 38 43
REMARK SMILES IDX 92 44 86 45 88 46 39 47 91 48 85 49 84 50 40 52 72 53 52 54
REMARK SMILES IDX 71 55 53 56 56 57 70 58 89 59 54 60 55 61 69 63 90 64 57 65
REMARK SMILES IDX 41 66 42 67 50 68 43 69 44 70 48 71 51 72 45 73 46 74 49 75
REMARK SMILES IDX 47 76 73 77 74 78 82 79 75 80 76 81 80 82 83 83 77 84 78 85
REMARK SMILES IDX 81 86 79 87 58 88 59 89 67 90 60 91 61 92 65 93 68 94 62 95
REMARK SMILES IDX 63 96 66 97 64 98
REMARK H PARENT 10 10 88 51 56 62
REMARK Flexibility Score: inf
ROOT
ATOM      1  C   UNL A   1      36.805  21.261  24.654  1.00  0.00     0.274 C 
ENDROOT
BRANCH   1   2
ATOM      2  O   UNL A   1      36.994  22.439  23.837  1.00  0.00    -0.462 OA
BRANCH   2   3
ATOM      3  C   UNL A   1      36.026  23.383  23.923  1.00  0.00     0.310 C 
ATOM      4  O   UNL A   1      35.321  23.729  22.975  1.00  0.00    -0.252 OA
BRANCH   3   5
ATOM      5  C   UNL A   1      35.751  23.916  25.312  1.00  0.00     0.161 C 
BRANCH   5   6
ATOM      6  C   UNL A   1      34.344  24.110  25.782  1.00  0.00     0.000 A 
ATOM      7  C   UNL A   1      33.358  23.145  25.998  1.00  0.00     0.093 A 
ATOM      8  N   UNL A   1      32.218  23.812  26.377  1.00  0.00    -0.352 N 
ATOM      9  C   UNL A   1      32.366  25.162  26.221  1.00  0.00     0.046 A 
ATOM     10  H   UNL A   1      31.403  23.376  26.715  1.00  0.00     0.167 HD
ATOM     11  C   UNL A   1      33.705  25.393  25.930  1.00  0.00     0.008 A 
ATOM     12  C   UNL A   1      31.418  26.180  26.325  1.00  0.00     0.030 A 
ATOM     13  C   UNL A   1      34.128  26.734  25.790  1.00  0.00     0.057 A 
ATOM     14  C   UNL A   1      31.857  27.496  26.149  1.00  0.00     0.049 A 
ATOM     15  C   UNL A   1      33.199  27.783  25.905  1.00  0.00     0.130 A 
BRANCH   7  16
ATOM     16  C   UNL A   1      33.329  21.691  25.942  1.00  0.00     0.227 C 
ATOM     17  O   UNL A   1      33.523  21.032  26.963  1.00  0.00    -0.285 OA
BRANCH  16  18
ATOM     18  C   UNL A   1      32.755  21.002  24.724  1.00  0.00     0.113 A 
ATOM     19  C   UNL A   1      32.834  17.620  22.993  1.00  0.00     0.044 C 
ATOM     20  C   UNL A   1      32.595  19.072  23.288  1.00  0.00    -0.047 A 
ATOM     21  C   UNL A   1      32.152  19.917  22.270  1.00  0.00     0.023 A 
ATOM     22  C   UNL A   1      32.884  19.623  24.544  1.00  0.00     0.036 A 
ATOM     23  C   UNL A   1      32.025  21.266  22.541  1.00  0.00     0.112 A 
ATOM     24  N   UNL A   1      32.316  21.823  23.732  1.00  0.00    -0.253 NA
ENDBRANCH  16  18
ENDBRANCH   7  16
BRANCH  15  25
ATOM     25  O   UNL A   1      33.738  29.030  25.749  1.00  0.00    -0.406 OA
BRANCH  25  26
ATOM     26  C   UNL A   1      34.369  29.619  26.874  1.00  0.00     0.573 C 
ATOM     27  F   UNL A   1      33.873  29.115  28.025  1.00  0.00    -0.132 F 
ATOM     28  F   UNL A   1      35.707  29.436  26.841  1.00  0.00    -0.132 F 
ATOM     29  F   UNL A   1      34.129  30.949  26.861  1.00  0.00    -0.132 F 
ENDBRANCH  25  26
ENDBRANCH  15  25
ENDBRANCH   5   6
ENDBRANCH   3   5
ENDBRANCH   2   3
ENDBRANCH   1   2
BRANCH   1  30
ATOM     30  C   UNL A   1      38.135  20.572  25.002  1.00  0.00     0.275 C 
BRANCH  30  31
ATOM     31  O   UNL A   1      38.535  20.774  26.375  1.00  0.00    -0.458 OA
BRANCH  31  32
ATOM     32  C   UNL A   1      39.868  20.917  26.522  1.00  0.00     0.338 C 
ATOM     33  O   UNL A   1      40.730  20.153  26.121  1.00  0.00    -0.246 OA
BRANCH  32  34
ATOM     34  C   UNL A   1      40.259  22.196  27.113  1.00  0.00     0.060 A 
ATOM     35  C   UNL A   1      39.796  23.348  26.478  1.00  0.00     0.016 A 
ATOM     36  C   UNL A   1      41.275  22.267  28.067  1.00  0.00     0.016 A 
ATOM     37  C   UNL A   1      40.403  24.569  26.728  1.00  0.00     0.010 A 
ATOM     38  C   UNL A   1      41.832  23.514  28.377  1.00  0.00     0.010 A 
ATOM     39  C   UNL A   1      41.421  24.666  27.687  1.00  0.00    -0.014 A 
BRANCH  39  40
ATOM     40  C   UNL A   1      41.992  26.006  27.960  1.00  0.00     0.031 A 
ATOM     41  C   UNL A   1      43.352  26.395  27.461  1.00  0.00     0.074 A 
ATOM     42  C   UNL A   1      41.212  26.911  28.581  1.00  0.00     0.049 A 
ATOM     43  N   UNL A   1      43.949  27.559  27.519  1.00  0.00    -0.248 NA
ATOM     44  C   UNL A   1      44.143  25.348  26.798  1.00  0.00     0.031 C 
ATOM     45  C   UNL A   1      39.859  26.651  29.077  1.00  0.00     0.029 A 
ATOM     46  N   UNL A   1      41.428  28.231  28.873  1.00  0.00    -0.354 N 
ATOM     47  C   UNL A   1      45.172  27.392  26.883  1.00  0.00     0.074 A 
ATOM     48  C   UNL A   1      45.250  26.005  26.475  1.00  0.00     0.031 C 
ATOM     49  C   UNL A   1      39.351  27.785  29.581  1.00  0.00     0.029 A 
ATOM     50  C   UNL A   1      40.362  28.833  29.492  1.00  0.00     0.049 A 
ATOM     51  H   UNL A   1      42.265  28.702  28.660  1.00  0.00     0.167 HD
ATOM     52  C   UNL A   1      46.135  28.317  26.656  1.00  0.00     0.037 A 
ATOM     53  C   UNL A   1      40.219  30.087  29.955  1.00  0.00     0.037 A 
ATOM     54  C   UNL A   1      46.071  29.686  27.100  1.00  0.00     0.049 A 
ATOM     55  C   UNL A   1      41.349  31.059  29.785  1.00  0.00     0.074 A 
ATOM     56  C   UNL A   1      47.008  30.694  26.939  1.00  0.00     0.029 A 
ATOM     57  N   UNL A   1      45.015  30.236  27.812  1.00  0.00    -0.354 N 
ATOM     58  N   UNL A   1      42.494  30.893  29.171  1.00  0.00    -0.248 NA
ATOM     59  C   UNL A   1      41.170  32.386  30.383  1.00  0.00     0.031 C 
ATOM     60  C   UNL A   1      46.534  31.841  27.588  1.00  0.00     0.029 A 
ATOM     61  C   UNL A   1      45.288  31.559  28.122  1.00  0.00     0.049 A 
ATOM     62  H   UNL A   1      44.190  29.756  28.059  1.00  0.00     0.167 HD
ATOM     63  C   UNL A   1      43.173  32.094  29.304  1.00  0.00     0.074 A 
ATOM     64  C   UNL A   1      42.299  32.989  30.036  1.00  0.00     0.031 C 
ATOM     65  C   UNL A   1      44.412  32.425  28.867  1.00  0.00     0.037 A 
BRANCH  52  66
ATOM     66  C   UNL A   1      47.353  27.881  25.900  1.00  0.00     0.064 A 
ATOM     67  C   UNL A   1      48.514  27.470  26.569  1.00  0.00     0.173 A 
ATOM     68  C   UNL A   1      47.340  27.811  24.499  1.00  0.00     0.173 A 
ATOM     69  F   UNL A   1      48.582  27.537  27.908  1.00  0.00    -0.203 F 
ATOM     70  C   UNL A   1      49.621  27.006  25.862  1.00  0.00     0.198 A 
ATOM     71  C   UNL A   1      48.444  27.334  23.796  1.00  0.00     0.198 A 
ATOM     72  F   UNL A   1      46.253  28.196  23.814  1.00  0.00    -0.203 F 
ATOM     73  F   UNL A   1      50.728  26.636  26.521  1.00  0.00    -0.200 F 
ATOM     74  C   UNL A   1      49.582  26.932  24.477  1.00  0.00     0.200 A 
ATOM     75  F   UNL A   1      48.404  27.262  22.458  1.00  0.00    -0.200 F 
ATOM     76  F   UNL A   1      50.646  26.479  23.800  1.00  0.00    -0.200 F 
ENDBRANCH  52  66
BRANCH  53  77
ATOM     77  C   UNL A   1      38.966  30.473  30.649  1.00  0.00     0.064 A 
ATOM     78  C   UNL A   1      38.857  30.399  32.042  1.00  0.00     0.173 A 
ATOM     79  C   UNL A   1      37.858  30.938  29.925  1.00  0.00     0.173 A 
ATOM     80  F   UNL A   1      39.884  29.941  32.772  1.00  0.00    -0.203 F 
ATOM     81  C   UNL A   1      37.680  30.773  32.688  1.00  0.00     0.198 A 
ATOM     82  C   UNL A   1      36.692  31.335  30.573  1.00  0.00     0.198 A 
ATOM     83  F   UNL A   1      37.917  31.026  28.588  1.00  0.00    -0.203 F 
ATOM     84  F   UNL A   1      37.587  30.663  34.019  1.00  0.00    -0.200 F 
ATOM     85  C   UNL A   1      36.603  31.247  31.954  1.00  0.00     0.200 A 
ATOM     86  F   UNL A   1      35.660  31.805  29.861  1.00  0.00    -0.200 F 
ATOM     87  F   UNL A   1      35.474  31.613  32.577  1.00  0.00    -0.200 F 
ENDBRANCH  53  77
BRANCH  65  88
ATOM     88  C   UNL A   1      44.884  33.812  29.179  1.00  0.00     0.064 A 
ATOM     89  C   UNL A   1      45.613  34.085  30.345  1.00  0.00     0.173 A 
ATOM     90  C   UNL A   1      44.598  34.876  28.313  1.00  0.00     0.173 A 
ATOM     91  F   UNL A   1      45.890  33.101  31.214  1.00  0.00    -0.203 F 
ATOM     92  C   UNL A   1      46.016  35.382  30.647  1.00  0.00     0.198 A 
ATOM     93  C   UNL A   1      45.024  36.168  28.607  1.00  0.00     0.198 A 
ATOM     94  F   UNL A   1      43.905  34.663  27.185  1.00  0.00    -0.203 F 
ATOM     95  F   UNL A   1      46.668  35.630  31.792  1.00  0.00    -0.200 F 
ATOM     96  C   UNL A   1      45.724  36.422  29.777  1.00  0.00     0.200 A 
ATOM     97  F   UNL A   1      44.745  37.172  27.762  1.00  0.00    -0.200 F 
ATOM     98  F   UNL A   1      46.107  37.671  30.072  1.00  0.00    -0.200 F 
ENDBRANCH  65  88
ENDBRANCH  39  40
ENDBRANCH  32  34
ENDBRANCH  31  32
ENDBRANCH  30  31
ENDBRANCH   1  30
TORSDOF 16
ENDMDL
