MODEL 1
REMARK VINA RESULT:     -12.2      0.000      0.000
REMARK SMILES O=C(C[C@H]1C(=O)N[NH+]=C2c3ccc(F)cc3N=CN21)OCCOC(=O)c1ccc(-c2c3nc(c(-c4c(F)c(F)c(F)c(F)c4F)c4ccc([nH]4)c(-c4c(F)c(F)c(F)c(F)c4F)c4nc(c(-c5c(F)c(F)c(F)c(F)c5F)c5ccc2[nH]5)C=C4)C=C3)cc1
REMARK SMILES IDX 22 1 21 2 20 3 2 4 1 5 3 6 4 7 5 8 19 9 6 10 7 11 9 12 18 13
REMARK SMILES IDX 8 14 10 16 17 17 11 19 16 20 12 21 15 22 13 23 14 24 23 25
REMARK SMILES IDX 24 26 25 27 26 28 27 29 88 30 28 31 87 32 29 33 30 34 31 35
REMARK SMILES IDX 81 36 32 37 86 38 80 39 82 40 33 41 85 42 79 43 78 44 34 46
REMARK SMILES IDX 66 47 46 48 65 49 47 50 50 51 64 52 83 53 48 54 49 55 63 57
REMARK SMILES IDX 84 58 51 59 35 60 36 61 44 62 37 63 38 64 42 65 45 66 39 67
REMARK SMILES IDX 40 68 43 69 41 70 67 71 68 72 76 73 69 74 70 75 74 76 77 77
REMARK SMILES IDX 71 78 72 79 75 80 73 81 52 82 53 83 61 84 54 85 55 86 59 87
REMARK SMILES IDX 62 88 56 89 57 90 60 91 58 92
REMARK H PARENT 7 15 8 18 82 45 50 56
REMARK Flexibility Score: inf
ROOT
ATOM      1  C   UNL A   1      34.035  32.529  28.515  1.00  0.00     0.275 C 
ENDROOT
BRANCH   1   2
ATOM      2  C   UNL A   1      33.952  33.999  28.083  1.00  0.00     0.274 C 
BRANCH   2   3
ATOM      3  O   UNL A   1      32.781  34.667  28.602  1.00  0.00    -0.462 OA
BRANCH   3   4
ATOM      4  C   UNL A   1      32.819  35.700  29.477  1.00  0.00     0.310 C 
ATOM      5  O   UNL A   1      32.873  36.863  29.084  1.00  0.00    -0.252 OA
BRANCH   4   6
ATOM      6  C   UNL A   1      32.968  35.385  30.937  1.00  0.00     0.183 C 
BRANCH   6   7
ATOM      7  C   UNL A   1      34.152  36.073  31.602  1.00  0.00     0.286 C 
ATOM      8  C   UNL A   1      33.616  37.023  32.665  1.00  0.00     0.300 C 
ATOM      9  N   UNL A   1      35.026  35.027  32.173  1.00  0.00    -0.202 N 
ATOM     10  O   UNL A   1      33.049  38.078  32.386  1.00  0.00    -0.267 OA
ATOM     11  N   UNL A   1      33.686  36.610  33.967  1.00  0.00    -0.193 N 
ATOM     12  C   UNL A   1      35.097  34.884  33.549  1.00  0.00     0.309 C 
ATOM     13  C   UNL A   1      35.668  34.145  31.335  1.00  0.00     0.317 C 
ATOM     14  N   UNL A   1      34.441  35.583  34.425  1.00  0.00    -0.169 N 
ATOM     15  H   UNL A   1      33.144  37.099  34.625  1.00  0.00     0.216 HD
ATOM     16  C   UNL A   1      36.042  33.835  34.036  1.00  0.00     0.092 A 
ATOM     17  N   UNL A   1      36.423  33.156  31.684  1.00  0.00    -0.216 NA
ATOM     18  H   UNL A   1      34.489  35.374  35.386  1.00  0.00     0.340 HD
ATOM     19  C   UNL A   1      36.379  33.736  35.391  1.00  0.00     0.022 A 
ATOM     20  C   UNL A   1      36.669  33.026  33.067  1.00  0.00     0.085 A 
ATOM     21  C   UNL A   1      37.365  32.833  35.783  1.00  0.00     0.040 A 
ATOM     22  C   UNL A   1      37.625  32.100  33.484  1.00  0.00     0.068 A 
ATOM     23  C   UNL A   1      37.975  32.023  34.828  1.00  0.00     0.125 A 
ATOM     24  F   UNL A   1      38.936  31.174  35.211  1.00  0.00    -0.207 F 
ENDBRANCH   6   7
ENDBRANCH   4   6
ENDBRANCH   3   4
ENDBRANCH   2   3
ENDBRANCH   1   2
BRANCH   1  25
ATOM     25  O   UNL A   1      34.522  31.677  27.458  1.00  0.00    -0.458 OA
BRANCH  25  26
ATOM     26  C   UNL A   1      34.517  30.338  27.719  1.00  0.00     0.338 C 
ATOM     27  O   UNL A   1      33.626  29.558  27.468  1.00  0.00    -0.246 OA
BRANCH  26  28
ATOM     28  C   UNL A   1      35.862  29.921  28.208  1.00  0.00     0.060 A 
ATOM     29  C   UNL A   1      36.071  29.456  29.508  1.00  0.00     0.016 A 
ATOM     30  C   UNL A   1      36.956  30.069  27.342  1.00  0.00     0.016 A 
ATOM     31  C   UNL A   1      37.370  29.151  29.939  1.00  0.00     0.010 A 
ATOM     32  C   UNL A   1      38.252  29.752  27.773  1.00  0.00     0.010 A 
ATOM     33  C   UNL A   1      38.475  29.292  29.078  1.00  0.00    -0.014 A 
BRANCH  33  34
ATOM     34  C   UNL A   1      39.829  28.855  29.527  1.00  0.00     0.031 A 
ATOM     35  C   UNL A   1      40.471  27.582  29.046  1.00  0.00     0.074 A 
ATOM     36  C   UNL A   1      40.504  29.641  30.389  1.00  0.00     0.049 A 
ATOM     37  N   UNL A   1      41.703  27.163  29.217  1.00  0.00    -0.248 NA
ATOM     38  C   UNL A   1      39.632  26.652  28.280  1.00  0.00     0.031 C 
ATOM     39  C   UNL A   1      39.987  30.877  30.976  1.00  0.00     0.029 A 
ATOM     40  N   UNL A   1      41.768  29.524  30.914  1.00  0.00    -0.354 N 
ATOM     41  C   UNL A   1      41.799  25.960  28.530  1.00  0.00     0.074 A 
ATOM     42  C   UNL A   1      40.492  25.686  27.976  1.00  0.00     0.031 C 
ATOM     43  C   UNL A   1      40.935  31.421  31.755  1.00  0.00     0.029 A 
ATOM     44  C   UNL A   1      42.116  30.561  31.744  1.00  0.00     0.049 A 
ATOM     45  H   UNL A   1      42.367  28.768  30.716  1.00  0.00     0.167 HD
ATOM     46  C   UNL A   1      42.880  25.157  28.375  1.00  0.00     0.037 A 
ATOM     47  C   UNL A   1      43.258  30.803  32.418  1.00  0.00     0.037 A 
ATOM     48  C   UNL A   1      44.168  25.388  28.977  1.00  0.00     0.049 A 
ATOM     49  C   UNL A   1      44.420  29.857  32.285  1.00  0.00     0.074 A 
ATOM     50  C   UNL A   1      45.326  24.639  28.845  1.00  0.00     0.029 A 
ATOM     51  N   UNL A   1      44.461  26.424  29.851  1.00  0.00    -0.354 N 
ATOM     52  N   UNL A   1      44.530  28.786  31.540  1.00  0.00    -0.248 NA
ATOM     53  C   UNL A   1      45.617  30.157  33.084  1.00  0.00     0.031 C 
ATOM     54  C   UNL A   1      46.300  25.183  29.686  1.00  0.00     0.029 A 
ATOM     55  C   UNL A   1      45.768  26.306  30.297  1.00  0.00     0.049 A 
ATOM     56  H   UNL A   1      43.834  27.135  30.115  1.00  0.00     0.167 HD
ATOM     57  C   UNL A   1      45.812  28.299  31.760  1.00  0.00     0.074 A 
ATOM     58  C   UNL A   1      46.449  29.197  32.699  1.00  0.00     0.031 C 
ATOM     59  C   UNL A   1      46.403  27.203  31.227  1.00  0.00     0.037 A 
BRANCH  46  60
ATOM     60  C   UNL A   1      42.747  23.938  27.509  1.00  0.00     0.064 A 
ATOM     61  C   UNL A   1      43.077  23.983  26.147  1.00  0.00     0.173 A 
ATOM     62  C   UNL A   1      42.440  22.689  28.071  1.00  0.00     0.173 A 
ATOM     63  F   UNL A   1      43.378  25.152  25.563  1.00  0.00    -0.203 F 
ATOM     64  C   UNL A   1      43.113  22.820  25.381  1.00  0.00     0.198 A 
ATOM     65  C   UNL A   1      42.498  21.526  27.307  1.00  0.00     0.198 A 
ATOM     66  F   UNL A   1      42.131  22.591  29.373  1.00  0.00    -0.203 F 
ATOM     67  F   UNL A   1      43.431  22.885  24.081  1.00  0.00    -0.200 F 
ATOM     68  C   UNL A   1      42.837  21.592  25.964  1.00  0.00     0.200 A 
ATOM     69  F   UNL A   1      42.250  20.339  27.877  1.00  0.00    -0.200 F 
ATOM     70  F   UNL A   1      42.906  20.471  25.233  1.00  0.00    -0.200 F 
ENDBRANCH  46  60
BRANCH  47  71
ATOM     71  C   UNL A   1      43.363  32.021  33.262  1.00  0.00     0.064 A 
ATOM     72  C   UNL A   1      43.901  33.208  32.747  1.00  0.00     0.173 A 
ATOM     73  C   UNL A   1      42.913  32.028  34.589  1.00  0.00     0.173 A 
ATOM     74  F   UNL A   1      44.362  33.244  31.488  1.00  0.00    -0.203 F 
ATOM     75  C   UNL A   1      43.994  34.354  33.532  1.00  0.00     0.198 A 
ATOM     76  C   UNL A   1      42.980  33.182  35.365  1.00  0.00     0.198 A 
ATOM     77  F   UNL A   1      42.388  30.917  35.127  1.00  0.00    -0.203 F 
ATOM     78  F   UNL A   1      44.545  35.467  33.028  1.00  0.00    -0.200 F 
ATOM     79  C   UNL A   1      43.526  34.343  34.838  1.00  0.00     0.200 A 
ATOM     80  F   UNL A   1      42.512  33.171  36.620  1.00  0.00    -0.200 F 
ATOM     81  F   UNL A   1      43.605  35.449  35.590  1.00  0.00    -0.200 F 
ENDBRANCH  47  71
BRANCH  59  82
ATOM     82  C   UNL A   1      47.818  26.899  31.625  1.00  0.00     0.064 A 
ATOM     83  C   UNL A   1      48.109  25.978  32.641  1.00  0.00     0.173 A 
ATOM     84  C   UNL A   1      48.891  27.457  30.914  1.00  0.00     0.173 A 
ATOM     85  F   UNL A   1      47.118  25.427  33.357  1.00  0.00    -0.203 F 
ATOM     86  C   UNL A   1      49.425  25.629  32.935  1.00  0.00     0.198 A 
ATOM     87  C   UNL A   1      50.205  27.086  31.192  1.00  0.00     0.198 A 
ATOM     88  F   UNL A   1      48.666  28.336  29.927  1.00  0.00    -0.203 F 
ATOM     89  F   UNL A   1      49.683  24.763  33.924  1.00  0.00    -0.200 F 
ATOM     90  C   UNL A   1      50.470  26.173  32.202  1.00  0.00     0.200 A 
ATOM     91  F   UNL A   1      51.211  27.600  30.472  1.00  0.00    -0.200 F 
ATOM     92  F   UNL A   1      51.734  25.817  32.468  1.00  0.00    -0.200 F 
ENDBRANCH  59  82
ENDBRANCH  33  34
ENDBRANCH  26  28
ENDBRANCH  25  26
ENDBRANCH   1  25
TORSDOF 12
ENDMDL
MODEL 2
REMARK VINA RESULT:     -12.2      0.813      7.301
REMARK SMILES O=C(C[C@H]1C(=O)N[NH+]=C2c3ccc(F)cc3N=CN21)OCCOC(=O)c1ccc(-c2c3nc(c(-c4c(F)c(F)c(F)c(F)c4F)c4ccc([nH]4)c(-c4c(F)c(F)c(F)c(F)c4F)c4nc(c(-c5c(F)c(F)c(F)c(F)c5F)c5ccc2[nH]5)C=C4)C=C3)cc1
REMARK SMILES IDX 22 1 21 2 20 3 2 4 1 5 3 6 4 7 5 8 19 9 6 10 7 11 9 12 18 13
REMARK SMILES IDX 8 14 10 16 17 17 11 19 16 20 12 21 15 22 13 23 14 24 23 25
REMARK SMILES IDX 24 26 25 27 26 28 27 29 88 30 28 31 87 32 29 33 30 34 31 35
REMARK SMILES IDX 81 36 32 37 86 38 80 39 82 40 33 41 85 42 79 43 78 44 34 46
REMARK SMILES IDX 66 47 46 48 65 49 47 50 50 51 64 52 83 53 48 54 49 55 63 57
REMARK SMILES IDX 84 58 51 59 35 60 36 61 44 62 37 63 38 64 42 65 45 66 39 67
REMARK SMILES IDX 40 68 43 69 41 70 67 71 68 72 76 73 69 74 70 75 74 76 77 77
REMARK SMILES IDX 71 78 72 79 75 80 73 81 52 82 53 83 61 84 54 85 55 86 59 87
REMARK SMILES IDX 62 88 56 89 57 90 60 91 58 92
REMARK H PARENT 7 15 8 18 82 45 50 56
REMARK Flexibility Score: inf
ROOT
ATOM      1  C   UNL A   1      34.944  32.871  28.001  1.00  0.00     0.275 C 
ENDROOT
BRANCH   1   2
ATOM      2  C   UNL A   1      34.189  34.199  27.853  1.00  0.00     0.274 C 
BRANCH   2   3
ATOM      3  O   UNL A   1      33.055  34.298  28.743  1.00  0.00    -0.462 OA
BRANCH   3   4
ATOM      4  C   UNL A   1      32.738  35.407  29.451  1.00  0.00     0.310 C 
ATOM      5  O   UNL A   1      32.527  36.479  28.891  1.00  0.00    -0.252 OA
BRANCH   4   6
ATOM      6  C   UNL A   1      32.820  35.337  30.949  1.00  0.00     0.183 C 
BRANCH   6   7
ATOM      7  C   UNL A   1      34.053  36.010  31.534  1.00  0.00     0.286 C 
ATOM      8  C   UNL A   1      33.593  37.054  32.544  1.00  0.00     0.300 C 
ATOM      9  N   UNL A   1      34.895  34.965  32.152  1.00  0.00    -0.202 N 
ATOM     10  O   UNL A   1      33.067  38.114  32.208  1.00  0.00    -0.267 OA
ATOM     11  N   UNL A   1      33.682  36.725  33.868  1.00  0.00    -0.193 N 
ATOM     12  C   UNL A   1      34.999  34.910  33.532  1.00  0.00     0.309 C 
ATOM     13  C   UNL A   1      35.470  33.999  31.359  1.00  0.00     0.317 C 
ATOM     14  N   UNL A   1      34.402  35.697  34.375  1.00  0.00    -0.169 N 
ATOM     15  H   UNL A   1      33.182  37.283  34.506  1.00  0.00     0.216 HD
ATOM     16  C   UNL A   1      35.909  33.852  34.064  1.00  0.00     0.092 A 
ATOM     17  N   UNL A   1      36.190  33.000  31.755  1.00  0.00    -0.216 NA
ATOM     18  H   UNL A   1      34.469  35.550  35.347  1.00  0.00     0.340 HD
ATOM     19  C   UNL A   1      36.280  33.828  35.414  1.00  0.00     0.022 A 
ATOM     20  C   UNL A   1      36.469  32.951  33.137  1.00  0.00     0.085 A 
ATOM     21  C   UNL A   1      37.235  32.907  35.840  1.00  0.00     0.040 A 
ATOM     22  C   UNL A   1      37.394  32.011  33.591  1.00  0.00     0.068 A 
ATOM     23  C   UNL A   1      37.779  32.007  34.928  1.00  0.00     0.125 A 
ATOM     24  F   UNL A   1      38.711  31.140  35.342  1.00  0.00    -0.207 F 
ENDBRANCH   6   7
ENDBRANCH   4   6
ENDBRANCH   3   4
ENDBRANCH   2   3
ENDBRANCH   1   2
BRANCH   1  25
ATOM     25  O   UNL A   1      34.055  31.763  28.250  1.00  0.00    -0.458 OA
BRANCH  25  26
ATOM     26  C   UNL A   1      34.397  30.579  27.667  1.00  0.00     0.338 C 
ATOM     27  O   UNL A   1      33.779  29.992  26.807  1.00  0.00    -0.246 OA
BRANCH  26  28
ATOM     28  C   UNL A   1      35.761  30.178  28.116  1.00  0.00     0.060 A 
ATOM     29  C   UNL A   1      36.857  30.163  27.250  1.00  0.00     0.016 A 
ATOM     30  C   UNL A   1      35.920  29.740  29.440  1.00  0.00     0.016 A 
ATOM     31  C   UNL A   1      38.100  29.703  27.707  1.00  0.00     0.010 A 
ATOM     32  C   UNL A   1      37.168  29.292  29.896  1.00  0.00     0.010 A 
ATOM     33  C   UNL A   1      38.272  29.264  29.034  1.00  0.00    -0.014 A 
BRANCH  33  34
ATOM     34  C   UNL A   1      39.630  28.885  29.523  1.00  0.00     0.031 A 
ATOM     35  C   UNL A   1      40.369  29.684  30.563  1.00  0.00     0.074 A 
ATOM     36  C   UNL A   1      40.208  27.778  29.017  1.00  0.00     0.049 A 
ATOM     37  N   UNL A   1      41.474  29.382  31.203  1.00  0.00    -0.248 NA
ATOM     38  C   UNL A   1      39.808  30.988  30.935  1.00  0.00     0.031 C 
ATOM     39  C   UNL A   1      39.631  26.936  27.970  1.00  0.00     0.029 A 
ATOM     40  N   UNL A   1      41.400  27.166  29.320  1.00  0.00    -0.354 N 
ATOM     41  C   UNL A   1      41.701  30.425  32.091  1.00  0.00     0.074 A 
ATOM     42  C   UNL A   1      40.649  31.394  31.880  1.00  0.00     0.031 C 
ATOM     43  C   UNL A   1      40.453  25.901  27.739  1.00  0.00     0.029 A 
ATOM     44  C   UNL A   1      41.627  26.019  28.601  1.00  0.00     0.049 A 
ATOM     45  H   UNL A   1      42.033  27.518  29.987  1.00  0.00     0.167 HD
ATOM     46  C   UNL A   1      42.698  30.562  33.000  1.00  0.00     0.037 A 
ATOM     47  C   UNL A   1      42.657  25.150  28.633  1.00  0.00     0.037 A 
ATOM     48  C   UNL A   1      43.787  29.635  33.171  1.00  0.00     0.049 A 
ATOM     49  C   UNL A   1      43.786  25.364  29.602  1.00  0.00     0.074 A 
ATOM     50  C   UNL A   1      44.821  29.683  34.092  1.00  0.00     0.029 A 
ATOM     51  N   UNL A   1      44.003  28.512  32.388  1.00  0.00    -0.354 N 
ATOM     52  N   UNL A   1      43.927  26.294  30.513  1.00  0.00    -0.248 NA
ATOM     53  C   UNL A   1      44.900  24.404  29.550  1.00  0.00     0.031 C 
ATOM     54  C   UNL A   1      45.697  28.628  33.825  1.00  0.00     0.029 A 
ATOM     55  C   UNL A   1      45.177  27.887  32.778  1.00  0.00     0.049 A 
ATOM     56  H   UNL A   1      43.412  28.205  31.662  1.00  0.00     0.167 HD
ATOM     57  C   UNL A   1      45.125  26.019  31.158  1.00  0.00     0.074 A 
ATOM     58  C   UNL A   1      45.671  24.828  30.543  1.00  0.00     0.031 C 
ATOM     59  C   UNL A   1      45.716  26.699  32.169  1.00  0.00     0.037 A 
BRANCH  46  60
ATOM     60  C   UNL A   1      42.677  31.756  33.909  1.00  0.00     0.064 A 
ATOM     61  C   UNL A   1      43.197  32.990  33.492  1.00  0.00     0.173 A 
ATOM     62  C   UNL A   1      41.999  31.710  35.137  1.00  0.00     0.173 A 
ATOM     63  F   UNL A   1      43.854  33.086  32.326  1.00  0.00    -0.203 F 
ATOM     64  C   UNL A   1      43.031  34.135  34.266  1.00  0.00     0.198 A 
ATOM     65  C   UNL A   1      41.816  32.862  35.898  1.00  0.00     0.198 A 
ATOM     66  F   UNL A   1      41.471  30.556  35.575  1.00  0.00    -0.203 F 
ATOM     67  F   UNL A   1      43.536  35.304  33.848  1.00  0.00    -0.200 F 
ATOM     68  C   UNL A   1      42.329  34.073  35.461  1.00  0.00     0.200 A 
ATOM     69  F   UNL A   1      41.121  32.804  37.043  1.00  0.00    -0.200 F 
ATOM     70  F   UNL A   1      42.141  35.184  36.187  1.00  0.00    -0.200 F 
ENDBRANCH  46  60
BRANCH  47  71
ATOM     71  C   UNL A   1      42.647  23.973  27.726  1.00  0.00     0.064 A 
ATOM     72  C   UNL A   1      43.046  24.092  26.389  1.00  0.00     0.173 A 
ATOM     73  C   UNL A   1      42.255  22.707  28.183  1.00  0.00     0.173 A 
ATOM     74  F   UNL A   1      43.410  25.288  25.902  1.00  0.00    -0.203 F 
ATOM     75  C   UNL A   1      43.045  22.990  25.538  1.00  0.00     0.198 A 
ATOM     76  C   UNL A   1      42.281  21.599  27.340  1.00  0.00     0.198 A 
ATOM     77  F   UNL A   1      41.867  22.541  29.456  1.00  0.00    -0.203 F 
ATOM     78  F   UNL A   1      43.397  23.137  24.254  1.00  0.00    -0.200 F 
ATOM     79  C   UNL A   1      42.670  21.742  26.016  1.00  0.00     0.200 A 
ATOM     80  F   UNL A   1      41.935  20.393  27.810  1.00  0.00    -0.200 F 
ATOM     81  F   UNL A   1      42.680  20.679  25.201  1.00  0.00    -0.200 F 
ENDBRANCH  47  71
BRANCH  59  82
ATOM     82  C   UNL A   1      47.022  26.181  32.701  1.00  0.00     0.064 A 
ATOM     83  C   UNL A   1      47.066  25.156  33.656  1.00  0.00     0.173 A 
ATOM     84  C   UNL A   1      48.237  26.643  32.174  1.00  0.00     0.173 A 
ATOM     85  F   UNL A   1      45.932  24.689  34.199  1.00  0.00    -0.203 F 
ATOM     86  C   UNL A   1      48.281  24.615  34.069  1.00  0.00     0.198 A 
ATOM     87  C   UNL A   1      49.449  26.082  32.569  1.00  0.00     0.198 A 
ATOM     88  F   UNL A   1      48.249  27.616  31.251  1.00  0.00    -0.203 F 
ATOM     89  F   UNL A   1      48.302  23.652  35.000  1.00  0.00    -0.200 F 
ATOM     90  C   UNL A   1      49.470  25.069  33.516  1.00  0.00     0.200 A 
ATOM     91  F   UNL A   1      50.594  26.510  32.022  1.00  0.00    -0.200 F 
ATOM     92  F   UNL A   1      50.636  24.530  33.895  1.00  0.00    -0.200 F 
ENDBRANCH  59  82
ENDBRANCH  33  34
ENDBRANCH  26  28
ENDBRANCH  25  26
ENDBRANCH   1  25
TORSDOF 12
ENDMDL
MODEL 3
REMARK VINA RESULT:     -12.1      4.247     10.234
REMARK SMILES O=C(C[C@H]1C(=O)N[NH+]=C2c3ccc(F)cc3N=CN21)OCCOC(=O)c1ccc(-c2c3nc(c(-c4c(F)c(F)c(F)c(F)c4F)c4ccc([nH]4)c(-c4c(F)c(F)c(F)c(F)c4F)c4nc(c(-c5c(F)c(F)c(F)c(F)c5F)c5ccc2[nH]5)C=C4)C=C3)cc1
REMARK SMILES IDX 22 1 21 2 20 3 2 4 1 5 3 6 4 7 5 8 19 9 6 10 7 11 9 12 18 13
REMARK SMILES IDX 8 14 10 16 17 17 11 19 16 20 12 21 15 22 13 23 14 24 23 25
REMARK SMILES IDX 24 26 25 27 26 28 27 29 88 30 28 31 87 32 29 33 30 34 31 35
REMARK SMILES IDX 81 36 32 37 86 38 80 39 82 40 33 41 85 42 79 43 78 44 34 46
REMARK SMILES IDX 66 47 46 48 65 49 47 50 50 51 64 52 83 53 48 54 49 55 63 57
REMARK SMILES IDX 84 58 51 59 35 60 36 61 44 62 37 63 38 64 42 65 45 66 39 67
REMARK SMILES IDX 40 68 43 69 41 70 67 71 68 72 76 73 69 74 70 75 74 76 77 77
REMARK SMILES IDX 71 78 72 79 75 80 73 81 52 82 53 83 61 84 54 85 55 86 59 87
REMARK SMILES IDX 62 88 56 89 57 90 60 91 58 92
REMARK H PARENT 7 15 8 18 82 45 50 56
REMARK Flexibility Score: inf
ROOT
ATOM      1  C   UNL A   1      31.488  30.106  25.413  1.00  0.00     0.275 C 
ENDROOT
BRANCH   1   2
ATOM      2  C   UNL A   1      31.327  28.760  24.694  1.00  0.00     0.274 C 
BRANCH   2   3
ATOM      3  O   UNL A   1      32.057  27.693  25.338  1.00  0.00    -0.462 OA
BRANCH   3   4
ATOM      4  C   UNL A   1      31.484  26.723  26.089  1.00  0.00     0.310 C 
ATOM      5  O   UNL A   1      31.087  26.953  27.229  1.00  0.00    -0.252 OA
BRANCH   4   6
ATOM      6  C   UNL A   1      31.504  25.317  25.562  1.00  0.00     0.183 C 
BRANCH   6   7
ATOM      7  C   UNL A   1      31.839  24.266  26.611  1.00  0.00     0.286 C 
ATOM      8  C   UNL A   1      30.632  23.353  26.774  1.00  0.00     0.300 C 
ATOM      9  N   UNL A   1      33.040  23.534  26.156  1.00  0.00    -0.202 N 
ATOM     10  O   UNL A   1      29.600  23.712  27.340  1.00  0.00    -0.267 OA
ATOM     11  N   UNL A   1      30.685  22.130  26.165  1.00  0.00    -0.193 N 
ATOM     12  C   UNL A   1      32.910  22.220  25.738  1.00  0.00     0.309 C 
ATOM     13  C   UNL A   1      34.241  24.196  26.049  1.00  0.00     0.317 C 
ATOM     14  N   UNL A   1      31.805  21.540  25.684  1.00  0.00    -0.169 N 
ATOM     15  H   UNL A   1      29.839  21.636  26.068  1.00  0.00     0.216 HD
ATOM     16  C   UNL A   1      34.183  21.545  25.343  1.00  0.00     0.092 A 
ATOM     17  N   UNL A   1      35.359  23.707  25.626  1.00  0.00    -0.216 NA
ATOM     18  H   UNL A   1      31.782  20.630  25.307  1.00  0.00     0.340 HD
ATOM     19  C   UNL A   1      34.232  20.165  25.118  1.00  0.00     0.022 A 
ATOM     20  C   UNL A   1      35.353  22.331  25.317  1.00  0.00     0.085 A 
ATOM     21  C   UNL A   1      35.463  19.557  24.883  1.00  0.00     0.040 A 
ATOM     22  C   UNL A   1      36.571  21.710  25.042  1.00  0.00     0.068 A 
ATOM     23  C   UNL A   1      36.618  20.333  24.844  1.00  0.00     0.125 A 
ATOM     24  F   UNL A   1      37.799  19.737  24.639  1.00  0.00    -0.207 F 
ENDBRANCH   6   7
ENDBRANCH   4   6
ENDBRANCH   3   4
ENDBRANCH   2   3
ENDBRANCH   1   2
BRANCH   1  25
ATOM     25  O   UNL A   1      32.836  30.315  25.884  1.00  0.00    -0.458 OA
BRANCH  25  26
ATOM     26  C   UNL A   1      32.997  31.291  26.823  1.00  0.00     0.338 C 
ATOM     27  O   UNL A   1      32.187  32.137  27.129  1.00  0.00    -0.246 OA
BRANCH  26  28
ATOM     28  C   UNL A   1      34.269  31.064  27.565  1.00  0.00     0.060 A 
ATOM     29  C   UNL A   1      35.146  32.105  27.877  1.00  0.00     0.016 A 
ATOM     30  C   UNL A   1      34.616  29.745  27.896  1.00  0.00     0.016 A 
ATOM     31  C   UNL A   1      36.366  31.823  28.508  1.00  0.00     0.010 A 
ATOM     32  C   UNL A   1      35.832  29.468  28.537  1.00  0.00     0.010 A 
ATOM     33  C   UNL A   1      36.724  30.504  28.848  1.00  0.00    -0.014 A 
BRANCH  33  34
ATOM     34  C   UNL A   1      37.976  30.247  29.617  1.00  0.00     0.031 A 
ATOM     35  C   UNL A   1      38.210  30.806  30.994  1.00  0.00     0.074 A 
ATOM     36  C   UNL A   1      38.927  29.474  29.056  1.00  0.00     0.049 A 
ATOM     37  N   UNL A   1      39.170  30.528  31.846  1.00  0.00    -0.248 NA
ATOM     38  C   UNL A   1      37.255  31.807  31.487  1.00  0.00     0.031 C 
ATOM     39  C   UNL A   1      38.857  28.906  27.710  1.00  0.00     0.029 A 
ATOM     40  N   UNL A   1      40.129  29.027  29.547  1.00  0.00    -0.354 N 
ATOM     41  C   UNL A   1      38.897  31.270  32.988  1.00  0.00     0.074 A 
ATOM     42  C   UNL A   1      37.710  32.048  32.711  1.00  0.00     0.031 C 
ATOM     43  C   UNL A   1      39.951  28.160  27.494  1.00  0.00     0.029 A 
ATOM     44  C   UNL A   1      40.812  28.218  28.673  1.00  0.00     0.049 A 
ATOM     45  H   UNL A   1      40.469  29.264  30.440  1.00  0.00     0.167 HD
ATOM     46  C   UNL A   1      39.576  31.299  34.161  1.00  0.00     0.037 A 
ATOM     47  C   UNL A   1      41.995  27.585  28.802  1.00  0.00     0.037 A 
ATOM     48  C   UNL A   1      40.796  30.578  34.422  1.00  0.00     0.049 A 
ATOM     49  C   UNL A   1      42.764  27.691  30.090  1.00  0.00     0.074 A 
ATOM     50  C   UNL A   1      41.530  30.528  35.596  1.00  0.00     0.029 A 
ATOM     51  N   UNL A   1      41.478  29.811  33.491  1.00  0.00    -0.354 N 
ATOM     52  N   UNL A   1      42.434  28.304  31.199  1.00  0.00    -0.248 NA
ATOM     53  C   UNL A   1      44.068  27.014  30.145  1.00  0.00     0.031 C 
ATOM     54  C   UNL A   1      42.689  29.784  35.357  1.00  0.00     0.029 A 
ATOM     55  C   UNL A   1      42.647  29.320  34.054  1.00  0.00     0.049 A 
ATOM     56  H   UNL A   1      41.179  29.640  32.569  1.00  0.00     0.167 HD
ATOM     57  C   UNL A   1      43.473  28.066  32.089  1.00  0.00     0.074 A 
ATOM     58  C   UNL A   1      44.441  27.243  31.397  1.00  0.00     0.031 C 
ATOM     59  C   UNL A   1      43.607  28.497  33.366  1.00  0.00     0.037 A 
BRANCH  46  60
ATOM     60  C   UNL A   1      39.027  32.129  35.284  1.00  0.00     0.064 A 
ATOM     61  C   UNL A   1      38.311  31.538  36.334  1.00  0.00     0.173 A 
ATOM     62  C   UNL A   1      39.349  33.491  35.392  1.00  0.00     0.173 A 
ATOM     63  F   UNL A   1      37.979  30.240  36.278  1.00  0.00    -0.203 F 
ATOM     64  C   UNL A   1      37.945  32.277  37.456  1.00  0.00     0.198 A 
ATOM     65  C   UNL A   1      39.000  34.222  36.525  1.00  0.00     0.198 A 
ATOM     66  F   UNL A   1      40.045  34.101  34.420  1.00  0.00    -0.203 F 
ATOM     67  F   UNL A   1      37.260  31.692  38.449  1.00  0.00    -0.200 F 
ATOM     68  C   UNL A   1      38.302  33.614  37.557  1.00  0.00     0.200 A 
ATOM     69  F   UNL A   1      39.363  35.508  36.629  1.00  0.00    -0.200 F 
ATOM     70  F   UNL A   1      37.978  34.315  38.653  1.00  0.00    -0.200 F 
ENDBRANCH  46  60
BRANCH  47  71
ATOM     71  C   UNL A   1      42.509  26.763  27.676  1.00  0.00     0.064 A 
ATOM     72  C   UNL A   1      43.390  27.308  26.733  1.00  0.00     0.173 A 
ATOM     73  C   UNL A   1      42.144  25.417  27.531  1.00  0.00     0.173 A 
ATOM     74  F   UNL A   1      43.752  28.597  26.819  1.00  0.00    -0.203 F 
ATOM     75  C   UNL A   1      43.881  26.539  25.681  1.00  0.00     0.198 A 
ATOM     76  C   UNL A   1      42.657  24.641  26.495  1.00  0.00     0.198 A 
ATOM     77  F   UNL A   1      41.305  24.850  28.410  1.00  0.00    -0.203 F 
ATOM     78  F   UNL A   1      44.694  27.093  24.771  1.00  0.00    -0.200 F 
ATOM     79  C   UNL A   1      43.521  25.204  25.566  1.00  0.00     0.200 A 
ATOM     80  F   UNL A   1      42.320  23.349  26.399  1.00  0.00    -0.200 F 
ATOM     81  F   UNL A   1      44.001  24.461  24.561  1.00  0.00    -0.200 F 
ENDBRANCH  47  71
BRANCH  59  82
ATOM     82  C   UNL A   1      44.836  28.087  34.125  1.00  0.00     0.064 A 
ATOM     83  C   UNL A   1      45.959  28.922  34.203  1.00  0.00     0.173 A 
ATOM     84  C   UNL A   1      44.849  26.895  34.865  1.00  0.00     0.173 A 
ATOM     85  F   UNL A   1      45.999  30.066  33.504  1.00  0.00    -0.203 F 
ATOM     86  C   UNL A   1      47.055  28.576  34.990  1.00  0.00     0.198 A 
ATOM     87  C   UNL A   1      45.934  26.565  35.673  1.00  0.00     0.198 A 
ATOM     88  F   UNL A   1      43.795  26.065  34.832  1.00  0.00    -0.203 F 
ATOM     89  F   UNL A   1      48.127  29.378  35.033  1.00  0.00    -0.200 F 
ATOM     90  C   UNL A   1      47.036  27.405  35.734  1.00  0.00     0.200 A 
ATOM     91  F   UNL A   1      45.907  25.442  36.404  1.00  0.00    -0.200 F 
ATOM     92  F   UNL A   1      48.079  27.087  36.512  1.00  0.00    -0.200 F 
ENDBRANCH  59  82
ENDBRANCH  33  34
ENDBRANCH  26  28
ENDBRANCH  25  26
ENDBRANCH   1  25
TORSDOF 12
ENDMDL
