MODEL 1
REMARK VINA RESULT:     -10.8      0.000      0.000
REMARK SMILES CCCCCCNC(=O)Oc1cccc(-c2ccc([C@@H](C)C(=O)OCCOC(=O)c3ccc(-c4c5nc(c(-c6c(F)c(F)c(F)c(F)c6F)c6ccc([nH]6)c(-c6c(F)c(F)c(F)c(F)c6F)c6nc(c(-c7c(F)c(F)c(F)c(F)c7F)c7ccc4[nH]7)C=C6)C=C5)cc3)cc2[N+](=O)[O-])c1
REMARK SMILES IDX 20 1 21 2 19 3 16 4 17 5 94 6 18 7 93 8 15 9 11 10 12 11
REMARK SMILES IDX 98 12 13 13 14 14 10 15 8 16 7 17 9 19 6 20 5 21 4 22 3 23
REMARK SMILES IDX 2 24 1 25 95 26 96 27 97 28 22 29 23 30 24 31 25 32 26 33
REMARK SMILES IDX 27 34 28 35 29 36 30 37 31 38 92 39 32 40 91 41 33 42 34 43
REMARK SMILES IDX 35 44 85 45 36 46 90 47 84 48 86 49 37 50 89 51 83 52 82 53
REMARK SMILES IDX 38 55 70 56 50 57 69 58 51 59 54 60 68 61 87 62 52 63 53 64
REMARK SMILES IDX 67 66 88 67 55 68 39 69 40 70 48 71 41 72 42 73 46 74 49 75
REMARK SMILES IDX 43 76 44 77 47 78 45 79 71 80 72 81 80 82 73 83 74 84 78 85
REMARK SMILES IDX 81 86 75 87 76 88 79 89 77 90 56 91 57 92 65 93 58 94 59 95
REMARK SMILES IDX 63 96 66 97 60 98 61 99 64 100 62 101
REMARK H PARENT 7 18 86 54 54 65
REMARK Flexibility Score: inf
ROOT
ATOM      1  C   UNL A   1      40.324  21.784  26.406  1.00  0.00     0.126 C 
ATOM      2  C   UNL A   1      40.408  22.868  27.478  1.00  0.00     0.025 C 
ENDROOT
BRANCH   1   3
ATOM      3  C   UNL A   1      38.906  21.581  25.894  1.00  0.00    -0.027 A 
ATOM      4  C   UNL A   1      36.199  21.195  25.022  1.00  0.00     0.060 A 
ATOM      5  C   UNL A   1      37.212  20.259  24.739  1.00  0.00     0.016 A 
ATOM      6  C   UNL A   1      36.593  22.345  25.726  1.00  0.00     0.277 A 
ATOM      7  C   UNL A   1      38.533  20.442  25.171  1.00  0.00     0.006 A 
ATOM      8  C   UNL A   1      37.918  22.541  26.160  1.00  0.00     0.091 A 
BRANCH   4   9
ATOM      9  C   UNL A   1      34.814  20.886  24.616  1.00  0.00    -0.008 A 
ATOM     10  C   UNL A   1      32.638  21.518  23.758  1.00  0.00     0.133 A 
ATOM     11  C   UNL A   1      32.153  20.226  23.948  1.00  0.00     0.047 A 
ATOM     12  C   UNL A   1      33.955  21.857  24.080  1.00  0.00     0.056 A 
ATOM     13  C   UNL A   1      33.001  19.248  24.455  1.00  0.00     0.004 A 
ATOM     14  C   UNL A   1      34.315  19.578  24.791  1.00  0.00     0.009 A 
BRANCH  10  15
ATOM     15  O   UNL A   1      31.692  22.486  23.381  1.00  0.00    -0.410 OA
BRANCH  15  16
ATOM     16  C   UNL A   1      31.117  23.295  24.348  1.00  0.00     0.412 C 
ATOM     17  N   UNL A   1      31.141  24.621  24.012  1.00  0.00    -0.321 N 
ATOM     18  H   UNL A   1      30.759  25.249  24.667  1.00  0.00     0.167 HD
ATOM     19  O   UNL A   1      30.640  22.918  25.410  1.00  0.00    -0.224 OA
BRANCH  17  20
ATOM     20  C   UNL A   1      31.669  25.197  22.791  1.00  0.00     0.119 C 
BRANCH  20  21
ATOM     21  C   UNL A   1      32.167  26.628  22.998  1.00  0.00     0.021 C 
BRANCH  21  22
ATOM     22  C   UNL A   1      33.563  26.743  23.622  1.00  0.00     0.002 C 
BRANCH  22  23
ATOM     23  C   UNL A   1      33.635  27.504  24.949  1.00  0.00    -0.000 C 
BRANCH  23  24
ATOM     24  C   UNL A   1      33.073  26.761  26.165  1.00  0.00    -0.003 C 
ATOM     25  C   UNL A   1      31.709  27.270  26.604  1.00  0.00     0.004 C 
ENDBRANCH  23  24
ENDBRANCH  22  23
ENDBRANCH  21  22
ENDBRANCH  20  21
ENDBRANCH  17  20
ENDBRANCH  15  16
ENDBRANCH  10  15
ENDBRANCH   4   9
BRANCH   6  26
ATOM     26  N   UNL A   1      35.631  23.370  26.105  1.00  0.00     0.063 N 
ATOM     27  O   UNL A   1      35.643  24.421  25.448  1.00  0.00    -0.258 OA
ATOM     28  O   UNL A   1      34.916  23.153  27.093  1.00  0.00    -0.258 OA
ENDBRANCH   6  26
ENDBRANCH   1   3
BRANCH   1  29
ATOM     29  C   UNL A   1      41.055  20.530  26.870  1.00  0.00     0.313 C 
ATOM     30  O   UNL A   1      40.803  19.990  27.944  1.00  0.00    -0.252 OA
BRANCH  29  31
ATOM     31  O   UNL A   1      41.964  20.064  25.975  1.00  0.00    -0.462 OA
BRANCH  31  32
ATOM     32  C   UNL A   1      42.763  18.937  26.382  1.00  0.00     0.274 C 
BRANCH  32  33
ATOM     33  C   UNL A   1      43.447  18.273  25.183  1.00  0.00     0.275 C 
BRANCH  33  34
ATOM     34  O   UNL A   1      44.785  18.773  24.996  1.00  0.00    -0.458 OA
BRANCH  34  35
ATOM     35  C   UNL A   1      44.912  19.714  24.032  1.00  0.00     0.338 C 
ATOM     36  O   UNL A   1      44.902  19.546  22.825  1.00  0.00    -0.246 OA
BRANCH  35  37
ATOM     37  C   UNL A   1      44.920  21.051  24.644  1.00  0.00     0.060 A 
ATOM     38  C   UNL A   1      44.531  22.131  23.849  1.00  0.00     0.016 A 
ATOM     39  C   UNL A   1      45.392  21.259  25.940  1.00  0.00     0.016 A 
ATOM     40  C   UNL A   1      44.633  23.429  24.330  1.00  0.00     0.010 A 
ATOM     41  C   UNL A   1      45.484  22.566  26.431  1.00  0.00     0.010 A 
ATOM     42  C   UNL A   1      45.122  23.658  25.622  1.00  0.00    -0.014 A 
BRANCH  42  43
ATOM     43  C   UNL A   1      45.303  25.053  26.090  1.00  0.00     0.031 A 
ATOM     44  C   UNL A   1      46.646  25.712  25.967  1.00  0.00     0.074 A 
ATOM     45  C   UNL A   1      44.254  25.736  26.583  1.00  0.00     0.049 A 
ATOM     46  N   UNL A   1      47.026  26.900  26.366  1.00  0.00    -0.248 NA
ATOM     47  C   UNL A   1      47.704  24.931  25.309  1.00  0.00     0.031 C 
ATOM     48  C   UNL A   1      42.894  25.215  26.707  1.00  0.00     0.029 A 
ATOM     49  N   UNL A   1      44.170  27.016  27.067  1.00  0.00    -0.354 N 
ATOM     50  C   UNL A   1      48.369  27.000  26.030  1.00  0.00     0.074 A 
ATOM     51  C   UNL A   1      48.743  25.748  25.407  1.00  0.00     0.031 C 
ATOM     52  C   UNL A   1      42.107  26.169  27.232  1.00  0.00     0.029 A 
ATOM     53  C   UNL A   1      42.917  27.351  27.517  1.00  0.00     0.049 A 
ATOM     54  H   UNL A   1      44.935  27.637  27.089  1.00  0.00     0.167 HD
ATOM     55  C   UNL A   1      49.209  28.045  26.222  1.00  0.00     0.037 A 
ATOM     56  C   UNL A   1      42.480  28.476  28.112  1.00  0.00     0.037 A 
ATOM     57  C   UNL A   1      48.825  29.298  26.816  1.00  0.00     0.049 A 
ATOM     58  C   UNL A   1      43.443  29.608  28.343  1.00  0.00     0.074 A 
ATOM     59  C   UNL A   1      49.600  30.423  27.038  1.00  0.00     0.029 A 
ATOM     60  N   UNL A   1      47.551  29.593  27.280  1.00  0.00    -0.354 N 
ATOM     61  N   UNL A   1      44.713  29.691  28.030  1.00  0.00    -0.248 NA
ATOM     62  C   UNL A   1      42.911  30.803  29.013  1.00  0.00     0.031 C 
ATOM     63  C   UNL A   1      48.804  31.386  27.670  1.00  0.00     0.029 A 
ATOM     64  C   UNL A   1      47.523  30.876  27.803  1.00  0.00     0.049 A 
ATOM     65  H   UNL A   1      46.781  28.981  27.243  1.00  0.00     0.167 HD
ATOM     66  C   UNL A   1      45.127  30.948  28.446  1.00  0.00     0.074 A 
ATOM     67  C   UNL A   1      43.969  31.602  29.019  1.00  0.00     0.031 C 
ATOM     68  C   UNL A   1      46.359  31.511  28.364  1.00  0.00     0.037 A 
BRANCH  55  69
ATOM     69  C   UNL A   1      50.640  27.865  25.809  1.00  0.00     0.064 A 
ATOM     70  C   UNL A   1      51.636  27.508  26.729  1.00  0.00     0.173 A 
ATOM     71  C   UNL A   1      51.012  28.022  24.465  1.00  0.00     0.173 A 
ATOM     72  F   UNL A   1      51.333  27.357  28.027  1.00  0.00    -0.203 F 
ATOM     73  C   UNL A   1      52.958  27.337  26.323  1.00  0.00     0.198 A 
ATOM     74  C   UNL A   1      52.329  27.825  24.057  1.00  0.00     0.198 A 
ATOM     75  F   UNL A   1      50.096  28.358  23.545  1.00  0.00    -0.203 F 
ATOM     76  F   UNL A   1      53.901  27.034  27.224  1.00  0.00    -0.200 F 
ATOM     77  C   UNL A   1      53.301  27.489  24.988  1.00  0.00     0.200 A 
ATOM     78  F   UNL A   1      52.657  27.961  22.765  1.00  0.00    -0.200 F 
ATOM     79  F   UNL A   1      54.572  27.318  24.597  1.00  0.00    -0.200 F 
ENDBRANCH  55  69
BRANCH  56  80
ATOM     80  C   UNL A   1      41.063  28.579  28.547  1.00  0.00     0.064 A 
ATOM     81  C   UNL A   1      40.065  29.012  27.664  1.00  0.00     0.173 A 
ATOM     82  C   UNL A   1      40.681  28.253  29.856  1.00  0.00     0.173 A 
ATOM     83  F   UNL A   1      40.387  29.361  26.409  1.00  0.00    -0.203 F 
ATOM     84  C   UNL A   1      38.740  29.129  28.079  1.00  0.00     0.198 A 
ATOM     85  C   UNL A   1      39.352  28.344  30.262  1.00  0.00     0.198 A 
ATOM     86  F   UNL A   1      41.600  27.836  30.741  1.00  0.00    -0.203 F 
ATOM     87  F   UNL A   1      37.812  29.587  27.228  1.00  0.00    -0.200 F 
ATOM     88  C   UNL A   1      38.384  28.789  29.375  1.00  0.00     0.200 A 
ATOM     89  F   UNL A   1      39.011  28.005  31.512  1.00  0.00    -0.200 F 
ATOM     90  F   UNL A   1      37.108  28.899  29.772  1.00  0.00    -0.200 F 
ENDBRANCH  56  80
BRANCH  68  91
ATOM     91  C   UNL A   1      46.505  32.911  28.882  1.00  0.00     0.064 A 
ATOM     92  C   UNL A   1      46.282  34.025  28.060  1.00  0.00     0.173 A 
ATOM     93  C   UNL A   1      46.846  33.140  30.224  1.00  0.00     0.173 A 
ATOM     94  F   UNL A   1      45.970  33.858  26.766  1.00  0.00    -0.203 F 
ATOM     95  C   UNL A   1      46.420  35.319  28.557  1.00  0.00     0.198 A 
ATOM     96  C   UNL A   1      46.957  34.434  30.722  1.00  0.00     0.198 A 
ATOM     97  F   UNL A   1      47.064  32.107  31.052  1.00  0.00    -0.203 F 
ATOM     98  F   UNL A   1      46.249  36.369  27.742  1.00  0.00    -0.200 F 
ATOM     99  C   UNL A   1      46.752  35.522  29.888  1.00  0.00     0.200 A 
ATOM    100  F   UNL A   1      47.269  34.629  32.011  1.00  0.00    -0.200 F 
ATOM    101  F   UNL A   1      46.883  36.768  30.364  1.00  0.00    -0.200 F 
ENDBRANCH  68  91
ENDBRANCH  42  43
ENDBRANCH  35  37
ENDBRANCH  34  35
ENDBRANCH  33  34
ENDBRANCH  32  33
ENDBRANCH  31  32
ENDBRANCH  29  31
ENDBRANCH   1  29
TORSDOF 21
ENDMDL
MODEL 2
REMARK VINA RESULT:     -10.7      5.403     11.655
REMARK SMILES CCCCCCNC(=O)Oc1cccc(-c2ccc([C@@H](C)C(=O)OCCOC(=O)c3ccc(-c4c5nc(c(-c6c(F)c(F)c(F)c(F)c6F)c6ccc([nH]6)c(-c6c(F)c(F)c(F)c(F)c6F)c6nc(c(-c7c(F)c(F)c(F)c(F)c7F)c7ccc4[nH]7)C=C6)C=C5)cc3)cc2[N+](=O)[O-])c1
REMARK SMILES IDX 20 1 21 2 19 3 16 4 17 5 94 6 18 7 93 8 15 9 11 10 12 11
REMARK SMILES IDX 98 12 13 13 14 14 10 15 8 16 7 17 9 19 6 20 5 21 4 22 3 23
REMARK SMILES IDX 2 24 1 25 95 26 96 27 97 28 22 29 23 30 24 31 25 32 26 33
REMARK SMILES IDX 27 34 28 35 29 36 30 37 31 38 92 39 32 40 91 41 33 42 34 43
REMARK SMILES IDX 35 44 85 45 36 46 90 47 84 48 86 49 37 50 89 51 83 52 82 53
REMARK SMILES IDX 38 55 70 56 50 57 69 58 51 59 54 60 68 61 87 62 52 63 53 64
REMARK SMILES IDX 67 66 88 67 55 68 39 69 40 70 48 71 41 72 42 73 46 74 49 75
REMARK SMILES IDX 43 76 44 77 47 78 45 79 71 80 72 81 80 82 73 83 74 84 78 85
REMARK SMILES IDX 81 86 75 87 76 88 79 89 77 90 56 91 57 92 65 93 58 94 59 95
REMARK SMILES IDX 63 96 66 97 60 98 61 99 64 100 62 101
REMARK H PARENT 7 18 86 54 54 65
REMARK Flexibility Score: inf
ROOT
ATOM      1  C   UNL A   1      37.018  33.906  29.929  1.00  0.00     0.126 C 
ATOM      2  C   UNL A   1      37.412  33.202  28.633  1.00  0.00     0.025 C 
ENDROOT
BRANCH   1   3
ATOM      3  C   UNL A   1      37.931  33.540  31.090  1.00  0.00    -0.027 A 
ATOM      4  C   UNL A   1      39.580  32.878  33.344  1.00  0.00     0.060 A 
ATOM      5  C   UNL A   1      39.934  33.895  32.436  1.00  0.00     0.016 A 
ATOM      6  C   UNL A   1      38.391  32.183  33.066  1.00  0.00     0.277 A 
ATOM      7  C   UNL A   1      39.126  34.225  31.340  1.00  0.00     0.006 A 
ATOM      8  C   UNL A   1      37.575  32.502  31.964  1.00  0.00     0.091 A 
BRANCH   4   9
ATOM      9  C   UNL A   1      40.434  32.653  34.526  1.00  0.00    -0.008 A 
ATOM     10  C   UNL A   1      41.902  31.284  35.884  1.00  0.00     0.133 A 
ATOM     11  C   UNL A   1      41.974  32.275  36.861  1.00  0.00     0.047 A 
ATOM     12  C   UNL A   1      41.147  31.461  34.721  1.00  0.00     0.056 A 
ATOM     13  C   UNL A   1      41.291  33.471  36.669  1.00  0.00     0.004 A 
ATOM     14  C   UNL A   1      40.525  33.653  35.516  1.00  0.00     0.009 A 
BRANCH  10  15
ATOM     15  O   UNL A   1      42.495  30.052  36.206  1.00  0.00    -0.410 OA
BRANCH  15  16
ATOM     16  C   UNL A   1      41.764  28.883  36.061  1.00  0.00     0.412 C 
ATOM     17  N   UNL A   1      42.465  27.896  35.424  1.00  0.00    -0.321 N 
ATOM     18  H   UNL A   1      41.993  27.044  35.278  1.00  0.00     0.167 HD
ATOM     19  O   UNL A   1      40.611  28.705  36.431  1.00  0.00    -0.224 OA
BRANCH  17  20
ATOM     20  C   UNL A   1      43.830  27.974  34.941  1.00  0.00     0.119 C 
BRANCH  20  21
ATOM     21  C   UNL A   1      43.893  28.256  33.439  1.00  0.00     0.021 C 
BRANCH  21  22
ATOM     22  C   UNL A   1      44.075  27.016  32.556  1.00  0.00     0.002 C 
BRANCH  22  23
ATOM     23  C   UNL A   1      44.645  25.780  33.260  1.00  0.00    -0.000 C 
BRANCH  23  24
ATOM     24  C   UNL A   1      45.225  24.706  32.336  1.00  0.00    -0.003 C 
ATOM     25  C   UNL A   1      44.176  23.750  31.791  1.00  0.00     0.004 C 
ENDBRANCH  23  24
ENDBRANCH  22  23
ENDBRANCH  21  22
ENDBRANCH  20  21
ENDBRANCH  17  20
ENDBRANCH  15  16
ENDBRANCH  10  15
ENDBRANCH   4   9
BRANCH   6  26
ATOM     26  N   UNL A   1      37.904  31.130  33.948  1.00  0.00     0.063 N 
ATOM     27  O   UNL A   1      37.379  31.488  35.013  1.00  0.00    -0.258 OA
ATOM     28  O   UNL A   1      38.104  29.956  33.609  1.00  0.00    -0.258 OA
ENDBRANCH   6  26
ENDBRANCH   1   3
BRANCH   1  29
ATOM     29  C   UNL A   1      35.523  33.749  30.177  1.00  0.00     0.313 C 
ATOM     30  O   UNL A   1      34.893  34.541  30.874  1.00  0.00    -0.252 OA
BRANCH  29  31
ATOM     31  O   UNL A   1      34.969  32.692  29.530  1.00  0.00    -0.462 OA
BRANCH  31  32
ATOM     32  C   UNL A   1      33.916  32.981  28.589  1.00  0.00     0.274 C 
BRANCH  32  33
ATOM     33  C   UNL A   1      33.582  31.758  27.730  1.00  0.00     0.275 C 
BRANCH  33  34
ATOM     34  O   UNL A   1      34.775  31.095  27.270  1.00  0.00    -0.458 OA
BRANCH  34  35
ATOM     35  C   UNL A   1      34.969  29.856  27.775  1.00  0.00     0.338 C 
ATOM     36  O   UNL A   1      34.166  28.940  27.828  1.00  0.00    -0.246 OA
BRANCH  35  37
ATOM     37  C   UNL A   1      36.383  29.688  28.144  1.00  0.00     0.060 A 
ATOM     38  C   UNL A   1      37.339  29.849  27.139  1.00  0.00     0.016 A 
ATOM     39  C   UNL A   1      36.761  29.284  29.424  1.00  0.00     0.016 A 
ATOM     40  C   UNL A   1      38.678  29.586  27.397  1.00  0.00     0.010 A 
ATOM     41  C   UNL A   1      38.111  29.030  29.688  1.00  0.00     0.010 A 
ATOM     42  C   UNL A   1      39.074  29.162  28.670  1.00  0.00    -0.014 A 
BRANCH  42  43
ATOM     43  C   UNL A   1      40.493  28.804  28.905  1.00  0.00     0.031 A 
ATOM     44  C   UNL A   1      41.397  29.767  29.617  1.00  0.00     0.074 A 
ATOM     45  C   UNL A   1      40.954  27.601  28.517  1.00  0.00     0.049 A 
ATOM     46  N   UNL A   1      42.678  29.669  29.871  1.00  0.00    -0.248 NA
ATOM     47  C   UNL A   1      40.778  31.008  30.109  1.00  0.00     0.031 C 
ATOM     48  C   UNL A   1      40.158  26.567  27.858  1.00  0.00     0.029 A 
ATOM     49  N   UNL A   1      42.204  27.047  28.625  1.00  0.00    -0.354 N 
ATOM     50  C   UNL A   1      43.023  30.842  30.529  1.00  0.00     0.074 A 
ATOM     51  C   UNL A   1      41.820  31.644  30.625  1.00  0.00     0.031 C 
ATOM     52  C   UNL A   1      40.938  25.499  27.622  1.00  0.00     0.029 A 
ATOM     53  C   UNL A   1      42.296  25.792  28.076  1.00  0.00     0.049 A 
ATOM     54  H   UNL A   1      42.962  27.504  29.056  1.00  0.00     0.167 HD
ATOM     55  C   UNL A   1      44.233  31.211  31.013  1.00  0.00     0.037 A 
ATOM     56  C   UNL A   1      43.361  24.981  27.935  1.00  0.00     0.037 A 
ATOM     57  C   UNL A   1      45.418  30.398  30.941  1.00  0.00     0.049 A 
ATOM     58  C   UNL A   1      44.700  25.431  28.452  1.00  0.00     0.074 A 
ATOM     59  C   UNL A   1      46.688  30.677  31.418  1.00  0.00     0.029 A 
ATOM     60  N   UNL A   1      45.478  29.141  30.358  1.00  0.00    -0.354 N 
ATOM     61  N   UNL A   1      45.020  26.544  29.065  1.00  0.00    -0.248 NA
ATOM     62  C   UNL A   1      45.829  24.510  28.254  1.00  0.00     0.031 C 
ATOM     63  C   UNL A   1      47.525  29.605  31.089  1.00  0.00     0.029 A 
ATOM     64  C   UNL A   1      46.767  28.639  30.447  1.00  0.00     0.049 A 
ATOM     65  H   UNL A   1      44.718  28.674  29.943  1.00  0.00     0.167 HD
ATOM     66  C   UNL A   1      46.376  26.452  29.342  1.00  0.00     0.074 A 
ATOM     67  C   UNL A   1      46.818  25.164  28.846  1.00  0.00     0.031 C 
ATOM     68  C   UNL A   1      47.186  27.353  29.951  1.00  0.00     0.037 A 
BRANCH  55  69
ATOM     69  C   UNL A   1      44.341  32.570  31.639  1.00  0.00     0.064 A 
ATOM     70  C   UNL A   1      44.486  33.731  30.866  1.00  0.00     0.173 A 
ATOM     71  C   UNL A   1      44.267  32.712  33.033  1.00  0.00     0.173 A 
ATOM     72  F   UNL A   1      44.574  33.646  29.530  1.00  0.00    -0.203 F 
ATOM     73  C   UNL A   1      44.576  34.985  31.468  1.00  0.00     0.198 A 
ATOM     74  C   UNL A   1      44.331  33.969  33.630  1.00  0.00     0.198 A 
ATOM     75  F   UNL A   1      44.123  31.633  33.816  1.00  0.00    -0.203 F 
ATOM     76  F   UNL A   1      44.754  36.077  30.714  1.00  0.00    -0.200 F 
ATOM     77  C   UNL A   1      44.492  35.102  32.847  1.00  0.00     0.200 A 
ATOM     78  F   UNL A   1      44.238  34.082  34.962  1.00  0.00    -0.200 F 
ATOM     79  F   UNL A   1      44.572  36.310  33.424  1.00  0.00    -0.200 F 
ENDBRANCH  55  69
BRANCH  56  80
ATOM     80  C   UNL A   1      43.205  23.667  27.261  1.00  0.00     0.064 A 
ATOM     81  C   UNL A   1      42.637  22.574  27.928  1.00  0.00     0.173 A 
ATOM     82  C   UNL A   1      43.629  23.477  25.937  1.00  0.00     0.173 A 
ATOM     83  F   UNL A   1      42.242  22.700  29.204  1.00  0.00    -0.203 F 
ATOM     84  C   UNL A   1      42.511  21.335  27.301  1.00  0.00     0.198 A 
ATOM     85  C   UNL A   1      43.477  22.246  25.303  1.00  0.00     0.198 A 
ATOM     86  F   UNL A   1      44.182  24.492  25.256  1.00  0.00    -0.203 F 
ATOM     87  F   UNL A   1      42.004  20.295  27.976  1.00  0.00    -0.200 F 
ATOM     88  C   UNL A   1      42.926  21.175  25.988  1.00  0.00     0.200 A 
ATOM     89  F   UNL A   1      43.870  22.098  24.030  1.00  0.00    -0.200 F 
ATOM     90  F   UNL A   1      42.801  19.984  25.385  1.00  0.00    -0.200 F 
ENDBRANCH  56  80
BRANCH  68  91
ATOM     91  C   UNL A   1      48.623  26.964  30.136  1.00  0.00     0.064 A 
ATOM     92  C   UNL A   1      49.601  27.299  29.189  1.00  0.00     0.173 A 
ATOM     93  C   UNL A   1      49.028  26.272  31.287  1.00  0.00     0.173 A 
ATOM     94  F   UNL A   1      49.260  27.945  28.064  1.00  0.00    -0.203 F 
ATOM     95  C   UNL A   1      50.932  26.932  29.376  1.00  0.00     0.198 A 
ATOM     96  C   UNL A   1      50.363  25.931  31.482  1.00  0.00     0.198 A 
ATOM     97  F   UNL A   1      48.131  25.934  32.225  1.00  0.00    -0.203 F 
ATOM     98  F   UNL A   1      51.843  27.220  28.436  1.00  0.00    -0.200 F 
ATOM     99  C   UNL A   1      51.312  26.253  30.525  1.00  0.00     0.200 A 
ATOM    100  F   UNL A   1      50.731  25.284  32.597  1.00  0.00    -0.200 F 
ATOM    101  F   UNL A   1      52.593  25.903  30.703  1.00  0.00    -0.200 F 
ENDBRANCH  68  91
ENDBRANCH  42  43
ENDBRANCH  35  37
ENDBRANCH  34  35
ENDBRANCH  33  34
ENDBRANCH  32  33
ENDBRANCH  31  32
ENDBRANCH  29  31
ENDBRANCH   1  29
TORSDOF 21
ENDMDL
MODEL 3
REMARK VINA RESULT:     -10.6      4.882     10.738
REMARK SMILES CCCCCCNC(=O)Oc1cccc(-c2ccc([C@@H](C)C(=O)OCCOC(=O)c3ccc(-c4c5nc(c(-c6c(F)c(F)c(F)c(F)c6F)c6ccc([nH]6)c(-c6c(F)c(F)c(F)c(F)c6F)c6nc(c(-c7c(F)c(F)c(F)c(F)c7F)c7ccc4[nH]7)C=C6)C=C5)cc3)cc2[N+](=O)[O-])c1
REMARK SMILES IDX 20 1 21 2 19 3 16 4 17 5 94 6 18 7 93 8 15 9 11 10 12 11
REMARK SMILES IDX 98 12 13 13 14 14 10 15 8 16 7 17 9 19 6 20 5 21 4 22 3 23
REMARK SMILES IDX 2 24 1 25 95 26 96 27 97 28 22 29 23 30 24 31 25 32 26 33
REMARK SMILES IDX 27 34 28 35 29 36 30 37 31 38 92 39 32 40 91 41 33 42 34 43
REMARK SMILES IDX 35 44 85 45 36 46 90 47 84 48 86 49 37 50 89 51 83 52 82 53
REMARK SMILES IDX 38 55 70 56 50 57 69 58 51 59 54 60 68 61 87 62 52 63 53 64
REMARK SMILES IDX 67 66 88 67 55 68 39 69 40 70 48 71 41 72 42 73 46 74 49 75
REMARK SMILES IDX 43 76 44 77 47 78 45 79 71 80 72 81 80 82 73 83 74 84 78 85
REMARK SMILES IDX 81 86 75 87 76 88 79 89 77 90 56 91 57 92 65 93 58 94 59 95
REMARK SMILES IDX 63 96 66 97 60 98 61 99 64 100 62 101
REMARK H PARENT 7 18 86 54 54 65
REMARK Flexibility Score: inf
ROOT
ATOM      1  C   UNL A   1      34.902  23.958  24.582  1.00  0.00     0.126 C 
ATOM      2  C   UNL A   1      34.010  22.887  23.959  1.00  0.00     0.025 C 
ENDROOT
BRANCH   1   3
ATOM      3  C   UNL A   1      36.210  23.390  25.113  1.00  0.00    -0.027 A 
ATOM      4  C   UNL A   1      38.727  22.381  26.053  1.00  0.00     0.060 A 
ATOM      5  C   UNL A   1      37.795  21.557  25.392  1.00  0.00     0.016 A 
ATOM      6  C   UNL A   1      38.343  23.717  26.256  1.00  0.00     0.277 A 
ATOM      7  C   UNL A   1      36.569  22.051  24.925  1.00  0.00     0.006 A 
ATOM      8  C   UNL A   1      37.111  24.221  25.797  1.00  0.00     0.091 A 
BRANCH   4   9
ATOM      9  C   UNL A   1      40.035  21.811  26.431  1.00  0.00    -0.008 A 
ATOM     10  C   UNL A   1      41.934  20.356  26.045  1.00  0.00     0.133 A 
ATOM     11  C   UNL A   1      42.491  20.706  27.273  1.00  0.00     0.047 A 
ATOM     12  C   UNL A   1      40.720  20.900  25.614  1.00  0.00     0.056 A 
ATOM     13  C   UNL A   1      41.833  21.625  28.082  1.00  0.00     0.004 A 
ATOM     14  C   UNL A   1      40.615  22.166  27.666  1.00  0.00     0.009 A 
BRANCH  10  15
ATOM     15  O   UNL A   1      42.573  19.318  25.347  1.00  0.00    -0.410 OA
BRANCH  15  16
ATOM     16  C   UNL A   1      43.404  18.445  26.030  1.00  0.00     0.412 C 
ATOM     17  N   UNL A   1      44.717  18.568  25.667  1.00  0.00    -0.321 N 
ATOM     18  H   UNL A   1      45.356  17.963  26.108  1.00  0.00     0.167 HD
ATOM     19  O   UNL A   1      43.052  17.622  26.866  1.00  0.00    -0.224 OA
BRANCH  17  20
ATOM     20  C   UNL A   1      45.266  19.498  24.699  1.00  0.00     0.119 C 
BRANCH  20  21
ATOM     21  C   UNL A   1      45.711  20.809  25.349  1.00  0.00     0.021 C 
BRANCH  21  22
ATOM     22  C   UNL A   1      46.274  21.853  24.378  1.00  0.00     0.002 C 
BRANCH  22  23
ATOM     23  C   UNL A   1      45.404  23.096  24.165  1.00  0.00    -0.000 C 
BRANCH  23  24
ATOM     24  C   UNL A   1      43.894  22.869  24.275  1.00  0.00    -0.003 C 
ATOM     25  C   UNL A   1      43.190  23.905  25.138  1.00  0.00     0.004 C 
ENDBRANCH  23  24
ENDBRANCH  22  23
ENDBRANCH  21  22
ENDBRANCH  20  21
ENDBRANCH  17  20
ENDBRANCH  15  16
ENDBRANCH  10  15
ENDBRANCH   4   9
BRANCH   6  26
ATOM     26  N   UNL A   1      39.233  24.673  26.900  1.00  0.00     0.063 N 
ATOM     27  O   UNL A   1      39.058  24.875  28.111  1.00  0.00    -0.258 OA
ATOM     28  O   UNL A   1      40.054  25.266  26.188  1.00  0.00    -0.258 OA
ENDBRANCH   6  26
ENDBRANCH   1   3
BRANCH   1  29
ATOM     29  C   UNL A   1      34.097  24.810  25.556  1.00  0.00     0.313 C 
ATOM     30  O   UNL A   1      33.506  24.318  26.514  1.00  0.00    -0.252 OA
BRANCH  29  31
ATOM     31  O   UNL A   1      34.134  26.139  25.281  1.00  0.00    -0.462 OA
BRANCH  31  32
ATOM     32  C   UNL A   1      33.452  27.015  26.199  1.00  0.00     0.274 C 
BRANCH  32  33
ATOM     33  C   UNL A   1      34.084  28.410  26.215  1.00  0.00     0.275 C 
BRANCH  33  34
ATOM     34  O   UNL A   1      34.484  28.792  27.545  1.00  0.00    -0.458 OA
BRANCH  34  35
ATOM     35  C   UNL A   1      34.943  30.059  27.660  1.00  0.00     0.338 C 
ATOM     36  O   UNL A   1      34.453  31.072  27.192  1.00  0.00    -0.246 OA
BRANCH  35  37
ATOM     37  C   UNL A   1      36.085  30.090  28.586  1.00  0.00     0.060 A 
ATOM     38  C   UNL A   1      37.209  30.827  28.207  1.00  0.00     0.016 A 
ATOM     39  C   UNL A   1      36.096  29.333  29.758  1.00  0.00     0.016 A 
ATOM     40  C   UNL A   1      38.361  30.796  28.981  1.00  0.00     0.010 A 
ATOM     41  C   UNL A   1      37.252  29.310  30.545  1.00  0.00     0.010 A 
ATOM     42  C   UNL A   1      38.397  30.027  30.150  1.00  0.00    -0.014 A 
BRANCH  42  43
ATOM     43  C   UNL A   1      39.661  29.938  30.919  1.00  0.00     0.031 A 
ATOM     44  C   UNL A   1      39.887  30.848  32.091  1.00  0.00     0.074 A 
ATOM     45  C   UNL A   1      40.582  29.013  30.590  1.00  0.00     0.049 A 
ATOM     46  N   UNL A   1      40.942  30.967  32.857  1.00  0.00    -0.248 NA
ATOM     47  C   UNL A   1      38.778  31.745  32.449  1.00  0.00     0.031 C 
ATOM     48  C   UNL A   1      40.452  28.046  29.502  1.00  0.00     0.029 A 
ATOM     49  N   UNL A   1      41.806  28.737  31.143  1.00  0.00    -0.354 N 
ATOM     50  C   UNL A   1      40.635  31.967  33.769  1.00  0.00     0.074 A 
ATOM     51  C   UNL A   1      39.300  32.431  33.456  1.00  0.00     0.031 C 
ATOM     52  C   UNL A   1      41.553  27.278  29.467  1.00  0.00     0.029 A 
ATOM     53  C   UNL A   1      42.480  27.726  30.504  1.00  0.00     0.049 A 
ATOM     54  H   UNL A   1      42.167  29.216  31.924  1.00  0.00     0.167 HD
ATOM     55  C   UNL A   1      41.398  32.447  34.780  1.00  0.00     0.037 A 
ATOM     56  C   UNL A   1      43.715  27.235  30.716  1.00  0.00     0.037 A 
ATOM     57  C   UNL A   1      42.713  31.962  35.106  1.00  0.00     0.049 A 
ATOM     58  C   UNL A   1      44.554  27.811  31.824  1.00  0.00     0.074 A 
ATOM     59  C   UNL A   1      43.559  32.373  36.123  1.00  0.00     0.029 A 
ATOM     60  N   UNL A   1      43.373  30.951  34.422  1.00  0.00    -0.354 N 
ATOM     61  N   UNL A   1      44.260  28.761  32.678  1.00  0.00    -0.248 NA
ATOM     62  C   UNL A   1      45.900  27.246  31.997  1.00  0.00     0.031 C 
ATOM     63  C   UNL A   1      44.746  31.637  36.030  1.00  0.00     0.029 A 
ATOM     64  C   UNL A   1      44.623  30.737  34.983  1.00  0.00     0.049 A 
ATOM     65  H   UNL A   1      43.008  30.459  33.652  1.00  0.00     0.167 HD
ATOM     66  C   UNL A   1      45.371  28.896  33.498  1.00  0.00     0.074 A 
ATOM     67  C   UNL A   1      46.341  27.917  33.052  1.00  0.00     0.031 C 
ATOM     68  C   UNL A   1      45.572  29.755  34.528  1.00  0.00     0.037 A 
BRANCH  55  69
ATOM     69  C   UNL A   1      40.838  33.579  35.591  1.00  0.00     0.064 A 
ATOM     70  C   UNL A   1      40.095  33.356  36.758  1.00  0.00     0.173 A 
ATOM     71  C   UNL A   1      41.079  34.907  35.207  1.00  0.00     0.173 A 
ATOM     72  F   UNL A   1      39.829  32.104  37.160  1.00  0.00    -0.203 F 
ATOM     73  C   UNL A   1      39.593  34.422  37.502  1.00  0.00     0.198 A 
ATOM     74  C   UNL A   1      40.598  35.971  35.966  1.00  0.00     0.198 A 
ATOM     75  F   UNL A   1      41.789  35.174  34.101  1.00  0.00    -0.203 F 
ATOM     76  F   UNL A   1      38.852  34.187  38.592  1.00  0.00    -0.200 F 
ATOM     77  C   UNL A   1      39.850  35.727  37.108  1.00  0.00     0.200 A 
ATOM     78  F   UNL A   1      40.857  37.231  35.591  1.00  0.00    -0.200 F 
ATOM     79  F   UNL A   1      39.371  36.752  37.828  1.00  0.00    -0.200 F 
ENDBRANCH  55  69
BRANCH  56  80
ATOM     80  C   UNL A   1      44.238  26.150  29.849  1.00  0.00     0.064 A 
ATOM     81  C   UNL A   1      44.816  26.433  28.604  1.00  0.00     0.173 A 
ATOM     82  C   UNL A   1      44.164  24.806  30.245  1.00  0.00     0.173 A 
ATOM     83  F   UNL A   1      44.884  27.700  28.171  1.00  0.00    -0.203 F 
ATOM     84  C   UNL A   1      45.287  25.411  27.781  1.00  0.00     0.198 A 
ATOM     85  C   UNL A   1      44.661  23.788  29.434  1.00  0.00     0.198 A 
ATOM     86  F   UNL A   1      43.618  24.483  31.427  1.00  0.00    -0.203 F 
ATOM     87  F   UNL A   1      45.795  25.705  26.577  1.00  0.00    -0.200 F 
ATOM     88  C   UNL A   1      45.214  24.091  28.200  1.00  0.00     0.200 A 
ATOM     89  F   UNL A   1      44.598  22.515  29.846  1.00  0.00    -0.200 F 
ATOM     90  F   UNL A   1      45.671  23.110  27.409  1.00  0.00    -0.200 F 
ENDBRANCH  56  80
BRANCH  68  91
ATOM     91  C   UNL A   1      46.880  29.654  35.255  1.00  0.00     0.064 A 
ATOM     92  C   UNL A   1      47.046  28.793  36.350  1.00  0.00     0.173 A 
ATOM     93  C   UNL A   1      47.986  30.408  34.836  1.00  0.00     0.173 A 
ATOM     94  F   UNL A   1      46.012  28.065  36.799  1.00  0.00    -0.203 F 
ATOM     95  C   UNL A   1      48.267  28.710  37.014  1.00  0.00     0.198 A 
ATOM     96  C   UNL A   1      49.212  30.301  35.486  1.00  0.00     0.198 A 
ATOM     97  F   UNL A   1      47.880  31.242  33.790  1.00  0.00    -0.203 F 
ATOM     98  F   UNL A   1      48.391  27.916  38.087  1.00  0.00    -0.200 F 
ATOM     99  C   UNL A   1      49.349  29.459  36.578  1.00  0.00     0.200 A 
ATOM    100  F   UNL A   1      50.260  31.019  35.058  1.00  0.00    -0.200 F 
ATOM    101  F   UNL A   1      50.524  29.376  37.219  1.00  0.00    -0.200 F 
ENDBRANCH  68  91
ENDBRANCH  42  43
ENDBRANCH  35  37
ENDBRANCH  34  35
ENDBRANCH  33  34
ENDBRANCH  32  33
ENDBRANCH  31  32
ENDBRANCH  29  31
ENDBRANCH   1  29
TORSDOF 21
ENDMDL
