MODEL 1
REMARK VINA RESULT:     -14.0      0.000      0.000
REMARK SMILES Cc1cc(C(=O)OCCOC(=O)c2ccc(-c3c4nc(c(-c5c(F)c(F)c(F)c(F)c5F)c5ccc([nH]5)c(-c5c(F)c(F)c(F)c(F)c5F)c5nc(c(-c6c(F)c(F)c(F)c(F)c6F)c6ccc3[nH]6)C=C5)C=C4)cc2)ccc1NC(=O)N1C[C@@H](C)[C@H](C)C1
REMARK SMILES IDX 9 1 8 2 7 3 5 4 6 5 4 6 1 7 2 8 3 9 78 10 77 11 76 12 79 13
REMARK SMILES IDX 80 14 81 16 82 17 83 18 88 19 84 20 86 21 85 22 87 23 10 24
REMARK SMILES IDX 11 25 12 26 13 27 14 28 75 29 15 30 74 31 16 32 17 33 18 34
REMARK SMILES IDX 68 35 19 36 73 37 67 38 69 39 20 40 72 41 66 42 65 43 21 45
REMARK SMILES IDX 53 46 33 47 52 48 34 49 37 50 51 51 70 52 35 53 36 54 50 56
REMARK SMILES IDX 71 57 38 58 22 59 23 60 31 61 24 62 25 63 29 64 32 65 26 66
REMARK SMILES IDX 27 67 30 68 28 69 54 70 55 71 63 72 56 73 57 74 61 75 64 76
REMARK SMILES IDX 58 77 59 78 62 79 60 80 39 81 40 82 48 83 41 84 42 85 46 86
REMARK SMILES IDX 49 87 43 88 44 89 47 90 45 91
REMARK H PARENT 79 15 69 44 37 55
REMARK Flexibility Score: inf
ROOT
ATOM      1  C   UNL A   1      34.175  31.325  27.308  1.00  0.00     0.275 C 
ENDROOT
BRANCH   1   2
ATOM      2  C   UNL A   1      32.927  30.437  27.235  1.00  0.00     0.275 C 
BRANCH   2   3
ATOM      3  O   UNL A   1      33.221  29.036  27.315  1.00  0.00    -0.458 OA
BRANCH   3   4
ATOM      4  C   UNL A   1      32.123  28.265  27.133  1.00  0.00     0.338 C 
ATOM      5  O   UNL A   1      31.383  27.826  28.001  1.00  0.00    -0.246 OA
BRANCH   4   6
ATOM      6  C   UNL A   1      31.984  27.801  25.751  1.00  0.00     0.060 A 
ATOM      7  C   UNL A   1      29.528  25.810  23.644  1.00  0.00     0.046 C 
ATOM      8  C   UNL A   1      30.835  26.369  24.136  1.00  0.00    -0.027 A 
ATOM      9  C   UNL A   1      30.805  27.245  25.237  1.00  0.00     0.021 A 
ATOM     10  C   UNL A   1      32.092  26.015  23.633  1.00  0.00     0.045 A 
ATOM     11  C   UNL A   1      33.214  26.771  24.006  1.00  0.00     0.027 A 
ATOM     12  C   UNL A   1      33.182  27.630  25.087  1.00  0.00     0.018 A 
BRANCH  10  13
ATOM     13  N   UNL A   1      32.265  24.885  22.807  1.00  0.00    -0.308 N 
ATOM     14  C   UNL A   1      33.321  24.005  22.828  1.00  0.00     0.321 C 
ATOM     15  H   UNL A   1      31.556  24.708  22.147  1.00  0.00     0.171 HD
ATOM     16  O   UNL A   1      33.658  23.425  21.799  1.00  0.00    -0.248 OA
ATOM     17  N   UNL A   1      33.962  23.815  24.029  1.00  0.00    -0.324 N 
ATOM     18  C   UNL A   1      35.401  23.723  24.122  1.00  0.00     0.125 C 
ATOM     19  C   UNL A   1      33.301  23.379  25.252  1.00  0.00     0.125 C 
ATOM     20  C   UNL A   1      35.693  23.018  25.441  1.00  0.00     0.010 C 
ATOM     21  C   UNL A   1      34.419  23.223  26.287  1.00  0.00     0.010 C 
ATOM     22  C   UNL A   1      36.937  23.573  26.125  1.00  0.00     0.010 C 
ATOM     23  C   UNL A   1      34.178  22.069  27.257  1.00  0.00     0.010 C 
ENDBRANCH  10  13
ENDBRANCH   4   6
ENDBRANCH   3   4
ENDBRANCH   2   3
ENDBRANCH   1   2
BRANCH   1  24
ATOM     24  O   UNL A   1      35.478  30.753  27.626  1.00  0.00    -0.458 OA
BRANCH  24  25
ATOM     25  C   UNL A   1      36.185  30.909  28.765  1.00  0.00     0.338 C 
ATOM     26  O   UNL A   1      35.886  31.733  29.625  1.00  0.00    -0.246 OA
BRANCH  25  27
ATOM     27  C   UNL A   1      37.361  30.049  28.931  1.00  0.00     0.060 A 
ATOM     28  C   UNL A   1      37.348  29.075  29.943  1.00  0.00     0.016 A 
ATOM     29  C   UNL A   1      38.403  30.127  28.015  1.00  0.00     0.016 A 
ATOM     30  C   UNL A   1      38.318  28.087  29.970  1.00  0.00     0.010 A 
ATOM     31  C   UNL A   1      39.285  29.083  27.946  1.00  0.00     0.010 A 
ATOM     32  C   UNL A   1      39.271  28.107  28.958  1.00  0.00    -0.014 A 
BRANCH  32  33
ATOM     33  C   UNL A   1      40.557  27.456  29.092  1.00  0.00     0.031 A 
ATOM     34  C   UNL A   1      40.773  26.083  28.628  1.00  0.00     0.074 A 
ATOM     35  C   UNL A   1      41.477  28.381  29.452  1.00  0.00     0.049 A 
ATOM     36  N   UNL A   1      41.792  25.374  28.955  1.00  0.00    -0.248 NA
ATOM     37  C   UNL A   1      39.831  25.343  27.791  1.00  0.00     0.031 C 
ATOM     38  C   UNL A   1      42.921  28.417  29.363  1.00  0.00     0.029 A 
ATOM     39  N   UNL A   1      41.158  29.581  30.128  1.00  0.00    -0.354 N 
ATOM     40  C   UNL A   1      41.832  24.284  28.105  1.00  0.00     0.074 A 
ATOM     41  C   UNL A   1      40.513  24.218  27.534  1.00  0.00     0.031 C 
ATOM     42  C   UNL A   1      43.371  29.355  30.224  1.00  0.00     0.029 A 
ATOM     43  C   UNL A   1      42.222  29.843  30.985  1.00  0.00     0.049 A 
ATOM     44  H   UNL A   1      40.345  30.125  30.014  1.00  0.00     0.167 HD
ATOM     45  C   UNL A   1      43.051  23.717  27.866  1.00  0.00     0.037 A 
ATOM     46  C   UNL A   1      41.999  29.640  32.318  1.00  0.00     0.037 A 
ATOM     47  C   UNL A   1      44.046  24.394  28.702  1.00  0.00     0.049 A 
ATOM     48  C   UNL A   1      42.805  28.453  32.778  1.00  0.00     0.074 A 
ATOM     49  C   UNL A   1      44.890  25.460  28.435  1.00  0.00     0.029 A 
ATOM     50  N   UNL A   1      43.945  24.300  30.086  1.00  0.00    -0.354 N 
ATOM     51  N   UNL A   1      43.024  27.381  32.059  1.00  0.00    -0.248 NA
ATOM     52  C   UNL A   1      43.547  28.472  34.031  1.00  0.00     0.031 C 
ATOM     53  C   UNL A   1      45.207  26.074  29.677  1.00  0.00     0.029 A 
ATOM     54  C   UNL A   1      44.558  25.382  30.690  1.00  0.00     0.049 A 
ATOM     55  H   UNL A   1      43.499  23.567  30.568  1.00  0.00     0.167 HD
ATOM     56  C   UNL A   1      43.993  26.633  32.675  1.00  0.00     0.074 A 
ATOM     57  C   UNL A   1      44.266  27.344  33.914  1.00  0.00     0.031 C 
ATOM     58  C   UNL A   1      44.564  25.515  32.137  1.00  0.00     0.037 A 
BRANCH  45  59
ATOM     59  C   UNL A   1      43.447  22.805  26.715  1.00  0.00     0.064 A 
ATOM     60  C   UNL A   1      43.025  21.451  26.716  1.00  0.00     0.173 A 
ATOM     61  C   UNL A   1      44.263  23.151  25.620  1.00  0.00     0.173 A 
ATOM     62  F   UNL A   1      42.192  20.979  27.654  1.00  0.00    -0.203 F 
ATOM     63  C   UNL A   1      43.440  20.521  25.757  1.00  0.00     0.198 A 
ATOM     64  C   UNL A   1      44.685  22.217  24.663  1.00  0.00     0.198 A 
ATOM     65  F   UNL A   1      44.665  24.405  25.405  1.00  0.00    -0.203 F 
ATOM     66  F   UNL A   1      43.021  19.250  25.837  1.00  0.00    -0.200 F 
ATOM     67  C   UNL A   1      44.282  20.901  24.735  1.00  0.00     0.200 A 
ATOM     68  F   UNL A   1      45.489  22.609  23.663  1.00  0.00    -0.200 F 
ATOM     69  F   UNL A   1      44.688  20.010  23.820  1.00  0.00    -0.200 F 
ENDBRANCH  45  59
BRANCH  46  70
ATOM     70  C   UNL A   1      40.614  30.012  32.778  1.00  0.00     0.064 A 
ATOM     71  C   UNL A   1      40.226  31.373  32.713  1.00  0.00     0.173 A 
ATOM     72  C   UNL A   1      39.589  29.088  33.021  1.00  0.00     0.173 A 
ATOM     73  F   UNL A   1      41.152  32.323  32.496  1.00  0.00    -0.203 F 
ATOM     74  C   UNL A   1      38.890  31.774  32.774  1.00  0.00     0.198 A 
ATOM     75  C   UNL A   1      38.248  29.495  33.107  1.00  0.00     0.198 A 
ATOM     76  F   UNL A   1      39.858  27.777  33.098  1.00  0.00    -0.203 F 
ATOM     77  F   UNL A   1      38.567  33.062  32.586  1.00  0.00    -0.200 F 
ATOM     78  C   UNL A   1      37.898  30.831  32.960  1.00  0.00     0.200 A 
ATOM     79  F   UNL A   1      37.277  28.578  33.241  1.00  0.00    -0.200 F 
ATOM     80  F   UNL A   1      36.608  31.194  32.941  1.00  0.00    -0.200 F 
ENDBRANCH  46  70
BRANCH  58  81
ATOM     81  C   UNL A   1      45.290  24.473  32.949  1.00  0.00     0.064 A 
ATOM     82  C   UNL A   1      46.573  24.677  33.480  1.00  0.00     0.173 A 
ATOM     83  C   UNL A   1      44.631  23.295  33.376  1.00  0.00     0.173 A 
ATOM     84  F   UNL A   1      47.241  25.822  33.284  1.00  0.00    -0.203 F 
ATOM     85  C   UNL A   1      47.194  23.729  34.290  1.00  0.00     0.198 A 
ATOM     86  C   UNL A   1      45.221  22.395  34.257  1.00  0.00     0.198 A 
ATOM     87  F   UNL A   1      43.383  22.998  32.986  1.00  0.00    -0.203 F 
ATOM     88  F   UNL A   1      48.450  23.940  34.707  1.00  0.00    -0.200 F 
ATOM     89  C   UNL A   1      46.514  22.596  34.690  1.00  0.00     0.200 A 
ATOM     90  F   UNL A   1      44.517  21.344  34.702  1.00  0.00    -0.200 F 
ATOM     91  F   UNL A   1      47.095  21.714  35.512  1.00  0.00    -0.200 F 
ENDBRANCH  58  81
ENDBRANCH  32  33
ENDBRANCH  25  27
ENDBRANCH  24  25
ENDBRANCH   1  24
TORSDOF 12
ENDMDL
MODEL 2
REMARK VINA RESULT:     -13.8      3.861     10.101
REMARK SMILES Cc1cc(C(=O)OCCOC(=O)c2ccc(-c3c4nc(c(-c5c(F)c(F)c(F)c(F)c5F)c5ccc([nH]5)c(-c5c(F)c(F)c(F)c(F)c5F)c5nc(c(-c6c(F)c(F)c(F)c(F)c6F)c6ccc3[nH]6)C=C5)C=C4)cc2)ccc1NC(=O)N1C[C@@H](C)[C@H](C)C1
REMARK SMILES IDX 9 1 8 2 7 3 5 4 6 5 4 6 1 7 2 8 3 9 78 10 77 11 76 12 79 13
REMARK SMILES IDX 80 14 81 16 82 17 83 18 88 19 84 20 86 21 85 22 87 23 10 24
REMARK SMILES IDX 11 25 12 26 13 27 14 28 75 29 15 30 74 31 16 32 17 33 18 34
REMARK SMILES IDX 68 35 19 36 73 37 67 38 69 39 20 40 72 41 66 42 65 43 21 45
REMARK SMILES IDX 53 46 33 47 52 48 34 49 37 50 51 51 70 52 35 53 36 54 50 56
REMARK SMILES IDX 71 57 38 58 22 59 23 60 31 61 24 62 25 63 29 64 32 65 26 66
REMARK SMILES IDX 27 67 30 68 28 69 54 70 55 71 63 72 56 73 57 74 61 75 64 76
REMARK SMILES IDX 58 77 59 78 62 79 60 80 39 81 40 82 48 83 41 84 42 85 46 86
REMARK SMILES IDX 49 87 43 88 44 89 47 90 45 91
REMARK H PARENT 79 15 69 44 37 55
REMARK Flexibility Score: inf
ROOT
ATOM      1  C   UNL A   1      39.184  21.907  26.472  1.00  0.00     0.275 C 
ENDROOT
BRANCH   1   2
ATOM      2  C   UNL A   1      38.181  21.540  25.372  1.00  0.00     0.275 C 
BRANCH   2   3
ATOM      3  O   UNL A   1      36.816  21.582  25.810  1.00  0.00    -0.458 OA
BRANCH   3   4
ATOM      4  C   UNL A   1      36.158  22.672  25.352  1.00  0.00     0.338 C 
ATOM      5  O   UNL A   1      36.644  23.759  25.075  1.00  0.00    -0.246 OA
BRANCH   4   6
ATOM      6  C   UNL A   1      34.703  22.513  25.400  1.00  0.00     0.060 A 
ATOM      7  C   UNL A   1      31.738  22.657  23.029  1.00  0.00     0.046 C 
ATOM      8  C   UNL A   1      32.537  22.779  24.298  1.00  0.00    -0.027 A 
ATOM      9  C   UNL A   1      33.898  22.421  24.257  1.00  0.00     0.021 A 
ATOM     10  C   UNL A   1      32.048  23.305  25.498  1.00  0.00     0.045 A 
ATOM     11  C   UNL A   1      32.806  23.152  26.670  1.00  0.00     0.027 A 
ATOM     12  C   UNL A   1      34.141  22.800  26.627  1.00  0.00     0.018 A 
BRANCH  10  13
ATOM     13  N   UNL A   1      30.841  24.034  25.549  1.00  0.00    -0.308 N 
ATOM     14  C   UNL A   1      30.685  25.339  25.947  1.00  0.00     0.321 C 
ATOM     15  H   UNL A   1      30.027  23.557  25.269  1.00  0.00     0.171 HD
ATOM     16  O   UNL A   1      29.630  25.704  26.461  1.00  0.00    -0.248 OA
ATOM     17  N   UNL A   1      31.744  26.193  25.746  1.00  0.00    -0.324 N 
ATOM     18  C   UNL A   1      32.142  27.165  26.738  1.00  0.00     0.125 C 
ATOM     19  C   UNL A   1      32.363  26.442  24.451  1.00  0.00     0.125 C 
ATOM     20  C   UNL A   1      32.949  28.221  25.994  1.00  0.00     0.010 C 
ATOM     21  C   UNL A   1      33.424  27.516  24.706  1.00  0.00     0.010 C 
ATOM     22  C   UNL A   1      34.111  28.749  26.827  1.00  0.00     0.010 C 
ATOM     23  C   UNL A   1      33.580  28.489  23.539  1.00  0.00     0.010 C 
ENDBRANCH  10  13
ENDBRANCH   4   6
ENDBRANCH   3   4
ENDBRANCH   2   3
ENDBRANCH   1   2
BRANCH   1  24
ATOM     24  O   UNL A   1      39.382  23.298  26.865  1.00  0.00    -0.458 OA
BRANCH  24  25
ATOM     25  C   UNL A   1      40.543  23.985  26.885  1.00  0.00     0.338 C 
ATOM     26  O   UNL A   1      41.606  23.507  26.497  1.00  0.00    -0.246 OA
BRANCH  25  27
ATOM     27  C   UNL A   1      40.489  25.350  27.420  1.00  0.00     0.060 A 
ATOM     28  C   UNL A   1      40.586  26.429  26.526  1.00  0.00     0.016 A 
ATOM     29  C   UNL A   1      40.218  25.549  28.768  1.00  0.00     0.016 A 
ATOM     30  C   UNL A   1      40.287  27.713  26.951  1.00  0.00     0.010 A 
ATOM     31  C   UNL A   1      39.788  26.785  29.168  1.00  0.00     0.010 A 
ATOM     32  C   UNL A   1      39.883  27.865  28.273  1.00  0.00    -0.014 A 
BRANCH  32  33
ATOM     33  C   UNL A   1      39.973  29.131  28.969  1.00  0.00     0.031 A 
ATOM     34  C   UNL A   1      38.873  30.098  28.946  1.00  0.00     0.074 A 
ATOM     35  C   UNL A   1      41.063  29.110  29.772  1.00  0.00     0.049 A 
ATOM     36  N   UNL A   1      38.994  31.322  29.312  1.00  0.00    -0.248 NA
ATOM     37  C   UNL A   1      37.530  29.799  28.452  1.00  0.00     0.031 C 
ATOM     38  C   UNL A   1      41.440  29.882  30.936  1.00  0.00     0.029 A 
ATOM     39  N   UNL A   1      42.189  28.287  29.541  1.00  0.00    -0.354 N 
ATOM     40  C   UNL A   1      37.721  31.841  29.461  1.00  0.00     0.074 A 
ATOM     41  C   UNL A   1      36.868  30.926  28.750  1.00  0.00     0.031 C 
ATOM     42  C   UNL A   1      42.775  29.760  31.105  1.00  0.00     0.029 A 
ATOM     43  C   UNL A   1      43.298  29.015  29.962  1.00  0.00     0.049 A 
ATOM     44  H   UNL A   1      42.189  27.379  29.161  1.00  0.00     0.167 HD
ATOM     45  C   UNL A   1      37.562  32.873  30.342  1.00  0.00     0.037 A 
ATOM     46  C   UNL A   1      44.110  29.514  28.983  1.00  0.00     0.037 A 
ATOM     47  C   UNL A   1      38.882  33.247  30.857  1.00  0.00     0.049 A 
ATOM     48  C   UNL A   1      43.984  31.016  28.956  1.00  0.00     0.074 A 
ATOM     49  C   UNL A   1      39.563  32.854  31.996  1.00  0.00     0.029 A 
ATOM     50  N   UNL A   1      39.832  33.756  29.977  1.00  0.00    -0.354 N 
ATOM     51  N   UNL A   1      42.872  31.671  29.175  1.00  0.00    -0.248 NA
ATOM     52  C   UNL A   1      45.150  31.878  28.831  1.00  0.00     0.031 C 
ATOM     53  C   UNL A   1      40.951  33.031  31.746  1.00  0.00     0.029 A 
ATOM     54  C   UNL A   1      41.108  33.531  30.461  1.00  0.00     0.049 A 
ATOM     55  H   UNL A   1      39.626  34.212  29.130  1.00  0.00     0.167 HD
ATOM     56  C   UNL A   1      43.172  32.999  29.329  1.00  0.00     0.074 A 
ATOM     57  C   UNL A   1      44.603  33.079  29.079  1.00  0.00     0.031 C 
ATOM     58  C   UNL A   1      42.271  33.956  29.702  1.00  0.00     0.037 A 
BRANCH  45  59
ATOM     59  C   UNL A   1      36.273  33.357  30.989  1.00  0.00     0.064 A 
ATOM     60  C   UNL A   1      35.347  34.114  30.227  1.00  0.00     0.173 A 
ATOM     61  C   UNL A   1      35.897  33.176  32.334  1.00  0.00     0.173 A 
ATOM     62  F   UNL A   1      35.525  34.322  28.916  1.00  0.00    -0.203 F 
ATOM     63  C   UNL A   1      34.197  34.691  30.777  1.00  0.00     0.198 A 
ATOM     64  C   UNL A   1      34.748  33.761  32.887  1.00  0.00     0.198 A 
ATOM     65  F   UNL A   1      36.598  32.405  33.168  1.00  0.00    -0.203 F 
ATOM     66  F   UNL A   1      33.380  35.416  30.000  1.00  0.00    -0.200 F 
ATOM     67  C   UNL A   1      33.903  34.526  32.112  1.00  0.00     0.200 A 
ATOM     68  F   UNL A   1      34.467  33.573  34.186  1.00  0.00    -0.200 F 
ATOM     69  F   UNL A   1      32.808  35.085  32.643  1.00  0.00    -0.200 F 
ENDBRANCH  45  59
BRANCH  46  70
ATOM     70  C   UNL A   1      44.270  28.610  27.788  1.00  0.00     0.064 A 
ATOM     71  C   UNL A   1      44.953  27.381  27.962  1.00  0.00     0.173 A 
ATOM     72  C   UNL A   1      43.574  28.766  26.583  1.00  0.00     0.173 A 
ATOM     73  F   UNL A   1      45.654  27.158  29.088  1.00  0.00    -0.203 F 
ATOM     74  C   UNL A   1      44.855  26.334  27.044  1.00  0.00     0.198 A 
ATOM     75  C   UNL A   1      43.496  27.720  25.648  1.00  0.00     0.198 A 
ATOM     76  F   UNL A   1      42.896  29.893  26.328  1.00  0.00    -0.203 F 
ATOM     77  F   UNL A   1      45.421  25.149  27.314  1.00  0.00    -0.200 F 
ATOM     78  C   UNL A   1      44.115  26.501  25.889  1.00  0.00     0.200 A 
ATOM     79  F   UNL A   1      42.741  27.862  24.547  1.00  0.00    -0.200 F 
ATOM     80  F   UNL A   1      43.949  25.478  25.038  1.00  0.00    -0.200 F 
ENDBRANCH  46  70
BRANCH  58  81
ATOM     81  C   UNL A   1      42.472  35.431  29.465  1.00  0.00     0.064 A 
ATOM     82  C   UNL A   1      43.326  36.221  30.251  1.00  0.00     0.173 A 
ATOM     83  C   UNL A   1      41.944  36.060  28.311  1.00  0.00     0.173 A 
ATOM     84  F   UNL A   1      44.014  35.704  31.278  1.00  0.00    -0.203 F 
ATOM     85  C   UNL A   1      43.553  37.565  29.968  1.00  0.00     0.198 A 
ATOM     86  C   UNL A   1      42.247  37.378  27.984  1.00  0.00     0.198 A 
ATOM     87  F   UNL A   1      41.154  35.410  27.446  1.00  0.00    -0.203 F 
ATOM     88  F   UNL A   1      44.316  38.293  30.794  1.00  0.00    -0.200 F 
ATOM     89  C   UNL A   1      43.026  38.140  28.828  1.00  0.00     0.200 A 
ATOM     90  F   UNL A   1      41.796  37.895  26.833  1.00  0.00    -0.200 F 
ATOM     91  F   UNL A   1      43.291  39.418  28.531  1.00  0.00    -0.200 F 
ENDBRANCH  58  81
ENDBRANCH  32  33
ENDBRANCH  25  27
ENDBRANCH  24  25
ENDBRANCH   1  24
TORSDOF 12
ENDMDL
MODEL 3
REMARK VINA RESULT:     -13.7      0.621      1.300
REMARK SMILES Cc1cc(C(=O)OCCOC(=O)c2ccc(-c3c4nc(c(-c5c(F)c(F)c(F)c(F)c5F)c5ccc([nH]5)c(-c5c(F)c(F)c(F)c(F)c5F)c5nc(c(-c6c(F)c(F)c(F)c(F)c6F)c6ccc3[nH]6)C=C5)C=C4)cc2)ccc1NC(=O)N1C[C@@H](C)[C@H](C)C1
REMARK SMILES IDX 9 1 8 2 7 3 5 4 6 5 4 6 1 7 2 8 3 9 78 10 77 11 76 12 79 13
REMARK SMILES IDX 80 14 81 16 82 17 83 18 88 19 84 20 86 21 85 22 87 23 10 24
REMARK SMILES IDX 11 25 12 26 13 27 14 28 75 29 15 30 74 31 16 32 17 33 18 34
REMARK SMILES IDX 68 35 19 36 73 37 67 38 69 39 20 40 72 41 66 42 65 43 21 45
REMARK SMILES IDX 53 46 33 47 52 48 34 49 37 50 51 51 70 52 35 53 36 54 50 56
REMARK SMILES IDX 71 57 38 58 22 59 23 60 31 61 24 62 25 63 29 64 32 65 26 66
REMARK SMILES IDX 27 67 30 68 28 69 54 70 55 71 63 72 56 73 57 74 61 75 64 76
REMARK SMILES IDX 58 77 59 78 62 79 60 80 39 81 40 82 48 83 41 84 42 85 46 86
REMARK SMILES IDX 49 87 43 88 44 89 47 90 45 91
REMARK H PARENT 79 15 69 44 37 55
REMARK Flexibility Score: inf
ROOT
ATOM      1  C   UNL A   1      33.995  31.196  28.201  1.00  0.00     0.275 C 
ENDROOT
BRANCH   1   2
ATOM      2  C   UNL A   1      33.116  30.961  26.967  1.00  0.00     0.275 C 
BRANCH   2   3
ATOM      3  O   UNL A   1      33.521  29.827  26.188  1.00  0.00    -0.458 OA
BRANCH   3   4
ATOM      4  C   UNL A   1      32.721  28.752  26.384  1.00  0.00     0.338 C 
ATOM      5  O   UNL A   1      32.457  28.220  27.452  1.00  0.00    -0.246 OA
BRANCH   4   6
ATOM      6  C   UNL A   1      32.326  28.109  25.129  1.00  0.00     0.060 A 
ATOM      7  C   UNL A   1      29.763  25.587  23.901  1.00  0.00     0.046 C 
ATOM      8  C   UNL A   1      31.051  26.360  23.992  1.00  0.00    -0.027 A 
ATOM      9  C   UNL A   1      31.155  27.353  24.984  1.00  0.00     0.021 A 
ATOM     10  C   UNL A   1      32.189  26.104  23.219  1.00  0.00     0.045 A 
ATOM     11  C   UNL A   1      33.242  27.033  23.225  1.00  0.00     0.027 A 
ATOM     12  C   UNL A   1      33.341  28.007  24.199  1.00  0.00     0.018 A 
BRANCH  10  13
ATOM     13  N   UNL A   1      32.326  24.912  22.478  1.00  0.00    -0.308 N 
ATOM     14  C   UNL A   1      33.347  23.997  22.575  1.00  0.00     0.321 C 
ATOM     15  H   UNL A   1      31.617  24.714  21.824  1.00  0.00     0.171 HD
ATOM     16  O   UNL A   1      33.672  23.332  21.595  1.00  0.00    -0.248 OA
ATOM     17  N   UNL A   1      33.969  23.870  23.795  1.00  0.00    -0.324 N 
ATOM     18  C   UNL A   1      35.402  23.730  23.912  1.00  0.00     0.125 C 
ATOM     19  C   UNL A   1      33.280  23.548  25.038  1.00  0.00     0.125 C 
ATOM     20  C   UNL A   1      35.655  23.112  25.281  1.00  0.00     0.010 C 
ATOM     21  C   UNL A   1      34.381  23.426  26.094  1.00  0.00     0.010 C 
ATOM     22  C   UNL A   1      36.913  23.667  25.938  1.00  0.00     0.010 C 
ATOM     23  C   UNL A   1      34.087  22.354  27.142  1.00  0.00     0.010 C 
ENDBRANCH  10  13
ENDBRANCH   4   6
ENDBRANCH   3   4
ENDBRANCH   2   3
ENDBRANCH   1   2
BRANCH   1  24
ATOM     24  O   UNL A   1      35.256  30.483  28.364  1.00  0.00    -0.458 OA
BRANCH  24  25
ATOM     25  C   UNL A   1      36.502  30.996  28.285  1.00  0.00     0.338 C 
ATOM     26  O   UNL A   1      36.721  32.169  27.996  1.00  0.00    -0.246 OA
BRANCH  25  27
ATOM     27  C   UNL A   1      37.610  30.070  28.543  1.00  0.00     0.060 A 
ATOM     28  C   UNL A   1      37.529  29.215  29.655  1.00  0.00     0.016 A 
ATOM     29  C   UNL A   1      38.648  29.968  27.625  1.00  0.00     0.016 A 
ATOM     30  C   UNL A   1      38.421  28.163  29.788  1.00  0.00     0.010 A 
ATOM     31  C   UNL A   1      39.446  28.857  27.670  1.00  0.00     0.010 A 
ATOM     32  C   UNL A   1      39.364  28.000  28.781  1.00  0.00    -0.014 A 
BRANCH  32  33
ATOM     33  C   UNL A   1      40.597  27.270  28.986  1.00  0.00     0.031 A 
ATOM     34  C   UNL A   1      40.711  25.848  28.649  1.00  0.00     0.074 A 
ATOM     35  C   UNL A   1      41.584  28.152  29.270  1.00  0.00     0.049 A 
ATOM     36  N   UNL A   1      41.672  25.098  29.048  1.00  0.00    -0.248 NA
ATOM     37  C   UNL A   1      39.719  25.108  27.872  1.00  0.00     0.031 C 
ATOM     38  C   UNL A   1      43.027  28.071  29.193  1.00  0.00     0.029 A 
ATOM     39  N   UNL A   1      41.354  29.428  29.833  1.00  0.00    -0.354 N 
ATOM     40  C   UNL A   1      41.633  23.935  28.301  1.00  0.00     0.074 A 
ATOM     41  C   UNL A   1      40.314  23.917  27.725  1.00  0.00     0.031 C 
ATOM     42  C   UNL A   1      43.543  29.047  29.970  1.00  0.00     0.029 A 
ATOM     43  C   UNL A   1      42.432  29.686  30.674  1.00  0.00     0.049 A 
ATOM     44  H   UNL A   1      40.584  30.019  29.662  1.00  0.00     0.167 HD
ATOM     45  C   UNL A   1      42.807  23.259  28.125  1.00  0.00     0.037 A 
ATOM     46  C   UNL A   1      42.190  29.622  32.017  1.00  0.00     0.037 A 
ATOM     47  C   UNL A   1      43.847  23.933  28.906  1.00  0.00     0.049 A 
ATOM     48  C   UNL A   1      42.903  28.424  32.589  1.00  0.00     0.074 A 
ATOM     49  C   UNL A   1      44.770  24.904  28.554  1.00  0.00     0.029 A 
ATOM     50  N   UNL A   1      43.735  23.972  30.292  1.00  0.00    -0.354 N 
ATOM     51  N   UNL A   1      43.042  27.278  31.971  1.00  0.00    -0.248 NA
ATOM     52  C   UNL A   1      43.640  28.501  33.843  1.00  0.00     0.031 C 
ATOM     53  C   UNL A   1      45.129  25.602  29.739  1.00  0.00     0.029 A 
ATOM     54  C   UNL A   1      44.426  25.055  30.803  1.00  0.00     0.049 A 
ATOM     55  H   UNL A   1      43.234  23.320  30.834  1.00  0.00     0.167 HD
ATOM     56  C   UNL A   1      43.951  26.519  32.662  1.00  0.00     0.074 A 
ATOM     57  C   UNL A   1      44.273  27.317  33.835  1.00  0.00     0.031 C 
ATOM     58  C   UNL A   1      44.438  25.317  32.232  1.00  0.00     0.037 A 
BRANCH  45  59
ATOM     59  C   UNL A   1      43.136  22.220  27.064  1.00  0.00     0.064 A 
ATOM     60  C   UNL A   1      42.433  20.988  27.047  1.00  0.00     0.173 A 
ATOM     61  C   UNL A   1      44.139  22.322  26.081  1.00  0.00     0.173 A 
ATOM     62  F   UNL A   1      41.406  20.758  27.877  1.00  0.00    -0.203 F 
ATOM     63  C   UNL A   1      42.753  19.939  26.180  1.00  0.00     0.198 A 
ATOM     64  C   UNL A   1      44.465  21.267  25.216  1.00  0.00     0.198 A 
ATOM     65  F   UNL A   1      44.829  23.448  25.887  1.00  0.00    -0.203 F 
ATOM     66  F   UNL A   1      42.061  18.792  26.239  1.00  0.00    -0.200 F 
ATOM     67  C   UNL A   1      43.779  20.072  25.271  1.00  0.00     0.200 A 
ATOM     68  F   UNL A   1      45.455  21.422  24.323  1.00  0.00    -0.200 F 
ATOM     69  F   UNL A   1      44.094  19.065  24.445  1.00  0.00    -0.200 F 
ENDBRANCH  45  59
BRANCH  46  70
ATOM     70  C   UNL A   1      40.835  30.136  32.428  1.00  0.00     0.064 A 
ATOM     71  C   UNL A   1      40.507  31.481  32.128  1.00  0.00     0.173 A 
ATOM     72  C   UNL A   1      39.777  29.320  32.850  1.00  0.00     0.173 A 
ATOM     73  F   UNL A   1      41.468  32.332  31.728  1.00  0.00    -0.203 F 
ATOM     74  C   UNL A   1      39.192  31.951  32.140  1.00  0.00     0.198 A 
ATOM     75  C   UNL A   1      38.458  29.801  32.886  1.00  0.00     0.198 A 
ATOM     76  F   UNL A   1      39.989  28.033  33.155  1.00  0.00    -0.203 F 
ATOM     77  F   UNL A   1      38.921  33.199  31.731  1.00  0.00    -0.200 F 
ATOM     78  C   UNL A   1      38.164  31.105  32.510  1.00  0.00     0.200 A 
ATOM     79  F   UNL A   1      37.452  28.971  33.199  1.00  0.00    -0.200 F 
ATOM     80  F   UNL A   1      36.891  31.521  32.450  1.00  0.00    -0.200 F 
ENDBRANCH  46  70
BRANCH  58  81
ATOM     81  C   UNL A   1      45.080  24.302  33.142  1.00  0.00     0.064 A 
ATOM     82  C   UNL A   1      44.445  23.109  33.523  1.00  0.00     0.173 A 
ATOM     83  C   UNL A   1      46.442  24.415  33.512  1.00  0.00     0.173 A 
ATOM     84  F   UNL A   1      43.209  22.806  33.103  1.00  0.00    -0.203 F 
ATOM     85  C   UNL A   1      45.086  22.151  34.304  1.00  0.00     0.198 A 
ATOM     86  C   UNL A   1      47.104  23.414  34.215  1.00  0.00     0.198 A 
ATOM     87  F   UNL A   1      47.184  25.478  33.171  1.00  0.00    -0.203 F 
ATOM     88  F   UNL A   1      44.408  21.066  34.705  1.00  0.00    -0.200 F 
ATOM     89  C   UNL A   1      46.418  22.296  34.638  1.00  0.00     0.200 A 
ATOM     90  F   UNL A   1      48.416  23.531  34.459  1.00  0.00    -0.200 F 
ATOM     91  F   UNL A   1      47.045  21.346  35.343  1.00  0.00    -0.200 F 
ENDBRANCH  58  81
ENDBRANCH  32  33
ENDBRANCH  25  27
ENDBRANCH  24  25
ENDBRANCH   1  24
TORSDOF 12
ENDMDL
