MODEL 1
REMARK VINA RESULT:     -13.1      0.000      0.000
REMARK SMILES COC(=O)[C@@H]1CN(C(=O)NC(=O)CCCC(=O)OCCOC(=O)c2ccc(-c3c4nc(c(-c5c(F)c(F)c(F)c(F)c5F)c5ccc([nH]5)c(-c5c(F)c(F)c(F)c(F)c5F)c5nc(c(-c6c(F)c(F)c(F)c(F)c6F)c6ccc3[nH]6)C=C5)C=C4)cc2)C[C@H]1C
REMARK SMILES IDX 16 1 17 2 15 3 14 4 13 5 11 6 8 7 9 8 10 9 12 11 7 12 5 13
REMARK SMILES IDX 6 14 88 15 87 16 89 17 3 18 4 19 2 20 1 21 18 22 19 23 20 24
REMARK SMILES IDX 21 25 22 26 23 27 24 28 25 29 86 30 26 31 85 32 27 33 28 34
REMARK SMILES IDX 29 35 79 36 30 37 84 38 78 39 80 40 31 41 83 42 77 43 76 44
REMARK SMILES IDX 32 46 64 47 44 48 63 49 45 50 48 51 62 52 81 53 46 54 47 55
REMARK SMILES IDX 61 57 82 58 49 59 33 60 34 61 42 62 35 63 36 64 40 65 43 66
REMARK SMILES IDX 37 67 38 68 41 69 39 70 65 71 66 72 74 73 67 74 68 75 72 76
REMARK SMILES IDX 75 77 69 78 70 79 73 80 71 81 50 82 51 83 59 84 52 85 53 86
REMARK SMILES IDX 57 87 60 88 54 89 55 90 58 91 56 92
REMARK H PARENT 10 10 80 45 48 56
REMARK Flexibility Score: inf
ROOT
ATOM      1  C   UNL A   1      33.240  27.966  26.001  1.00  0.00     0.305 C 
ATOM      2  O   UNL A   1      33.389  26.730  26.162  1.00  0.00    -0.252 OA
ENDROOT
BRANCH   1   3
ATOM      3  C   UNL A   1      31.858  28.150  25.216  1.00  0.00     0.123 C 
BRANCH   3   4
ATOM      4  C   UNL A   1      30.997  26.895  25.002  1.00  0.00     0.022 C 
BRANCH   4   5
ATOM      5  C   UNL A   1      30.322  26.656  23.658  1.00  0.00     0.101 C 
BRANCH   5   6
ATOM      6  C   UNL A   1      30.918  27.306  22.442  1.00  0.00     0.228 C 
ATOM      7  C   UNL A   1      32.711  25.671  21.568  1.00  0.00     0.324 C 
ATOM      8  O   UNL A   1      32.992  25.412  20.394  1.00  0.00    -0.248 OA
ATOM      9  N   UNL A   1      32.060  26.854  21.811  1.00  0.00    -0.278 N 
ATOM     10  H   UNL A   1      32.557  27.608  21.417  1.00  0.00     0.174 HD
ATOM     11  O   UNL A   1      30.378  28.319  21.983  1.00  0.00    -0.275 OA
BRANCH   7  12
ATOM     12  N   UNL A   1      32.852  24.719  22.532  1.00  0.00    -0.323 N 
ATOM     13  C   UNL A   1      32.724  22.139  24.372  1.00  0.00     0.123 C 
ATOM     14  C   UNL A   1      31.693  23.346  23.121  1.00  0.00     0.137 C 
ATOM     15  C   UNL A   1      34.637  23.041  24.555  1.00  0.00     0.021 C 
ATOM     16  C   UNL A   1      34.550  24.667  23.358  1.00  0.00     0.125 C 
ATOM     17  C   UNL A   1      35.432  23.859  25.746  1.00  0.00     0.010 C 
BRANCH  13  18
ATOM     18  C   UNL A   1      32.209  20.708  24.064  1.00  0.00     0.310 C 
ATOM     19  O   UNL A   1      32.266  20.204  22.951  1.00  0.00    -0.252 OA
BRANCH  18  20
ATOM     20  O   UNL A   1      32.009  19.983  25.192  1.00  0.00    -0.469 OA
ATOM     21  C   UNL A   1      32.789  18.794  25.302  1.00  0.00     0.282 C 
ENDBRANCH  18  20
ENDBRANCH  13  18
ENDBRANCH   7  12
ENDBRANCH   5   6
ENDBRANCH   4   5
ENDBRANCH   3   4
ENDBRANCH   1   3
BRANCH   1  22
ATOM     22  O   UNL A   1      34.471  29.296  26.636  1.00  0.00    -0.462 OA
BRANCH  22  23
ATOM     23  C   UNL A   1      34.451  30.871  27.520  1.00  0.00     0.274 C 
BRANCH  23  24
ATOM     24  C   UNL A   1      32.966  31.873  27.561  1.00  0.00     0.275 C 
BRANCH  24  25
ATOM     25  O   UNL A   1      33.093  33.385  27.479  1.00  0.00    -0.458 OA
BRANCH  25  26
ATOM     26  C   UNL A   1      33.239  34.277  28.501  1.00  0.00     0.338 C 
ATOM     27  O   UNL A   1      32.490  35.204  28.751  1.00  0.00    -0.246 OA
BRANCH  26  28
ATOM     28  C   UNL A   1      34.443  34.046  29.389  1.00  0.00     0.060 A 
ATOM     29  C   UNL A   1      35.749  34.248  28.912  1.00  0.00     0.016 A 
ATOM     30  C   UNL A   1      34.323  33.345  30.589  1.00  0.00     0.016 A 
ATOM     31  C   UNL A   1      36.898  33.898  29.633  1.00  0.00     0.010 A 
ATOM     32  C   UNL A   1      35.474  32.901  31.287  1.00  0.00     0.010 A 
ATOM     33  C   UNL A   1      36.771  33.182  30.816  1.00  0.00    -0.014 A 
BRANCH  33  34
ATOM     34  C   UNL A   1      37.990  32.626  31.459  1.00  0.00     0.031 A 
ATOM     35  C   UNL A   1      38.713  31.481  30.807  1.00  0.00     0.074 A 
ATOM     36  C   UNL A   1      38.483  33.188  32.578  1.00  0.00     0.049 A 
ATOM     37  N   UNL A   1      39.660  30.712  31.281  1.00  0.00    -0.248 NA
ATOM     38  C   UNL A   1      38.323  31.168  29.423  1.00  0.00     0.031 C 
ATOM     39  C   UNL A   1      37.965  34.405  33.200  1.00  0.00     0.029 A 
ATOM     40  N   UNL A   1      39.514  32.805  33.401  1.00  0.00    -0.354 N 
ATOM     41  C   UNL A   1      39.944  29.796  30.273  1.00  0.00     0.074 A 
ATOM     42  C   UNL A   1      39.095  30.124  29.150  1.00  0.00     0.031 C 
ATOM     43  C   UNL A   1      38.642  34.639  34.337  1.00  0.00     0.029 A 
ATOM     44  C   UNL A   1      39.591  33.552  34.553  1.00  0.00     0.049 A 
ATOM     45  H   UNL A   1      40.134  32.071  33.187  1.00  0.00     0.167 HD
ATOM     46  C   UNL A   1      40.816  28.759  30.311  1.00  0.00     0.037 A 
ATOM     47  C   UNL A   1      40.294  33.332  35.682  1.00  0.00     0.037 A 
ATOM     48  C   UNL A   1      41.650  28.466  31.449  1.00  0.00     0.049 A 
ATOM     49  C   UNL A   1      41.183  32.116  35.743  1.00  0.00     0.074 A 
ATOM     50  C   UNL A   1      42.552  27.432  31.625  1.00  0.00     0.029 A 
ATOM     51  N   UNL A   1      41.675  29.221  32.616  1.00  0.00    -0.354 N 
ATOM     52  N   UNL A   1      41.399  31.204  34.825  1.00  0.00    -0.248 NA
ATOM     53  C   UNL A   1      41.918  31.893  36.994  1.00  0.00     0.031 C 
ATOM     54  C   UNL A   1      43.076  27.528  32.919  1.00  0.00     0.029 A 
ATOM     55  C   UNL A   1      42.554  28.659  33.526  1.00  0.00     0.049 A 
ATOM     56  H   UNL A   1      41.145  30.036  32.772  1.00  0.00     0.167 HD
ATOM     57  C   UNL A   1      42.307  30.311  35.376  1.00  0.00     0.074 A 
ATOM     58  C   UNL A   1      42.616  30.805  36.703  1.00  0.00     0.031 C 
ATOM     59  C   UNL A   1      42.839  29.184  34.839  1.00  0.00     0.037 A 
BRANCH  46  60
ATOM     60  C   UNL A   1      40.847  27.820  29.136  1.00  0.00     0.064 A 
ATOM     61  C   UNL A   1      41.794  27.929  28.107  1.00  0.00     0.173 A 
ATOM     62  C   UNL A   1      39.916  26.770  29.057  1.00  0.00     0.173 A 
ATOM     63  F   UNL A   1      42.697  28.920  28.122  1.00  0.00    -0.203 F 
ATOM     64  C   UNL A   1      41.793  27.037  27.034  1.00  0.00     0.198 A 
ATOM     65  C   UNL A   1      39.936  25.866  27.998  1.00  0.00     0.198 A 
ATOM     66  F   UNL A   1      38.989  26.615  30.014  1.00  0.00    -0.203 F 
ATOM     67  F   UNL A   1      42.680  27.186  26.040  1.00  0.00    -0.200 F 
ATOM     68  C   UNL A   1      40.869  26.003  26.984  1.00  0.00     0.200 A 
ATOM     69  F   UNL A   1      39.049  24.861  27.960  1.00  0.00    -0.200 F 
ATOM     70  F   UNL A   1      40.875  25.145  25.955  1.00  0.00    -0.200 F 
ENDBRANCH  46  60
BRANCH  47  71
ATOM     71  C   UNL A   1      40.118  34.225  36.861  1.00  0.00     0.064 A 
ATOM     72  C   UNL A   1      40.887  35.385  37.027  1.00  0.00     0.173 A 
ATOM     73  C   UNL A   1      39.173  33.929  37.859  1.00  0.00     0.173 A 
ATOM     74  F   UNL A   1      41.823  35.701  36.120  1.00  0.00    -0.203 F 
ATOM     75  C   UNL A   1      40.730  36.202  38.147  1.00  0.00     0.198 A 
ATOM     76  C   UNL A   1      38.993  34.765  38.959  1.00  0.00     0.198 A 
ATOM     77  F   UNL A   1      38.412  32.829  37.760  1.00  0.00    -0.203 F 
ATOM     78  F   UNL A   1      41.514  37.278  38.302  1.00  0.00    -0.200 F 
ATOM     79  C   UNL A   1      39.778  35.897  39.107  1.00  0.00     0.200 A 
ATOM     80  F   UNL A   1      38.060  34.473  39.875  1.00  0.00    -0.200 F 
ATOM     81  F   UNL A   1      39.622  36.689  40.177  1.00  0.00    -0.200 F 
ENDBRANCH  47  71
BRANCH  59  82
ATOM     82  C   UNL A   1      43.837  28.441  35.678  1.00  0.00     0.064 A 
ATOM     83  C   UNL A   1      45.213  28.698  35.587  1.00  0.00     0.173 A 
ATOM     84  C   UNL A   1      43.404  27.481  36.603  1.00  0.00     0.173 A 
ATOM     85  F   UNL A   1      45.677  29.597  34.705  1.00  0.00    -0.203 F 
ATOM     86  C   UNL A   1      46.122  27.994  36.372  1.00  0.00     0.198 A 
ATOM     87  C   UNL A   1      44.314  26.804  37.410  1.00  0.00     0.198 A 
ATOM     88  F   UNL A   1      42.098  27.204  36.732  1.00  0.00    -0.203 F 
ATOM     89  F   UNL A   1      47.437  28.213  36.230  1.00  0.00    -0.200 F 
ATOM     90  C   UNL A   1      45.672  27.055  37.287  1.00  0.00     0.200 A 
ATOM     91  F   UNL A   1      43.875  25.909  38.306  1.00  0.00    -0.200 F 
ATOM     92  F   UNL A   1      46.549  26.382  38.045  1.00  0.00    -0.200 F 
ENDBRANCH  59  82
ENDBRANCH  33  34
ENDBRANCH  26  28
ENDBRANCH  25  26
ENDBRANCH  24  25
ENDBRANCH  23  24
ENDBRANCH  22  23
ENDBRANCH   1  22
TORSDOF 17
ENDMDL
MODEL 2
REMARK VINA RESULT:     -13.1      4.840     10.635
REMARK SMILES COC(=O)[C@@H]1CN(C(=O)NC(=O)CCCC(=O)OCCOC(=O)c2ccc(-c3c4nc(c(-c5c(F)c(F)c(F)c(F)c5F)c5ccc([nH]5)c(-c5c(F)c(F)c(F)c(F)c5F)c5nc(c(-c6c(F)c(F)c(F)c(F)c6F)c6ccc3[nH]6)C=C5)C=C4)cc2)C[C@H]1C
REMARK SMILES IDX 16 1 17 2 15 3 14 4 13 5 11 6 8 7 9 8 10 9 12 11 7 12 5 13
REMARK SMILES IDX 6 14 88 15 87 16 89 17 3 18 4 19 2 20 1 21 18 22 19 23 20 24
REMARK SMILES IDX 21 25 22 26 23 27 24 28 25 29 86 30 26 31 85 32 27 33 28 34
REMARK SMILES IDX 29 35 79 36 30 37 84 38 78 39 80 40 31 41 83 42 77 43 76 44
REMARK SMILES IDX 32 46 64 47 44 48 63 49 45 50 48 51 62 52 81 53 46 54 47 55
REMARK SMILES IDX 61 57 82 58 49 59 33 60 34 61 42 62 35 63 36 64 40 65 43 66
REMARK SMILES IDX 37 67 38 68 41 69 39 70 65 71 66 72 74 73 67 74 68 75 72 76
REMARK SMILES IDX 75 77 69 78 70 79 73 80 71 81 50 82 51 83 59 84 52 85 53 86
REMARK SMILES IDX 57 87 60 88 54 89 55 90 58 91 56 92
REMARK H PARENT 10 10 80 45 48 56
REMARK Flexibility Score: inf
ROOT
ATOM      1  C   UNL A   1      34.993  23.006  23.549  1.00  0.00     0.305 C 
ATOM      2  O   UNL A   1      35.882  23.233  22.692  1.00  0.00    -0.252 OA
ENDROOT
BRANCH   1   3
ATOM      3  C   UNL A   1      33.991  24.251  23.492  1.00  0.00     0.123 C 
BRANCH   3   4
ATOM      4  C   UNL A   1      32.757  24.121  22.584  1.00  0.00     0.022 C 
BRANCH   4   5
ATOM      5  C   UNL A   1      31.421  23.686  23.171  1.00  0.00     0.101 C 
BRANCH   5   6
ATOM      6  C   UNL A   1      31.340  23.468  24.655  1.00  0.00     0.228 C 
ATOM      7  C   UNL A   1      30.824  25.775  25.686  1.00  0.00     0.324 C 
ATOM      8  O   UNL A   1      30.087  26.028  26.645  1.00  0.00    -0.248 OA
ATOM      9  N   UNL A   1      31.297  24.491  25.581  1.00  0.00    -0.278 N 
ATOM     10  H   UNL A   1      31.739  24.218  26.418  1.00  0.00     0.174 HD
ATOM     11  O   UNL A   1      31.335  22.310  25.088  1.00  0.00    -0.275 OA
BRANCH   7  12
ATOM     12  N   UNL A   1      30.969  26.678  24.677  1.00  0.00    -0.323 N 
ATOM     13  C   UNL A   1      30.617  28.899  22.440  1.00  0.00     0.123 C 
ATOM     14  C   UNL A   1      29.736  27.365  23.419  1.00  0.00     0.137 C 
ATOM     15  C   UNL A   1      32.600  28.967  23.197  1.00  0.00     0.021 C 
ATOM     16  C   UNL A   1      32.671  27.492  24.575  1.00  0.00     0.125 C 
ATOM     17  C   UNL A   1      34.090  28.592  22.599  1.00  0.00     0.010 C 
BRANCH  13  18
ATOM     18  C   UNL A   1      29.487  29.939  22.225  1.00  0.00     0.310 C 
ATOM     19  O   UNL A   1      28.826  30.005  21.198  1.00  0.00    -0.252 OA
BRANCH  18  20
ATOM     20  O   UNL A   1      29.101  30.523  23.387  1.00  0.00    -0.469 OA
ATOM     21  C   UNL A   1      27.732  30.914  23.452  1.00  0.00     0.282 C 
ENDBRANCH  18  20
ENDBRANCH  13  18
ENDBRANCH   7  12
ENDBRANCH   5   6
ENDBRANCH   4   5
ENDBRANCH   3   4
ENDBRANCH   1   3
BRANCH   1  22
ATOM     22  O   UNL A   1      34.922  21.429  24.643  1.00  0.00    -0.462 OA
BRANCH  22  23
ATOM     23  C   UNL A   1      35.908  19.954  24.987  1.00  0.00     0.274 C 
BRANCH  23  24
ATOM     24  C   UNL A   1      37.696  20.010  24.886  1.00  0.00     0.275 C 
BRANCH  24  25
ATOM     25  O   UNL A   1      38.438  21.144  25.572  1.00  0.00    -0.458 OA
BRANCH  25  26
ATOM     26  C   UNL A   1      39.638  21.098  26.220  1.00  0.00     0.338 C 
ATOM     27  O   UNL A   1      40.363  20.123  26.310  1.00  0.00    -0.246 OA
BRANCH  26  28
ATOM     28  C   UNL A   1      40.077  22.401  26.853  1.00  0.00     0.060 A 
ATOM     29  C   UNL A   1      39.792  23.637  26.250  1.00  0.00     0.016 A 
ATOM     30  C   UNL A   1      41.028  22.415  27.875  1.00  0.00     0.016 A 
ATOM     31  C   UNL A   1      40.310  24.857  26.705  1.00  0.00     0.010 A 
ATOM     32  C   UNL A   1      41.631  23.629  28.286  1.00  0.00     0.010 A 
ATOM     33  C   UNL A   1      41.270  24.861  27.707  1.00  0.00    -0.014 A 
BRANCH  33  34
ATOM     34  C   UNL A   1      41.972  26.130  28.032  1.00  0.00     0.031 A 
ATOM     35  C   UNL A   1      41.261  27.182  28.838  1.00  0.00     0.074 A 
ATOM     36  C   UNL A   1      43.255  26.308  27.669  1.00  0.00     0.049 A 
ATOM     37  N   UNL A   1      41.593  28.428  29.062  1.00  0.00    -0.248 NA
ATOM     38  C   UNL A   1      40.011  26.768  29.493  1.00  0.00     0.031 C 
ATOM     39  C   UNL A   1      44.093  25.290  27.038  1.00  0.00     0.029 A 
ATOM     40  N   UNL A   1      44.074  27.406  27.760  1.00  0.00    -0.354 N 
ATOM     41  C   UNL A   1      40.570  28.959  29.842  1.00  0.00     0.074 A 
ATOM     42  C   UNL A   1      39.624  27.892  30.081  1.00  0.00     0.031 C 
ATOM     43  C   UNL A   1      45.290  25.827  26.746  1.00  0.00     0.029 A 
ATOM     44  C   UNL A   1      45.274  27.241  27.109  1.00  0.00     0.049 A 
ATOM     45  H   UNL A   1      43.828  28.228  28.243  1.00  0.00     0.167 HD
ATOM     46  C   UNL A   1      40.432  30.232  30.282  1.00  0.00     0.037 A 
ATOM     47  C   UNL A   1      46.213  28.150  26.778  1.00  0.00     0.037 A 
ATOM     48  C   UNL A   1      41.401  31.268  30.027  1.00  0.00     0.049 A 
ATOM     49  C   UNL A   1      45.993  29.583  27.190  1.00  0.00     0.074 A 
ATOM     50  C   UNL A   1      41.366  32.602  30.392  1.00  0.00     0.029 A 
ATOM     51  N   UNL A   1      42.587  31.075  29.329  1.00  0.00    -0.354 N 
ATOM     52  N   UNL A   1      44.994  30.107  27.859  1.00  0.00    -0.248 NA
ATOM     53  C   UNL A   1      47.023  30.552  26.795  1.00  0.00     0.031 C 
ATOM     54  C   UNL A   1      42.502  33.227  29.864  1.00  0.00     0.029 A 
ATOM     55  C   UNL A   1      43.279  32.270  29.228  1.00  0.00     0.049 A 
ATOM     56  H   UNL A   1      42.892  30.214  28.961  1.00  0.00     0.167 HD
ATOM     57  C   UNL A   1      45.280  31.458  27.985  1.00  0.00     0.074 A 
ATOM     58  C   UNL A   1      46.560  31.669  27.338  1.00  0.00     0.031 C 
ATOM     59  C   UNL A   1      44.555  32.440  28.578  1.00  0.00     0.037 A 
BRANCH  46  60
ATOM     60  C   UNL A   1      39.161  30.598  30.999  1.00  0.00     0.064 A 
ATOM     61  C   UNL A   1      39.038  30.542  32.395  1.00  0.00     0.173 A 
ATOM     62  C   UNL A   1      38.047  31.037  30.264  1.00  0.00     0.173 A 
ATOM     63  F   UNL A   1      40.063  30.116  33.147  1.00  0.00    -0.203 F 
ATOM     64  C   UNL A   1      37.844  30.891  33.025  1.00  0.00     0.198 A 
ATOM     65  C   UNL A   1      36.865  31.411  30.898  1.00  0.00     0.198 A 
ATOM     66  F   UNL A   1      38.107  31.113  28.926  1.00  0.00    -0.203 F 
ATOM     67  F   UNL A   1      37.735  30.790  34.357  1.00  0.00    -0.200 F 
ATOM     68  C   UNL A   1      36.760  31.331  32.277  1.00  0.00     0.200 A 
ATOM     69  F   UNL A   1      35.825  31.847  30.173  1.00  0.00    -0.200 F 
ATOM     70  F   UNL A   1      35.616  31.672  32.885  1.00  0.00    -0.200 F 
ENDBRANCH  46  60
BRANCH  47  71
ATOM     71  C   UNL A   1      47.385  27.750  25.950  1.00  0.00     0.064 A 
ATOM     72  C   UNL A   1      48.601  27.370  26.533  1.00  0.00     0.173 A 
ATOM     73  C   UNL A   1      47.313  27.749  24.547  1.00  0.00     0.173 A 
ATOM     74  F   UNL A   1      48.735  27.380  27.867  1.00  0.00    -0.203 F 
ATOM     75  C   UNL A   1      49.701  27.021  25.749  1.00  0.00     0.198 A 
ATOM     76  C   UNL A   1      48.402  27.365  23.765  1.00  0.00     0.198 A 
ATOM     77  F   UNL A   1      46.179  28.110  23.930  1.00  0.00    -0.203 F 
ATOM     78  F   UNL A   1      50.866  26.708  26.334  1.00  0.00    -0.200 F 
ATOM     79  C   UNL A   1      49.597  27.009  24.366  1.00  0.00     0.200 A 
ATOM     80  F   UNL A   1      48.290  27.342  22.430  1.00  0.00    -0.200 F 
ATOM     81  F   UNL A   1      50.652  26.663  23.614  1.00  0.00    -0.200 F 
ENDBRANCH  47  71
BRANCH  59  82
ATOM     82  C   UNL A   1      45.156  33.814  28.586  1.00  0.00     0.064 A 
ATOM     83  C   UNL A   1      46.071  34.215  29.572  1.00  0.00     0.173 A 
ATOM     84  C   UNL A   1      44.832  34.731  27.575  1.00  0.00     0.173 A 
ATOM     85  F   UNL A   1      46.400  33.378  30.568  1.00  0.00    -0.203 F 
ATOM     86  C   UNL A   1      46.613  35.496  29.563  1.00  0.00     0.198 A 
ATOM     87  C   UNL A   1      45.404  36.000  27.550  1.00  0.00     0.198 A 
ATOM     88  F   UNL A   1      43.969  34.394  26.607  1.00  0.00    -0.203 F 
ATOM     89  F   UNL A   1      47.440  35.878  30.545  1.00  0.00    -0.200 F 
ATOM     90  C   UNL A   1      46.286  36.384  28.549  1.00  0.00     0.200 A 
ATOM     91  F   UNL A   1      45.099  36.850  26.560  1.00  0.00    -0.200 F 
ATOM     92  F   UNL A   1      46.813  37.616  28.539  1.00  0.00    -0.200 F 
ENDBRANCH  59  82
ENDBRANCH  33  34
ENDBRANCH  26  28
ENDBRANCH  25  26
ENDBRANCH  24  25
ENDBRANCH  23  24
ENDBRANCH  22  23
ENDBRANCH   1  22
TORSDOF 17
ENDMDL
MODEL 3
REMARK VINA RESULT:     -13.0      1.739      2.895
REMARK SMILES COC(=O)[C@@H]1CN(C(=O)NC(=O)CCCC(=O)OCCOC(=O)c2ccc(-c3c4nc(c(-c5c(F)c(F)c(F)c(F)c5F)c5ccc([nH]5)c(-c5c(F)c(F)c(F)c(F)c5F)c5nc(c(-c6c(F)c(F)c(F)c(F)c6F)c6ccc3[nH]6)C=C5)C=C4)cc2)C[C@H]1C
REMARK SMILES IDX 16 1 17 2 15 3 14 4 13 5 11 6 8 7 9 8 10 9 12 11 7 12 5 13
REMARK SMILES IDX 6 14 88 15 87 16 89 17 3 18 4 19 2 20 1 21 18 22 19 23 20 24
REMARK SMILES IDX 21 25 22 26 23 27 24 28 25 29 86 30 26 31 85 32 27 33 28 34
REMARK SMILES IDX 29 35 79 36 30 37 84 38 78 39 80 40 31 41 83 42 77 43 76 44
REMARK SMILES IDX 32 46 64 47 44 48 63 49 45 50 48 51 62 52 81 53 46 54 47 55
REMARK SMILES IDX 61 57 82 58 49 59 33 60 34 61 42 62 35 63 36 64 40 65 43 66
REMARK SMILES IDX 37 67 38 68 41 69 39 70 65 71 66 72 74 73 67 74 68 75 72 76
REMARK SMILES IDX 75 77 69 78 70 79 73 80 71 81 50 82 51 83 59 84 52 85 53 86
REMARK SMILES IDX 57 87 60 88 54 89 55 90 58 91 56 92
REMARK H PARENT 10 10 80 45 48 56
REMARK Flexibility Score: inf
ROOT
ATOM      1  C   UNL A   1      33.094  27.509  25.516  1.00  0.00     0.305 C 
ATOM      2  O   UNL A   1      34.017  27.917  26.264  1.00  0.00    -0.252 OA
ENDROOT
BRANCH   1   3
ATOM      3  C   UNL A   1      33.381  25.957  25.261  1.00  0.00     0.123 C 
BRANCH   3   4
ATOM      4  C   UNL A   1      32.167  25.014  25.215  1.00  0.00     0.022 C 
BRANCH   4   5
ATOM      5  C   UNL A   1      31.241  25.025  24.006  1.00  0.00     0.101 C 
BRANCH   5   6
ATOM      6  C   UNL A   1      31.767  25.591  22.719  1.00  0.00     0.228 C 
ATOM      7  C   UNL A   1      33.309  23.780  21.721  1.00  0.00     0.324 C 
ATOM      8  O   UNL A   1      33.445  23.471  20.533  1.00  0.00    -0.248 OA
ATOM      9  N   UNL A   1      32.794  25.023  21.992  1.00  0.00    -0.278 N 
ATOM     10  H   UNL A   1      33.314  25.719  21.528  1.00  0.00     0.174 HD
ATOM     11  O   UNL A   1      31.277  26.640  22.285  1.00  0.00    -0.275 OA
BRANCH   7  12
ATOM     12  N   UNL A   1      33.461  22.839  22.695  1.00  0.00    -0.323 N 
ATOM     13  C   UNL A   1      33.359  20.278  24.562  1.00  0.00     0.123 C 
ATOM     14  C   UNL A   1      32.314  21.465  23.303  1.00  0.00     0.137 C 
ATOM     15  C   UNL A   1      35.267  21.197  24.728  1.00  0.00     0.021 C 
ATOM     16  C   UNL A   1      35.163  22.809  23.514  1.00  0.00     0.125 C 
ATOM     17  C   UNL A   1      36.060  22.033  25.906  1.00  0.00     0.010 C 
BRANCH  13  18
ATOM     18  C   UNL A   1      32.854  18.841  24.272  1.00  0.00     0.310 C 
ATOM     19  O   UNL A   1      33.240  18.177  23.320  1.00  0.00    -0.252 OA
BRANCH  18  20
ATOM     20  O   UNL A   1      32.218  18.297  25.338  1.00  0.00    -0.469 OA
ATOM     21  C   UNL A   1      32.574  16.951  25.643  1.00  0.00     0.282 C 
ENDBRANCH  18  20
ENDBRANCH  13  18
ENDBRANCH   7  12
ENDBRANCH   5   6
ENDBRANCH   4   5
ENDBRANCH   3   4
ENDBRANCH   1   3
BRANCH   1  22
ATOM     22  O   UNL A   1      31.651  28.606  24.881  1.00  0.00    -0.462 OA
BRANCH  22  23
ATOM     23  C   UNL A   1      31.097  30.323  24.963  1.00  0.00     0.274 C 
BRANCH  23  24
ATOM     24  C   UNL A   1      31.341  31.289  26.452  1.00  0.00     0.275 C 
BRANCH  24  25
ATOM     25  O   UNL A   1      32.661  31.179  27.195  1.00  0.00    -0.458 OA
BRANCH  25  26
ATOM     26  C   UNL A   1      33.537  32.175  27.512  1.00  0.00     0.338 C 
ATOM     27  O   UNL A   1      33.296  33.369  27.499  1.00  0.00    -0.246 OA
BRANCH  26  28
ATOM     28  C   UNL A   1      34.917  31.710  27.927  1.00  0.00     0.060 A 
ATOM     29  C   UNL A   1      35.121  30.434  28.476  1.00  0.00     0.016 A 
ATOM     30  C   UNL A   1      35.968  32.619  28.063  1.00  0.00     0.016 A 
ATOM     31  C   UNL A   1      36.341  30.014  29.024  1.00  0.00     0.010 A 
ATOM     32  C   UNL A   1      37.177  32.239  28.697  1.00  0.00     0.010 A 
ATOM     33  C   UNL A   1      37.373  30.929  29.175  1.00  0.00    -0.014 A 
BRANCH  33  34
ATOM     34  C   UNL A   1      38.579  30.538  29.951  1.00  0.00     0.031 A 
ATOM     35  C   UNL A   1      39.572  29.587  29.341  1.00  0.00     0.074 A 
ATOM     36  C   UNL A   1      38.817  31.083  31.157  1.00  0.00     0.049 A 
ATOM     37  N   UNL A   1      40.573  28.954  29.899  1.00  0.00    -0.248 NA
ATOM     38  C   UNL A   1      39.425  29.324  27.901  1.00  0.00     0.031 C 
ATOM     39  C   UNL A   1      38.016  32.141  31.768  1.00  0.00     0.029 A 
ATOM     40  N   UNL A   1      39.786  30.814  32.093  1.00  0.00    -0.354 N 
ATOM     41  C   UNL A   1      41.143  28.182  28.891  1.00  0.00     0.074 A 
ATOM     42  C   UNL A   1      40.399  28.452  27.681  1.00  0.00     0.031 C 
ATOM     43  C   UNL A   1      38.489  32.394  33.000  1.00  0.00     0.029 A 
ATOM     44  C   UNL A   1      39.581  31.469  33.285  1.00  0.00     0.049 A 
ATOM     45  H   UNL A   1      40.550  30.215  31.927  1.00  0.00     0.167 HD
ATOM     46  C   UNL A   1      42.173  27.308  28.991  1.00  0.00     0.037 A 
ATOM     47  C   UNL A   1      40.162  31.282  34.487  1.00  0.00     0.037 A 
ATOM     48  C   UNL A   1      42.893  27.070  30.217  1.00  0.00     0.049 A 
ATOM     49  C   UNL A   1      41.238  30.232  34.603  1.00  0.00     0.074 A 
ATOM     50  C   UNL A   1      43.935  26.192  30.458  1.00  0.00     0.029 A 
ATOM     51  N   UNL A   1      42.633  27.722  31.417  1.00  0.00    -0.354 N 
ATOM     52  N   UNL A   1      41.729  29.445  33.674  1.00  0.00    -0.248 NA
ATOM     53  C   UNL A   1      41.835  30.037  35.930  1.00  0.00     0.031 C 
ATOM     54  C   UNL A   1      44.264  26.271  31.816  1.00  0.00     0.029 A 
ATOM     55  C   UNL A   1      43.475  27.245  32.408  1.00  0.00     0.049 A 
ATOM     56  H   UNL A   1      41.952  28.420  31.543  1.00  0.00     0.167 HD
ATOM     57  C   UNL A   1      42.703  28.678  34.295  1.00  0.00     0.074 A 
ATOM     58  C   UNL A   1      42.747  29.109  35.678  1.00  0.00     0.031 C 
ATOM     59  C   UNL A   1      43.491  27.704  33.775  1.00  0.00     0.037 A 
BRANCH  46  60
ATOM     60  C   UNL A   1      42.521  26.485  27.782  1.00  0.00     0.064 A 
ATOM     61  C   UNL A   1      43.463  26.902  26.829  1.00  0.00     0.173 A 
ATOM     62  C   UNL A   1      41.909  25.235  27.589  1.00  0.00     0.173 A 
ATOM     63  F   UNL A   1      44.067  28.093  26.953  1.00  0.00    -0.203 F 
ATOM     64  C   UNL A   1      43.761  26.111  25.720  1.00  0.00     0.198 A 
ATOM     65  C   UNL A   1      42.231  24.435  26.494  1.00  0.00     0.198 A 
ATOM     66  F   UNL A   1      41.003  24.782  28.468  1.00  0.00    -0.203 F 
ATOM     67  F   UNL A   1      44.632  26.548  24.800  1.00  0.00    -0.200 F 
ATOM     68  C   UNL A   1      43.150  24.875  25.557  1.00  0.00     0.200 A 
ATOM     69  F   UNL A   1      41.647  23.237  26.347  1.00  0.00    -0.200 F 
ATOM     70  F   UNL A   1      43.443  24.114  24.494  1.00  0.00    -0.200 F 
ENDBRANCH  46  60
BRANCH  47  71
ATOM     71  C   UNL A   1      39.679  32.034  35.679  1.00  0.00     0.064 A 
ATOM     72  C   UNL A   1      38.629  31.557  36.474  1.00  0.00     0.173 A 
ATOM     73  C   UNL A   1      40.260  33.262  36.043  1.00  0.00     0.173 A 
ATOM     74  F   UNL A   1      38.020  30.405  36.156  1.00  0.00    -0.203 F 
ATOM     75  C   UNL A   1      38.169  32.281  37.574  1.00  0.00     0.198 A 
ATOM     76  C   UNL A   1      39.822  33.967  37.163  1.00  0.00     0.198 A 
ATOM     77  F   UNL A   1      41.263  33.774  35.317  1.00  0.00    -0.203 F 
ATOM     78  F   UNL A   1      37.131  31.823  38.288  1.00  0.00    -0.200 F 
ATOM     79  C   UNL A   1      38.772  33.480  37.923  1.00  0.00     0.200 A 
ATOM     80  F   UNL A   1      40.420  35.117  37.504  1.00  0.00    -0.200 F 
ATOM     81  F   UNL A   1      38.335  34.170  38.987  1.00  0.00    -0.200 F 
ENDBRANCH  47  71
BRANCH  59  82
ATOM     82  C   UNL A   1      44.490  27.075  34.701  1.00  0.00     0.064 A 
ATOM     83  C   UNL A   1      44.195  25.910  35.425  1.00  0.00     0.173 A 
ATOM     84  C   UNL A   1      45.770  27.633  34.842  1.00  0.00     0.173 A 
ATOM     85  F   UNL A   1      42.980  25.349  35.336  1.00  0.00    -0.203 F 
ATOM     86  C   UNL A   1      45.136  25.346  36.282  1.00  0.00     0.198 A 
ATOM     87  C   UNL A   1      46.719  27.046  35.673  1.00  0.00     0.198 A 
ATOM     88  F   UNL A   1      46.103  28.742  34.165  1.00  0.00    -0.203 F 
ATOM     89  F   UNL A   1      44.815  24.267  37.008  1.00  0.00    -0.200 F 
ATOM     90  C   UNL A   1      46.398  25.909  36.399  1.00  0.00     0.200 A 
ATOM     91  F   UNL A   1      47.943  27.582  35.772  1.00  0.00    -0.200 F 
ATOM     92  F   UNL A   1      47.304  25.361  37.221  1.00  0.00    -0.200 F 
ENDBRANCH  59  82
ENDBRANCH  33  34
ENDBRANCH  26  28
ENDBRANCH  25  26
ENDBRANCH  24  25
ENDBRANCH  23  24
ENDBRANCH  22  23
ENDBRANCH   1  22
TORSDOF 17
ENDMDL
