MODEL 1
REMARK VINA RESULT:     -13.6      0.000      0.000
REMARK SMILES Cc1cccc(NS(=O)(=O)c2ccc(Br)c(C(=O)OCCOC(=O)c3ccc(-c4c5nc(c(-c6c(F)c(F)c(F)c(F)c6F)c6ccc([nH]6)c(-c6c(F)c(F)c(F)c(F)c6F)c6nc(c(-c7c(F)c(F)c(F)c(F)c7F)c7ccc4[nH]7)C=C6)C=C5)cc3)c2)c1
REMARK SMILES IDX 20 1 19 2 17 3 18 4 16 5 11 6 12 7 88 8 13 9 14 10 15 11
REMARK SMILES IDX 8 12 9 13 10 14 7 15 6 17 1 18 2 19 3 20 89 21 4 22 5 23
REMARK SMILES IDX 21 24 22 25 23 26 24 27 25 28 26 29 87 30 27 31 86 32 28 33
REMARK SMILES IDX 29 34 30 35 80 36 31 37 85 38 79 39 81 40 32 41 84 42 78 43
REMARK SMILES IDX 77 44 33 46 65 47 45 48 64 49 46 50 49 51 63 52 82 53 47 54
REMARK SMILES IDX 48 55 62 57 83 58 50 59 34 60 35 61 43 62 36 63 37 64 41 65
REMARK SMILES IDX 44 66 38 67 39 68 42 69 40 70 66 71 67 72 75 73 68 74 69 75
REMARK SMILES IDX 73 76 76 77 70 78 71 79 74 80 72 81 51 82 52 83 60 84 53 85
REMARK SMILES IDX 54 86 58 87 61 88 55 89 56 90 59 91 57 92
REMARK H PARENT 7 16 81 45 49 56
REMARK Flexibility Score: inf
ROOT
ATOM      1  C   UNL A   1      33.199  28.813  26.476  1.00  0.00     0.275 C 
ENDROOT
BRANCH   1   2
ATOM      2  O   UNL A   1      32.922  27.471  26.053  1.00  0.00    -0.458 OA
BRANCH   2   3
ATOM      3  C   UNL A   1      31.708  27.019  26.446  1.00  0.00     0.339 C 
ATOM      4  O   UNL A   1      31.031  27.429  27.372  1.00  0.00    -0.246 OA
BRANCH   3   5
ATOM      5  C   UNL A   1      31.301  25.844  25.676  1.00  0.00     0.075 A 
ATOM      6  C   UNL A   1      31.550  23.475  25.210  1.00  0.00     0.088 A 
ATOM      7  C   UNL A   1      30.835  23.647  24.025  1.00  0.00     0.023 A 
ATOM      8  C   UNL A   1      31.736  24.570  26.065  1.00  0.00     0.039 A 
ATOM      9  C   UNL A   1      30.434  24.927  23.626  1.00  0.00     0.018 A 
ATOM     10  C   UNL A   1      30.686  26.031  24.439  1.00  0.00     0.032 A 
ATOM     11  Br  UNL A   1      30.212  27.749  23.782  1.00  0.00    -0.050 Br
BRANCH   6  12
ATOM     12  S   UNL A   1      32.473  21.987  25.597  1.00  0.00     0.261 S 
ATOM     13  O   UNL A   1      31.637  20.876  25.195  1.00  0.00    -0.201 OA
ATOM     14  O   UNL A   1      32.918  22.135  26.966  1.00  0.00    -0.201 OA
BRANCH  12  15
ATOM     15  N   UNL A   1      33.822  21.907  24.608  1.00  0.00    -0.280 N 
ATOM     16  H   UNL A   1      33.667  21.786  23.643  1.00  0.00     0.180 HD
BRANCH  15  17
ATOM     17  C   UNL A   1      35.173  21.997  25.044  1.00  0.00     0.049 A 
ATOM     18  C   UNL A   1      38.158  19.630  24.975  1.00  0.00     0.044 C 
ATOM     19  C   UNL A   1      37.331  20.874  25.111  1.00  0.00    -0.049 A 
ATOM     20  C   UNL A   1      37.949  22.115  25.291  1.00  0.00     0.003 A 
ATOM     21  C   UNL A   1      35.938  20.825  24.978  1.00  0.00     0.030 A 
ATOM     22  C   UNL A   1      37.180  23.266  25.469  1.00  0.00     0.002 A 
ATOM     23  C   UNL A   1      35.788  23.198  25.396  1.00  0.00     0.027 A 
ENDBRANCH  15  17
ENDBRANCH  12  15
ENDBRANCH   6  12
ENDBRANCH   3   5
ENDBRANCH   2   3
ENDBRANCH   1   2
BRANCH   1  24
ATOM     24  C   UNL A   1      34.537  28.933  27.216  1.00  0.00     0.275 C 
BRANCH  24  25
ATOM     25  O   UNL A   1      35.049  30.263  27.531  1.00  0.00    -0.458 OA
BRANCH  25  26
ATOM     26  C   UNL A   1      35.856  30.645  28.552  1.00  0.00     0.338 C 
ATOM     27  O   UNL A   1      35.541  31.540  29.329  1.00  0.00    -0.246 OA
BRANCH  26  28
ATOM     28  C   UNL A   1      37.129  29.926  28.728  1.00  0.00     0.060 A 
ATOM     29  C   UNL A   1      37.295  29.047  29.815  1.00  0.00     0.016 A 
ATOM     30  C   UNL A   1      38.109  30.036  27.756  1.00  0.00     0.016 A 
ATOM     31  C   UNL A   1      38.359  28.149  29.829  1.00  0.00     0.010 A 
ATOM     32  C   UNL A   1      39.057  29.052  27.676  1.00  0.00     0.010 A 
ATOM     33  C   UNL A   1      39.210  28.134  28.726  1.00  0.00    -0.014 A 
BRANCH  33  34
ATOM     34  C   UNL A   1      40.489  27.446  28.690  1.00  0.00     0.031 A 
ATOM     35  C   UNL A   1      40.638  26.020  28.364  1.00  0.00     0.074 A 
ATOM     36  C   UNL A   1      41.517  28.304  28.878  1.00  0.00     0.049 A 
ATOM     37  N   UNL A   1      41.667  25.328  28.708  1.00  0.00    -0.248 NA
ATOM     38  C   UNL A   1      39.654  25.230  27.630  1.00  0.00     0.031 C 
ATOM     39  C   UNL A   1      42.948  28.152  28.718  1.00  0.00     0.029 A 
ATOM     40  N   UNL A   1      41.379  29.588  29.442  1.00  0.00    -0.354 N 
ATOM     41  C   UNL A   1      41.622  24.127  28.029  1.00  0.00     0.074 A 
ATOM     42  C   UNL A   1      40.300  24.068  27.456  1.00  0.00     0.031 C 
ATOM     43  C   UNL A   1      43.550  29.099  29.469  1.00  0.00     0.029 A 
ATOM     44  C   UNL A   1      42.511  29.785  30.235  1.00  0.00     0.049 A 
ATOM     45  H   UNL A   1      40.636  30.218  29.306  1.00  0.00     0.167 HD
ATOM     46  C   UNL A   1      42.774  23.403  27.921  1.00  0.00     0.037 A 
ATOM     47  C   UNL A   1      42.315  29.744  31.588  1.00  0.00     0.037 A 
ATOM     48  C   UNL A   1      43.849  24.087  28.636  1.00  0.00     0.049 A 
ATOM     49  C   UNL A   1      42.947  28.516  32.211  1.00  0.00     0.074 A 
ATOM     50  C   UNL A   1      44.801  25.018  28.256  1.00  0.00     0.029 A 
ATOM     51  N   UNL A   1      43.768  24.158  30.010  1.00  0.00    -0.354 N 
ATOM     52  N   UNL A   1      43.387  27.494  31.528  1.00  0.00    -0.248 NA
ATOM     53  C   UNL A   1      43.080  28.317  33.651  1.00  0.00     0.031 C 
ATOM     54  C   UNL A   1      45.243  25.693  29.434  1.00  0.00     0.029 A 
ATOM     55  C   UNL A   1      44.572  25.157  30.518  1.00  0.00     0.049 A 
ATOM     56  H   UNL A   1      43.204  23.569  30.560  1.00  0.00     0.167 HD
ATOM     57  C   UNL A   1      43.898  26.559  32.375  1.00  0.00     0.074 A 
ATOM     58  C   UNL A   1      43.636  27.095  33.700  1.00  0.00     0.031 C 
ATOM     59  C   UNL A   1      44.509  25.418  31.945  1.00  0.00     0.037 A 
BRANCH  46  60
ATOM     60  C   UNL A   1      43.021  22.222  27.015  1.00  0.00     0.064 A 
ATOM     61  C   UNL A   1      42.253  21.043  27.170  1.00  0.00     0.173 A 
ATOM     62  C   UNL A   1      43.975  22.173  25.982  1.00  0.00     0.173 A 
ATOM     63  F   UNL A   1      41.269  20.962  28.074  1.00  0.00    -0.203 F 
ATOM     64  C   UNL A   1      42.466  19.895  26.404  1.00  0.00     0.198 A 
ATOM     65  C   UNL A   1      44.211  21.010  25.236  1.00  0.00     0.198 A 
ATOM     66  F   UNL A   1      44.678  23.259  25.631  1.00  0.00    -0.203 F 
ATOM     67  F   UNL A   1      41.704  18.811  26.607  1.00  0.00    -0.200 F 
ATOM     68  C   UNL A   1      43.460  19.869  25.451  1.00  0.00     0.200 A 
ATOM     69  F   UNL A   1      45.168  21.001  24.297  1.00  0.00    -0.200 F 
ATOM     70  F   UNL A   1      43.680  18.761  24.731  1.00  0.00    -0.200 F 
ENDBRANCH  46  60
BRANCH  47  71
ATOM     71  C   UNL A   1      41.016  30.374  32.026  1.00  0.00     0.064 A 
ATOM     72  C   UNL A   1      39.967  29.532  32.473  1.00  0.00     0.173 A 
ATOM     73  C   UNL A   1      40.869  31.741  32.293  1.00  0.00     0.173 A 
ATOM     74  F   UNL A   1      40.021  28.209  32.243  1.00  0.00    -0.203 F 
ATOM     75  C   UNL A   1      38.913  30.011  33.253  1.00  0.00     0.198 A 
ATOM     76  C   UNL A   1      39.786  32.225  33.038  1.00  0.00     0.198 A 
ATOM     77  F   UNL A   1      41.807  32.617  31.905  1.00  0.00    -0.203 F 
ATOM     78  F   UNL A   1      38.020  29.154  33.771  1.00  0.00    -0.200 F 
ATOM     79  C   UNL A   1      38.831  31.358  33.547  1.00  0.00     0.200 A 
ATOM     80  F   UNL A   1      39.711  33.531  33.332  1.00  0.00    -0.200 F 
ATOM     81  F   UNL A   1      37.858  31.813  34.350  1.00  0.00    -0.200 F 
ENDBRANCH  47  71
BRANCH  59  82
ATOM     82  C   UNL A   1      45.117  24.437  32.892  1.00  0.00     0.064 A 
ATOM     83  C   UNL A   1      44.401  23.324  33.352  1.00  0.00     0.173 A 
ATOM     84  C   UNL A   1      46.396  24.637  33.451  1.00  0.00     0.173 A 
ATOM     85  F   UNL A   1      43.142  23.101  32.945  1.00  0.00    -0.203 F 
ATOM     86  C   UNL A   1      44.965  22.418  34.247  1.00  0.00     0.198 A 
ATOM     87  C   UNL A   1      46.927  23.772  34.399  1.00  0.00     0.198 A 
ATOM     88  F   UNL A   1      47.182  25.657  33.073  1.00  0.00    -0.203 F 
ATOM     89  F   UNL A   1      44.282  21.319  34.594  1.00  0.00    -0.200 F 
ATOM     90  C   UNL A   1      46.222  22.647  34.776  1.00  0.00     0.200 A 
ATOM     91  F   UNL A   1      48.130  24.029  34.931  1.00  0.00    -0.200 F 
ATOM     92  F   UNL A   1      46.758  21.781  35.646  1.00  0.00    -0.200 F 
ENDBRANCH  59  82
ENDBRANCH  33  34
ENDBRANCH  26  28
ENDBRANCH  25  26
ENDBRANCH  24  25
ENDBRANCH   1  24
TORSDOF 14
ENDMDL
MODEL 2
REMARK VINA RESULT:     -13.5      0.981      1.642
REMARK SMILES Cc1cccc(NS(=O)(=O)c2ccc(Br)c(C(=O)OCCOC(=O)c3ccc(-c4c5nc(c(-c6c(F)c(F)c(F)c(F)c6F)c6ccc([nH]6)c(-c6c(F)c(F)c(F)c(F)c6F)c6nc(c(-c7c(F)c(F)c(F)c(F)c7F)c7ccc4[nH]7)C=C6)C=C5)cc3)c2)c1
REMARK SMILES IDX 20 1 19 2 17 3 18 4 16 5 11 6 12 7 88 8 13 9 14 10 15 11
REMARK SMILES IDX 8 12 9 13 10 14 7 15 6 17 1 18 2 19 3 20 89 21 4 22 5 23
REMARK SMILES IDX 21 24 22 25 23 26 24 27 25 28 26 29 87 30 27 31 86 32 28 33
REMARK SMILES IDX 29 34 30 35 80 36 31 37 85 38 79 39 81 40 32 41 84 42 78 43
REMARK SMILES IDX 77 44 33 46 65 47 45 48 64 49 46 50 49 51 63 52 82 53 47 54
REMARK SMILES IDX 48 55 62 57 83 58 50 59 34 60 35 61 43 62 36 63 37 64 41 65
REMARK SMILES IDX 44 66 38 67 39 68 42 69 40 70 66 71 67 72 75 73 68 74 69 75
REMARK SMILES IDX 73 76 76 77 70 78 71 79 74 80 72 81 51 82 52 83 60 84 53 85
REMARK SMILES IDX 54 86 58 87 61 88 55 89 56 90 59 91 57 92
REMARK H PARENT 7 16 81 45 49 56
REMARK Flexibility Score: inf
ROOT
ATOM      1  C   UNL A   1      32.476  29.895  27.101  1.00  0.00     0.275 C 
ENDROOT
BRANCH   1   2
ATOM      2  O   UNL A   1      32.144  29.839  25.707  1.00  0.00    -0.458 OA
BRANCH   2   3
ATOM      3  C   UNL A   1      32.711  28.796  25.057  1.00  0.00     0.339 C 
ATOM      4  O   UNL A   1      33.788  28.777  24.487  1.00  0.00    -0.246 OA
BRANCH   3   5
ATOM      5  C   UNL A   1      31.808  27.646  25.004  1.00  0.00     0.075 A 
ATOM      6  C   UNL A   1      31.374  25.318  25.533  1.00  0.00     0.088 A 
ATOM      7  C   UNL A   1      30.303  25.329  24.640  1.00  0.00     0.023 A 
ATOM      8  C   UNL A   1      32.095  26.499  25.756  1.00  0.00     0.039 A 
ATOM      9  C   UNL A   1      30.044  26.466  23.868  1.00  0.00     0.018 A 
ATOM     10  C   UNL A   1      30.809  27.619  24.031  1.00  0.00     0.032 A 
ATOM     11  Br  UNL A   1      30.472  29.086  22.872  1.00  0.00    -0.050 Br
BRANCH   6  12
ATOM     12  S   UNL A   1      32.055  23.815  26.237  1.00  0.00     0.261 S 
ATOM     13  O   UNL A   1      31.944  22.801  25.210  1.00  0.00    -0.201 OA
ATOM     14  O   UNL A   1      31.419  23.651  27.526  1.00  0.00    -0.201 OA
BRANCH  12  15
ATOM     15  N   UNL A   1      33.699  24.022  26.481  1.00  0.00    -0.280 N 
ATOM     16  H   UNL A   1      33.987  24.336  27.368  1.00  0.00     0.180 HD
BRANCH  15  17
ATOM     17  C   UNL A   1      34.715  23.783  25.514  1.00  0.00     0.049 A 
ATOM     18  C   UNL A   1      38.046  21.933  25.552  1.00  0.00     0.044 C 
ATOM     19  C   UNL A   1      36.818  22.645  25.064  1.00  0.00    -0.049 A 
ATOM     20  C   UNL A   1      36.542  22.717  23.695  1.00  0.00     0.003 A 
ATOM     21  C   UNL A   1      35.891  23.174  25.971  1.00  0.00     0.030 A 
ATOM     22  C   UNL A   1      35.428  23.421  23.239  1.00  0.00     0.002 A 
ATOM     23  C   UNL A   1      34.541  23.999  24.147  1.00  0.00     0.027 A 
ENDBRANCH  15  17
ENDBRANCH  12  15
ENDBRANCH   6  12
ENDBRANCH   3   5
ENDBRANCH   2   3
ENDBRANCH   1   2
BRANCH   1  24
ATOM     24  C   UNL A   1      33.710  30.761  27.379  1.00  0.00     0.275 C 
BRANCH  24  25
ATOM     25  O   UNL A   1      34.904  30.127  27.930  1.00  0.00    -0.458 OA
BRANCH  25  26
ATOM     26  C   UNL A   1      35.831  30.645  28.775  1.00  0.00     0.338 C 
ATOM     27  O   UNL A   1      35.626  31.671  29.413  1.00  0.00    -0.246 OA
BRANCH  26  28
ATOM     28  C   UNL A   1      37.100  29.915  28.932  1.00  0.00     0.060 A 
ATOM     29  C   UNL A   1      37.231  28.942  29.941  1.00  0.00     0.016 A 
ATOM     30  C   UNL A   1      38.114  30.112  28.010  1.00  0.00     0.016 A 
ATOM     31  C   UNL A   1      38.297  28.048  29.914  1.00  0.00     0.010 A 
ATOM     32  C   UNL A   1      39.069  29.140  27.877  1.00  0.00     0.010 A 
ATOM     33  C   UNL A   1      39.188  28.133  28.846  1.00  0.00    -0.014 A 
BRANCH  33  34
ATOM     34  C   UNL A   1      40.471  27.452  28.796  1.00  0.00     0.031 A 
ATOM     35  C   UNL A   1      40.626  26.032  28.448  1.00  0.00     0.074 A 
ATOM     36  C   UNL A   1      41.494  28.312  28.992  1.00  0.00     0.049 A 
ATOM     37  N   UNL A   1      41.660  25.341  28.779  1.00  0.00    -0.248 NA
ATOM     38  C   UNL A   1      39.645  25.248  27.706  1.00  0.00     0.031 C 
ATOM     39  C   UNL A   1      42.926  28.171  28.826  1.00  0.00     0.029 A 
ATOM     40  N   UNL A   1      41.352  29.587  29.576  1.00  0.00    -0.354 N 
ATOM     41  C   UNL A   1      41.619  24.149  28.082  1.00  0.00     0.074 A 
ATOM     42  C   UNL A   1      40.296  24.092  27.513  1.00  0.00     0.031 C 
ATOM     43  C   UNL A   1      43.525  29.110  29.588  1.00  0.00     0.029 A 
ATOM     44  C   UNL A   1      42.485  29.779  30.368  1.00  0.00     0.049 A 
ATOM     45  H   UNL A   1      40.605  30.216  29.451  1.00  0.00     0.167 HD
ATOM     46  C   UNL A   1      42.775  23.434  27.959  1.00  0.00     0.037 A 
ATOM     47  C   UNL A   1      42.294  29.717  31.721  1.00  0.00     0.037 A 
ATOM     48  C   UNL A   1      43.849  24.112  28.680  1.00  0.00     0.049 A 
ATOM     49  C   UNL A   1      42.934  28.484  32.324  1.00  0.00     0.074 A 
ATOM     50  C   UNL A   1      44.794  25.055  28.312  1.00  0.00     0.029 A 
ATOM     51  N   UNL A   1      43.772  24.164  30.056  1.00  0.00    -0.354 N 
ATOM     52  N   UNL A   1      43.378  27.474  31.624  1.00  0.00    -0.248 NA
ATOM     53  C   UNL A   1      43.074  28.265  33.760  1.00  0.00     0.031 C 
ATOM     54  C   UNL A   1      45.237  25.715  29.497  1.00  0.00     0.029 A 
ATOM     55  C   UNL A   1      44.572  25.159  30.576  1.00  0.00     0.049 A 
ATOM     56  H   UNL A   1      43.213  23.563  30.600  1.00  0.00     0.167 HD
ATOM     57  C   UNL A   1      43.897  26.530  32.456  1.00  0.00     0.074 A 
ATOM     58  C   UNL A   1      43.637  27.045  33.789  1.00  0.00     0.031 C 
ATOM     59  C   UNL A   1      44.513  25.398  32.006  1.00  0.00     0.037 A 
BRANCH  46  60
ATOM     60  C   UNL A   1      43.025  22.267  27.035  1.00  0.00     0.064 A 
ATOM     61  C   UNL A   1      42.270  21.079  27.181  1.00  0.00     0.173 A 
ATOM     62  C   UNL A   1      43.971  22.242  25.994  1.00  0.00     0.173 A 
ATOM     63  F   UNL A   1      41.295  20.977  28.093  1.00  0.00    -0.203 F 
ATOM     64  C   UNL A   1      42.488  19.943  26.398  1.00  0.00     0.198 A 
ATOM     65  C   UNL A   1      44.211  21.091  25.230  1.00  0.00     0.198 A 
ATOM     66  F   UNL A   1      44.660  23.339  25.652  1.00  0.00    -0.203 F 
ATOM     67  F   UNL A   1      41.738  18.850  26.592  1.00  0.00    -0.200 F 
ATOM     68  C   UNL A   1      43.473  19.941  25.435  1.00  0.00     0.200 A 
ATOM     69  F   UNL A   1      45.160  21.104  24.282  1.00  0.00    -0.200 F 
ATOM     70  F   UNL A   1      43.697  18.844  24.699  1.00  0.00    -0.200 F 
ENDBRANCH  46  60
BRANCH  47  71
ATOM     71  C   UNL A   1      40.993  30.334  32.172  1.00  0.00     0.064 A 
ATOM     72  C   UNL A   1      40.733  31.689  31.849  1.00  0.00     0.173 A 
ATOM     73  C   UNL A   1      39.902  29.587  32.635  1.00  0.00     0.173 A 
ATOM     74  F   UNL A   1      41.728  32.480  31.412  1.00  0.00    -0.203 F 
ATOM     75  C   UNL A   1      39.442  32.220  31.861  1.00  0.00     0.198 A 
ATOM     76  C   UNL A   1      38.614  30.136  32.689  1.00  0.00     0.198 A 
ATOM     77  F   UNL A   1      40.050  28.298  32.971  1.00  0.00    -0.203 F 
ATOM     78  F   UNL A   1      39.226  33.466  31.413  1.00  0.00    -0.200 F 
ATOM     79  C   UNL A   1      38.380  31.437  32.269  1.00  0.00     0.200 A 
ATOM     80  F   UNL A   1      37.581  29.375  33.075  1.00  0.00    -0.200 F 
ATOM     81  F   UNL A   1      37.130  31.921  32.220  1.00  0.00    -0.200 F 
ENDBRANCH  47  71
BRANCH  59  82
ATOM     82  C   UNL A   1      45.130  24.407  32.937  1.00  0.00     0.064 A 
ATOM     83  C   UNL A   1      44.410  23.303  33.412  1.00  0.00     0.173 A 
ATOM     84  C   UNL A   1      46.424  24.588  33.466  1.00  0.00     0.173 A 
ATOM     85  F   UNL A   1      43.138  23.098  33.034  1.00  0.00    -0.203 F 
ATOM     86  C   UNL A   1      44.982  22.387  34.291  1.00  0.00     0.198 A 
ATOM     87  C   UNL A   1      46.965  23.714  34.400  1.00  0.00     0.198 A 
ATOM     88  F   UNL A   1      47.214  25.598  33.072  1.00  0.00    -0.203 F 
ATOM     89  F   UNL A   1      44.292  21.297  34.652  1.00  0.00    -0.200 F 
ATOM     90  C   UNL A   1      46.254  22.598  34.791  1.00  0.00     0.200 A 
ATOM     91  F   UNL A   1      48.184  23.953  34.903  1.00  0.00    -0.200 F 
ATOM     92  F   UNL A   1      46.798  21.723  35.646  1.00  0.00    -0.200 F 
ENDBRANCH  59  82
ENDBRANCH  33  34
ENDBRANCH  26  28
ENDBRANCH  25  26
ENDBRANCH  24  25
ENDBRANCH   1  24
TORSDOF 14
ENDMDL
MODEL 3
REMARK VINA RESULT:     -13.4      4.008     10.213
REMARK SMILES Cc1cccc(NS(=O)(=O)c2ccc(Br)c(C(=O)OCCOC(=O)c3ccc(-c4c5nc(c(-c6c(F)c(F)c(F)c(F)c6F)c6ccc([nH]6)c(-c6c(F)c(F)c(F)c(F)c6F)c6nc(c(-c7c(F)c(F)c(F)c(F)c7F)c7ccc4[nH]7)C=C6)C=C5)cc3)c2)c1
REMARK SMILES IDX 20 1 19 2 17 3 18 4 16 5 11 6 12 7 88 8 13 9 14 10 15 11
REMARK SMILES IDX 8 12 9 13 10 14 7 15 6 17 1 18 2 19 3 20 89 21 4 22 5 23
REMARK SMILES IDX 21 24 22 25 23 26 24 27 25 28 26 29 87 30 27 31 86 32 28 33
REMARK SMILES IDX 29 34 30 35 80 36 31 37 85 38 79 39 81 40 32 41 84 42 78 43
REMARK SMILES IDX 77 44 33 46 65 47 45 48 64 49 46 50 49 51 63 52 82 53 47 54
REMARK SMILES IDX 48 55 62 57 83 58 50 59 34 60 35 61 43 62 36 63 37 64 41 65
REMARK SMILES IDX 44 66 38 67 39 68 42 69 40 70 66 71 67 72 75 73 68 74 69 75
REMARK SMILES IDX 73 76 76 77 70 78 71 79 74 80 72 81 51 82 52 83 60 84 53 85
REMARK SMILES IDX 54 86 58 87 61 88 55 89 56 90 59 91 57 92
REMARK H PARENT 7 16 81 45 49 56
REMARK Flexibility Score: inf
ROOT
ATOM      1  C   UNL A   1      37.024  23.328  25.224  1.00  0.00     0.275 C 
ENDROOT
BRANCH   1   2
ATOM      2  O   UNL A   1      35.732  23.940  25.105  1.00  0.00    -0.458 OA
BRANCH   2   3
ATOM      3  C   UNL A   1      35.033  23.525  24.023  1.00  0.00     0.339 C 
ATOM      4  O   UNL A   1      35.458  23.335  22.897  1.00  0.00    -0.246 OA
BRANCH   3   5
ATOM      5  C   UNL A   1      33.604  23.421  24.318  1.00  0.00     0.075 A 
ATOM      6  C   UNL A   1      31.502  24.519  24.831  1.00  0.00     0.088 A 
ATOM      7  C   UNL A   1      30.972  23.291  25.225  1.00  0.00     0.023 A 
ATOM      8  C   UNL A   1      32.807  24.573  24.323  1.00  0.00     0.039 A 
ATOM      9  C   UNL A   1      31.784  22.151  25.250  1.00  0.00     0.018 A 
ATOM     10  C   UNL A   1      33.107  22.218  24.819  1.00  0.00     0.032 A 
ATOM     11  Br  UNL A   1      34.180  20.659  24.985  1.00  0.00    -0.050 Br
BRANCH   6  12
ATOM     12  S   UNL A   1      30.704  26.090  25.166  1.00  0.00     0.261 S 
ATOM     13  O   UNL A   1      30.744  26.266  26.602  1.00  0.00    -0.201 OA
ATOM     14  O   UNL A   1      29.448  26.063  24.448  1.00  0.00    -0.201 OA
BRANCH  12  15
ATOM     15  N   UNL A   1      31.645  27.326  24.541  1.00  0.00    -0.280 N 
ATOM     16  H   UNL A   1      31.738  27.370  23.562  1.00  0.00     0.180 HD
BRANCH  15  17
ATOM     17  C   UNL A   1      32.322  28.316  25.305  1.00  0.00     0.049 A 
ATOM     18  C   UNL A   1      31.394  31.778  26.597  1.00  0.00     0.044 C 
ATOM     19  C   UNL A   1      32.121  30.481  26.397  1.00  0.00    -0.049 A 
ATOM     20  C   UNL A   1      33.201  30.145  27.219  1.00  0.00     0.003 A 
ATOM     21  C   UNL A   1      31.680  29.553  25.446  1.00  0.00     0.030 A 
ATOM     22  C   UNL A   1      33.909  28.962  27.002  1.00  0.00     0.002 A 
ATOM     23  C   UNL A   1      33.500  28.071  26.010  1.00  0.00     0.027 A 
ENDBRANCH  15  17
ENDBRANCH  12  15
ENDBRANCH   6  12
ENDBRANCH   3   5
ENDBRANCH   2   3
ENDBRANCH   1   2
BRANCH   1  24
ATOM     24  C   UNL A   1      37.964  24.109  26.150  1.00  0.00     0.275 C 
BRANCH  24  25
ATOM     25  O   UNL A   1      39.261  23.530  26.486  1.00  0.00    -0.458 OA
BRANCH  25  26
ATOM     26  C   UNL A   1      40.460  24.148  26.624  1.00  0.00     0.338 C 
ATOM     27  O   UNL A   1      41.502  23.639  26.228  1.00  0.00    -0.246 OA
BRANCH  26  28
ATOM     28  C   UNL A   1      40.477  25.483  27.246  1.00  0.00     0.060 A 
ATOM     29  C   UNL A   1      40.650  26.629  26.447  1.00  0.00     0.016 A 
ATOM     30  C   UNL A   1      40.207  25.603  28.599  1.00  0.00     0.016 A 
ATOM     31  C   UNL A   1      40.372  27.890  26.967  1.00  0.00     0.010 A 
ATOM     32  C   UNL A   1      39.774  26.813  29.070  1.00  0.00     0.010 A 
ATOM     33  C   UNL A   1      39.892  27.962  28.272  1.00  0.00    -0.014 A 
BRANCH  33  34
ATOM     34  C   UNL A   1      39.791  29.192  29.039  1.00  0.00     0.031 A 
ATOM     35  C   UNL A   1      38.716  30.179  28.859  1.00  0.00     0.074 A 
ATOM     36  C   UNL A   1      40.734  29.250  30.006  1.00  0.00     0.049 A 
ATOM     37  N   UNL A   1      38.828  31.409  29.223  1.00  0.00    -0.248 NA
ATOM     38  C   UNL A   1      37.421  29.893  28.250  1.00  0.00     0.031 C 
ATOM     39  C   UNL A   1      40.911  30.138  31.137  1.00  0.00     0.029 A 
ATOM     40  N   UNL A   1      41.901  28.461  30.017  1.00  0.00    -0.354 N 
ATOM     41  C   UNL A   1      37.576  31.988  29.164  1.00  0.00     0.074 A 
ATOM     42  C   UNL A   1      36.756  31.039  28.453  1.00  0.00     0.031 C 
ATOM     43  C   UNL A   1      42.211  30.094  31.496  1.00  0.00     0.029 A 
ATOM     44  C   UNL A   1      42.919  29.281  30.508  1.00  0.00     0.049 A 
ATOM     45  H   UNL A   1      41.984  27.522  29.735  1.00  0.00     0.167 HD
ATOM     46  C   UNL A   1      37.365  33.141  29.862  1.00  0.00     0.037 A 
ATOM     47  C   UNL A   1      43.845  29.706  29.597  1.00  0.00     0.037 A 
ATOM     48  C   UNL A   1      38.606  33.551  30.515  1.00  0.00     0.049 A 
ATOM     49  C   UNL A   1      43.728  31.191  29.325  1.00  0.00     0.074 A 
ATOM     50  C   UNL A   1      39.153  33.298  31.762  1.00  0.00     0.029 A 
ATOM     51  N   UNL A   1      39.649  33.969  29.717  1.00  0.00    -0.354 N 
ATOM     52  N   UNL A   1      42.715  31.925  29.698  1.00  0.00    -0.248 NA
ATOM     53  C   UNL A   1      44.713  31.955  28.563  1.00  0.00     0.031 C 
ATOM     54  C   UNL A   1      40.561  33.516  31.674  1.00  0.00     0.029 A 
ATOM     55  C   UNL A   1      40.856  33.916  30.382  1.00  0.00     0.049 A 
ATOM     56  H   UNL A   1      39.545  34.269  28.785  1.00  0.00     0.167 HD
ATOM     57  C   UNL A   1      42.911  33.214  29.308  1.00  0.00     0.074 A 
ATOM     58  C   UNL A   1      44.152  33.176  28.554  1.00  0.00     0.031 C 
ATOM     59  C   UNL A   1      42.058  34.229  29.632  1.00  0.00     0.037 A 
BRANCH  46  60
ATOM     60  C   UNL A   1      36.037  33.792  30.158  1.00  0.00     0.064 A 
ATOM     61  C   UNL A   1      35.226  34.255  29.094  1.00  0.00     0.173 A 
ATOM     62  C   UNL A   1      35.495  33.990  31.442  1.00  0.00     0.173 A 
ATOM     63  F   UNL A   1      35.586  34.084  27.815  1.00  0.00    -0.203 F 
ATOM     64  C   UNL A   1      34.013  34.915  29.298  1.00  0.00     0.198 A 
ATOM     65  C   UNL A   1      34.293  34.682  31.647  1.00  0.00     0.198 A 
ATOM     66  F   UNL A   1      36.084  33.482  32.532  1.00  0.00    -0.203 F 
ATOM     67  F   UNL A   1      33.298  35.330  28.243  1.00  0.00    -0.200 F 
ATOM     68  C   UNL A   1      33.555  35.149  30.576  1.00  0.00     0.200 A 
ATOM     69  F   UNL A   1      33.845  34.888  32.895  1.00  0.00    -0.200 F 
ATOM     70  F   UNL A   1      32.402  35.802  30.773  1.00  0.00    -0.200 F 
ENDBRANCH  46  60
BRANCH  47  71
ATOM     71  C   UNL A   1      44.204  28.657  28.572  1.00  0.00     0.064 A 
ATOM     72  C   UNL A   1      44.724  27.417  29.020  1.00  0.00     0.173 A 
ATOM     73  C   UNL A   1      43.793  28.709  27.235  1.00  0.00     0.173 A 
ATOM     74  F   UNL A   1      45.155  27.286  30.286  1.00  0.00    -0.203 F 
ATOM     75  C   UNL A   1      44.706  26.273  28.221  1.00  0.00     0.198 A 
ATOM     76  C   UNL A   1      43.819  27.570  26.420  1.00  0.00     0.198 A 
ATOM     77  F   UNL A   1      43.292  29.840  26.717  1.00  0.00    -0.203 F 
ATOM     78  F   UNL A   1      45.078  25.091  28.734  1.00  0.00    -0.200 F 
ATOM     79  C   UNL A   1      44.240  26.347  26.923  1.00  0.00     0.200 A 
ATOM     80  F   UNL A   1      43.358  27.639  25.163  1.00  0.00    -0.200 F 
ATOM     81  F   UNL A   1      44.160  25.239  26.173  1.00  0.00    -0.200 F 
ENDBRANCH  47  71
BRANCH  59  82
ATOM     82  C   UNL A   1      42.327  35.646  29.245  1.00  0.00     0.064 A 
ATOM     83  C   UNL A   1      41.821  36.188  28.056  1.00  0.00     0.173 A 
ATOM     84  C   UNL A   1      43.186  36.473  29.998  1.00  0.00     0.173 A 
ATOM     85  F   UNL A   1      41.068  35.447  27.229  1.00  0.00    -0.203 F 
ATOM     86  C   UNL A   1      42.085  37.506  27.690  1.00  0.00     0.198 A 
ATOM     87  C   UNL A   1      43.506  37.762  29.593  1.00  0.00     0.198 A 
ATOM     88  F   UNL A   1      43.714  36.070  31.164  1.00  0.00    -0.203 F 
ATOM     89  F   UNL A   1      41.511  38.014  26.592  1.00  0.00    -0.200 F 
ATOM     90  C   UNL A   1      42.933  38.288  28.453  1.00  0.00     0.200 A 
ATOM     91  F   UNL A   1      44.360  38.493  30.323  1.00  0.00    -0.200 F 
ATOM     92  F   UNL A   1      43.196  39.551  28.092  1.00  0.00    -0.200 F 
ENDBRANCH  59  82
ENDBRANCH  33  34
ENDBRANCH  26  28
ENDBRANCH  25  26
ENDBRANCH  24  25
ENDBRANCH   1  24
TORSDOF 14
ENDMDL
