MODEL 1
REMARK VINA RESULT:     -11.3      0.000      0.000
REMARK SMILES Cc1nc([C@@H]2C[N@@H+]3CCC[C@@H]3CO2)sc1CC(=O)OCCOC(=O)c1ccc(-c2c3nc(c(-c4c(F)c(F)c(F)c(F)c4F)c4ccc([nH]4)c(-c4c(F)c(F)c(F)c(F)c4F)c4nc(c(-c5c(F)c(F)c(F)c(F)c5F)c5ccc2[nH]5)C=C4)C=C3)cc1
REMARK SMILES IDX 20 1 19 2 17 3 18 4 16 5 15 6 1 7 2 8 3 9 4 10 14 11 5 12
REMARK SMILES IDX 6 13 13 14 7 15 12 16 8 17 11 18 9 20 10 21 21 22 22 23
REMARK SMILES IDX 23 24 24 25 25 26 26 27 87 28 27 29 86 30 28 31 29 32 30 33
REMARK SMILES IDX 80 34 31 35 85 36 79 37 81 38 32 39 84 40 78 41 77 42 33 44
REMARK SMILES IDX 65 45 45 46 64 47 46 48 49 49 63 50 82 51 47 52 48 53 62 55
REMARK SMILES IDX 83 56 50 57 34 58 35 59 43 60 36 61 37 62 41 63 44 64 38 65
REMARK SMILES IDX 39 66 42 67 40 68 66 69 67 70 75 71 68 72 69 73 73 74 76 75
REMARK SMILES IDX 70 76 71 77 74 78 72 79 51 80 52 81 60 82 53 83 54 84 58 85
REMARK SMILES IDX 61 86 55 87 56 88 59 89 57 90
REMARK H PARENT 7 19 81 43 49 54
REMARK Flexibility Score: inf
ROOT
ATOM      1  C   UNL A   1      42.326  19.288  26.699  1.00  0.00     0.274 C 
ENDROOT
BRANCH   1   2
ATOM      2  O   UNL A   1      41.265  19.950  25.983  1.00  0.00    -0.462 OA
BRANCH   2   3
ATOM      3  C   UNL A   1      41.234  21.304  26.092  1.00  0.00     0.311 C 
ATOM      4  O   UNL A   1      42.023  22.065  25.537  1.00  0.00    -0.252 OA
BRANCH   3   5
ATOM      5  C   UNL A   1      40.162  21.830  27.015  1.00  0.00     0.171 C 
BRANCH   5   6
ATOM      6  C   UNL A   1      38.930  22.364  26.350  1.00  0.00     0.039 A 
ATOM      7  C   UNL A   1      38.910  24.828  27.142  1.00  0.00     0.068 C 
ATOM      8  C   UNL A   1      38.414  23.649  26.384  1.00  0.00     0.052 A 
ATOM      9  N   UNL A   1      37.293  23.840  25.603  1.00  0.00    -0.243 NA
ATOM     10  C   UNL A   1      36.904  22.712  25.044  1.00  0.00     0.128 A 
ATOM     11  S   UNL A   1      37.971  21.391  25.299  1.00  0.00    -0.120 S 
BRANCH  10  12
ATOM     12  C   UNL A   1      35.634  22.559  24.226  1.00  0.00     0.232 C 
ATOM     13  C   UNL A   1      34.691  23.782  24.418  1.00  0.00     0.302 C 
ATOM     14  O   UNL A   1      35.036  21.291  24.559  1.00  0.00    -0.359 OA
ATOM     15  N   UNL A   1      33.332  23.542  24.924  1.00  0.00    -0.328 N 
ATOM     16  C   UNL A   1      34.334  21.338  25.803  1.00  0.00     0.226 C 
ATOM     17  C   UNL A   1      32.772  24.691  25.648  1.00  0.00     0.262 C 
ATOM     18  C   UNL A   1      33.175  22.337  25.758  1.00  0.00     0.210 C 
ATOM     19  H   UNL A   1      32.806  23.387  24.064  1.00  0.00     0.348 HD
ATOM     20  C   UNL A   1      31.989  24.097  26.808  1.00  0.00     0.068 C 
ATOM     21  C   UNL A   1      32.780  22.848  27.138  1.00  0.00     0.073 C 
ENDBRANCH  10  12
ENDBRANCH   5   6
ENDBRANCH   3   5
ENDBRANCH   2   3
ENDBRANCH   1   2
BRANCH   1  22
ATOM     22  C   UNL A   1      43.215  18.501  25.737  1.00  0.00     0.275 C 
BRANCH  22  23
ATOM     23  O   UNL A   1      43.431  19.276  24.547  1.00  0.00    -0.458 OA
BRANCH  23  24
ATOM     24  C   UNL A   1      44.722  19.515  24.229  1.00  0.00     0.338 C 
ATOM     25  O   UNL A   1      45.517  18.749  23.715  1.00  0.00    -0.246 OA
BRANCH  24  26
ATOM     26  C   UNL A   1      45.069  20.890  24.630  1.00  0.00     0.060 A 
ATOM     27  C   UNL A   1      45.480  21.165  25.937  1.00  0.00     0.016 A 
ATOM     28  C   UNL A   1      44.893  21.925  23.713  1.00  0.00     0.016 A 
ATOM     29  C   UNL A   1      45.673  22.485  26.343  1.00  0.00     0.010 A 
ATOM     30  C   UNL A   1      45.136  23.243  24.106  1.00  0.00     0.010 A 
ATOM     31  C   UNL A   1      45.498  23.536  25.433  1.00  0.00    -0.014 A 
BRANCH  31  32
ATOM     32  C   UNL A   1      45.626  24.946  25.880  1.00  0.00     0.031 A 
ATOM     33  C   UNL A   1      46.952  25.645  25.776  1.00  0.00     0.074 A 
ATOM     34  C   UNL A   1      44.558  25.600  26.372  1.00  0.00     0.049 A 
ATOM     35  N   UNL A   1      47.301  26.835  26.199  1.00  0.00    -0.248 NA
ATOM     36  C   UNL A   1      48.036  24.903  25.112  1.00  0.00     0.031 C 
ATOM     37  C   UNL A   1      43.211  25.045  26.498  1.00  0.00     0.029 A 
ATOM     38  N   UNL A   1      44.442  26.877  26.861  1.00  0.00    -0.354 N 
ATOM     39  C   UNL A   1      48.644  26.971  25.881  1.00  0.00     0.074 A 
ATOM     40  C   UNL A   1      49.056  25.739  25.241  1.00  0.00     0.031 C 
ATOM     41  C   UNL A   1      42.400  25.980  27.019  1.00  0.00     0.029 A 
ATOM     42  C   UNL A   1      43.179  27.181  27.307  1.00  0.00     0.049 A 
ATOM     43  H   UNL A   1      45.192  27.515  26.890  1.00  0.00     0.167 HD
ATOM     44  C   UNL A   1      49.460  28.031  26.098  1.00  0.00     0.037 A 
ATOM     45  C   UNL A   1      42.711  28.294  27.902  1.00  0.00     0.037 A 
ATOM     46  C   UNL A   1      49.046  29.266  26.709  1.00  0.00     0.049 A 
ATOM     47  C   UNL A   1      43.643  29.446  28.153  1.00  0.00     0.074 A 
ATOM     48  C   UNL A   1      49.797  30.401  26.962  1.00  0.00     0.029 A 
ATOM     49  N   UNL A   1      47.761  29.531  27.158  1.00  0.00    -0.354 N 
ATOM     50  N   UNL A   1      44.915  29.561  27.863  1.00  0.00    -0.248 NA
ATOM     51  C   UNL A   1      43.073  30.624  28.824  1.00  0.00     0.031 C 
ATOM     52  C   UNL A   1      48.974  31.342  27.591  1.00  0.00     0.029 A 
ATOM     53  C   UNL A   1      47.701  30.807  27.695  1.00  0.00     0.049 A 
ATOM     54  H   UNL A   1      47.003  28.904  27.103  1.00  0.00     0.167 HD
ATOM     55  C   UNL A   1      45.295  30.822  28.298  1.00  0.00     0.074 A 
ATOM     56  C   UNL A   1      44.113  31.446  28.856  1.00  0.00     0.031 C 
ATOM     57  C   UNL A   1      46.515  31.411  28.244  1.00  0.00     0.037 A 
BRANCH  44  58
ATOM     58  C   UNL A   1      50.896  27.890  25.690  1.00  0.00     0.064 A 
ATOM     59  C   UNL A   1      51.895  27.547  26.613  1.00  0.00     0.173 A 
ATOM     60  C   UNL A   1      51.274  28.071  24.350  1.00  0.00     0.173 A 
ATOM     61  F   UNL A   1      51.587  27.379  27.908  1.00  0.00    -0.203 F 
ATOM     62  C   UNL A   1      53.222  27.409  26.214  1.00  0.00     0.198 A 
ATOM     63  C   UNL A   1      52.597  27.909  23.950  1.00  0.00     0.198 A 
ATOM     64  F   UNL A   1      50.355  28.397  23.428  1.00  0.00    -0.203 F 
ATOM     65  F   UNL A   1      54.166  27.119  27.120  1.00  0.00    -0.200 F 
ATOM     66  C   UNL A   1      53.571  27.584  24.883  1.00  0.00     0.200 A 
ATOM     67  F   UNL A   1      52.930  28.069  22.662  1.00  0.00    -0.200 F 
ATOM     68  F   UNL A   1      54.847  27.446  24.500  1.00  0.00    -0.200 F 
ENDBRANCH  44  58
BRANCH  45  69
ATOM     69  C   UNL A   1      41.284  28.369  28.307  1.00  0.00     0.064 A 
ATOM     70  C   UNL A   1      40.315  28.890  27.440  1.00  0.00     0.173 A 
ATOM     71  C   UNL A   1      40.863  27.925  29.569  1.00  0.00     0.173 A 
ATOM     72  F   UNL A   1      40.676  29.352  26.234  1.00  0.00    -0.203 F 
ATOM     73  C   UNL A   1      38.979  28.975  27.823  1.00  0.00     0.198 A 
ATOM     74  C   UNL A   1      39.522  27.986  29.942  1.00  0.00     0.198 A 
ATOM     75  F   UNL A   1      41.753  27.420  30.436  1.00  0.00    -0.203 F 
ATOM     76  F   UNL A   1      38.078  29.513  26.990  1.00  0.00    -0.200 F 
ATOM     77  C   UNL A   1      38.582  28.517  29.071  1.00  0.00     0.200 A 
ATOM     78  F   UNL A   1      39.141  27.534  31.144  1.00  0.00    -0.200 F 
ATOM     79  F   UNL A   1      37.295  28.594  29.437  1.00  0.00    -0.200 F 
ENDBRANCH  45  69
BRANCH  57  80
ATOM     80  C   UNL A   1      46.622  32.808  28.781  1.00  0.00     0.064 A 
ATOM     81  C   UNL A   1      46.957  33.055  30.120  1.00  0.00     0.173 A 
ATOM     82  C   UNL A   1      46.406  33.910  27.940  1.00  0.00     0.173 A 
ATOM     83  F   UNL A   1      47.156  32.031  30.965  1.00  0.00    -0.203 F 
ATOM     84  C   UNL A   1      47.048  34.356  30.605  1.00  0.00     0.198 A 
ATOM     85  C   UNL A   1      46.522  35.210  28.424  1.00  0.00     0.198 A 
ATOM     86  F   UNL A   1      46.088  33.726  26.651  1.00  0.00    -0.203 F 
ATOM     87  F   UNL A   1      47.323  34.568  31.899  1.00  0.00    -0.200 F 
ATOM     88  C   UNL A   1      46.834  35.432  29.756  1.00  0.00     0.200 A 
ATOM     89  F   UNL A   1      46.323  36.249  27.601  1.00  0.00    -0.200 F 
ATOM     90  F   UNL A   1      46.920  36.684  30.226  1.00  0.00    -0.200 F 
ENDBRANCH  57  80
ENDBRANCH  31  32
ENDBRANCH  24  26
ENDBRANCH  23  24
ENDBRANCH  22  23
ENDBRANCH   1  22
TORSDOF 13
ENDMDL
MODEL 2
REMARK VINA RESULT:     -11.2      5.906      9.794
REMARK SMILES Cc1nc([C@@H]2C[N@@H+]3CCC[C@@H]3CO2)sc1CC(=O)OCCOC(=O)c1ccc(-c2c3nc(c(-c4c(F)c(F)c(F)c(F)c4F)c4ccc([nH]4)c(-c4c(F)c(F)c(F)c(F)c4F)c4nc(c(-c5c(F)c(F)c(F)c(F)c5F)c5ccc2[nH]5)C=C4)C=C3)cc1
REMARK SMILES IDX 20 1 19 2 17 3 18 4 16 5 15 6 1 7 2 8 3 9 4 10 14 11 5 12
REMARK SMILES IDX 6 13 13 14 7 15 12 16 8 17 11 18 9 20 10 21 21 22 22 23
REMARK SMILES IDX 23 24 24 25 25 26 26 27 87 28 27 29 86 30 28 31 29 32 30 33
REMARK SMILES IDX 80 34 31 35 85 36 79 37 81 38 32 39 84 40 78 41 77 42 33 44
REMARK SMILES IDX 65 45 45 46 64 47 46 48 49 49 63 50 82 51 47 52 48 53 62 55
REMARK SMILES IDX 83 56 50 57 34 58 35 59 43 60 36 61 37 62 41 63 44 64 38 65
REMARK SMILES IDX 39 66 42 67 40 68 66 69 67 70 75 71 68 72 69 73 73 74 76 75
REMARK SMILES IDX 70 76 71 77 74 78 72 79 51 80 52 81 60 82 53 83 54 84 58 85
REMARK SMILES IDX 61 86 55 87 56 88 59 89 57 90
REMARK H PARENT 7 19 81 43 49 54
REMARK Flexibility Score: inf
ROOT
ATOM      1  C   UNL A   1      31.017  30.046  24.704  1.00  0.00     0.274 C 
ENDROOT
BRANCH   1   2
ATOM      2  O   UNL A   1      31.466  29.163  23.657  1.00  0.00    -0.462 OA
BRANCH   2   3
ATOM      3  C   UNL A   1      30.516  28.767  22.770  1.00  0.00     0.311 C 
ATOM      4  O   UNL A   1      30.174  29.412  21.783  1.00  0.00    -0.252 OA
BRANCH   3   5
ATOM      5  C   UNL A   1      29.845  27.460  23.119  1.00  0.00     0.171 C 
BRANCH   5   6
ATOM      6  C   UNL A   1      30.710  26.439  23.791  1.00  0.00     0.039 A 
ATOM      7  C   UNL A   1      32.298  25.726  21.876  1.00  0.00     0.068 C 
ATOM      8  C   UNL A   1      31.772  25.721  23.266  1.00  0.00     0.052 A 
ATOM      9  N   UNL A   1      32.416  24.901  24.170  1.00  0.00    -0.243 NA
ATOM     10  C   UNL A   1      31.816  24.921  25.343  1.00  0.00     0.128 A 
ATOM     11  S   UNL A   1      30.539  26.062  25.465  1.00  0.00    -0.120 S 
BRANCH  10  12
ATOM     12  C   UNL A   1      32.202  24.036  26.514  1.00  0.00     0.232 C 
ATOM     13  C   UNL A   1      33.697  23.612  26.429  1.00  0.00     0.302 C 
ATOM     14  O   UNL A   1      31.275  22.933  26.568  1.00  0.00    -0.359 OA
ATOM     15  N   UNL A   1      34.014  22.177  26.392  1.00  0.00    -0.328 N 
ATOM     16  C   UNL A   1      31.577  21.929  25.596  1.00  0.00     0.226 C 
ATOM     17  C   UNL A   1      35.277  21.881  25.702  1.00  0.00     0.262 C 
ATOM     18  C   UNL A   1      32.958  21.314  25.832  1.00  0.00     0.210 C 
ATOM     19  H   UNL A   1      34.100  21.949  27.382  1.00  0.00     0.348 HD
ATOM     20  C   UNL A   1      35.026  20.596  24.930  1.00  0.00     0.068 C 
ATOM     21  C   UNL A   1      33.559  20.705  24.571  1.00  0.00     0.073 C 
ENDBRANCH  10  12
ENDBRANCH   5   6
ENDBRANCH   3   5
ENDBRANCH   2   3
ENDBRANCH   1   2
BRANCH   1  22
ATOM     22  C   UNL A   1      31.780  29.774  26.000  1.00  0.00     0.275 C 
BRANCH  22  23
ATOM     23  O   UNL A   1      33.060  30.427  25.944  1.00  0.00    -0.458 OA
BRANCH  23  24
ATOM     24  C   UNL A   1      33.314  31.302  26.942  1.00  0.00     0.338 C 
ATOM     25  O   UNL A   1      32.631  32.245  27.298  1.00  0.00    -0.246 OA
BRANCH  24  26
ATOM     26  C   UNL A   1      34.607  30.961  27.561  1.00  0.00     0.060 A 
ATOM     27  C   UNL A   1      34.912  29.635  27.880  1.00  0.00     0.016 A 
ATOM     28  C   UNL A   1      35.481  31.990  27.910  1.00  0.00     0.016 A 
ATOM     29  C   UNL A   1      36.075  29.339  28.589  1.00  0.00     0.010 A 
ATOM     30  C   UNL A   1      36.671  31.687  28.575  1.00  0.00     0.010 A 
ATOM     31  C   UNL A   1      36.963  30.363  28.947  1.00  0.00    -0.014 A 
BRANCH  31  32
ATOM     32  C   UNL A   1      38.163  30.064  29.769  1.00  0.00     0.031 A 
ATOM     33  C   UNL A   1      39.233  29.159  29.227  1.00  0.00     0.074 A 
ATOM     34  C   UNL A   1      38.296  30.603  30.995  1.00  0.00     0.049 A 
ATOM     35  N   UNL A   1      40.306  28.693  29.817  1.00  0.00    -0.248 NA
ATOM     36  C   UNL A   1      39.072  28.712  27.834  1.00  0.00     0.031 C 
ATOM     37  C   UNL A   1      37.345  31.518  31.623  1.00  0.00     0.029 A 
ATOM     38  N   UNL A   1      39.289  30.455  31.931  1.00  0.00    -0.354 N 
ATOM     39  C   UNL A   1      40.929  27.879  28.881  1.00  0.00     0.074 A 
ATOM     40  C   UNL A   1      40.110  27.901  27.688  1.00  0.00     0.031 C 
ATOM     41  C   UNL A   1      37.805  31.860  32.838  1.00  0.00     0.029 A 
ATOM     42  C   UNL A   1      39.056  31.153  33.091  1.00  0.00     0.049 A 
ATOM     43  H   UNL A   1      40.090  29.902  31.786  1.00  0.00     0.167 HD
ATOM     44  C   UNL A   1      42.083  27.180  29.005  1.00  0.00     0.037 A 
ATOM     45  C   UNL A   1      39.763  31.196  34.237  1.00  0.00     0.037 A 
ATOM     46  C   UNL A   1      42.913  27.180  30.180  1.00  0.00     0.049 A 
ATOM     47  C   UNL A   1      41.027  30.392  34.357  1.00  0.00     0.074 A 
ATOM     48  C   UNL A   1      44.106  26.512  30.398  1.00  0.00     0.029 A 
ATOM     49  N   UNL A   1      42.637  27.889  31.340  1.00  0.00    -0.354 N 
ATOM     50  N   UNL A   1      41.600  29.613  33.473  1.00  0.00    -0.248 NA
ATOM     51  C   UNL A   1      41.740  30.469  35.641  1.00  0.00     0.031 C 
ATOM     52  C   UNL A   1      44.537  26.794  31.699  1.00  0.00     0.029 A 
ATOM     53  C   UNL A   1      43.632  27.668  32.278  1.00  0.00     0.049 A 
ATOM     54  H   UNL A   1      41.850  28.466  31.476  1.00  0.00     0.167 HD
ATOM     55  C   UNL A   1      42.744  29.120  34.083  1.00  0.00     0.074 A 
ATOM     56  C   UNL A   1      42.797  29.703  35.408  1.00  0.00     0.031 C 
ATOM     57  C   UNL A   1      43.669  28.258  33.591  1.00  0.00     0.037 A 
BRANCH  44  58
ATOM     58  C   UNL A   1      42.507  26.337  27.840  1.00  0.00     0.064 A 
ATOM     59  C   UNL A   1      42.009  25.039  27.650  1.00  0.00     0.173 A 
ATOM     60  C   UNL A   1      43.398  26.845  26.883  1.00  0.00     0.173 A 
ATOM     61  F   UNL A   1      41.167  24.502  28.546  1.00  0.00    -0.203 F 
ATOM     62  C   UNL A   1      42.405  24.274  26.556  1.00  0.00     0.198 A 
ATOM     63  C   UNL A   1      43.773  26.086  25.778  1.00  0.00     0.198 A 
ATOM     64  F   UNL A   1      43.899  28.083  27.018  1.00  0.00    -0.203 F 
ATOM     65  F   UNL A   1      41.948  23.021  26.416  1.00  0.00    -0.200 F 
ATOM     66  C   UNL A   1      43.281  24.800  25.618  1.00  0.00     0.200 A 
ATOM     67  F   UNL A   1      44.612  26.601  24.868  1.00  0.00    -0.200 F 
ATOM     68  F   UNL A   1      43.657  24.064  24.563  1.00  0.00    -0.200 F 
ENDBRANCH  44  58
BRANCH  45  69
ATOM     69  C   UNL A   1      39.283  32.030  35.367  1.00  0.00     0.064 A 
ATOM     70  C   UNL A   1      39.619  33.387  35.454  1.00  0.00     0.173 A 
ATOM     71  C   UNL A   1      38.482  31.487  36.383  1.00  0.00     0.173 A 
ATOM     72  F   UNL A   1      40.404  33.944  34.520  1.00  0.00    -0.203 F 
ATOM     73  C   UNL A   1      39.183  34.169  36.522  1.00  0.00     0.198 A 
ATOM     74  C   UNL A   1      38.025  32.276  37.437  1.00  0.00     0.198 A 
ATOM     75  F   UNL A   1      38.135  30.192  36.346  1.00  0.00    -0.203 F 
ATOM     76  F   UNL A   1      39.550  35.455  36.602  1.00  0.00    -0.200 F 
ATOM     77  C   UNL A   1      38.381  33.614  37.508  1.00  0.00     0.200 A 
ATOM     78  F   UNL A   1      37.242  31.739  38.383  1.00  0.00    -0.200 F 
ATOM     79  F   UNL A   1      37.957  34.368  38.532  1.00  0.00    -0.200 F 
ENDBRANCH  45  69
BRANCH  57  80
ATOM     80  C   UNL A   1      44.825  27.916  34.483  1.00  0.00     0.064 A 
ATOM     81  C   UNL A   1      45.995  28.689  34.495  1.00  0.00     0.173 A 
ATOM     82  C   UNL A   1      44.752  26.815  35.349  1.00  0.00     0.173 A 
ATOM     83  F   UNL A   1      46.116  29.742  33.672  1.00  0.00    -0.203 F 
ATOM     84  C   UNL A   1      47.062  28.357  35.325  1.00  0.00     0.198 A 
ATOM     85  C   UNL A   1      45.812  26.500  36.195  1.00  0.00     0.198 A 
ATOM     86  F   UNL A   1      43.653  26.048  35.378  1.00  0.00    -0.203 F 
ATOM     87  F   UNL A   1      48.188  29.082  35.287  1.00  0.00    -0.200 F 
ATOM     88  C   UNL A   1      46.968  27.266  36.177  1.00  0.00     0.200 A 
ATOM     89  F   UNL A   1      45.718  25.451  37.023  1.00  0.00    -0.200 F 
ATOM     90  F   UNL A   1      47.997  26.947  36.974  1.00  0.00    -0.200 F 
ENDBRANCH  57  80
ENDBRANCH  31  32
ENDBRANCH  24  26
ENDBRANCH  23  24
ENDBRANCH  22  23
ENDBRANCH   1  22
TORSDOF 13
ENDMDL
MODEL 3
REMARK VINA RESULT:     -11.1      5.637      9.818
REMARK SMILES Cc1nc([C@@H]2C[N@@H+]3CCC[C@@H]3CO2)sc1CC(=O)OCCOC(=O)c1ccc(-c2c3nc(c(-c4c(F)c(F)c(F)c(F)c4F)c4ccc([nH]4)c(-c4c(F)c(F)c(F)c(F)c4F)c4nc(c(-c5c(F)c(F)c(F)c(F)c5F)c5ccc2[nH]5)C=C4)C=C3)cc1
REMARK SMILES IDX 20 1 19 2 17 3 18 4 16 5 15 6 1 7 2 8 3 9 4 10 14 11 5 12
REMARK SMILES IDX 6 13 13 14 7 15 12 16 8 17 11 18 9 20 10 21 21 22 22 23
REMARK SMILES IDX 23 24 24 25 25 26 26 27 87 28 27 29 86 30 28 31 29 32 30 33
REMARK SMILES IDX 80 34 31 35 85 36 79 37 81 38 32 39 84 40 78 41 77 42 33 44
REMARK SMILES IDX 65 45 45 46 64 47 46 48 49 49 63 50 82 51 47 52 48 53 62 55
REMARK SMILES IDX 83 56 50 57 34 58 35 59 43 60 36 61 37 62 41 63 44 64 38 65
REMARK SMILES IDX 39 66 42 67 40 68 66 69 67 70 75 71 68 72 69 73 73 74 76 75
REMARK SMILES IDX 70 76 71 77 74 78 72 79 51 80 52 81 60 82 53 83 54 84 58 85
REMARK SMILES IDX 61 86 55 87 56 88 59 89 57 90
REMARK H PARENT 7 19 81 43 49 54
REMARK Flexibility Score: inf
ROOT
ATOM      1  C   UNL A   1      31.371  29.312  24.667  1.00  0.00     0.274 C 
ENDROOT
BRANCH   1   2
ATOM      2  O   UNL A   1      30.628  28.080  24.747  1.00  0.00    -0.462 OA
BRANCH   2   3
ATOM      3  C   UNL A   1      29.939  27.732  23.629  1.00  0.00     0.311 C 
ATOM      4  O   UNL A   1      28.747  27.437  23.609  1.00  0.00    -0.252 OA
BRANCH   3   5
ATOM      5  C   UNL A   1      30.776  27.677  22.374  1.00  0.00     0.171 C 
BRANCH   5   6
ATOM      6  C   UNL A   1      31.889  26.674  22.372  1.00  0.00     0.039 A 
ATOM      7  C   UNL A   1      33.969  28.170  22.004  1.00  0.00     0.068 C 
ATOM      8  C   UNL A   1      33.251  26.890  22.241  1.00  0.00     0.052 A 
ATOM      9  N   UNL A   1      34.027  25.755  22.352  1.00  0.00    -0.243 NA
ATOM     10  C   UNL A   1      33.280  24.677  22.482  1.00  0.00     0.128 A 
ATOM     11  S   UNL A   1      31.601  24.997  22.647  1.00  0.00    -0.120 S 
BRANCH  10  12
ATOM     12  C   UNL A   1      33.823  23.260  22.504  1.00  0.00     0.232 C 
ATOM     13  C   UNL A   1      33.036  22.372  23.512  1.00  0.00     0.302 C 
ATOM     14  O   UNL A   1      35.241  23.326  22.754  1.00  0.00    -0.359 OA
ATOM     15  N   UNL A   1      33.783  21.723  24.599  1.00  0.00    -0.328 N 
ATOM     16  C   UNL A   1      35.534  23.554  24.134  1.00  0.00     0.226 C 
ATOM     17  C   UNL A   1      32.963  21.468  25.792  1.00  0.00     0.262 C 
ATOM     18  C   UNL A   1      35.017  22.413  25.014  1.00  0.00     0.210 C 
ATOM     19  H   UNL A   1      34.058  20.838  24.174  1.00  0.00     0.348 HD
ATOM     20  C   UNL A   1      33.876  21.739  26.976  1.00  0.00     0.068 C 
ATOM     21  C   UNL A   1      34.777  22.841  26.457  1.00  0.00     0.073 C 
ENDBRANCH  10  12
ENDBRANCH   5   6
ENDBRANCH   3   5
ENDBRANCH   2   3
ENDBRANCH   1   2
BRANCH   1  22
ATOM     22  C   UNL A   1      31.765  29.793  26.063  1.00  0.00     0.275 C 
BRANCH  22  23
ATOM     23  O   UNL A   1      33.040  30.453  25.997  1.00  0.00    -0.458 OA
BRANCH  23  24
ATOM     24  C   UNL A   1      33.301  31.325  26.995  1.00  0.00     0.338 C 
ATOM     25  O   UNL A   1      32.632  32.280  27.343  1.00  0.00    -0.246 OA
BRANCH  24  26
ATOM     26  C   UNL A   1      34.582  30.963  27.626  1.00  0.00     0.060 A 
ATOM     27  C   UNL A   1      34.843  29.639  27.992  1.00  0.00     0.016 A 
ATOM     28  C   UNL A   1      35.491  31.973  27.940  1.00  0.00     0.016 A 
ATOM     29  C   UNL A   1      35.996  29.329  28.711  1.00  0.00     0.010 A 
ATOM     30  C   UNL A   1      36.670  31.654  28.616  1.00  0.00     0.010 A 
ATOM     31  C   UNL A   1      36.918  30.334  29.034  1.00  0.00    -0.014 A 
BRANCH  31  32
ATOM     32  C   UNL A   1      38.107  30.024  29.866  1.00  0.00     0.031 A 
ATOM     33  C   UNL A   1      39.182  29.122  29.327  1.00  0.00     0.074 A 
ATOM     34  C   UNL A   1      38.227  30.550  31.099  1.00  0.00     0.049 A 
ATOM     35  N   UNL A   1      40.247  28.647  29.924  1.00  0.00    -0.248 NA
ATOM     36  C   UNL A   1      39.035  28.690  27.928  1.00  0.00     0.031 C 
ATOM     37  C   UNL A   1      37.271  31.461  31.726  1.00  0.00     0.029 A 
ATOM     38  N   UNL A   1      39.209  30.390  32.045  1.00  0.00    -0.354 N 
ATOM     39  C   UNL A   1      40.878  27.841  28.988  1.00  0.00     0.074 A 
ATOM     40  C   UNL A   1      40.073  27.877  27.785  1.00  0.00     0.031 C 
ATOM     41  C   UNL A   1      37.718  31.790  32.949  1.00  0.00     0.029 A 
ATOM     42  C   UNL A   1      38.965  31.076  33.209  1.00  0.00     0.049 A 
ATOM     43  H   UNL A   1      40.011  29.837  31.904  1.00  0.00     0.167 HD
ATOM     44  C   UNL A   1      42.029  27.138  29.118  1.00  0.00     0.037 A 
ATOM     45  C   UNL A   1      39.658  31.106  34.363  1.00  0.00     0.037 A 
ATOM     46  C   UNL A   1      42.845  27.124  30.303  1.00  0.00     0.049 A 
ATOM     47  C   UNL A   1      40.919  30.298  34.490  1.00  0.00     0.074 A 
ATOM     48  C   UNL A   1      44.034  26.451  30.527  1.00  0.00     0.029 A 
ATOM     49  N   UNL A   1      42.557  27.822  31.466  1.00  0.00    -0.354 N 
ATOM     50  N   UNL A   1      41.501  29.527  33.604  1.00  0.00    -0.248 NA
ATOM     51  C   UNL A   1      41.617  30.360  35.782  1.00  0.00     0.031 C 
ATOM     52  C   UNL A   1      44.451  26.719  31.835  1.00  0.00     0.029 A 
ATOM     53  C   UNL A   1      43.541  27.588  32.414  1.00  0.00     0.049 A 
ATOM     54  H   UNL A   1      41.771  28.399  31.599  1.00  0.00     0.167 HD
ATOM     55  C   UNL A   1      42.637  29.024  34.222  1.00  0.00     0.074 A 
ATOM     56  C   UNL A   1      42.675  29.593  35.554  1.00  0.00     0.031 C 
ATOM     57  C   UNL A   1      43.564  28.165  33.733  1.00  0.00     0.037 A 
BRANCH  44  58
ATOM     58  C   UNL A   1      42.464  26.305  27.949  1.00  0.00     0.064 A 
ATOM     59  C   UNL A   1      41.968  25.009  27.742  1.00  0.00     0.173 A 
ATOM     60  C   UNL A   1      43.365  26.823  27.006  1.00  0.00     0.173 A 
ATOM     61  F   UNL A   1      41.117  24.465  28.624  1.00  0.00    -0.203 F 
ATOM     62  C   UNL A   1      42.374  24.255  26.645  1.00  0.00     0.198 A 
ATOM     63  C   UNL A   1      43.751  26.075  25.898  1.00  0.00     0.198 A 
ATOM     64  F   UNL A   1      43.865  28.059  27.157  1.00  0.00    -0.203 F 
ATOM     65  F   UNL A   1      41.919  23.004  26.488  1.00  0.00    -0.200 F 
ATOM     66  C   UNL A   1      43.260  24.789  25.721  1.00  0.00     0.200 A 
ATOM     67  F   UNL A   1      44.599  26.597  25.001  1.00  0.00    -0.200 F 
ATOM     68  F   UNL A   1      43.646  24.064  24.663  1.00  0.00    -0.200 F 
ENDBRANCH  44  58
BRANCH  45  69
ATOM     69  C   UNL A   1      39.167  31.930  35.497  1.00  0.00     0.064 A 
ATOM     70  C   UNL A   1      38.364  31.370  36.499  1.00  0.00     0.173 A 
ATOM     71  C   UNL A   1      39.488  33.291  35.600  1.00  0.00     0.173 A 
ATOM     72  F   UNL A   1      38.009  30.078  36.428  1.00  0.00    -0.203 F 
ATOM     73  C   UNL A   1      37.889  32.142  37.556  1.00  0.00     0.198 A 
ATOM     74  C   UNL A   1      39.034  34.058  36.672  1.00  0.00     0.198 A 
ATOM     75  F   UNL A   1      40.252  33.874  34.665  1.00  0.00    -0.203 F 
ATOM     76  F   UNL A   1      37.091  31.592  38.480  1.00  0.00    -0.200 F 
ATOM     77  C   UNL A   1      38.230  33.484  37.645  1.00  0.00     0.200 A 
ATOM     78  F   UNL A   1      39.374  35.351  36.759  1.00  0.00    -0.200 F 
ATOM     79  F   UNL A   1      37.778  34.226  38.665  1.00  0.00    -0.200 F 
ENDBRANCH  45  69
BRANCH  57  80
ATOM     80  C   UNL A   1      44.709  27.811  34.635  1.00  0.00     0.064 A 
ATOM     81  C   UNL A   1      45.877  28.587  34.675  1.00  0.00     0.173 A 
ATOM     82  C   UNL A   1      44.628  26.696  35.481  1.00  0.00     0.173 A 
ATOM     83  F   UNL A   1      46.006  29.653  33.870  1.00  0.00    -0.203 F 
ATOM     84  C   UNL A   1      46.934  28.243  35.513  1.00  0.00     0.198 A 
ATOM     85  C   UNL A   1      45.678  26.370  36.336  1.00  0.00     0.198 A 
ATOM     86  F   UNL A   1      43.530  25.926  35.483  1.00  0.00    -0.203 F 
ATOM     87  F   UNL A   1      48.059  28.971  35.502  1.00  0.00    -0.200 F 
ATOM     88  C   UNL A   1      46.831  27.138  36.346  1.00  0.00     0.200 A 
ATOM     89  F   UNL A   1      45.574  25.307  37.145  1.00  0.00    -0.200 F 
ATOM     90  F   UNL A   1      47.850  26.808  37.151  1.00  0.00    -0.200 F 
ENDBRANCH  57  80
ENDBRANCH  31  32
ENDBRANCH  24  26
ENDBRANCH  23  24
ENDBRANCH  22  23
ENDBRANCH   1  22
TORSDOF 13
ENDMDL
