MODEL 1
REMARK VINA RESULT:      -9.9      0.000      0.000
REMARK SMILES O=C(CSC(=S)N1CCCC1)OCCOC(=O)c1ccc(-c2c3nc(c(-c4c(F)c(F)c(F)c(F)c4F)c4ccc([nH]4)c(-c4c(F)c(F)c(F)c(F)c4F)c4nc(c(-c5c(F)c(F)c(F)c(F)c5F)c5ccc2[nH]5)C=C4)C=C3)cc1
REMARK SMILES IDX 13 1 12 2 2 3 1 4 3 5 4 6 5 7 6 8 7 9 8 10 11 11 9 12 10 13
REMARK SMILES IDX 14 14 15 15 16 16 17 17 18 18 19 19 80 20 20 21 79 22 21 23
REMARK SMILES IDX 22 24 23 25 73 26 24 27 78 28 72 29 74 30 25 31 77 32 71 33
REMARK SMILES IDX 70 34 26 36 58 37 38 38 57 39 39 40 42 41 56 42 75 43 40 44
REMARK SMILES IDX 41 45 55 47 76 48 43 49 27 50 28 51 36 52 29 53 30 54 34 55
REMARK SMILES IDX 37 56 31 57 32 58 35 59 33 60 59 61 60 62 68 63 61 64 62 65
REMARK SMILES IDX 66 66 69 67 63 68 64 69 67 70 65 71 44 72 45 73 53 74 46 75
REMARK SMILES IDX 47 76 51 77 54 78 48 79 49 80 52 81 50 82
REMARK H PARENT 74 35 42 46
REMARK Flexibility Score: inf
ROOT
ATOM      1  C   UNL A   1      33.359  35.274  29.176  1.00  0.00     0.274 C 
ENDROOT
BRANCH   1   2
ATOM      2  O   UNL A   1      32.552  35.197  30.372  1.00  0.00    -0.461 OA
BRANCH   2   3
ATOM      3  C   UNL A   1      32.696  35.962  31.483  1.00  0.00     0.316 C 
ATOM      4  O   UNL A   1      31.701  36.446  32.017  1.00  0.00    -0.251 OA
BRANCH   3   5
ATOM      5  C   UNL A   1      34.082  36.225  32.028  1.00  0.00     0.199 C 
BRANCH   5   6
ATOM      6  S   UNL A   1      34.475  35.236  33.472  1.00  0.00    -0.085 SA
BRANCH   6   7
ATOM      7  C   UNL A   1      35.338  33.827  32.875  1.00  0.00     0.136 C 
ATOM      8  S   UNL A   1      34.827  32.740  31.714  1.00  0.00    -0.053 S 
BRANCH   7   9
ATOM      9  N   UNL A   1      36.613  33.754  33.410  1.00  0.00    -0.358 N 
ATOM     10  C   UNL A   1      36.960  33.225  34.725  1.00  0.00     0.118 C 
ATOM     11  C   UNL A   1      37.664  34.644  32.928  1.00  0.00     0.118 C 
ATOM     12  C   UNL A   1      37.890  34.278  35.293  1.00  0.00     0.023 C 
ATOM     13  C   UNL A   1      38.682  34.706  34.063  1.00  0.00     0.023 C 
ENDBRANCH   7   9
ENDBRANCH   6   7
ENDBRANCH   5   6
ENDBRANCH   3   5
ENDBRANCH   2   3
ENDBRANCH   1   2
BRANCH   1  14
ATOM     14  C   UNL A   1      33.074  34.101  28.236  1.00  0.00     0.275 C 
BRANCH  14  15
ATOM     15  O   UNL A   1      34.301  33.414  27.924  1.00  0.00    -0.458 OA
BRANCH  15  16
ATOM     16  C   UNL A   1      34.232  32.061  27.915  1.00  0.00     0.338 C 
ATOM     17  O   UNL A   1      33.301  31.379  27.522  1.00  0.00    -0.246 OA
BRANCH  16  18
ATOM     18  C   UNL A   1      35.554  31.504  28.286  1.00  0.00     0.060 A 
ATOM     19  C   UNL A   1      35.629  30.136  28.573  1.00  0.00     0.016 A 
ATOM     20  C   UNL A   1      36.707  32.295  28.334  1.00  0.00     0.016 A 
ATOM     21  C   UNL A   1      36.845  29.567  28.953  1.00  0.00     0.010 A 
ATOM     22  C   UNL A   1      37.927  31.722  28.712  1.00  0.00     0.010 A 
ATOM     23  C   UNL A   1      37.996  30.361  29.054  1.00  0.00    -0.014 A 
BRANCH  23  24
ATOM     24  C   UNL A   1      39.231  29.780  29.638  1.00  0.00     0.031 A 
ATOM     25  C   UNL A   1      39.730  30.294  30.961  1.00  0.00     0.074 A 
ATOM     26  C   UNL A   1      39.878  28.772  29.027  1.00  0.00     0.049 A 
ATOM     27  N   UNL A   1      40.727  29.868  31.696  1.00  0.00    -0.248 NA
ATOM     28  C   UNL A   1      39.011  31.443  31.531  1.00  0.00     0.031 C 
ATOM     29  C   UNL A   1      39.505  28.184  27.742  1.00  0.00     0.029 A 
ATOM     30  N   UNL A   1      40.987  28.062  29.415  1.00  0.00    -0.354 N 
ATOM     31  C   UNL A   1      40.733  30.674  32.826  1.00  0.00     0.074 A 
ATOM     32  C   UNL A   1      39.683  31.655  32.653  1.00  0.00     0.031 C 
ATOM     33  C   UNL A   1      40.374  27.202  27.445  1.00  0.00     0.029 A 
ATOM     34  C   UNL A   1      41.364  27.094  28.517  1.00  0.00     0.049 A 
ATOM     35  H   UNL A   1      41.467  28.231  30.258  1.00  0.00     0.167 HD
ATOM     36  C   UNL A   1      41.521  30.588  33.924  1.00  0.00     0.037 A 
ATOM     37  C   UNL A   1      42.387  26.219  28.558  1.00  0.00     0.037 A 
ATOM     38  C   UNL A   1      42.581  29.630  34.097  1.00  0.00     0.049 A 
ATOM     39  C   UNL A   1      43.284  26.177  29.770  1.00  0.00     0.074 A 
ATOM     40  C   UNL A   1      43.432  29.466  35.177  1.00  0.00     0.029 A 
ATOM     41  N   UNL A   1      42.943  28.677  33.158  1.00  0.00    -0.354 N 
ATOM     42  N   UNL A   1      43.241  26.901  30.862  1.00  0.00    -0.248 NA
ATOM     43  C   UNL A   1      44.362  25.176  29.761  1.00  0.00     0.031 C 
ATOM     44  C   UNL A   1      44.334  28.441  34.875  1.00  0.00     0.029 A 
ATOM     45  C   UNL A   1      44.016  27.934  33.625  1.00  0.00     0.049 A 
ATOM     46  H   UNL A   1      42.502  28.545  32.287  1.00  0.00     0.167 HD
ATOM     47  C   UNL A   1      44.262  26.426  31.677  1.00  0.00     0.074 A 
ATOM     48  C   UNL A   1      44.896  25.339  30.963  1.00  0.00     0.031 C 
ATOM     49  C   UNL A   1      44.639  26.854  32.907  1.00  0.00     0.037 A 
BRANCH  36  50
ATOM     50  C   UNL A   1      41.259  31.561  35.035  1.00  0.00     0.064 A 
ATOM     51  C   UNL A   1      40.197  31.370  35.932  1.00  0.00     0.173 A 
ATOM     52  C   UNL A   1      42.093  32.672  35.227  1.00  0.00     0.173 A 
ATOM     53  F   UNL A   1      39.363  30.331  35.780  1.00  0.00    -0.203 F 
ATOM     54  C   UNL A   1      39.968  32.268  36.971  1.00  0.00     0.198 A 
ATOM     55  C   UNL A   1      41.876  33.554  36.283  1.00  0.00     0.198 A 
ATOM     56  F   UNL A   1      43.123  32.897  34.398  1.00  0.00    -0.203 F 
ATOM     57  F   UNL A   1      38.924  32.089  37.791  1.00  0.00    -0.200 F 
ATOM     58  C   UNL A   1      40.811  33.355  37.149  1.00  0.00     0.200 A 
ATOM     59  F   UNL A   1      42.697  34.599  36.460  1.00  0.00    -0.200 F 
ATOM     60  F   UNL A   1      40.593  34.216  38.153  1.00  0.00    -0.200 F 
ENDBRANCH  36  50
BRANCH  37  61
ATOM     61  C   UNL A   1      42.619  25.293  27.421  1.00  0.00     0.064 A 
ATOM     62  C   UNL A   1      41.888  24.104  27.289  1.00  0.00     0.173 A 
ATOM     63  C   UNL A   1      43.608  25.561  26.463  1.00  0.00     0.173 A 
ATOM     64  F   UNL A   1      40.952  23.792  28.198  1.00  0.00    -0.203 F 
ATOM     65  C   UNL A   1      42.155  23.206  26.260  1.00  0.00     0.198 A 
ATOM     66  C   UNL A   1      43.856  24.674  25.417  1.00  0.00     0.198 A 
ATOM     67  F   UNL A   1      44.338  26.684  26.547  1.00  0.00    -0.203 F 
ATOM     68  F   UNL A   1      41.482  22.049  26.190  1.00  0.00    -0.200 F 
ATOM     69  C   UNL A   1      43.136  23.493  25.323  1.00  0.00     0.200 A 
ATOM     70  F   UNL A   1      44.801  24.959  24.511  1.00  0.00    -0.200 F 
ATOM     71  F   UNL A   1      43.400  22.624  24.336  1.00  0.00    -0.200 F 
ENDBRANCH  37  61
BRANCH  49  72
ATOM     72  C   UNL A   1      45.776  26.127  33.570  1.00  0.00     0.064 A 
ATOM     73  C   UNL A   1      45.558  25.010  34.390  1.00  0.00     0.173 A 
ATOM     74  C   UNL A   1      47.102  26.539  33.361  1.00  0.00     0.173 A 
ATOM     75  F   UNL A   1      44.308  24.585  34.631  1.00  0.00    -0.203 F 
ATOM     76  C   UNL A   1      46.621  24.354  35.004  1.00  0.00     0.198 A 
ATOM     77  C   UNL A   1      48.164  25.862  33.955  1.00  0.00     0.198 A 
ATOM     78  F   UNL A   1      47.368  27.595  32.580  1.00  0.00    -0.203 F 
ATOM     79  F   UNL A   1      46.383  23.322  35.827  1.00  0.00    -0.200 F 
ATOM     80  C   UNL A   1      47.923  24.776  34.782  1.00  0.00     0.200 A 
ATOM     81  F   UNL A   1      49.423  26.263  33.728  1.00  0.00    -0.200 F 
ATOM     82  F   UNL A   1      48.945  24.143  35.374  1.00  0.00    -0.200 F 
ENDBRANCH  49  72
ENDBRANCH  23  24
ENDBRANCH  16  18
ENDBRANCH  15  16
ENDBRANCH  14  15
ENDBRANCH   1  14
TORSDOF 14
ENDMDL
MODEL 2
REMARK VINA RESULT:      -9.7      6.322     11.965
REMARK SMILES O=C(CSC(=S)N1CCCC1)OCCOC(=O)c1ccc(-c2c3nc(c(-c4c(F)c(F)c(F)c(F)c4F)c4ccc([nH]4)c(-c4c(F)c(F)c(F)c(F)c4F)c4nc(c(-c5c(F)c(F)c(F)c(F)c5F)c5ccc2[nH]5)C=C4)C=C3)cc1
REMARK SMILES IDX 13 1 12 2 2 3 1 4 3 5 4 6 5 7 6 8 7 9 8 10 11 11 9 12 10 13
REMARK SMILES IDX 14 14 15 15 16 16 17 17 18 18 19 19 80 20 20 21 79 22 21 23
REMARK SMILES IDX 22 24 23 25 73 26 24 27 78 28 72 29 74 30 25 31 77 32 71 33
REMARK SMILES IDX 70 34 26 36 58 37 38 38 57 39 39 40 42 41 56 42 75 43 40 44
REMARK SMILES IDX 41 45 55 47 76 48 43 49 27 50 28 51 36 52 29 53 30 54 34 55
REMARK SMILES IDX 37 56 31 57 32 58 35 59 33 60 59 61 60 62 68 63 61 64 62 65
REMARK SMILES IDX 66 66 69 67 63 68 64 69 67 70 65 71 44 72 45 73 53 74 46 75
REMARK SMILES IDX 47 76 51 77 54 78 48 79 49 80 52 81 50 82
REMARK H PARENT 74 35 42 46
REMARK Flexibility Score: inf
ROOT
ATOM      1  C   UNL A   1      36.677  20.062  25.001  1.00  0.00     0.274 C 
ENDROOT
BRANCH   1   2
ATOM      2  O   UNL A   1      36.178  21.341  25.449  1.00  0.00    -0.461 OA
BRANCH   2   3
ATOM      3  C   UNL A   1      35.365  22.171  24.749  1.00  0.00     0.316 C 
ATOM      4  O   UNL A   1      35.720  22.574  23.644  1.00  0.00    -0.251 OA
BRANCH   3   5
ATOM      5  C   UNL A   1      34.048  22.604  25.353  1.00  0.00     0.199 C 
BRANCH   5   6
ATOM      6  S   UNL A   1      32.937  21.234  25.684  1.00  0.00    -0.085 SA
BRANCH   6   7
ATOM      7  C   UNL A   1      32.522  20.557  24.117  1.00  0.00     0.136 C 
ATOM      8  S   UNL A   1      32.153  21.390  22.717  1.00  0.00    -0.053 S 
BRANCH   7   9
ATOM      9  N   UNL A   1      32.642  19.178  24.117  1.00  0.00    -0.358 N 
ATOM     10  C   UNL A   1      33.329  18.379  25.126  1.00  0.00     0.118 C 
ATOM     11  C   UNL A   1      32.529  18.431  22.868  1.00  0.00     0.118 C 
ATOM     12  C   UNL A   1      34.176  17.428  24.304  1.00  0.00     0.023 C 
ATOM     13  C   UNL A   1      33.260  17.116  23.126  1.00  0.00     0.023 C 
ENDBRANCH   7   9
ENDBRANCH   6   7
ENDBRANCH   5   6
ENDBRANCH   3   5
ENDBRANCH   2   3
ENDBRANCH   1   2
BRANCH   1  14
ATOM     14  C   UNL A   1      38.204  19.999  25.082  1.00  0.00     0.275 C 
BRANCH  14  15
ATOM     15  O   UNL A   1      38.709  21.184  25.727  1.00  0.00    -0.458 OA
BRANCH  15  16
ATOM     16  C   UNL A   1      39.816  21.011  26.489  1.00  0.00     0.338 C 
ATOM     17  O   UNL A   1      40.445  19.979  26.642  1.00  0.00    -0.246 OA
BRANCH  16  18
ATOM     18  C   UNL A   1      40.280  22.331  26.977  1.00  0.00     0.060 A 
ATOM     19  C   UNL A   1      39.686  23.475  26.429  1.00  0.00     0.016 A 
ATOM     20  C   UNL A   1      41.260  22.456  27.967  1.00  0.00     0.016 A 
ATOM     21  C   UNL A   1      40.104  24.743  26.836  1.00  0.00     0.010 A 
ATOM     22  C   UNL A   1      41.677  23.729  28.376  1.00  0.00     0.010 A 
ATOM     23  C   UNL A   1      41.123  24.879  27.790  1.00  0.00    -0.014 A 
BRANCH  23  24
ATOM     24  C   UNL A   1      41.682  26.225  28.068  1.00  0.00     0.031 A 
ATOM     25  C   UNL A   1      43.062  26.565  27.575  1.00  0.00     0.074 A 
ATOM     26  C   UNL A   1      40.955  27.158  28.710  1.00  0.00     0.049 A 
ATOM     27  N   UNL A   1      43.705  27.704  27.622  1.00  0.00    -0.248 NA
ATOM     28  C   UNL A   1      43.819  25.473  26.945  1.00  0.00     0.031 C 
ATOM     29  C   UNL A   1      39.610  26.960  29.245  1.00  0.00     0.029 A 
ATOM     30  N   UNL A   1      41.253  28.463  29.017  1.00  0.00    -0.354 N 
ATOM     31  C   UNL A   1      44.926  27.475  27.001  1.00  0.00     0.074 A 
ATOM     32  C   UNL A   1      44.961  26.073  26.643  1.00  0.00     0.031 C 
ATOM     33  C   UNL A   1      39.197  28.105  29.817  1.00  0.00     0.029 A 
ATOM     34  C   UNL A   1      40.250  29.113  29.691  1.00  0.00     0.049 A 
ATOM     35  H   UNL A   1      42.106  28.891  28.775  1.00  0.00     0.167 HD
ATOM     36  C   UNL A   1      45.916  28.357  26.727  1.00  0.00     0.037 A 
ATOM     37  C   UNL A   1      40.187  30.378  30.149  1.00  0.00     0.037 A 
ATOM     38  C   UNL A   1      45.900  29.747  27.098  1.00  0.00     0.049 A 
ATOM     39  C   UNL A   1      41.326  31.328  29.876  1.00  0.00     0.074 A 
ATOM     40  C   UNL A   1      46.859  30.717  26.861  1.00  0.00     0.029 A 
ATOM     41  N   UNL A   1      44.873  30.364  27.796  1.00  0.00    -0.354 N 
ATOM     42  N   UNL A   1      42.448  31.117  29.232  1.00  0.00    -0.248 NA
ATOM     43  C   UNL A   1      41.176  32.702  30.379  1.00  0.00     0.031 C 
ATOM     44  C   UNL A   1      46.430  31.912  27.450  1.00  0.00     0.029 A 
ATOM     45  C   UNL A   1      45.183  31.698  28.014  1.00  0.00     0.049 A 
ATOM     46  H   UNL A   1      44.045  29.922  28.092  1.00  0.00     0.167 HD
ATOM     47  C   UNL A   1      43.121  32.333  29.228  1.00  0.00     0.074 A 
ATOM     48  C   UNL A   1      42.274  33.283  29.917  1.00  0.00     0.031 C 
ATOM     49  C   UNL A   1      44.333  32.635  28.700  1.00  0.00     0.037 A 
BRANCH  36  50
ATOM     50  C   UNL A   1      47.109  27.838  25.979  1.00  0.00     0.064 A 
ATOM     51  C   UNL A   1      48.245  27.372  26.658  1.00  0.00     0.173 A 
ATOM     52  C   UNL A   1      47.104  27.772  24.579  1.00  0.00     0.173 A 
ATOM     53  F   UNL A   1      48.303  27.428  27.997  1.00  0.00    -0.203 F 
ATOM     54  C   UNL A   1      49.343  26.877  25.959  1.00  0.00     0.198 A 
ATOM     55  C   UNL A   1      48.194  27.252  23.884  1.00  0.00     0.198 A 
ATOM     56  F   UNL A   1      46.040  28.203  23.884  1.00  0.00    -0.203 F 
ATOM     57  F   UNL A   1      50.433  26.475  26.626  1.00  0.00    -0.200 F 
ATOM     58  C   UNL A   1      49.313  26.811  24.575  1.00  0.00     0.200 A 
ATOM     59  F   UNL A   1      48.161  27.181  22.546  1.00  0.00    -0.200 F 
ATOM     60  F   UNL A   1      50.368  26.329  23.903  1.00  0.00    -0.200 F 
ENDBRANCH  36  50
BRANCH  37  61
ATOM     61  C   UNL A   1      38.994  30.835  30.907  1.00  0.00     0.064 A 
ATOM     62  C   UNL A   1      38.924  30.704  32.302  1.00  0.00     0.173 A 
ATOM     63  C   UNL A   1      37.883  31.377  30.245  1.00  0.00     0.173 A 
ATOM     64  F   UNL A   1      39.950  30.164  32.975  1.00  0.00    -0.203 F 
ATOM     65  C   UNL A   1      37.777  31.071  33.001  1.00  0.00     0.198 A 
ATOM     66  C   UNL A   1      36.747  31.769  30.949  1.00  0.00     0.198 A 
ATOM     67  F   UNL A   1      37.900  31.519  28.911  1.00  0.00    -0.203 F 
ATOM     68  F   UNL A   1      37.713  30.881  34.326  1.00  0.00    -0.200 F 
ATOM     69  C   UNL A   1      36.691  31.607  32.325  1.00  0.00     0.200 A 
ATOM     70  F   UNL A   1      35.703  32.292  30.293  1.00  0.00    -0.200 F 
ATOM     71  F   UNL A   1      35.583  31.953  32.997  1.00  0.00    -0.200 F 
ENDBRANCH  37  61
BRANCH  49  72
ATOM     72  C   UNL A   1      44.805  34.056  28.825  1.00  0.00     0.064 A 
ATOM     73  C   UNL A   1      45.591  34.478  29.909  1.00  0.00     0.173 A 
ATOM     74  C   UNL A   1      44.487  35.002  27.839  1.00  0.00     0.173 A 
ATOM     75  F   UNL A   1      45.911  33.615  30.886  1.00  0.00    -0.203 F 
ATOM     76  C   UNL A   1      46.012  35.800  30.016  1.00  0.00     0.198 A 
ATOM     77  C   UNL A   1      44.934  36.317  27.935  1.00  0.00     0.198 A 
ATOM     78  F   UNL A   1      43.746  34.651  26.778  1.00  0.00    -0.203 F 
ATOM     79  F   UNL A   1      46.716  36.192  31.087  1.00  0.00    -0.200 F 
ATOM     80  C   UNL A   1      45.688  36.717  29.028  1.00  0.00     0.200 A 
ATOM     81  F   UNL A   1      44.632  37.199  26.972  1.00  0.00    -0.200 F 
ATOM     82  F   UNL A   1      46.095  37.990  29.133  1.00  0.00    -0.200 F 
ENDBRANCH  49  72
ENDBRANCH  23  24
ENDBRANCH  16  18
ENDBRANCH  15  16
ENDBRANCH  14  15
ENDBRANCH   1  14
TORSDOF 14
ENDMDL
MODEL 3
REMARK VINA RESULT:      -9.7      3.280      5.256
REMARK SMILES O=C(CSC(=S)N1CCCC1)OCCOC(=O)c1ccc(-c2c3nc(c(-c4c(F)c(F)c(F)c(F)c4F)c4ccc([nH]4)c(-c4c(F)c(F)c(F)c(F)c4F)c4nc(c(-c5c(F)c(F)c(F)c(F)c5F)c5ccc2[nH]5)C=C4)C=C3)cc1
REMARK SMILES IDX 13 1 12 2 2 3 1 4 3 5 4 6 5 7 6 8 7 9 8 10 11 11 9 12 10 13
REMARK SMILES IDX 14 14 15 15 16 16 17 17 18 18 19 19 80 20 20 21 79 22 21 23
REMARK SMILES IDX 22 24 23 25 73 26 24 27 78 28 72 29 74 30 25 31 77 32 71 33
REMARK SMILES IDX 70 34 26 36 58 37 38 38 57 39 39 40 42 41 56 42 75 43 40 44
REMARK SMILES IDX 41 45 55 47 76 48 43 49 27 50 28 51 36 52 29 53 30 54 34 55
REMARK SMILES IDX 37 56 31 57 32 58 35 59 33 60 59 61 60 62 68 63 61 64 62 65
REMARK SMILES IDX 66 66 69 67 63 68 64 69 67 70 65 71 44 72 45 73 53 74 46 75
REMARK SMILES IDX 47 76 51 77 54 78 48 79 49 80 52 81 50 82
REMARK H PARENT 74 35 42 46
REMARK Flexibility Score: inf
ROOT
ATOM      1  C   UNL A   1      31.932  29.585  25.211  1.00  0.00     0.274 C 
ENDROOT
BRANCH   1   2
ATOM      2  O   UNL A   1      30.943  29.456  24.167  1.00  0.00    -0.461 OA
BRANCH   2   3
ATOM      3  C   UNL A   1      31.114  28.824  22.980  1.00  0.00     0.316 C 
ATOM      4  O   UNL A   1      30.253  28.929  22.109  1.00  0.00    -0.251 OA
BRANCH   3   5
ATOM      5  C   UNL A   1      32.349  27.979  22.759  1.00  0.00     0.199 C 
BRANCH   5   6
ATOM      6  S   UNL A   1      32.027  26.217  22.855  1.00  0.00    -0.085 SA
BRANCH   6   7
ATOM      7  C   UNL A   1      31.560  25.899  24.518  1.00  0.00     0.136 C 
ATOM      8  S   UNL A   1      30.021  25.953  25.168  1.00  0.00    -0.053 S 
BRANCH   7   9
ATOM      9  N   UNL A   1      32.637  25.464  25.270  1.00  0.00    -0.358 N 
ATOM     10  C   UNL A   1      34.027  25.870  25.088  1.00  0.00     0.118 C 
ATOM     11  C   UNL A   1      32.570  24.193  25.985  1.00  0.00     0.118 C 
ATOM     12  C   UNL A   1      34.784  24.557  25.122  1.00  0.00     0.023 C 
ATOM     13  C   UNL A   1      34.023  23.774  26.187  1.00  0.00     0.023 C 
ENDBRANCH   7   9
ENDBRANCH   6   7
ENDBRANCH   5   6
ENDBRANCH   3   5
ENDBRANCH   2   3
ENDBRANCH   1   2
BRANCH   1  14
ATOM     14  C   UNL A   1      31.680  30.828  26.068  1.00  0.00     0.275 C 
BRANCH  14  15
ATOM     15  O   UNL A   1      32.518  30.795  27.238  1.00  0.00    -0.458 OA
BRANCH  15  16
ATOM     16  C   UNL A   1      33.274  31.900  27.451  1.00  0.00     0.338 C 
ATOM     17  O   UNL A   1      32.902  33.060  27.410  1.00  0.00    -0.246 OA
BRANCH  16  18
ATOM     18  C   UNL A   1      34.611  31.487  27.939  1.00  0.00     0.060 A 
ATOM     19  C   UNL A   1      34.800  30.136  28.257  1.00  0.00     0.016 A 
ATOM     20  C   UNL A   1      35.670  32.392  28.066  1.00  0.00     0.016 A 
ATOM     21  C   UNL A   1      36.033  29.700  28.745  1.00  0.00     0.010 A 
ATOM     22  C   UNL A   1      36.906  31.952  28.553  1.00  0.00     0.010 A 
ATOM     23  C   UNL A   1      37.085  30.609  28.925  1.00  0.00    -0.014 A 
BRANCH  23  24
ATOM     24  C   UNL A   1      38.319  30.164  29.619  1.00  0.00     0.031 A 
ATOM     25  C   UNL A   1      38.596  30.656  31.013  1.00  0.00     0.074 A 
ATOM     26  C   UNL A   1      39.164  29.294  29.038  1.00  0.00     0.049 A 
ATOM     27  N   UNL A   1      39.558  30.322  31.836  1.00  0.00    -0.248 NA
ATOM     28  C   UNL A   1      37.664  31.658  31.551  1.00  0.00     0.031 C 
ATOM     29  C   UNL A   1      39.019  28.744  27.692  1.00  0.00     0.029 A 
ATOM     30  N   UNL A   1      40.315  28.717  29.516  1.00  0.00    -0.354 N 
ATOM     31  C   UNL A   1      39.329  31.048  32.998  1.00  0.00     0.074 A 
ATOM     32  C   UNL A   1      38.175  31.887  32.752  1.00  0.00     0.031 C 
ATOM     33  C   UNL A   1      40.045  27.910  27.450  1.00  0.00     0.029 A 
ATOM     34  C   UNL A   1      40.919  27.869  28.622  1.00  0.00     0.049 A 
ATOM     35  H   UNL A   1      40.673  28.896  30.416  1.00  0.00     0.167 HD
ATOM     36  C   UNL A   1      39.999  30.999  34.174  1.00  0.00     0.037 A 
ATOM     37  C   UNL A   1      42.045  27.140  28.739  1.00  0.00     0.037 A 
ATOM     38  C   UNL A   1      41.159  30.184  34.421  1.00  0.00     0.049 A 
ATOM     39  C   UNL A   1      42.804  27.141  30.042  1.00  0.00     0.074 A 
ATOM     40  C   UNL A   1      41.903  30.069  35.583  1.00  0.00     0.029 A 
ATOM     41  N   UNL A   1      41.751  29.351  33.485  1.00  0.00    -0.354 N 
ATOM     42  N   UNL A   1      42.542  27.782  31.155  1.00  0.00    -0.248 NA
ATOM     43  C   UNL A   1      44.008  26.298  30.108  1.00  0.00     0.031 C 
ATOM     44  C   UNL A   1      42.969  29.196  35.337  1.00  0.00     0.029 A 
ATOM     45  C   UNL A   1      42.862  28.732  34.036  1.00  0.00     0.049 A 
ATOM     46  H   UNL A   1      41.429  29.217  32.563  1.00  0.00     0.167 HD
ATOM     47  C   UNL A   1      43.526  27.398  32.058  1.00  0.00     0.074 A 
ATOM     48  C   UNL A   1      44.381  26.455  31.370  1.00  0.00     0.031 C 
ATOM     49  C   UNL A   1      43.705  27.794  33.343  1.00  0.00     0.037 A 
BRANCH  36  50
ATOM     50  C   UNL A   1      39.484  31.855  35.293  1.00  0.00     0.064 A 
ATOM     51  C   UNL A   1      38.596  31.341  36.250  1.00  0.00     0.173 A 
ATOM     52  C   UNL A   1      39.907  33.185  35.431  1.00  0.00     0.173 A 
ATOM     53  F   UNL A   1      38.152  30.080  36.151  1.00  0.00    -0.203 F 
ATOM     54  C   UNL A   1      38.133  32.136  37.296  1.00  0.00     0.198 A 
ATOM     55  C   UNL A   1      39.462  33.969  36.493  1.00  0.00     0.198 A 
ATOM     56  F   UNL A   1      40.757  33.721  34.543  1.00  0.00    -0.203 F 
ATOM     57  F   UNL A   1      37.254  31.638  38.175  1.00  0.00    -0.200 F 
ATOM     58  C   UNL A   1      38.572  33.446  37.420  1.00  0.00     0.200 A 
ATOM     59  F   UNL A   1      39.893  35.232  36.618  1.00  0.00    -0.200 F 
ATOM     60  F   UNL A   1      38.130  34.208  38.430  1.00  0.00    -0.200 F 
ENDBRANCH  36  50
BRANCH  37  61
ATOM     61  C   UNL A   1      42.527  26.328  27.592  1.00  0.00     0.064 A 
ATOM     62  C   UNL A   1      42.058  25.024  27.375  1.00  0.00     0.173 A 
ATOM     63  C   UNL A   1      43.498  26.828  26.712  1.00  0.00     0.173 A 
ATOM     64  F   UNL A   1      41.151  24.493  28.208  1.00  0.00    -0.203 F 
ATOM     65  C   UNL A   1      42.562  24.242  26.339  1.00  0.00     0.198 A 
ATOM     66  C   UNL A   1      43.982  26.054  25.659  1.00  0.00     0.198 A 
ATOM     67  F   UNL A   1      43.981  28.068  26.879  1.00  0.00    -0.203 F 
ATOM     68  F   UNL A   1      42.140  22.979  26.189  1.00  0.00    -0.200 F 
ATOM     69  C   UNL A   1      43.521  24.758  25.480  1.00  0.00     0.200 A 
ATOM     70  F   UNL A   1      44.903  26.559  24.828  1.00  0.00    -0.200 F 
ATOM     71  F   UNL A   1      44.012  24.003  24.487  1.00  0.00    -0.200 F 
ENDBRANCH  37  61
BRANCH  49  72
ATOM     72  C   UNL A   1      44.856  27.187  34.096  1.00  0.00     0.064 A 
ATOM     73  C   UNL A   1      46.118  27.801  34.131  1.00  0.00     0.173 A 
ATOM     74  C   UNL A   1      44.689  25.991  34.811  1.00  0.00     0.173 A 
ATOM     75  F   UNL A   1      46.333  28.939  33.454  1.00  0.00    -0.203 F 
ATOM     76  C   UNL A   1      47.176  27.222  34.826  1.00  0.00     0.198 A 
ATOM     77  C   UNL A   1      45.743  25.431  35.527  1.00  0.00     0.198 A 
ATOM     78  F   UNL A   1      43.502  25.368  34.818  1.00  0.00    -0.203 F 
ATOM     79  F   UNL A   1      48.386  27.799  34.801  1.00  0.00    -0.200 F 
ATOM     80  C   UNL A   1      46.987  26.041  35.527  1.00  0.00     0.200 A 
ATOM     81  F   UNL A   1      45.555  24.296  36.216  1.00  0.00    -0.200 F 
ATOM     82  F   UNL A   1      48.008  25.486  36.195  1.00  0.00    -0.200 F 
ENDBRANCH  49  72
ENDBRANCH  23  24
ENDBRANCH  16  18
ENDBRANCH  15  16
ENDBRANCH  14  15
ENDBRANCH   1  14
TORSDOF 14
ENDMDL
