MODEL 1
REMARK VINA RESULT:     -11.3      0.000      0.000
REMARK SMILES CCC(CC)(Nc1ccc(Br)cc1[N+](=O)[O-])C(=O)OCCOC(=O)c1ccc(-c2c3nc(c(-c4c(F)c(F)c(F)c(F)c4F)c4ccc([nH]4)c(-c4c(F)c(F)c(F)c(F)c4F)c4nc(c(-c5c(F)c(F)c(F)c(F)c5F)c5ccc2[nH]5)C=C4)C=C3)cc1
REMARK SMILES IDX 20 1 19 2 17 3 18 4 3 5 2 6 1 7 4 8 5 9 6 10 7 12 8 13 13 14
REMARK SMILES IDX 9 15 12 16 10 17 11 18 14 19 15 20 16 21 21 22 22 23 23 24
REMARK SMILES IDX 24 25 25 26 26 27 87 28 27 29 86 30 28 31 29 32 30 33 80 34
REMARK SMILES IDX 31 35 85 36 79 37 81 38 32 39 84 40 78 41 77 42 33 44 65 45
REMARK SMILES IDX 45 46 64 47 46 48 49 49 63 50 82 51 47 52 48 53 62 55 83 56
REMARK SMILES IDX 50 57 34 58 35 59 43 60 36 61 37 62 41 63 44 64 38 65 39 66
REMARK SMILES IDX 42 67 40 68 66 69 67 70 75 71 68 72 69 73 73 74 76 75 70 76
REMARK SMILES IDX 71 77 74 78 72 79 51 80 52 81 60 82 53 83 54 84 58 85 61 86
REMARK SMILES IDX 55 87 56 88 59 89 57 90
REMARK H PARENT 6 11 81 43 49 54
REMARK Flexibility Score: inf
ROOT
ATOM      1  C   UNL A   1      31.927  28.069  26.871  1.00  0.00     0.274 C 
ENDROOT
BRANCH   1   2
ATOM      2  O   UNL A   1      32.633  27.023  26.171  1.00  0.00    -0.460 OA
BRANCH   2   3
ATOM      3  C   UNL A   1      32.052  25.803  26.077  1.00  0.00     0.331 C 
ATOM      4  O   UNL A   1      31.425  25.308  27.009  1.00  0.00    -0.249 OA
BRANCH   3   5
ATOM      5  C   UNL A   1      32.350  25.043  24.738  1.00  0.00     0.135 C 
BRANCH   5   6
ATOM      6  C   UNL A   1      31.589  23.666  24.749  1.00  0.00     0.037 C 
ATOM      7  C   UNL A   1      31.417  22.912  23.437  1.00  0.00     0.007 C 
ENDBRANCH   5   6
BRANCH   5   8
ATOM      8  C   UNL A   1      33.886  24.864  24.674  1.00  0.00     0.037 C 
ATOM      9  C   UNL A   1      34.493  23.989  25.766  1.00  0.00     0.007 C 
ENDBRANCH   5   8
BRANCH   5  10
ATOM     10  N   UNL A   1      31.885  25.679  23.461  1.00  0.00    -0.364 N 
ATOM     11  H   UNL A   1      32.125  25.169  22.654  1.00  0.00     0.161 HD
BRANCH  10  12
ATOM     12  C   UNL A   1      31.187  26.840  23.196  1.00  0.00     0.114 A 
ATOM     13  C   UNL A   1      29.819  26.933  23.484  1.00  0.00     0.034 A 
ATOM     14  C   UNL A   1      31.791  27.980  22.607  1.00  0.00     0.293 A 
ATOM     15  C   UNL A   1      29.065  28.062  23.138  1.00  0.00     0.018 A 
ATOM     16  C   UNL A   1      31.043  29.119  22.256  1.00  0.00     0.103 A 
ATOM     17  C   UNL A   1      29.678  29.141  22.512  1.00  0.00     0.024 A 
ATOM     18  Br  UNL A   1      28.652  30.649  22.020  1.00  0.00    -0.051 Br
BRANCH  14  19
ATOM     19  N   UNL A   1      33.241  28.025  22.352  1.00  0.00     0.065 N 
ATOM     20  O   UNL A   1      33.729  27.147  21.625  1.00  0.00    -0.258 OA
ATOM     21  O   UNL A   1      33.896  28.953  22.853  1.00  0.00    -0.258 OA
ENDBRANCH  14  19
ENDBRANCH  10  12
ENDBRANCH   5  10
ENDBRANCH   3   5
ENDBRANCH   2   3
ENDBRANCH   1   2
BRANCH   1  22
ATOM     22  C   UNL A   1      31.778  29.285  25.963  1.00  0.00     0.275 C 
BRANCH  22  23
ATOM     23  O   UNL A   1      33.040  29.969  25.925  1.00  0.00    -0.458 OA
BRANCH  23  24
ATOM     24  C   UNL A   1      33.229  30.930  26.856  1.00  0.00     0.338 C 
ATOM     25  O   UNL A   1      32.469  31.828  27.167  1.00  0.00    -0.246 OA
BRANCH  24  26
ATOM     26  C   UNL A   1      34.540  30.703  27.490  1.00  0.00     0.060 A 
ATOM     27  C   UNL A   1      34.990  29.397  27.685  1.00  0.00     0.016 A 
ATOM     28  C   UNL A   1      35.287  31.779  27.964  1.00  0.00     0.016 A 
ATOM     29  C   UNL A   1      36.150  29.151  28.413  1.00  0.00     0.010 A 
ATOM     30  C   UNL A   1      36.494  31.536  28.627  1.00  0.00     0.010 A 
ATOM     31  C   UNL A   1      36.920  30.218  28.890  1.00  0.00    -0.014 A 
BRANCH  31  32
ATOM     32  C   UNL A   1      38.122  29.968  29.730  1.00  0.00     0.031 A 
ATOM     33  C   UNL A   1      39.248  29.135  29.181  1.00  0.00     0.074 A 
ATOM     34  C   UNL A   1      38.230  30.494  30.966  1.00  0.00     0.049 A 
ATOM     35  N   UNL A   1      40.285  28.627  29.799  1.00  0.00    -0.248 NA
ATOM     36  C   UNL A   1      39.193  28.822  27.745  1.00  0.00     0.031 C 
ATOM     37  C   UNL A   1      37.254  31.377  31.602  1.00  0.00     0.029 A 
ATOM     38  N   UNL A   1      39.223  30.363  31.906  1.00  0.00    -0.354 N 
ATOM     39  C   UNL A   1      40.964  27.882  28.844  1.00  0.00     0.074 A 
ATOM     40  C   UNL A   1      40.230  28.012  27.603  1.00  0.00     0.031 C 
ATOM     41  C   UNL A   1      37.712  31.739  32.812  1.00  0.00     0.029 A 
ATOM     42  C   UNL A   1      38.974  31.051  33.068  1.00  0.00     0.049 A 
ATOM     43  H   UNL A   1      40.037  29.828  31.761  1.00  0.00     0.167 HD
ATOM     44  C   UNL A   1      42.094  27.150  28.993  1.00  0.00     0.037 A 
ATOM     45  C   UNL A   1      39.667  31.095  34.222  1.00  0.00     0.037 A 
ATOM     46  C   UNL A   1      42.861  27.075  30.207  1.00  0.00     0.049 A 
ATOM     47  C   UNL A   1      40.912  30.265  34.369  1.00  0.00     0.074 A 
ATOM     48  C   UNL A   1      44.017  26.356  30.459  1.00  0.00     0.029 A 
ATOM     49  N   UNL A   1      42.561  27.770  31.369  1.00  0.00    -0.354 N 
ATOM     50  N   UNL A   1      41.497  29.489  33.491  1.00  0.00    -0.248 NA
ATOM     51  C   UNL A   1      41.579  30.298  35.679  1.00  0.00     0.031 C 
ATOM     52  C   UNL A   1      44.407  26.603  31.781  1.00  0.00     0.029 A 
ATOM     53  C   UNL A   1      43.509  27.497  32.341  1.00  0.00     0.049 A 
ATOM     54  H   UNL A   1      41.787  28.368  31.486  1.00  0.00     0.167 HD
ATOM     55  C   UNL A   1      42.600  28.947  34.136  1.00  0.00     0.074 A 
ATOM     56  C   UNL A   1      42.616  29.498  35.474  1.00  0.00     0.031 C 
ATOM     57  C   UNL A   1      43.512  28.062  33.665  1.00  0.00     0.037 A 
BRANCH  44  58
ATOM     58  C   UNL A   1      42.545  26.337  27.817  1.00  0.00     0.064 A 
ATOM     59  C   UNL A   1      42.016  25.068  27.546  1.00  0.00     0.173 A 
ATOM     60  C   UNL A   1      43.513  26.849  26.941  1.00  0.00     0.173 A 
ATOM     61  F   UNL A   1      41.100  24.529  28.364  1.00  0.00    -0.203 F 
ATOM     62  C   UNL A   1      42.457  24.331  26.449  1.00  0.00     0.198 A 
ATOM     63  C   UNL A   1      43.936  26.120  25.834  1.00  0.00     0.198 A 
ATOM     64  F   UNL A   1      44.049  28.061  27.158  1.00  0.00    -0.203 F 
ATOM     65  F   UNL A   1      41.968  23.103  26.229  1.00  0.00    -0.200 F 
ATOM     66  C   UNL A   1      43.412  24.859  25.592  1.00  0.00     0.200 A 
ATOM     67  F   UNL A   1      44.851  26.635  25.002  1.00  0.00    -0.200 F 
ATOM     68  F   UNL A   1      43.832  24.148  24.536  1.00  0.00    -0.200 F 
ENDBRANCH  44  58
BRANCH  45  69
ATOM     69  C   UNL A   1      39.180  31.934  35.347  1.00  0.00     0.064 A 
ATOM     70  C   UNL A   1      38.406  31.376  36.375  1.00  0.00     0.173 A 
ATOM     71  C   UNL A   1      39.471  33.304  35.417  1.00  0.00     0.173 A 
ATOM     72  F   UNL A   1      38.076  30.077  36.335  1.00  0.00    -0.203 F 
ATOM     73  C   UNL A   1      37.937  32.160  37.426  1.00  0.00     0.198 A 
ATOM     74  C   UNL A   1      39.023  34.081  36.482  1.00  0.00     0.198 A 
ATOM     75  F   UNL A   1      40.203  33.884  34.455  1.00  0.00    -0.203 F 
ATOM     76  F   UNL A   1      37.169  31.612  38.378  1.00  0.00    -0.200 F 
ATOM     77  C   UNL A   1      38.252  33.510  37.483  1.00  0.00     0.200 A 
ATOM     78  F   UNL A   1      39.337  35.381  36.538  1.00  0.00    -0.200 F 
ATOM     79  F   UNL A   1      37.806  34.262  38.499  1.00  0.00    -0.200 F 
ENDBRANCH  45  69
BRANCH  57  80
ATOM     80  C   UNL A   1      44.614  27.658  34.596  1.00  0.00     0.064 A 
ATOM     81  C   UNL A   1      44.484  26.548  35.441  1.00  0.00     0.173 A 
ATOM     82  C   UNL A   1      45.821  28.371  34.621  1.00  0.00     0.173 A 
ATOM     83  F   UNL A   1      43.341  25.846  35.463  1.00  0.00    -0.203 F 
ATOM     84  C   UNL A   1      45.518  26.177  36.295  1.00  0.00     0.198 A 
ATOM     85  C   UNL A   1      46.861  27.986  35.461  1.00  0.00     0.198 A 
ATOM     86  F   UNL A   1      45.991  29.440  33.827  1.00  0.00    -0.203 F 
ATOM     87  F   UNL A   1      45.361  25.135  37.123  1.00  0.00    -0.200 F 
ATOM     88  C   UNL A   1      46.707  26.893  36.301  1.00  0.00     0.200 A 
ATOM     89  F   UNL A   1      48.010  28.675  35.464  1.00  0.00    -0.200 F 
ATOM     90  F   UNL A   1      47.702  26.534  37.124  1.00  0.00    -0.200 F 
ENDBRANCH  57  80
ENDBRANCH  31  32
ENDBRANCH  24  26
ENDBRANCH  23  24
ENDBRANCH  22  23
ENDBRANCH   1  22
TORSDOF 16
ENDMDL
MODEL 2
REMARK VINA RESULT:     -11.2      1.808      3.117
REMARK SMILES CCC(CC)(Nc1ccc(Br)cc1[N+](=O)[O-])C(=O)OCCOC(=O)c1ccc(-c2c3nc(c(-c4c(F)c(F)c(F)c(F)c4F)c4ccc([nH]4)c(-c4c(F)c(F)c(F)c(F)c4F)c4nc(c(-c5c(F)c(F)c(F)c(F)c5F)c5ccc2[nH]5)C=C4)C=C3)cc1
REMARK SMILES IDX 20 1 19 2 17 3 18 4 3 5 2 6 1 7 4 8 5 9 6 10 7 12 8 13 13 14
REMARK SMILES IDX 9 15 12 16 10 17 11 18 14 19 15 20 16 21 21 22 22 23 23 24
REMARK SMILES IDX 24 25 25 26 26 27 87 28 27 29 86 30 28 31 29 32 30 33 80 34
REMARK SMILES IDX 31 35 85 36 79 37 81 38 32 39 84 40 78 41 77 42 33 44 65 45
REMARK SMILES IDX 45 46 64 47 46 48 49 49 63 50 82 51 47 52 48 53 62 55 83 56
REMARK SMILES IDX 50 57 34 58 35 59 43 60 36 61 37 62 41 63 44 64 38 65 39 66
REMARK SMILES IDX 42 67 40 68 66 69 67 70 75 71 68 72 69 73 73 74 76 75 70 76
REMARK SMILES IDX 71 77 74 78 72 79 51 80 52 81 60 82 53 83 54 84 58 85 61 86
REMARK SMILES IDX 55 87 56 88 59 89 57 90
REMARK H PARENT 6 11 81 43 49 54
REMARK Flexibility Score: inf
ROOT
ATOM      1  C   UNL A   1      31.429  28.827  26.372  1.00  0.00     0.274 C 
ENDROOT
BRANCH   1   2
ATOM      2  O   UNL A   1      31.321  27.929  25.247  1.00  0.00    -0.460 OA
BRANCH   2   3
ATOM      3  C   UNL A   1      30.940  26.649  25.477  1.00  0.00     0.331 C 
ATOM      4  O   UNL A   1      30.433  26.302  26.540  1.00  0.00    -0.249 OA
BRANCH   3   5
ATOM      5  C   UNL A   1      31.312  25.646  24.331  1.00  0.00     0.135 C 
BRANCH   5   6
ATOM      6  C   UNL A   1      32.870  25.427  24.325  1.00  0.00     0.037 C 
ATOM      7  C   UNL A   1      33.651  25.680  25.608  1.00  0.00     0.007 C 
ENDBRANCH   5   6
BRANCH   5   8
ATOM      8  C   UNL A   1      30.804  26.282  23.014  1.00  0.00     0.037 C 
ATOM      9  C   UNL A   1      31.788  26.257  21.849  1.00  0.00     0.007 C 
ENDBRANCH   5   8
BRANCH   5  10
ATOM     10  N   UNL A   1      30.772  24.249  24.430  1.00  0.00    -0.364 N 
ATOM     11  H   UNL A   1      29.795  24.208  24.542  1.00  0.00     0.161 HD
BRANCH  10  12
ATOM     12  C   UNL A   1      31.378  23.009  24.395  1.00  0.00     0.114 A 
ATOM     13  C   UNL A   1      31.718  22.413  23.174  1.00  0.00     0.034 A 
ATOM     14  C   UNL A   1      31.668  22.264  25.567  1.00  0.00     0.293 A 
ATOM     15  C   UNL A   1      32.245  21.117  23.104  1.00  0.00     0.018 A 
ATOM     16  C   UNL A   1      32.198  20.962  25.508  1.00  0.00     0.103 A 
ATOM     17  C   UNL A   1      32.467  20.394  24.270  1.00  0.00     0.024 A 
ATOM     18  Br  UNL A   1      33.150  18.635  24.169  1.00  0.00    -0.051 Br
BRANCH  14  19
ATOM     19  N   UNL A   1      31.441  22.836  26.906  1.00  0.00     0.065 N 
ATOM     20  O   UNL A   1      32.422  22.977  27.650  1.00  0.00    -0.258 OA
ATOM     21  O   UNL A   1      30.285  23.173  27.211  1.00  0.00    -0.258 OA
ENDBRANCH  14  19
ENDBRANCH  10  12
ENDBRANCH   5  10
ENDBRANCH   3   5
ENDBRANCH   2   3
ENDBRANCH   1   2
BRANCH   1  22
ATOM     22  C   UNL A   1      31.764  30.230  25.877  1.00  0.00     0.275 C 
BRANCH  22  23
ATOM     23  O   UNL A   1      33.153  30.476  26.146  1.00  0.00    -0.458 OA
BRANCH  23  24
ATOM     24  C   UNL A   1      33.427  31.438  27.053  1.00  0.00     0.338 C 
ATOM     25  O   UNL A   1      32.739  32.396  27.357  1.00  0.00    -0.246 OA
BRANCH  24  26
ATOM     26  C   UNL A   1      34.729  31.129  27.670  1.00  0.00     0.060 A 
ATOM     27  C   UNL A   1      35.043  29.806  27.982  1.00  0.00     0.016 A 
ATOM     28  C   UNL A   1      35.605  32.156  28.014  1.00  0.00     0.016 A 
ATOM     29  C   UNL A   1      36.196  29.504  28.699  1.00  0.00     0.010 A 
ATOM     30  C   UNL A   1      36.804  31.845  28.665  1.00  0.00     0.010 A 
ATOM     31  C   UNL A   1      37.095  30.520  29.046  1.00  0.00    -0.014 A 
BRANCH  31  32
ATOM     32  C   UNL A   1      38.294  30.219  29.874  1.00  0.00     0.031 A 
ATOM     33  C   UNL A   1      39.399  29.376  29.297  1.00  0.00     0.074 A 
ATOM     34  C   UNL A   1      38.418  30.709  31.123  1.00  0.00     0.049 A 
ATOM     35  N   UNL A   1      40.425  28.828  29.897  1.00  0.00    -0.248 NA
ATOM     36  C   UNL A   1      39.330  29.104  27.854  1.00  0.00     0.031 C 
ATOM     37  C   UNL A   1      37.466  31.597  31.787  1.00  0.00     0.029 A 
ATOM     38  N   UNL A   1      39.412  30.531  32.055  1.00  0.00    -0.354 N 
ATOM     39  C   UNL A   1      41.084  28.094  28.919  1.00  0.00     0.074 A 
ATOM     40  C   UNL A   1      40.349  28.275  27.686  1.00  0.00     0.031 C 
ATOM     41  C   UNL A   1      37.936  31.915  33.004  1.00  0.00     0.029 A 
ATOM     42  C   UNL A   1      39.183  31.192  33.237  1.00  0.00     0.049 A 
ATOM     43  H   UNL A   1      40.212  29.981  31.892  1.00  0.00     0.167 HD
ATOM     44  C   UNL A   1      42.197  27.333  29.043  1.00  0.00     0.037 A 
ATOM     45  C   UNL A   1      39.880  31.188  34.388  1.00  0.00     0.037 A 
ATOM     46  C   UNL A   1      42.966  27.208  30.252  1.00  0.00     0.049 A 
ATOM     47  C   UNL A   1      41.107  30.327  34.507  1.00  0.00     0.074 A 
ATOM     48  C   UNL A   1      44.106  26.456  30.479  1.00  0.00     0.029 A 
ATOM     49  N   UNL A   1      42.687  27.877  31.434  1.00  0.00    -0.354 N 
ATOM     50  N   UNL A   1      41.671  29.562  33.606  1.00  0.00    -0.248 NA
ATOM     51  C   UNL A   1      41.779  30.309  35.815  1.00  0.00     0.031 C 
ATOM     52  C   UNL A   1      44.507  26.657  31.806  1.00  0.00     0.029 A 
ATOM     53  C   UNL A   1      43.632  27.557  32.394  1.00  0.00     0.049 A 
ATOM     54  H   UNL A   1      41.927  28.489  31.570  1.00  0.00     0.167 HD
ATOM     55  C   UNL A   1      42.763  28.978  34.231  1.00  0.00     0.074 A 
ATOM     56  C   UNL A   1      42.797  29.492  35.584  1.00  0.00     0.031 C 
ATOM     57  C   UNL A   1      43.653  28.085  33.732  1.00  0.00     0.037 A 
BRANCH  44  58
ATOM     58  C   UNL A   1      42.625  26.542  27.845  1.00  0.00     0.064 A 
ATOM     59  C   UNL A   1      42.116  25.263  27.579  1.00  0.00     0.173 A 
ATOM     60  C   UNL A   1      43.550  27.085  26.941  1.00  0.00     0.173 A 
ATOM     61  F   UNL A   1      41.241  24.696  28.423  1.00  0.00    -0.203 F 
ATOM     62  C   UNL A   1      42.535  24.547  26.460  1.00  0.00     0.198 A 
ATOM     63  C   UNL A   1      43.950  26.376  25.812  1.00  0.00     0.198 A 
ATOM     64  F   UNL A   1      44.065  28.307  27.152  1.00  0.00    -0.203 F 
ATOM     65  F   UNL A   1      42.066  23.311  26.244  1.00  0.00    -0.200 F 
ATOM     66  C   UNL A   1      43.447  25.106  25.575  1.00  0.00     0.200 A 
ATOM     67  F   UNL A   1      44.824  26.921  24.954  1.00  0.00    -0.200 F 
ATOM     68  F   UNL A   1      43.846  24.415  24.498  1.00  0.00    -0.200 F 
ENDBRANCH  44  58
BRANCH  45  69
ATOM     69  C   UNL A   1      39.417  32.008  35.538  1.00  0.00     0.064 A 
ATOM     70  C   UNL A   1      39.878  33.320  35.715  1.00  0.00     0.173 A 
ATOM     71  C   UNL A   1      38.514  31.498  36.482  1.00  0.00     0.173 A 
ATOM     72  F   UNL A   1      40.766  33.839  34.855  1.00  0.00    -0.203 F 
ATOM     73  C   UNL A   1      39.456  34.089  36.797  1.00  0.00     0.198 A 
ATOM     74  C   UNL A   1      38.073  32.277  37.548  1.00  0.00     0.198 A 
ATOM     75  F   UNL A   1      38.049  30.246  36.359  1.00  0.00    -0.203 F 
ATOM     76  F   UNL A   1      39.938  35.328  36.964  1.00  0.00    -0.200 F 
ATOM     77  C   UNL A   1      38.548  33.570  37.708  1.00  0.00     0.200 A 
ATOM     78  F   UNL A   1      37.190  31.775  38.421  1.00  0.00    -0.200 F 
ATOM     79  F   UNL A   1      38.137  34.313  38.745  1.00  0.00    -0.200 F 
ENDBRANCH  45  69
BRANCH  57  80
ATOM     80  C   UNL A   1      44.749  27.631  34.647  1.00  0.00     0.064 A 
ATOM     81  C   UNL A   1      44.608  26.484  35.441  1.00  0.00     0.173 A 
ATOM     82  C   UNL A   1      45.961  28.334  34.709  1.00  0.00     0.173 A 
ATOM     83  F   UNL A   1      43.461  25.790  35.426  1.00  0.00    -0.203 F 
ATOM     84  C   UNL A   1      45.637  26.067  36.280  1.00  0.00     0.198 A 
ATOM     85  C   UNL A   1      46.995  27.903  35.534  1.00  0.00     0.198 A 
ATOM     86  F   UNL A   1      46.142  29.437  33.966  1.00  0.00    -0.203 F 
ATOM     87  F   UNL A   1      45.469  24.989  37.058  1.00  0.00    -0.200 F 
ATOM     88  C   UNL A   1      46.831  26.773  36.322  1.00  0.00     0.200 A 
ATOM     89  F   UNL A   1      48.149  28.583  35.572  1.00  0.00    -0.200 F 
ATOM     90  F   UNL A   1      47.820  26.370  37.131  1.00  0.00    -0.200 F 
ENDBRANCH  57  80
ENDBRANCH  31  32
ENDBRANCH  24  26
ENDBRANCH  23  24
ENDBRANCH  22  23
ENDBRANCH   1  22
TORSDOF 16
ENDMDL
MODEL 3
REMARK VINA RESULT:     -11.1      4.383      9.408
REMARK SMILES CCC(CC)(Nc1ccc(Br)cc1[N+](=O)[O-])C(=O)OCCOC(=O)c1ccc(-c2c3nc(c(-c4c(F)c(F)c(F)c(F)c4F)c4ccc([nH]4)c(-c4c(F)c(F)c(F)c(F)c4F)c4nc(c(-c5c(F)c(F)c(F)c(F)c5F)c5ccc2[nH]5)C=C4)C=C3)cc1
REMARK SMILES IDX 20 1 19 2 17 3 18 4 3 5 2 6 1 7 4 8 5 9 6 10 7 12 8 13 13 14
REMARK SMILES IDX 9 15 12 16 10 17 11 18 14 19 15 20 16 21 21 22 22 23 23 24
REMARK SMILES IDX 24 25 25 26 26 27 87 28 27 29 86 30 28 31 29 32 30 33 80 34
REMARK SMILES IDX 31 35 85 36 79 37 81 38 32 39 84 40 78 41 77 42 33 44 65 45
REMARK SMILES IDX 45 46 64 47 46 48 49 49 63 50 82 51 47 52 48 53 62 55 83 56
REMARK SMILES IDX 50 57 34 58 35 59 43 60 36 61 37 62 41 63 44 64 38 65 39 66
REMARK SMILES IDX 42 67 40 68 66 69 67 70 75 71 68 72 69 73 73 74 76 75 70 76
REMARK SMILES IDX 71 77 74 78 72 79 51 80 52 81 60 82 53 83 54 84 58 85 61 86
REMARK SMILES IDX 55 87 56 88 59 89 57 90
REMARK H PARENT 6 11 81 43 49 54
REMARK Flexibility Score: inf
ROOT
ATOM      1  C   UNL A   1      36.291  22.225  23.941  1.00  0.00     0.274 C 
ENDROOT
BRANCH   1   2
ATOM      2  O   UNL A   1      34.853  22.106  24.000  1.00  0.00    -0.460 OA
BRANCH   2   3
ATOM      3  C   UNL A   1      34.104  22.950  23.250  1.00  0.00     0.331 C 
ATOM      4  O   UNL A   1      34.470  23.336  22.144  1.00  0.00    -0.249 OA
BRANCH   3   5
ATOM      5  C   UNL A   1      32.810  23.474  23.961  1.00  0.00     0.135 C 
BRANCH   5   6
ATOM      6  C   UNL A   1      33.202  24.634  24.951  1.00  0.00     0.037 C 
ATOM      7  C   UNL A   1      34.173  24.333  26.085  1.00  0.00     0.007 C 
ENDBRANCH   5   6
BRANCH   5   8
ATOM      8  C   UNL A   1      32.194  22.259  24.696  1.00  0.00     0.037 C 
ATOM      9  C   UNL A   1      31.027  22.575  25.626  1.00  0.00     0.007 C 
ENDBRANCH   5   8
BRANCH   5  10
ATOM     10  N   UNL A   1      31.752  24.103  23.102  1.00  0.00    -0.364 N 
ATOM     11  H   UNL A   1      31.394  23.502  22.409  1.00  0.00     0.161 HD
BRANCH  10  12
ATOM     12  C   UNL A   1      31.183  25.360  23.092  1.00  0.00     0.114 A 
ATOM     13  C   UNL A   1      30.053  25.640  23.872  1.00  0.00     0.034 A 
ATOM     14  C   UNL A   1      31.680  26.421  22.291  1.00  0.00     0.293 A 
ATOM     15  C   UNL A   1      29.397  26.877  23.808  1.00  0.00     0.018 A 
ATOM     16  C   UNL A   1      31.029  27.667  22.222  1.00  0.00     0.103 A 
ATOM     17  C   UNL A   1      29.880  27.877  22.973  1.00  0.00     0.024 A 
ATOM     18  Br  UNL A   1      28.976  29.532  22.868  1.00  0.00    -0.051 Br
BRANCH  14  19
ATOM     19  N   UNL A   1      32.917  26.265  21.508  1.00  0.00     0.065 N 
ATOM     20  O   UNL A   1      33.946  26.811  21.933  1.00  0.00    -0.258 OA
ATOM     21  O   UNL A   1      32.876  25.573  20.477  1.00  0.00    -0.258 OA
ENDBRANCH  14  19
ENDBRANCH  10  12
ENDBRANCH   5  10
ENDBRANCH   3   5
ENDBRANCH   2   3
ENDBRANCH   1   2
BRANCH   1  22
ATOM     22  C   UNL A   1      36.932  21.110  24.760  1.00  0.00     0.275 C 
BRANCH  22  23
ATOM     23  O   UNL A   1      37.533  21.702  25.922  1.00  0.00    -0.458 OA
BRANCH  23  24
ATOM     24  C   UNL A   1      38.844  21.444  26.117  1.00  0.00     0.338 C 
ATOM     25  O   UNL A   1      39.440  20.403  25.907  1.00  0.00    -0.246 OA
BRANCH  24  26
ATOM     26  C   UNL A   1      39.485  22.674  26.616  1.00  0.00     0.060 A 
ATOM     27  C   UNL A   1      39.034  23.913  26.163  1.00  0.00     0.016 A 
ATOM     28  C   UNL A   1      40.583  22.597  27.469  1.00  0.00     0.016 A 
ATOM     29  C   UNL A   1      39.715  25.079  26.501  1.00  0.00     0.010 A 
ATOM     30  C   UNL A   1      41.221  23.775  27.873  1.00  0.00     0.010 A 
ATOM     31  C   UNL A   1      40.816  25.025  27.365  1.00  0.00    -0.014 A 
BRANCH  31  32
ATOM     32  C   UNL A   1      41.595  26.254  27.675  1.00  0.00     0.031 A 
ATOM     33  C   UNL A   1      40.978  27.324  28.534  1.00  0.00     0.074 A 
ATOM     34  C   UNL A   1      42.852  26.415  27.219  1.00  0.00     0.049 A 
ATOM     35  N   UNL A   1      41.388  28.546  28.762  1.00  0.00    -0.248 NA
ATOM     36  C   UNL A   1      39.724  26.973  29.219  1.00  0.00     0.031 C 
ATOM     37  C   UNL A   1      43.605  25.435  26.437  1.00  0.00     0.029 A 
ATOM     38  N   UNL A   1      43.722  27.468  27.359  1.00  0.00    -0.354 N 
ATOM     39  C   UNL A   1      40.410  29.128  29.558  1.00  0.00     0.074 A 
ATOM     40  C   UNL A   1      39.393  28.124  29.784  1.00  0.00     0.031 C 
ATOM     41  C   UNL A   1      44.835  25.917  26.197  1.00  0.00     0.029 A 
ATOM     42  C   UNL A   1      44.932  27.269  26.739  1.00  0.00     0.049 A 
ATOM     43  H   UNL A   1      43.501  28.288  27.856  1.00  0.00     0.167 HD
ATOM     44  C   UNL A   1      40.365  30.389  30.050  1.00  0.00     0.037 A 
ATOM     45  C   UNL A   1      45.985  28.096  26.593  1.00  0.00     0.037 A 
ATOM     46  C   UNL A   1      41.407  31.366  29.884  1.00  0.00     0.049 A 
ATOM     47  C   UNL A   1      45.907  29.495  27.137  1.00  0.00     0.074 A 
ATOM     48  C   UNL A   1      41.451  32.673  30.339  1.00  0.00     0.029 A 
ATOM     49  N   UNL A   1      42.607  31.131  29.228  1.00  0.00    -0.354 N 
ATOM     50  N   UNL A   1      44.940  30.069  27.809  1.00  0.00    -0.248 NA
ATOM     51  C   UNL A   1      47.060  30.371  26.879  1.00  0.00     0.031 C 
ATOM     52  C   UNL A   1      42.671  33.234  29.944  1.00  0.00     0.029 A 
ATOM     53  C   UNL A   1      43.398  32.266  29.267  1.00  0.00     0.049 A 
ATOM     54  H   UNL A   1      42.857  30.281  28.798  1.00  0.00     0.167 HD
ATOM     55  C   UNL A   1      45.366  31.365  28.059  1.00  0.00     0.074 A 
ATOM     56  C   UNL A   1      46.689  31.490  27.484  1.00  0.00     0.031 C 
ATOM     57  C   UNL A   1      44.715  32.368  28.697  1.00  0.00     0.037 A 
BRANCH  44  58
ATOM     58  C   UNL A   1      39.122  30.796  30.783  1.00  0.00     0.064 A 
ATOM     59  C   UNL A   1      38.996  30.643  32.171  1.00  0.00     0.173 A 
ATOM     60  C   UNL A   1      38.049  31.363  30.081  1.00  0.00     0.173 A 
ATOM     61  F   UNL A   1      39.989  30.090  32.883  1.00  0.00    -0.203 F 
ATOM     62  C   UNL A   1      37.828  31.024  32.827  1.00  0.00     0.198 A 
ATOM     63  C   UNL A   1      36.892  31.764  30.742  1.00  0.00     0.198 A 
ATOM     64  F   UNL A   1      38.123  31.532  28.752  1.00  0.00    -0.203 F 
ATOM     65  F   UNL A   1      37.710  30.834  34.148  1.00  0.00    -0.200 F 
ATOM     66  C   UNL A   1      36.780  31.589  32.114  1.00  0.00     0.200 A 
ATOM     67  F   UNL A   1      35.884  32.318  30.054  1.00  0.00    -0.200 F 
ATOM     68  F   UNL A   1      35.658  31.958  32.748  1.00  0.00    -0.200 F 
ENDBRANCH  44  58
BRANCH  45  69
ATOM     69  C   UNL A   1      47.198  27.630  25.872  1.00  0.00     0.064 A 
ATOM     70  C   UNL A   1      48.292  27.106  26.574  1.00  0.00     0.173 A 
ATOM     71  C   UNL A   1      47.291  27.704  24.475  1.00  0.00     0.173 A 
ATOM     72  F   UNL A   1      48.261  27.045  27.914  1.00  0.00    -0.203 F 
ATOM     73  C   UNL A   1      49.437  26.680  25.905  1.00  0.00     0.198 A 
ATOM     74  C   UNL A   1      48.425  27.253  23.805  1.00  0.00     0.198 A 
ATOM     75  F   UNL A   1      46.272  28.203  23.760  1.00  0.00    -0.203 F 
ATOM     76  F   UNL A   1      50.484  26.216  26.600  1.00  0.00    -0.200 F 
ATOM     77  C   UNL A   1      49.499  26.745  24.520  1.00  0.00     0.200 A 
ATOM     78  F   UNL A   1      48.478  27.310  22.468  1.00  0.00    -0.200 F 
ATOM     79  F   UNL A   1      50.598  26.328  23.877  1.00  0.00    -0.200 F 
ENDBRANCH  45  69
BRANCH  57  80
ATOM     80  C   UNL A   1      45.435  33.675  28.827  1.00  0.00     0.064 A 
ATOM     81  C   UNL A   1      45.290  34.687  27.869  1.00  0.00     0.173 A 
ATOM     82  C   UNL A   1      46.256  33.927  29.936  1.00  0.00     0.173 A 
ATOM     83  F   UNL A   1      44.527  34.484  26.784  1.00  0.00    -0.203 F 
ATOM     84  C   UNL A   1      45.957  35.900  28.006  1.00  0.00     0.198 A 
ATOM     85  C   UNL A   1      46.906  35.149  30.080  1.00  0.00     0.198 A 
ATOM     86  F   UNL A   1      46.424  32.988  30.880  1.00  0.00    -0.203 F 
ATOM     87  F   UNL A   1      45.834  36.842  27.060  1.00  0.00    -0.200 F 
ATOM     88  C   UNL A   1      46.760  36.132  29.114  1.00  0.00     0.200 A 
ATOM     89  F   UNL A   1      47.679  35.374  31.152  1.00  0.00    -0.200 F 
ATOM     90  F   UNL A   1      47.402  37.302  29.243  1.00  0.00    -0.200 F 
ENDBRANCH  57  80
ENDBRANCH  31  32
ENDBRANCH  24  26
ENDBRANCH  23  24
ENDBRANCH  22  23
ENDBRANCH   1  22
TORSDOF 16
ENDMDL
