MODEL 1
REMARK VINA RESULT:     -11.5      0.000      0.000
REMARK SMILES Cc1ccccc1CSc1cccc(C(=O)OCCOC(=O)c2ccc(-c3c4nc(c(-c5c(F)c(F)c(F)c(F)c5F)c5ccc([nH]5)c(-c5c(F)c(F)c(F)c(F)c5F)c5nc(c(-c6c(F)c(F)c(F)c(F)c6F)c6ccc3[nH]6)C=C5)C=C4)cc2)n1
REMARK SMILES IDX 18 1 17 2 15 3 16 4 14 5 10 6 11 7 86 8 12 9 13 10 9 11 8 12
REMARK SMILES IDX 7 13 1 14 2 15 3 16 4 17 6 18 5 19 19 20 20 21 21 22 22 23
REMARK SMILES IDX 23 24 24 25 85 26 25 27 84 28 26 29 27 30 28 31 78 32 29 33
REMARK SMILES IDX 83 34 77 35 79 36 30 37 82 38 76 39 75 40 31 42 63 43 43 44
REMARK SMILES IDX 62 45 44 46 47 47 61 48 80 49 45 50 46 51 60 53 81 54 48 55
REMARK SMILES IDX 32 56 33 57 41 58 34 59 35 60 39 61 42 62 36 63 37 64 40 65
REMARK SMILES IDX 38 66 64 67 65 68 73 69 66 70 67 71 71 72 74 73 68 74 69 75
REMARK SMILES IDX 72 76 70 77 49 78 50 79 58 80 51 81 52 82 56 83 59 84 53 85
REMARK SMILES IDX 54 86 57 87 55 88
REMARK H PARENT 79 41 47 52
REMARK Flexibility Score: inf
ROOT
ATOM      1  C   UNL A   1      34.063  33.701  28.294  1.00  0.00     0.275 C 
ENDROOT
BRANCH   1   2
ATOM      2  O   UNL A   1      33.188  34.083  29.364  1.00  0.00    -0.457 OA
BRANCH   2   3
ATOM      3  C   UNL A   1      33.008  35.413  29.598  1.00  0.00     0.357 C 
ATOM      4  O   UNL A   1      32.464  36.200  28.857  1.00  0.00    -0.244 OA
BRANCH   3   5
ATOM      5  C   UNL A   1      33.526  35.700  30.971  1.00  0.00     0.149 A 
ATOM      6  C   UNL A   1      34.675  35.049  32.873  1.00  0.00     0.097 A 
ATOM      7  C   UNL A   1      34.396  36.283  33.468  1.00  0.00     0.035 A 
ATOM      8  N   UNL A   1      34.298  34.757  31.607  1.00  0.00    -0.234 NA
ATOM      9  C   UNL A   1      33.609  37.215  32.800  1.00  0.00     0.005 A 
ATOM     10  C   UNL A   1      33.132  36.907  31.539  1.00  0.00     0.036 A 
BRANCH   6  11
ATOM     11  S   UNL A   1      35.217  33.796  34.055  1.00  0.00    -0.102 SA
BRANCH  11  12
ATOM     12  C   UNL A   1      36.518  32.809  33.245  1.00  0.00     0.112 C 
BRANCH  12  13
ATOM     13  C   UNL A   1      37.948  33.123  33.672  1.00  0.00    -0.035 A 
ATOM     14  C   UNL A   1      38.233  30.773  34.630  1.00  0.00     0.044 C 
ATOM     15  C   UNL A   1      38.752  32.149  34.307  1.00  0.00    -0.047 A 
ATOM     16  C   UNL A   1      40.094  32.441  34.625  1.00  0.00     0.004 A 
ATOM     17  C   UNL A   1      40.658  33.676  34.309  1.00  0.00     0.000 A 
ATOM     18  C   UNL A   1      38.547  34.363  33.354  1.00  0.00     0.005 A 
ATOM     19  C   UNL A   1      39.881  34.641  33.680  1.00  0.00     0.000 A 
ENDBRANCH  12  13
ENDBRANCH  11  12
ENDBRANCH   6  11
ENDBRANCH   3   5
ENDBRANCH   2   3
ENDBRANCH   1   2
BRANCH   1  20
ATOM     20  C   UNL A   1      35.088  32.577  28.547  1.00  0.00     0.275 C 
BRANCH  20  21
ATOM     21  O   UNL A   1      35.134  31.404  27.691  1.00  0.00    -0.458 OA
BRANCH  21  22
ATOM     22  C   UNL A   1      35.410  30.104  27.948  1.00  0.00     0.338 C 
ATOM     23  O   UNL A   1      34.524  29.275  28.075  1.00  0.00    -0.246 OA
BRANCH  22  24
ATOM     24  C   UNL A   1      36.818  29.702  28.052  1.00  0.00     0.060 A 
ATOM     25  C   UNL A   1      37.739  30.000  27.032  1.00  0.00     0.016 A 
ATOM     26  C   UNL A   1      37.220  29.027  29.188  1.00  0.00     0.016 A 
ATOM     27  C   UNL A   1      39.065  29.609  27.153  1.00  0.00     0.010 A 
ATOM     28  C   UNL A   1      38.549  28.892  29.432  1.00  0.00     0.010 A 
ATOM     29  C   UNL A   1      39.431  29.036  28.360  1.00  0.00    -0.014 A 
BRANCH  29  30
ATOM     30  C   UNL A   1      40.640  28.282  28.584  1.00  0.00     0.031 A 
ATOM     31  C   UNL A   1      40.630  26.843  28.380  1.00  0.00     0.074 A 
ATOM     32  C   UNL A   1      41.741  29.061  28.693  1.00  0.00     0.049 A 
ATOM     33  N   UNL A   1      41.347  26.019  29.053  1.00  0.00    -0.248 NA
ATOM     34  C   UNL A   1      39.759  26.199  27.401  1.00  0.00     0.031 C 
ATOM     35  C   UNL A   1      43.139  28.764  28.477  1.00  0.00     0.029 A 
ATOM     36  N   UNL A   1      41.746  30.423  29.022  1.00  0.00    -0.354 N 
ATOM     37  C   UNL A   1      41.367  24.861  28.310  1.00  0.00     0.074 A 
ATOM     38  C   UNL A   1      40.202  24.938  27.456  1.00  0.00     0.031 C 
ATOM     39  C   UNL A   1      43.874  29.797  28.938  1.00  0.00     0.029 A 
ATOM     40  C   UNL A   1      42.986  30.761  29.575  1.00  0.00     0.049 A 
ATOM     41  H   UNL A   1      40.994  31.045  28.887  1.00  0.00     0.167 HD
ATOM     42  C   UNL A   1      42.518  24.126  28.283  1.00  0.00     0.037 A 
ATOM     43  C   UNL A   1      42.979  31.106  30.903  1.00  0.00     0.037 A 
ATOM     44  C   UNL A   1      43.583  24.838  29.013  1.00  0.00     0.049 A 
ATOM     45  C   UNL A   1      43.257  29.906  31.781  1.00  0.00     0.074 A 
ATOM     46  C   UNL A   1      44.671  25.599  28.615  1.00  0.00     0.029 A 
ATOM     47  N   UNL A   1      43.392  25.152  30.348  1.00  0.00    -0.354 N 
ATOM     48  N   UNL A   1      43.744  28.777  31.347  1.00  0.00    -0.248 NA
ATOM     49  C   UNL A   1      42.927  29.864  33.204  1.00  0.00     0.031 C 
ATOM     50  C   UNL A   1      45.109  26.381  29.731  1.00  0.00     0.029 A 
ATOM     51  C   UNL A   1      44.297  26.088  30.812  1.00  0.00     0.049 A 
ATOM     52  H   UNL A   1      42.687  24.751  30.906  1.00  0.00     0.167 HD
ATOM     53  C   UNL A   1      43.734  27.856  32.355  1.00  0.00     0.074 A 
ATOM     54  C   UNL A   1      43.213  28.586  33.501  1.00  0.00     0.031 C 
ATOM     55  C   UNL A   1      44.138  26.561  32.181  1.00  0.00     0.037 A 
BRANCH  42  56
ATOM     56  C   UNL A   1      42.790  22.963  27.350  1.00  0.00     0.064 A 
ATOM     57  C   UNL A   1      42.110  21.737  27.522  1.00  0.00     0.173 A 
ATOM     58  C   UNL A   1      43.679  22.986  26.257  1.00  0.00     0.173 A 
ATOM     59  F   UNL A   1      41.143  21.595  28.438  1.00  0.00    -0.203 F 
ATOM     60  C   UNL A   1      42.375  20.609  26.742  1.00  0.00     0.198 A 
ATOM     61  C   UNL A   1      43.979  21.845  25.503  1.00  0.00     0.198 A 
ATOM     62  F   UNL A   1      44.240  24.123  25.831  1.00  0.00    -0.203 F 
ATOM     63  F   UNL A   1      41.691  19.478  26.960  1.00  0.00    -0.200 F 
ATOM     64  C   UNL A   1      43.331  20.654  25.750  1.00  0.00     0.200 A 
ATOM     65  F   UNL A   1      44.890  21.916  24.522  1.00  0.00    -0.200 F 
ATOM     66  F   UNL A   1      43.598  19.567  25.014  1.00  0.00    -0.200 F 
ENDBRANCH  42  56
BRANCH  43  67
ATOM     67  C   UNL A   1      41.919  32.142  31.159  1.00  0.00     0.064 A 
ATOM     68  C   UNL A   1      42.220  33.451  30.726  1.00  0.00     0.173 A 
ATOM     69  C   UNL A   1      40.575  31.760  31.163  1.00  0.00     0.173 A 
ATOM     70  F   UNL A   1      43.482  33.902  30.791  1.00  0.00    -0.203 F 
ATOM     71  C   UNL A   1      41.275  34.217  30.048  1.00  0.00     0.198 A 
ATOM     72  C   UNL A   1      39.643  32.534  30.481  1.00  0.00     0.198 A 
ATOM     73  F   UNL A   1      40.204  30.558  31.627  1.00  0.00    -0.203 F 
ATOM     74  F   UNL A   1      41.633  35.366  29.458  1.00  0.00    -0.200 F 
ATOM     75  C   UNL A   1      40.000  33.722  29.866  1.00  0.00     0.200 A 
ATOM     76  F   UNL A   1      38.409  32.066  30.322  1.00  0.00    -0.200 F 
ATOM     77  F   UNL A   1      39.145  34.351  29.048  1.00  0.00    -0.200 F 
ENDBRANCH  43  67
BRANCH  55  78
ATOM     78  C   UNL A   1      44.385  25.625  33.337  1.00  0.00     0.064 A 
ATOM     79  C   UNL A   1      45.601  24.936  33.483  1.00  0.00     0.173 A 
ATOM     80  C   UNL A   1      43.375  25.267  34.259  1.00  0.00     0.173 A 
ATOM     81  F   UNL A   1      46.581  25.053  32.575  1.00  0.00    -0.203 F 
ATOM     82  C   UNL A   1      45.833  24.063  34.545  1.00  0.00     0.198 A 
ATOM     83  C   UNL A   1      43.589  24.348  35.281  1.00  0.00     0.198 A 
ATOM     84  F   UNL A   1      42.142  25.785  34.215  1.00  0.00    -0.203 F 
ATOM     85  F   UNL A   1      47.039  23.495  34.681  1.00  0.00    -0.200 F 
ATOM     86  C   UNL A   1      44.827  23.769  35.443  1.00  0.00     0.200 A 
ATOM     87  F   UNL A   1      42.580  24.033  36.104  1.00  0.00    -0.200 F 
ATOM     88  F   UNL A   1      45.043  22.915  36.451  1.00  0.00    -0.200 F 
ENDBRANCH  55  78
ENDBRANCH  29  30
ENDBRANCH  22  24
ENDBRANCH  21  22
ENDBRANCH  20  21
ENDBRANCH   1  20
TORSDOF 14
ENDMDL
MODEL 2
REMARK VINA RESULT:     -11.3      5.363     11.700
REMARK SMILES Cc1ccccc1CSc1cccc(C(=O)OCCOC(=O)c2ccc(-c3c4nc(c(-c5c(F)c(F)c(F)c(F)c5F)c5ccc([nH]5)c(-c5c(F)c(F)c(F)c(F)c5F)c5nc(c(-c6c(F)c(F)c(F)c(F)c6F)c6ccc3[nH]6)C=C5)C=C4)cc2)n1
REMARK SMILES IDX 18 1 17 2 15 3 16 4 14 5 10 6 11 7 86 8 12 9 13 10 9 11 8 12
REMARK SMILES IDX 7 13 1 14 2 15 3 16 4 17 6 18 5 19 19 20 20 21 21 22 22 23
REMARK SMILES IDX 23 24 24 25 85 26 25 27 84 28 26 29 27 30 28 31 78 32 29 33
REMARK SMILES IDX 83 34 77 35 79 36 30 37 82 38 76 39 75 40 31 42 63 43 43 44
REMARK SMILES IDX 62 45 44 46 47 47 61 48 80 49 45 50 46 51 60 53 81 54 48 55
REMARK SMILES IDX 32 56 33 57 41 58 34 59 35 60 39 61 42 62 36 63 37 64 40 65
REMARK SMILES IDX 38 66 64 67 65 68 73 69 66 70 67 71 71 72 74 73 68 74 69 75
REMARK SMILES IDX 72 76 70 77 49 78 50 79 58 80 51 81 52 82 56 83 59 84 53 85
REMARK SMILES IDX 54 86 57 87 55 88
REMARK H PARENT 79 41 47 52
REMARK Flexibility Score: inf
ROOT
ATOM      1  C   UNL A   1      42.300  19.378  26.644  1.00  0.00     0.275 C 
ENDROOT
BRANCH   1   2
ATOM      2  O   UNL A   1      41.315  20.420  26.657  1.00  0.00    -0.457 OA
BRANCH   2   3
ATOM      3  C   UNL A   1      40.105  20.161  26.087  1.00  0.00     0.357 C 
ATOM      4  O   UNL A   1      39.711  19.082  25.709  1.00  0.00    -0.244 OA
BRANCH   3   5
ATOM      5  C   UNL A   1      39.326  21.438  26.094  1.00  0.00     0.149 A 
ATOM      6  C   UNL A   1      37.548  22.724  25.354  1.00  0.00     0.097 A 
ATOM      7  C   UNL A   1      37.995  23.795  26.134  1.00  0.00     0.035 A 
ATOM      8  N   UNL A   1      38.166  21.520  25.361  1.00  0.00    -0.234 NA
ATOM      9  C   UNL A   1      39.174  23.682  26.862  1.00  0.00     0.005 A 
ATOM     10  C   UNL A   1      39.877  22.491  26.815  1.00  0.00     0.036 A 
BRANCH   6  11
ATOM     11  S   UNL A   1      36.353  23.212  24.091  1.00  0.00    -0.102 SA
BRANCH  11  12
ATOM     12  C   UNL A   1      34.695  23.114  24.843  1.00  0.00     0.112 C 
BRANCH  12  13
ATOM     13  C   UNL A   1      33.895  21.858  24.512  1.00  0.00    -0.035 A 
ATOM     14  C   UNL A   1      32.740  23.044  22.567  1.00  0.00     0.044 C 
ATOM     15  C   UNL A   1      32.991  21.833  23.425  1.00  0.00    -0.047 A 
ATOM     16  C   UNL A   1      32.318  20.638  23.095  1.00  0.00     0.004 A 
ATOM     17  C   UNL A   1      32.540  19.464  23.813  1.00  0.00     0.000 A 
ATOM     18  C   UNL A   1      34.108  20.651  25.216  1.00  0.00     0.005 A 
ATOM     19  C   UNL A   1      33.430  19.473  24.880  1.00  0.00     0.000 A 
ENDBRANCH  12  13
ENDBRANCH  11  12
ENDBRANCH   6  11
ENDBRANCH   3   5
ENDBRANCH   2   3
ENDBRANCH   1   2
BRANCH   1  20
ATOM     20  C   UNL A   1      43.453  19.469  25.623  1.00  0.00     0.275 C 
BRANCH  20  21
ATOM     21  O   UNL A   1      44.322  20.633  25.583  1.00  0.00    -0.458 OA
BRANCH  21  22
ATOM     22  C   UNL A   1      44.311  21.746  24.812  1.00  0.00     0.338 C 
ATOM     23  O   UNL A   1      44.556  21.700  23.618  1.00  0.00    -0.246 OA
BRANCH  22  24
ATOM     24  C   UNL A   1      43.971  23.025  25.447  1.00  0.00     0.060 A 
ATOM     25  C   UNL A   1      43.814  24.198  24.687  1.00  0.00     0.016 A 
ATOM     26  C   UNL A   1      43.799  23.047  26.817  1.00  0.00     0.016 A 
ATOM     27  C   UNL A   1      43.494  25.396  25.309  1.00  0.00     0.010 A 
ATOM     28  C   UNL A   1      43.221  24.137  27.386  1.00  0.00     0.010 A 
ATOM     29  C   UNL A   1      43.225  25.332  26.667  1.00  0.00    -0.014 A 
BRANCH  29  30
ATOM     30  C   UNL A   1      43.188  26.467  27.556  1.00  0.00     0.031 A 
ATOM     31  C   UNL A   1      41.945  27.200  27.725  1.00  0.00     0.074 A 
ATOM     32  C   UNL A   1      44.273  26.548  28.360  1.00  0.00     0.049 A 
ATOM     33  N   UNL A   1      41.882  28.461  27.956  1.00  0.00    -0.248 NA
ATOM     34  C   UNL A   1      40.638  26.561  27.603  1.00  0.00     0.031 C 
ATOM     35  C   UNL A   1      44.460  27.197  29.639  1.00  0.00     0.029 A 
ATOM     36  N   UNL A   1      45.514  25.943  28.119  1.00  0.00    -0.354 N 
ATOM     37  C   UNL A   1      40.616  28.679  28.448  1.00  0.00     0.074 A 
ATOM     38  C   UNL A   1      39.830  27.556  27.986  1.00  0.00     0.031 C 
ATOM     39  C   UNL A   1      45.778  27.197  29.931  1.00  0.00     0.029 A 
ATOM     40  C   UNL A   1      46.513  26.647  28.800  1.00  0.00     0.049 A 
ATOM     41  H   UNL A   1      45.660  25.147  27.558  1.00  0.00     0.167 HD
ATOM     42  C   UNL A   1      40.453  29.611  29.433  1.00  0.00     0.037 A 
ATOM     43  C   UNL A   1      47.418  27.315  28.015  1.00  0.00     0.037 A 
ATOM     44  C   UNL A   1      41.768  30.129  29.854  1.00  0.00     0.049 A 
ATOM     45  C   UNL A   1      46.990  28.749  27.786  1.00  0.00     0.074 A 
ATOM     46  C   UNL A   1      42.591  29.879  30.940  1.00  0.00     0.029 A 
ATOM     47  N   UNL A   1      42.582  30.741  28.916  1.00  0.00    -0.354 N 
ATOM     48  N   UNL A   1      46.070  29.359  28.479  1.00  0.00    -0.248 NA
ATOM     49  C   UNL A   1      47.512  29.574  26.699  1.00  0.00     0.031 C 
ATOM     50  C   UNL A   1      43.910  30.337  30.623  1.00  0.00     0.029 A 
ATOM     51  C   UNL A   1      43.888  30.877  29.350  1.00  0.00     0.049 A 
ATOM     52  H   UNL A   1      42.265  31.046  28.035  1.00  0.00     0.167 HD
ATOM     53  C   UNL A   1      45.816  30.581  27.929  1.00  0.00     0.074 A 
ATOM     54  C   UNL A   1      46.746  30.671  26.813  1.00  0.00     0.031 C 
ATOM     55  C   UNL A   1      44.858  31.429  28.412  1.00  0.00     0.037 A 
BRANCH  42  56
ATOM     56  C   UNL A   1      39.186  29.816  30.240  1.00  0.00     0.064 A 
ATOM     57  C   UNL A   1      38.306  30.875  29.927  1.00  0.00     0.173 A 
ATOM     58  C   UNL A   1      38.762  29.005  31.311  1.00  0.00     0.173 A 
ATOM     59  F   UNL A   1      38.505  31.659  28.860  1.00  0.00    -0.203 F 
ATOM     60  C   UNL A   1      37.165  31.158  30.682  1.00  0.00     0.198 A 
ATOM     61  C   UNL A   1      37.645  29.313  32.096  1.00  0.00     0.198 A 
ATOM     62  F   UNL A   1      39.367  27.846  31.598  1.00  0.00    -0.203 F 
ATOM     63  F   UNL A   1      36.373  32.179  30.327  1.00  0.00    -0.200 F 
ATOM     64  C   UNL A   1      36.850  30.395  31.785  1.00  0.00     0.200 A 
ATOM     65  F   UNL A   1      37.336  28.540  33.148  1.00  0.00    -0.200 F 
ATOM     66  F   UNL A   1      35.766  30.678  32.521  1.00  0.00    -0.200 F 
ENDBRANCH  42  56
BRANCH  43  67
ATOM     67  C   UNL A   1      47.964  26.394  26.960  1.00  0.00     0.064 A 
ATOM     68  C   UNL A   1      47.502  26.618  25.646  1.00  0.00     0.173 A 
ATOM     69  C   UNL A   1      49.253  25.874  27.106  1.00  0.00     0.173 A 
ATOM     70  F   UNL A   1      46.239  27.025  25.444  1.00  0.00    -0.203 F 
ATOM     71  C   UNL A   1      48.381  26.617  24.566  1.00  0.00     0.198 A 
ATOM     72  C   UNL A   1      50.120  25.881  26.019  1.00  0.00     0.198 A 
ATOM     73  F   UNL A   1      49.737  25.569  28.319  1.00  0.00    -0.203 F 
ATOM     74  F   UNL A   1      47.971  27.038  23.361  1.00  0.00    -0.200 F 
ATOM     75  C   UNL A   1      49.710  26.315  24.770  1.00  0.00     0.200 A 
ATOM     76  F   UNL A   1      51.398  25.571  26.212  1.00  0.00    -0.200 F 
ATOM     77  F   UNL A   1      50.602  26.505  23.787  1.00  0.00    -0.200 F 
ENDBRANCH  43  67
BRANCH  55  78
ATOM     78  C   UNL A   1      44.759  32.872  27.987  1.00  0.00     0.064 A 
ATOM     79  C   UNL A   1      44.199  33.242  26.752  1.00  0.00     0.173 A 
ATOM     80  C   UNL A   1      45.348  33.926  28.722  1.00  0.00     0.173 A 
ATOM     81  F   UNL A   1      43.762  32.322  25.881  1.00  0.00    -0.203 F 
ATOM     82  C   UNL A   1      44.113  34.575  26.350  1.00  0.00     0.198 A 
ATOM     83  C   UNL A   1      45.316  35.247  28.289  1.00  0.00     0.198 A 
ATOM     84  F   UNL A   1      45.978  33.729  29.886  1.00  0.00    -0.203 F 
ATOM     85  F   UNL A   1      43.496  34.878  25.201  1.00  0.00    -0.200 F 
ATOM     86  C   UNL A   1      44.671  35.576  27.118  1.00  0.00     0.200 A 
ATOM     87  F   UNL A   1      45.918  36.195  29.021  1.00  0.00    -0.200 F 
ATOM     88  F   UNL A   1      44.607  36.854  26.723  1.00  0.00    -0.200 F 
ENDBRANCH  55  78
ENDBRANCH  29  30
ENDBRANCH  22  24
ENDBRANCH  21  22
ENDBRANCH  20  21
ENDBRANCH   1  20
TORSDOF 14
ENDMDL
MODEL 3
REMARK VINA RESULT:     -11.3      3.706      6.757
REMARK SMILES Cc1ccccc1CSc1cccc(C(=O)OCCOC(=O)c2ccc(-c3c4nc(c(-c5c(F)c(F)c(F)c(F)c5F)c5ccc([nH]5)c(-c5c(F)c(F)c(F)c(F)c5F)c5nc(c(-c6c(F)c(F)c(F)c(F)c6F)c6ccc3[nH]6)C=C5)C=C4)cc2)n1
REMARK SMILES IDX 18 1 17 2 15 3 16 4 14 5 10 6 11 7 86 8 12 9 13 10 9 11 8 12
REMARK SMILES IDX 7 13 1 14 2 15 3 16 4 17 6 18 5 19 19 20 20 21 21 22 22 23
REMARK SMILES IDX 23 24 24 25 85 26 25 27 84 28 26 29 27 30 28 31 78 32 29 33
REMARK SMILES IDX 83 34 77 35 79 36 30 37 82 38 76 39 75 40 31 42 63 43 43 44
REMARK SMILES IDX 62 45 44 46 47 47 61 48 80 49 45 50 46 51 60 53 81 54 48 55
REMARK SMILES IDX 32 56 33 57 41 58 34 59 35 60 39 61 42 62 36 63 37 64 40 65
REMARK SMILES IDX 38 66 64 67 65 68 73 69 66 70 67 71 71 72 74 73 68 74 69 75
REMARK SMILES IDX 72 76 70 77 49 78 50 79 58 80 51 81 52 82 56 83 59 84 53 85
REMARK SMILES IDX 54 86 57 87 55 88
REMARK H PARENT 79 41 47 52
REMARK Flexibility Score: inf
ROOT
ATOM      1  C   UNL A   1      33.044  34.573  29.042  1.00  0.00     0.275 C 
ENDROOT
BRANCH   1   2
ATOM      2  O   UNL A   1      33.617  33.259  28.999  1.00  0.00    -0.457 OA
BRANCH   2   3
ATOM      3  C   UNL A   1      34.545  32.999  28.036  1.00  0.00     0.357 C 
ATOM      4  O   UNL A   1      35.365  33.777  27.607  1.00  0.00    -0.244 OA
BRANCH   3   5
ATOM      5  C   UNL A   1      34.418  31.553  27.673  1.00  0.00     0.149 A 
ATOM      6  C   UNL A   1      33.274  29.821  26.646  1.00  0.00     0.097 A 
ATOM      7  C   UNL A   1      34.241  28.915  27.091  1.00  0.00     0.035 A 
ATOM      8  N   UNL A   1      33.370  31.151  26.879  1.00  0.00    -0.234 NA
ATOM      9  C   UNL A   1      35.287  29.353  27.896  1.00  0.00     0.005 A 
ATOM     10  C   UNL A   1      35.361  30.694  28.226  1.00  0.00     0.036 A 
BRANCH   6  11
ATOM     11  S   UNL A   1      31.748  29.023  26.101  1.00  0.00    -0.102 SA
BRANCH  11  12
ATOM     12  C   UNL A   1      31.603  29.295  24.305  1.00  0.00     0.112 C 
BRANCH  12  13
ATOM     13  C   UNL A   1      30.184  29.490  23.780  1.00  0.00    -0.035 A 
ATOM     14  C   UNL A   1      29.952  26.988  23.326  1.00  0.00     0.044 C 
ATOM     15  C   UNL A   1      29.410  28.392  23.339  1.00  0.00    -0.047 A 
ATOM     16  C   UNL A   1      28.076  28.590  22.929  1.00  0.00     0.004 A 
ATOM     17  C   UNL A   1      27.490  29.854  22.963  1.00  0.00     0.000 A 
ATOM     18  C   UNL A   1      29.563  30.759  23.815  1.00  0.00     0.005 A 
ATOM     19  C   UNL A   1      28.238  30.942  23.399  1.00  0.00     0.000 A 
ENDBRANCH  12  13
ENDBRANCH  11  12
ENDBRANCH   6  11
ENDBRANCH   3   5
ENDBRANCH   2   3
ENDBRANCH   1   2
BRANCH   1  20
ATOM     20  C   UNL A   1      33.536  35.555  30.126  1.00  0.00     0.275 C 
BRANCH  20  21
ATOM     21  O   UNL A   1      34.445  35.116  31.170  1.00  0.00    -0.458 OA
BRANCH  21  22
ATOM     22  C   UNL A   1      34.468  34.004  31.943  1.00  0.00     0.338 C 
ATOM     23  O   UNL A   1      33.568  33.753  32.728  1.00  0.00    -0.246 OA
BRANCH  22  24
ATOM     24  C   UNL A   1      35.601  33.083  31.800  1.00  0.00     0.060 A 
ATOM     25  C   UNL A   1      35.625  31.845  32.467  1.00  0.00     0.016 A 
ATOM     26  C   UNL A   1      36.647  33.461  30.981  1.00  0.00     0.016 A 
ATOM     27  C   UNL A   1      36.708  30.992  32.317  1.00  0.00     0.010 A 
ATOM     28  C   UNL A   1      37.562  32.525  30.617  1.00  0.00     0.010 A 
ATOM     29  C   UNL A   1      37.672  31.375  31.398  1.00  0.00    -0.014 A 
BRANCH  29  30
ATOM     30  C   UNL A   1      39.001  30.822  31.316  1.00  0.00     0.031 A 
ATOM     31  C   UNL A   1      39.222  29.608  30.548  1.00  0.00     0.074 A 
ATOM     32  C   UNL A   1      39.959  31.674  31.747  1.00  0.00     0.049 A 
ATOM     33  N   UNL A   1      40.105  28.725  30.842  1.00  0.00    -0.248 NA
ATOM     34  C   UNL A   1      38.416  29.266  29.379  1.00  0.00     0.031 C 
ATOM     35  C   UNL A   1      41.373  31.741  31.451  1.00  0.00     0.029 A 
ATOM     36  N   UNL A   1      39.754  32.768  32.600  1.00  0.00    -0.354 N 
ATOM     37  C   UNL A   1      40.277  27.985  29.694  1.00  0.00     0.074 A 
ATOM     38  C   UNL A   1      39.068  28.190  28.926  1.00  0.00     0.031 C 
ATOM     39  C   UNL A   1      41.948  32.616  32.302  1.00  0.00     0.029 A 
ATOM     40  C   UNL A   1      40.950  33.071  33.261  1.00  0.00     0.049 A 
ATOM     41  H   UNL A   1      38.902  33.247  32.716  1.00  0.00     0.167 HD
ATOM     42  C   UNL A   1      41.531  27.539  29.390  1.00  0.00     0.037 A 
ATOM     43  C   UNL A   1      40.961  32.848  34.614  1.00  0.00     0.037 A 
ATOM     44  C   UNL A   1      42.502  28.076  30.362  1.00  0.00     0.049 A 
ATOM     45  C   UNL A   1      41.488  31.466  34.937  1.00  0.00     0.074 A 
ATOM     46  C   UNL A   1      43.421  29.113  30.321  1.00  0.00     0.029 A 
ATOM     47  N   UNL A   1      42.339  27.790  31.706  1.00  0.00    -0.354 N 
ATOM     48  N   UNL A   1      42.132  30.711  34.091  1.00  0.00    -0.248 NA
ATOM     49  C   UNL A   1      41.254  30.801  36.216  1.00  0.00     0.031 C 
ATOM     50  C   UNL A   1      43.785  29.447  31.665  1.00  0.00     0.029 A 
ATOM     51  C   UNL A   1      43.099  28.607  32.523  1.00  0.00     0.049 A 
ATOM     52  H   UNL A   1      41.745  27.081  32.043  1.00  0.00     0.167 HD
ATOM     53  C   UNL A   1      42.336  29.479  34.640  1.00  0.00     0.074 A 
ATOM     54  C   UNL A   1      41.767  29.583  35.975  1.00  0.00     0.031 C 
ATOM     55  C   UNL A   1      42.942  28.456  33.964  1.00  0.00     0.037 A 
BRANCH  42  56
ATOM     56  C   UNL A   1      41.941  26.916  28.070  1.00  0.00     0.064 A 
ATOM     57  C   UNL A   1      42.224  25.535  27.993  1.00  0.00     0.173 A 
ATOM     58  C   UNL A   1      42.050  27.602  26.844  1.00  0.00     0.173 A 
ATOM     59  F   UNL A   1      42.047  24.723  29.043  1.00  0.00    -0.203 F 
ATOM     60  C   UNL A   1      42.680  24.920  26.823  1.00  0.00     0.198 A 
ATOM     61  C   UNL A   1      42.548  26.998  25.683  1.00  0.00     0.198 A 
ATOM     62  F   UNL A   1      41.616  28.859  26.700  1.00  0.00    -0.203 F 
ATOM     63  F   UNL A   1      42.929  23.604  26.821  1.00  0.00    -0.200 F 
ATOM     64  C   UNL A   1      42.869  25.658  25.675  1.00  0.00     0.200 A 
ATOM     65  F   UNL A   1      42.697  27.726  24.566  1.00  0.00    -0.200 F 
ATOM     66  F   UNL A   1      43.323  25.073  24.558  1.00  0.00    -0.200 F 
ENDBRANCH  42  56
BRANCH  43  67
ATOM     67  C   UNL A   1      39.759  33.488  35.252  1.00  0.00     0.064 A 
ATOM     68  C   UNL A   1      38.767  32.603  35.725  1.00  0.00     0.173 A 
ATOM     69  C   UNL A   1      39.909  34.704  35.924  1.00  0.00     0.173 A 
ATOM     70  F   UNL A   1      38.517  31.465  35.060  1.00  0.00    -0.203 F 
ATOM     71  C   UNL A   1      38.180  32.787  36.974  1.00  0.00     0.198 A 
ATOM     72  C   UNL A   1      39.317  34.872  37.171  1.00  0.00     0.198 A 
ATOM     73  F   UNL A   1      40.781  35.626  35.492  1.00  0.00    -0.203 F 
ATOM     74  F   UNL A   1      37.401  31.831  37.501  1.00  0.00    -0.200 F 
ATOM     75  C   UNL A   1      38.511  33.893  37.728  1.00  0.00     0.200 A 
ATOM     76  F   UNL A   1      39.622  35.948  37.890  1.00  0.00    -0.200 F 
ATOM     77  F   UNL A   1      38.114  33.980  39.005  1.00  0.00    -0.200 F 
ENDBRANCH  43  67
BRANCH  55  78
ATOM     78  C   UNL A   1      43.410  27.196  34.646  1.00  0.00     0.064 A 
ATOM     79  C   UNL A   1      42.520  26.159  34.975  1.00  0.00     0.173 A 
ATOM     80  C   UNL A   1      44.729  27.033  35.127  1.00  0.00     0.173 A 
ATOM     81  F   UNL A   1      41.206  26.265  34.730  1.00  0.00    -0.203 F 
ATOM     82  C   UNL A   1      42.946  24.994  35.613  1.00  0.00     0.198 A 
ATOM     83  C   UNL A   1      45.137  25.898  35.819  1.00  0.00     0.198 A 
ATOM     84  F   UNL A   1      45.679  27.959  34.953  1.00  0.00    -0.203 F 
ATOM     85  F   UNL A   1      42.071  24.004  35.830  1.00  0.00    -0.200 F 
ATOM     86  C   UNL A   1      44.253  24.864  36.035  1.00  0.00     0.200 A 
ATOM     87  F   UNL A   1      46.395  25.819  36.272  1.00  0.00    -0.200 F 
ATOM     88  F   UNL A   1      44.658  23.755  36.666  1.00  0.00    -0.200 F 
ENDBRANCH  55  78
ENDBRANCH  29  30
ENDBRANCH  22  24
ENDBRANCH  21  22
ENDBRANCH  20  21
ENDBRANCH   1  20
TORSDOF 14
ENDMDL
