MODEL 1
REMARK VINA RESULT:     -12.4      0.000      0.000
REMARK SMILES Cc1cc(F)c([C@H](O)[C@H]2CCCC[C@@H]2C(=O)OCCOC(=O)c2ccc(-c3c4nc(c(-c5c(F)c(F)c(F)c(F)c5F)c5ccc([nH]5)c(-c5c(F)c(F)c(F)c(F)c5F)c5nc(c(-c6c(F)c(F)c(F)c(F)c6F)c6ccc3[nH]6)C=C5)C=C4)cc2)cc1F
REMARK SMILES IDX 18 1 17 2 15 3 16 4 14 5 9 6 10 7 11 8 13 9 12 10 7 11 6 12
REMARK SMILES IDX 1 13 2 14 3 15 87 16 4 17 86 18 88 19 5 20 8 21 19 23 20 24
REMARK SMILES IDX 21 25 22 26 23 27 24 28 85 29 25 30 84 31 26 32 27 33 28 34
REMARK SMILES IDX 78 35 29 36 83 37 77 38 79 39 30 40 82 41 76 42 75 43 31 45
REMARK SMILES IDX 63 46 43 47 62 48 44 49 47 50 61 51 80 52 45 53 46 54 60 56
REMARK SMILES IDX 81 57 48 58 32 59 33 60 41 61 34 62 35 63 39 64 42 65 36 66
REMARK SMILES IDX 37 67 40 68 38 69 64 70 65 71 73 72 66 73 67 74 71 75 74 76
REMARK SMILES IDX 68 77 69 78 72 79 70 80 49 81 50 82 58 83 51 84 52 85 56 86
REMARK SMILES IDX 59 87 53 88 54 89 57 90 55 91
REMARK H PARENT 8 22 79 44 47 55
REMARK Flexibility Score: inf
ROOT
ATOM      1  C   UNL A   1      31.819  30.731  26.228  1.00  0.00     0.274 C 
ENDROOT
BRANCH   1   2
ATOM      2  O   UNL A   1      32.307  29.761  27.171  1.00  0.00    -0.462 OA
BRANCH   2   3
ATOM      3  C   UNL A   1      31.790  28.511  27.085  1.00  0.00     0.309 C 
ATOM      4  O   UNL A   1      31.223  27.923  28.000  1.00  0.00    -0.252 OA
BRANCH   3   5
ATOM      5  C   UNL A   1      31.881  27.943  25.671  1.00  0.00     0.105 C 
ATOM      6  C   UNL A   1      30.875  26.785  25.484  1.00  0.00     0.037 C 
ATOM      7  C   UNL A   1      31.430  25.527  26.189  1.00  0.00     0.007 C 
ATOM      8  C   UNL A   1      32.819  25.134  25.693  1.00  0.00     0.000 C 
ATOM      9  C   UNL A   1      33.301  27.575  25.212  1.00  0.00     0.016 C 
ATOM     10  C   UNL A   1      33.819  26.276  25.821  1.00  0.00     0.001 C 
BRANCH   6  11
ATOM     11  C   UNL A   1      30.531  26.534  23.985  1.00  0.00     0.151 C 
BRANCH  11  12
ATOM     12  C   UNL A   1      29.862  27.708  23.295  1.00  0.00     0.019 A 
ATOM     13  C   UNL A   1      28.031  31.116  21.330  1.00  0.00     0.047 C 
ATOM     14  C   UNL A   1      28.661  29.940  22.013  1.00  0.00    -0.012 A 
ATOM     15  C   UNL A   1      30.034  29.703  21.893  1.00  0.00     0.046 A 
ATOM     16  C   UNL A   1      27.898  29.037  22.757  1.00  0.00     0.126 A 
ATOM     17  C   UNL A   1      30.614  28.601  22.522  1.00  0.00     0.129 A 
ATOM     18  C   UNL A   1      28.483  27.946  23.404  1.00  0.00     0.049 A 
ATOM     19  F   UNL A   1      26.573  29.212  22.864  1.00  0.00    -0.207 F 
ATOM     20  F   UNL A   1      31.934  28.414  22.386  1.00  0.00    -0.207 F 
ENDBRANCH  11  12
BRANCH  11  21
ATOM     21  O   UNL A   1      29.660  25.401  23.892  1.00  0.00    -0.388 OA
ATOM     22  H   UNL A   1      29.217  25.404  23.030  1.00  0.00     0.211 HD
ENDBRANCH  11  21
ENDBRANCH   6  11
ENDBRANCH   3   5
ENDBRANCH   2   3
ENDBRANCH   1   2
BRANCH   1  23
ATOM     23  C   UNL A   1      31.687  32.070  26.948  1.00  0.00     0.275 C 
BRANCH  23  24
ATOM     24  O   UNL A   1      32.940  32.778  26.876  1.00  0.00    -0.458 OA
BRANCH  24  25
ATOM     25  C   UNL A   1      33.276  33.523  27.952  1.00  0.00     0.338 C 
ATOM     26  O   UNL A   1      32.728  34.528  28.374  1.00  0.00    -0.246 OA
BRANCH  25  27
ATOM     27  C   UNL A   1      34.491  32.953  28.551  1.00  0.00     0.060 A 
ATOM     28  C   UNL A   1      34.445  31.656  29.060  1.00  0.00     0.016 A 
ATOM     29  C   UNL A   1      35.678  33.685  28.585  1.00  0.00     0.016 A 
ATOM     30  C   UNL A   1      35.585  31.116  29.659  1.00  0.00     0.010 A 
ATOM     31  C   UNL A   1      36.836  33.110  29.107  1.00  0.00     0.010 A 
ATOM     32  C   UNL A   1      36.795  31.834  29.684  1.00  0.00    -0.014 A 
BRANCH  32  33
ATOM     33  C   UNL A   1      37.995  31.264  30.355  1.00  0.00     0.031 A 
ATOM     34  C   UNL A   1      38.293  31.592  31.796  1.00  0.00     0.074 A 
ATOM     35  C   UNL A   1      38.814  30.439  29.675  1.00  0.00     0.049 A 
ATOM     36  N   UNL A   1      39.254  31.142  32.564  1.00  0.00    -0.248 NA
ATOM     37  C   UNL A   1      37.416  32.573  32.454  1.00  0.00     0.031 C 
ATOM     38  C   UNL A   1      38.676  30.094  28.259  1.00  0.00     0.029 A 
ATOM     39  N   UNL A   1      39.911  29.724  30.085  1.00  0.00    -0.354 N 
ATOM     40  C   UNL A   1      39.098  31.786  33.785  1.00  0.00     0.074 A 
ATOM     41  C   UNL A   1      37.998  32.712  33.636  1.00  0.00     0.031 C 
ATOM     42  C   UNL A   1      39.608  29.183  27.937  1.00  0.00     0.029 A 
ATOM     43  C   UNL A   1      40.428  28.902  29.112  1.00  0.00     0.049 A 
ATOM     44  H   UNL A   1      40.293  29.793  30.990  1.00  0.00     0.167 HD
ATOM     45  C   UNL A   1      39.780  31.598  34.939  1.00  0.00     0.037 A 
ATOM     46  C   UNL A   1      41.432  28.006  29.169  1.00  0.00     0.037 A 
ATOM     47  C   UNL A   1      40.846  30.647  35.104  1.00  0.00     0.049 A 
ATOM     48  C   UNL A   1      42.163  27.799  30.468  1.00  0.00     0.074 A 
ATOM     49  C   UNL A   1      41.561  30.341  36.248  1.00  0.00     0.029 A 
ATOM     50  N   UNL A   1      41.346  29.842  34.091  1.00  0.00    -0.354 N 
ATOM     51  N   UNL A   1      41.959  28.367  31.632  1.00  0.00    -0.248 NA
ATOM     52  C   UNL A   1      43.263  26.823  30.462  1.00  0.00     0.031 C 
ATOM     53  C   UNL A   1      42.516  29.373  35.920  1.00  0.00     0.029 A 
ATOM     54  C   UNL A   1      42.369  29.049  34.581  1.00  0.00     0.049 A 
ATOM     55  H   UNL A   1      41.021  29.835  33.162  1.00  0.00     0.167 HD
ATOM     56  C   UNL A   1      42.892  27.812  32.496  1.00  0.00     0.074 A 
ATOM     57  C   UNL A   1      43.648  26.842  31.730  1.00  0.00     0.031 C 
ATOM     58  C   UNL A   1      43.112  28.089  33.804  1.00  0.00     0.037 A 
BRANCH  45  59
ATOM     59  C   UNL A   1      39.370  32.416  36.130  1.00  0.00     0.064 A 
ATOM     60  C   UNL A   1      39.938  33.674  36.382  1.00  0.00     0.173 A 
ATOM     61  C   UNL A   1      38.369  31.962  37.002  1.00  0.00     0.173 A 
ATOM     62  F   UNL A   1      40.905  34.150  35.583  1.00  0.00    -0.203 F 
ATOM     63  C   UNL A   1      39.541  34.434  37.479  1.00  0.00     0.198 A 
ATOM     64  C   UNL A   1      37.954  32.738  38.081  1.00  0.00     0.198 A 
ATOM     65  F   UNL A   1      37.785  30.770  36.801  1.00  0.00    -0.203 F 
ATOM     66  F   UNL A   1      40.131  35.611  37.725  1.00  0.00    -0.200 F 
ATOM     67  C   UNL A   1      38.544  33.969  38.323  1.00  0.00     0.200 A 
ATOM     68  F   UNL A   1      36.978  32.295  38.888  1.00  0.00    -0.200 F 
ATOM     69  F   UNL A   1      38.156  34.706  39.373  1.00  0.00    -0.200 F 
ENDBRANCH  45  59
BRANCH  46  70
ATOM     70  C   UNL A   1      41.767  27.195  27.969  1.00  0.00     0.064 A 
ATOM     71  C   UNL A   1      42.693  27.661  27.025  1.00  0.00     0.173 A 
ATOM     72  C   UNL A   1      41.184  25.939  27.747  1.00  0.00     0.173 A 
ATOM     73  F   UNL A   1      43.263  28.865  27.184  1.00  0.00    -0.203 F 
ATOM     74  C   UNL A   1      43.013  26.908  25.898  1.00  0.00     0.198 A 
ATOM     75  C   UNL A   1      41.524  25.176  26.632  1.00  0.00     0.198 A 
ATOM     76  F   UNL A   1      40.296  25.446  28.624  1.00  0.00    -0.203 F 
ATOM     77  F   UNL A   1      43.873  27.393  24.992  1.00  0.00    -0.200 F 
ATOM     78  C   UNL A   1      42.434  25.663  25.705  1.00  0.00     0.200 A 
ATOM     79  F   UNL A   1      40.972  23.968  26.457  1.00  0.00    -0.200 F 
ATOM     80  F   UNL A   1      42.748  24.935  24.625  1.00  0.00    -0.200 F 
ENDBRANCH  46  70
BRANCH  58  81
ATOM     81  C   UNL A   1      44.212  27.339  34.497  1.00  0.00     0.064 A 
ATOM     82  C   UNL A   1      45.505  27.869  34.592  1.00  0.00     0.173 A 
ATOM     83  C   UNL A   1      43.952  26.114  35.130  1.00  0.00     0.173 A 
ATOM     84  F   UNL A   1      45.805  29.031  33.991  1.00  0.00    -0.203 F 
ATOM     85  C   UNL A   1      46.505  27.194  35.286  1.00  0.00     0.198 A 
ATOM     86  C   UNL A   1      44.948  25.455  35.846  1.00  0.00     0.198 A 
ATOM     87  F   UNL A   1      42.728  25.568  35.074  1.00  0.00    -0.203 F 
ATOM     88  F   UNL A   1      47.744  27.703  35.335  1.00  0.00    -0.200 F 
ATOM     89  C   UNL A   1      46.224  25.993  35.919  1.00  0.00     0.200 A 
ATOM     90  F   UNL A   1      44.671  24.302  36.469  1.00  0.00    -0.200 F 
ATOM     91  F   UNL A   1      47.184  25.351  36.599  1.00  0.00    -0.200 F 
ENDBRANCH  58  81
ENDBRANCH  32  33
ENDBRANCH  25  27
ENDBRANCH  24  25
ENDBRANCH  23  24
ENDBRANCH   1  23
TORSDOF 14
ENDMDL
MODEL 2
REMARK VINA RESULT:     -12.4      0.406      1.652
REMARK SMILES Cc1cc(F)c([C@H](O)[C@H]2CCCC[C@@H]2C(=O)OCCOC(=O)c2ccc(-c3c4nc(c(-c5c(F)c(F)c(F)c(F)c5F)c5ccc([nH]5)c(-c5c(F)c(F)c(F)c(F)c5F)c5nc(c(-c6c(F)c(F)c(F)c(F)c6F)c6ccc3[nH]6)C=C5)C=C4)cc2)cc1F
REMARK SMILES IDX 18 1 17 2 15 3 16 4 14 5 9 6 10 7 11 8 13 9 12 10 7 11 6 12
REMARK SMILES IDX 1 13 2 14 3 15 87 16 4 17 86 18 88 19 5 20 8 21 19 23 20 24
REMARK SMILES IDX 21 25 22 26 23 27 24 28 85 29 25 30 84 31 26 32 27 33 28 34
REMARK SMILES IDX 78 35 29 36 83 37 77 38 79 39 30 40 82 41 76 42 75 43 31 45
REMARK SMILES IDX 63 46 43 47 62 48 44 49 47 50 61 51 80 52 45 53 46 54 60 56
REMARK SMILES IDX 81 57 48 58 32 59 33 60 41 61 34 62 35 63 39 64 42 65 36 66
REMARK SMILES IDX 37 67 40 68 38 69 64 70 65 71 73 72 66 73 67 74 71 75 74 76
REMARK SMILES IDX 68 77 69 78 72 79 70 80 49 81 50 82 58 83 51 84 52 85 56 86
REMARK SMILES IDX 59 87 53 88 54 89 57 90 55 91
REMARK H PARENT 8 22 79 44 47 55
REMARK Flexibility Score: inf
ROOT
ATOM      1  C   UNL A   1      31.462  30.665  26.352  1.00  0.00     0.274 C 
ENDROOT
BRANCH   1   2
ATOM      2  O   UNL A   1      32.145  29.736  27.211  1.00  0.00    -0.462 OA
BRANCH   2   3
ATOM      3  C   UNL A   1      31.778  28.435  27.119  1.00  0.00     0.309 C 
ATOM      4  O   UNL A   1      31.332  27.766  28.044  1.00  0.00    -0.252 OA
BRANCH   3   5
ATOM      5  C   UNL A   1      31.867  27.909  25.688  1.00  0.00     0.105 C 
ATOM      6  C   UNL A   1      30.922  26.701  25.493  1.00  0.00     0.037 C 
ATOM      7  C   UNL A   1      31.562  25.459  26.152  1.00  0.00     0.007 C 
ATOM      8  C   UNL A   1      32.959  25.156  25.616  1.00  0.00     0.000 C 
ATOM      9  C   UNL A   1      33.294  27.632  25.188  1.00  0.00     0.016 C 
ATOM     10  C   UNL A   1      33.897  26.349  25.751  1.00  0.00     0.001 C 
BRANCH   6  11
ATOM     11  C   UNL A   1      30.557  26.469  23.997  1.00  0.00     0.151 C 
BRANCH  11  12
ATOM     12  C   UNL A   1      29.880  27.652  23.331  1.00  0.00     0.019 A 
ATOM     13  C   UNL A   1      28.027  31.085  21.432  1.00  0.00     0.047 C 
ATOM     14  C   UNL A   1      28.665  29.901  22.092  1.00  0.00    -0.012 A 
ATOM     15  C   UNL A   1      30.033  29.655  21.936  1.00  0.00     0.046 A 
ATOM     16  C   UNL A   1      27.914  28.999  22.849  1.00  0.00     0.126 A 
ATOM     17  C   UNL A   1      30.620  28.545  22.545  1.00  0.00     0.129 A 
ATOM     18  C   UNL A   1      28.506  27.899  23.475  1.00  0.00     0.049 A 
ATOM     19  F   UNL A   1      26.593  29.183  22.990  1.00  0.00    -0.207 F 
ATOM     20  F   UNL A   1      31.935  28.349  22.375  1.00  0.00    -0.207 F 
ENDBRANCH  11  12
BRANCH  11  21
ATOM     21  O   UNL A   1      29.684  25.338  23.902  1.00  0.00    -0.388 OA
ATOM     22  H   UNL A   1      30.193  24.557  23.634  1.00  0.00     0.211 HD
ENDBRANCH  11  21
ENDBRANCH   6  11
ENDBRANCH   3   5
ENDBRANCH   2   3
ENDBRANCH   1   2
BRANCH   1  23
ATOM     23  C   UNL A   1      31.731  32.076  26.867  1.00  0.00     0.275 C 
BRANCH  23  24
ATOM     24  O   UNL A   1      33.150  32.326  26.860  1.00  0.00    -0.458 OA
BRANCH  24  25
ATOM     25  C   UNL A   1      33.614  33.202  27.778  1.00  0.00     0.338 C 
ATOM     26  O   UNL A   1      33.177  34.309  28.052  1.00  0.00    -0.246 OA
BRANCH  25  27
ATOM     27  C   UNL A   1      34.815  32.630  28.403  1.00  0.00     0.060 A 
ATOM     28  C   UNL A   1      34.780  31.306  28.836  1.00  0.00     0.016 A 
ATOM     29  C   UNL A   1      35.978  33.388  28.535  1.00  0.00     0.016 A 
ATOM     30  C   UNL A   1      35.904  30.761  29.459  1.00  0.00     0.010 A 
ATOM     31  C   UNL A   1      37.125  32.812  29.080  1.00  0.00     0.010 A 
ATOM     32  C   UNL A   1      37.092  31.505  29.583  1.00  0.00    -0.014 A 
BRANCH  32  33
ATOM     33  C   UNL A   1      38.274  30.929  30.279  1.00  0.00     0.031 A 
ATOM     34  C   UNL A   1      38.535  31.241  31.730  1.00  0.00     0.074 A 
ATOM     35  C   UNL A   1      39.111  30.110  29.611  1.00  0.00     0.049 A 
ATOM     36  N   UNL A   1      39.476  30.783  32.518  1.00  0.00    -0.248 NA
ATOM     37  C   UNL A   1      37.641  32.215  32.376  1.00  0.00     0.031 C 
ATOM     38  C   UNL A   1      39.010  29.780  28.188  1.00  0.00     0.029 A 
ATOM     39  N   UNL A   1      40.197  29.390  30.042  1.00  0.00    -0.354 N 
ATOM     40  C   UNL A   1      39.288  31.414  33.741  1.00  0.00     0.074 A 
ATOM     41  C   UNL A   1      38.193  32.342  33.574  1.00  0.00     0.031 C 
ATOM     42  C   UNL A   1      39.950  28.872  27.881  1.00  0.00     0.029 A 
ATOM     43  C   UNL A   1      40.739  28.578  29.075  1.00  0.00     0.049 A 
ATOM     44  H   UNL A   1      40.555  29.451  30.957  1.00  0.00     0.167 HD
ATOM     45  C   UNL A   1      39.940  31.213  34.911  1.00  0.00     0.037 A 
ATOM     46  C   UNL A   1      41.741  27.682  29.148  1.00  0.00     0.037 A 
ATOM     47  C   UNL A   1      41.001  30.261  35.093  1.00  0.00     0.049 A 
ATOM     48  C   UNL A   1      42.439  27.461  30.463  1.00  0.00     0.074 A 
ATOM     49  C   UNL A   1      41.686  29.942  36.252  1.00  0.00     0.029 A 
ATOM     50  N   UNL A   1      41.527  29.466  34.085  1.00  0.00    -0.354 N 
ATOM     51  N   UNL A   1      42.204  28.017  31.627  1.00  0.00    -0.248 NA
ATOM     52  C   UNL A   1      43.538  26.485  30.475  1.00  0.00     0.031 C 
ATOM     53  C   UNL A   1      42.650  28.978  35.939  1.00  0.00     0.029 A 
ATOM     54  C   UNL A   1      42.538  28.668  34.593  1.00  0.00     0.049 A 
ATOM     55  H   UNL A   1      41.226  29.469  33.148  1.00  0.00     0.167 HD
ATOM     56  C   UNL A   1      43.115  27.453  32.509  1.00  0.00     0.074 A 
ATOM     57  C   UNL A   1      43.889  26.491  31.754  1.00  0.00     0.031 C 
ATOM     58  C   UNL A   1      43.300  27.716  33.825  1.00  0.00     0.037 A 
BRANCH  45  59
ATOM     59  C   UNL A   1      39.499  32.019  36.099  1.00  0.00     0.064 A 
ATOM     60  C   UNL A   1      40.121  33.232  36.430  1.00  0.00     0.173 A 
ATOM     61  C   UNL A   1      38.417  31.601  36.888  1.00  0.00     0.173 A 
ATOM     62  F   UNL A   1      41.166  33.673  35.713  1.00  0.00    -0.203 F 
ATOM     63  C   UNL A   1      39.697  33.982  37.524  1.00  0.00     0.198 A 
ATOM     64  C   UNL A   1      37.976  32.368  37.963  1.00  0.00     0.198 A 
ATOM     65  F   UNL A   1      37.779  30.453  36.608  1.00  0.00    -0.203 F 
ATOM     66  F   UNL A   1      40.336  35.114  37.847  1.00  0.00    -0.200 F 
ATOM     67  C   UNL A   1      38.620  33.554  38.285  1.00  0.00     0.200 A 
ATOM     68  F   UNL A   1      36.924  31.961  38.689  1.00  0.00    -0.200 F 
ATOM     69  F   UNL A   1      38.206  34.281  39.331  1.00  0.00    -0.200 F 
ENDBRANCH  45  59
BRANCH  46  70
ATOM     70  C   UNL A   1      42.107  26.883  27.949  1.00  0.00     0.064 A 
ATOM     71  C   UNL A   1      41.505  25.641  27.705  1.00  0.00     0.173 A 
ATOM     72  C   UNL A   1      43.050  27.346  27.020  1.00  0.00     0.173 A 
ATOM     73  F   UNL A   1      40.611  25.147  28.575  1.00  0.00    -0.203 F 
ATOM     74  C   UNL A   1      41.843  24.885  26.584  1.00  0.00     0.198 A 
ATOM     75  C   UNL A   1      43.368  26.600  25.886  1.00  0.00     0.198 A 
ATOM     76  F   UNL A   1      43.651  28.531  27.206  1.00  0.00    -0.203 F 
ATOM     77  F   UNL A   1      41.279  23.685  26.393  1.00  0.00    -0.200 F 
ATOM     78  C   UNL A   1      42.768  25.369  25.672  1.00  0.00     0.200 A 
ATOM     79  F   UNL A   1      44.253  27.077  25.001  1.00  0.00    -0.200 F 
ATOM     80  F   UNL A   1      43.086  24.646  24.590  1.00  0.00    -0.200 F 
ENDBRANCH  46  70
BRANCH  58  81
ATOM     81  C   UNL A   1      44.382  26.959  34.539  1.00  0.00     0.064 A 
ATOM     82  C   UNL A   1      44.133  25.704  35.113  1.00  0.00     0.173 A 
ATOM     83  C   UNL A   1      45.691  27.459  34.588  1.00  0.00     0.173 A 
ATOM     84  F   UNL A   1      42.893  25.191  35.103  1.00  0.00    -0.203 F 
ATOM     85  C   UNL A   1      45.154  24.982  35.722  1.00  0.00     0.198 A 
ATOM     86  C   UNL A   1      46.716  26.722  35.174  1.00  0.00     0.198 A 
ATOM     87  F   UNL A   1      45.982  28.652  34.046  1.00  0.00    -0.203 F 
ATOM     88  F   UNL A   1      44.887  23.800  36.295  1.00  0.00    -0.200 F 
ATOM     89  C   UNL A   1      46.446  25.487  35.745  1.00  0.00     0.200 A 
ATOM     90  F   UNL A   1      47.967  27.204  35.183  1.00  0.00    -0.200 F 
ATOM     91  F   UNL A   1      47.432  24.783  36.320  1.00  0.00    -0.200 F 
ENDBRANCH  58  81
ENDBRANCH  32  33
ENDBRANCH  25  27
ENDBRANCH  24  25
ENDBRANCH  23  24
ENDBRANCH   1  23
TORSDOF 14
ENDMDL
MODEL 3
REMARK VINA RESULT:     -12.4      1.874      3.675
REMARK SMILES Cc1cc(F)c([C@H](O)[C@H]2CCCC[C@@H]2C(=O)OCCOC(=O)c2ccc(-c3c4nc(c(-c5c(F)c(F)c(F)c(F)c5F)c5ccc([nH]5)c(-c5c(F)c(F)c(F)c(F)c5F)c5nc(c(-c6c(F)c(F)c(F)c(F)c6F)c6ccc3[nH]6)C=C5)C=C4)cc2)cc1F
REMARK SMILES IDX 18 1 17 2 15 3 16 4 14 5 9 6 10 7 11 8 13 9 12 10 7 11 6 12
REMARK SMILES IDX 1 13 2 14 3 15 87 16 4 17 86 18 88 19 5 20 8 21 19 23 20 24
REMARK SMILES IDX 21 25 22 26 23 27 24 28 85 29 25 30 84 31 26 32 27 33 28 34
REMARK SMILES IDX 78 35 29 36 83 37 77 38 79 39 30 40 82 41 76 42 75 43 31 45
REMARK SMILES IDX 63 46 43 47 62 48 44 49 47 50 61 51 80 52 45 53 46 54 60 56
REMARK SMILES IDX 81 57 48 58 32 59 33 60 41 61 34 62 35 63 39 64 42 65 36 66
REMARK SMILES IDX 37 67 40 68 38 69 64 70 65 71 73 72 66 73 67 74 71 75 74 76
REMARK SMILES IDX 68 77 69 78 72 79 70 80 49 81 50 82 58 83 51 84 52 85 56 86
REMARK SMILES IDX 59 87 53 88 54 89 57 90 55 91
REMARK H PARENT 8 22 79 44 47 55
REMARK Flexibility Score: inf
ROOT
ATOM      1  C   UNL A   1      31.684  28.926  27.251  1.00  0.00     0.274 C 
ENDROOT
BRANCH   1   2
ATOM      2  O   UNL A   1      31.404  27.646  26.659  1.00  0.00    -0.462 OA
BRANCH   2   3
ATOM      3  C   UNL A   1      32.415  27.054  25.978  1.00  0.00     0.309 C 
ATOM      4  O   UNL A   1      33.591  27.061  26.324  1.00  0.00    -0.252 OA
BRANCH   3   5
ATOM      5  C   UNL A   1      31.915  26.259  24.774  1.00  0.00     0.105 C 
ATOM      6  C   UNL A   1      32.849  26.464  23.561  1.00  0.00     0.037 C 
ATOM      7  C   UNL A   1      32.572  27.856  22.950  1.00  0.00     0.007 C 
ATOM      8  C   UNL A   1      31.110  28.050  22.557  1.00  0.00     0.000 C 
ATOM      9  C   UNL A   1      30.434  26.478  24.426  1.00  0.00     0.016 C 
ATOM     10  C   UNL A   1      30.164  27.806  23.726  1.00  0.00     0.001 C 
BRANCH   6  11
ATOM     11  C   UNL A   1      32.728  25.313  22.517  1.00  0.00     0.151 C 
BRANCH  11  12
ATOM     12  C   UNL A   1      32.998  23.931  23.082  1.00  0.00     0.019 A 
ATOM     13  C   UNL A   1      33.686  19.981  24.739  1.00  0.00     0.047 C 
ATOM     14  C   UNL A   1      33.452  21.347  24.170  1.00  0.00    -0.012 A 
ATOM     15  C   UNL A   1      32.153  21.784  23.890  1.00  0.00     0.046 A 
ATOM     16  C   UNL A   1      34.515  22.204  23.876  1.00  0.00     0.126 A 
ATOM     17  C   UNL A   1      31.941  23.053  23.351  1.00  0.00     0.129 A 
ATOM     18  C   UNL A   1      34.300  23.482  23.355  1.00  0.00     0.049 A 
ATOM     19  F   UNL A   1      35.775  21.805  24.097  1.00  0.00    -0.207 F 
ATOM     20  F   UNL A   1      30.680  23.435  23.103  1.00  0.00    -0.207 F 
ENDBRANCH  11  12
BRANCH  11  21
ATOM     21  O   UNL A   1      33.653  25.553  21.451  1.00  0.00    -0.388 OA
ATOM     22  H   UNL A   1      33.213  26.055  20.748  1.00  0.00     0.211 HD
ENDBRANCH  11  21
ENDBRANCH   6  11
ENDBRANCH   3   5
ENDBRANCH   2   3
ENDBRANCH   1   2
BRANCH   1  23
ATOM     23  C   UNL A   1      31.852  29.944  26.126  1.00  0.00     0.275 C 
BRANCH  23  24
ATOM     24  O   UNL A   1      33.199  30.457  26.142  1.00  0.00    -0.458 OA
BRANCH  24  25
ATOM     25  C   UNL A   1      33.473  31.407  27.063  1.00  0.00     0.338 C 
ATOM     26  O   UNL A   1      32.836  32.417  27.317  1.00  0.00    -0.246 OA
BRANCH  25  27
ATOM     27  C   UNL A   1      34.741  31.063  27.722  1.00  0.00     0.060 A 
ATOM     28  C   UNL A   1      34.995  29.730  28.038  1.00  0.00     0.016 A 
ATOM     29  C   UNL A   1      35.687  32.049  28.001  1.00  0.00     0.016 A 
ATOM     30  C   UNL A   1      36.182  29.396  28.691  1.00  0.00     0.010 A 
ATOM     31  C   UNL A   1      36.907  31.699  28.576  1.00  0.00     0.010 A 
ATOM     32  C   UNL A   1      37.155  30.376  28.963  1.00  0.00    -0.014 A 
BRANCH  32  33
ATOM     33  C   UNL A   1      38.402  30.017  29.691  1.00  0.00     0.031 A 
ATOM     34  C   UNL A   1      38.633  30.504  31.098  1.00  0.00     0.074 A 
ATOM     35  C   UNL A   1      39.327  29.240  29.093  1.00  0.00     0.049 A 
ATOM     36  N   UNL A   1      39.628  30.243  31.910  1.00  0.00    -0.248 NA
ATOM     37  C   UNL A   1      37.634  31.425  31.660  1.00  0.00     0.031 C 
ATOM     38  C   UNL A   1      39.257  28.758  27.712  1.00  0.00     0.029 A 
ATOM     39  N   UNL A   1      40.495  28.702  29.573  1.00  0.00    -0.354 N 
ATOM     40  C   UNL A   1      39.374  30.969  33.067  1.00  0.00     0.074 A 
ATOM     41  C   UNL A   1      38.174  31.738  32.829  1.00  0.00     0.031 C 
ATOM     42  C   UNL A   1      40.297  27.941  27.480  1.00  0.00     0.029 A 
ATOM     43  C   UNL A   1      41.123  27.866  28.682  1.00  0.00     0.049 A 
ATOM     44  H   UNL A   1      40.849  28.897  30.471  1.00  0.00     0.167 HD
ATOM     45  C   UNL A   1      40.054  30.967  34.239  1.00  0.00     0.037 A 
ATOM     46  C   UNL A   1      42.227  27.107  28.826  1.00  0.00     0.037 A 
ATOM     47  C   UNL A   1      41.223  30.171  34.495  1.00  0.00     0.049 A 
ATOM     48  C   UNL A   1      42.954  27.105  30.143  1.00  0.00     0.074 A 
ATOM     49  C   UNL A   1      41.948  30.055  35.667  1.00  0.00     0.029 A 
ATOM     50  N   UNL A   1      41.833  29.345  33.562  1.00  0.00    -0.354 N 
ATOM     51  N   UNL A   1      42.662  27.744  31.249  1.00  0.00    -0.248 NA
ATOM     52  C   UNL A   1      44.163  26.273  30.232  1.00  0.00     0.031 C 
ATOM     53  C   UNL A   1      43.019  29.185  35.434  1.00  0.00     0.029 A 
ATOM     54  C   UNL A   1      42.936  28.728  34.129  1.00  0.00     0.049 A 
ATOM     55  H   UNL A   1      41.528  29.217  32.635  1.00  0.00     0.167 HD
ATOM     56  C   UNL A   1      43.640  27.385  32.166  1.00  0.00     0.074 A 
ATOM     57  C   UNL A   1      44.520  26.450  31.496  1.00  0.00     0.031 C 
ATOM     58  C   UNL A   1      43.801  27.801  33.446  1.00  0.00     0.037 A 
BRANCH  45  59
ATOM     59  C   UNL A   1      39.527  31.831  35.349  1.00  0.00     0.064 A 
ATOM     60  C   UNL A   1      38.613  31.333  36.290  1.00  0.00     0.173 A 
ATOM     61  C   UNL A   1      39.971  33.152  35.502  1.00  0.00     0.173 A 
ATOM     62  F   UNL A   1      38.150  30.078  36.184  1.00  0.00    -0.203 F 
ATOM     63  C   UNL A   1      38.141  32.135  37.326  1.00  0.00     0.198 A 
ATOM     64  C   UNL A   1      39.520  33.942  36.557  1.00  0.00     0.198 A 
ATOM     65  F   UNL A   1      40.853  33.675  34.635  1.00  0.00    -0.203 F 
ATOM     66  F   UNL A   1      37.234  31.651  38.185  1.00  0.00    -0.200 F 
ATOM     67  C   UNL A   1      38.600  33.436  37.463  1.00  0.00     0.200 A 
ATOM     68  F   UNL A   1      39.977  35.195  36.698  1.00  0.00    -0.200 F 
ATOM     69  F   UNL A   1      38.153  34.203  38.466  1.00  0.00    -0.200 F 
ENDBRANCH  45  59
BRANCH  46  70
ATOM     70  C   UNL A   1      42.678  26.240  27.706  1.00  0.00     0.064 A 
ATOM     71  C   UNL A   1      42.125  24.965  27.520  1.00  0.00     0.173 A 
ATOM     72  C   UNL A   1      43.655  26.667  26.796  1.00  0.00     0.173 A 
ATOM     73  F   UNL A   1      41.201  24.504  28.376  1.00  0.00    -0.203 F 
ATOM     74  C   UNL A   1      42.542  24.145  26.473  1.00  0.00     0.198 A 
ATOM     75  C   UNL A   1      44.052  25.856  25.734  1.00  0.00     0.198 A 
ATOM     76  F   UNL A   1      44.211  27.881  26.927  1.00  0.00    -0.203 F 
ATOM     77  F   UNL A   1      42.024  22.917  26.340  1.00  0.00    -0.200 F 
ATOM     78  C   UNL A   1      43.500  24.594  25.577  1.00  0.00     0.200 A 
ATOM     79  F   UNL A   1      44.969  26.299  24.863  1.00  0.00    -0.200 F 
ATOM     80  F   UNL A   1      43.895  23.808  24.566  1.00  0.00    -0.200 F 
ENDBRANCH  46  70
BRANCH  58  81
ATOM     81  C   UNL A   1      44.971  27.254  34.211  1.00  0.00     0.064 A 
ATOM     82  C   UNL A   1      46.197  27.931  34.248  1.00  0.00     0.173 A 
ATOM     83  C   UNL A   1      44.842  26.080  34.969  1.00  0.00     0.173 A 
ATOM     84  F   UNL A   1      46.372  29.050  33.528  1.00  0.00    -0.203 F 
ATOM     85  C   UNL A   1      47.259  27.447  35.006  1.00  0.00     0.198 A 
ATOM     86  C   UNL A   1      45.898  25.613  35.747  1.00  0.00     0.198 A 
ATOM     87  F   UNL A   1      43.686  25.398  34.973  1.00  0.00    -0.203 F 
ATOM     88  F   UNL A   1      48.433  28.092  34.999  1.00  0.00    -0.200 F 
ATOM     89  C   UNL A   1      47.106  26.294  35.761  1.00  0.00     0.200 A 
ATOM     90  F   UNL A   1      45.744  24.507  36.488  1.00  0.00    -0.200 F 
ATOM     91  F   UNL A   1      48.125  25.837  36.503  1.00  0.00    -0.200 F 
ENDBRANCH  58  81
ENDBRANCH  32  33
ENDBRANCH  25  27
ENDBRANCH  24  25
ENDBRANCH  23  24
ENDBRANCH   1  23
TORSDOF 14
ENDMDL
