MODEL 1
REMARK VINA RESULT:     -13.2      0.000      0.000
REMARK SMILES C[C@H]1OCC[C@@H]1C(=O)Nc1sc2c(c1C(=O)OCCOC(=O)c1ccc(-c3c4nc(c(-c5c(F)c(F)c(F)c(F)c5F)c5ccc([nH]5)c(-c5c(F)c(F)c(F)c(F)c5F)c5nc(c(-c6c(F)c(F)c(F)c(F)c6F)c6ccc3[nH]6)C=C5)C=C4)cc1)CCC2
REMARK SMILES IDX 18 1 17 2 15 3 16 4 14 5 10 6 11 7 12 8 13 9 88 10 86 11
REMARK SMILES IDX 87 12 9 13 7 14 8 15 6 17 1 18 2 19 3 20 4 21 5 22 19 23
REMARK SMILES IDX 20 24 21 25 22 26 23 27 24 28 85 29 25 30 84 31 26 32 27 33
REMARK SMILES IDX 28 34 78 35 29 36 83 37 77 38 79 39 30 40 82 41 76 42 75 43
REMARK SMILES IDX 31 45 63 46 43 47 62 48 44 49 47 50 61 51 80 52 45 53 46 54
REMARK SMILES IDX 60 56 81 57 48 58 32 59 33 60 41 61 34 62 35 63 39 64 42 65
REMARK SMILES IDX 36 66 37 67 40 68 38 69 64 70 65 71 73 72 66 73 67 74 71 75
REMARK SMILES IDX 74 76 68 77 69 78 72 79 70 80 49 81 50 82 58 83 51 84 52 85
REMARK SMILES IDX 56 86 59 87 53 88 54 89 57 90 55 91
REMARK H PARENT 9 16 79 44 47 55
REMARK Flexibility Score: inf
ROOT
ATOM      1  C   UNL A   1      33.670  29.456  27.374  1.00  0.00     0.275 C 
ENDROOT
BRANCH   1   2
ATOM      2  O   UNL A   1      33.358  28.133  26.891  1.00  0.00    -0.458 OA
BRANCH   2   3
ATOM      3  C   UNL A   1      32.036  27.786  26.922  1.00  0.00     0.341 C 
ATOM      4  O   UNL A   1      31.359  27.758  27.933  1.00  0.00    -0.246 OA
BRANCH   3   5
ATOM      5  C   UNL A   1      31.503  27.484  25.594  1.00  0.00     0.098 A 
ATOM      6  C   UNL A   1      31.123  26.205  25.207  1.00  0.00     0.110 A 
ATOM      7  S   UNL A   1      30.795  26.039  23.534  1.00  0.00    -0.122 S 
ATOM      8  C   UNL A   1      30.682  27.697  23.421  1.00  0.00     0.011 A 
ATOM      9  C   UNL A   1      31.062  28.365  24.558  1.00  0.00    -0.017 A 
ATOM     10  C   UNL A   1      30.091  28.556  22.372  1.00  0.00     0.047 C 
ATOM     11  C   UNL A   1      30.752  29.816  24.426  1.00  0.00     0.038 C 
ATOM     12  C   UNL A   1      29.749  29.815  23.221  1.00  0.00     0.010 C 
BRANCH   6  13
ATOM     13  N   UNL A   1      30.877  25.065  25.933  1.00  0.00    -0.317 N 
ATOM     14  C   UNL A   1      31.902  24.349  26.502  1.00  0.00     0.230 C 
ATOM     15  O   UNL A   1      31.668  23.848  27.612  1.00  0.00    -0.274 OA
ATOM     16  H   UNL A   1      29.951  24.756  26.048  1.00  0.00     0.170 HD
BRANCH  14  17
ATOM     17  C   UNL A   1      33.240  24.027  25.823  1.00  0.00     0.110 C 
ATOM     18  C   UNL A   1      33.731  21.536  25.951  1.00  0.00     0.039 C 
ATOM     19  C   UNL A   1      34.041  22.919  26.512  1.00  0.00     0.127 C 
ATOM     20  O   UNL A   1      35.441  23.181  26.229  1.00  0.00    -0.378 OA
ATOM     21  C   UNL A   1      35.493  24.179  25.203  1.00  0.00     0.161 C 
ATOM     22  C   UNL A   1      34.304  25.045  25.514  1.00  0.00     0.044 C 
ENDBRANCH  14  17
ENDBRANCH   6  13
ENDBRANCH   3   5
ENDBRANCH   2   3
ENDBRANCH   1   2
BRANCH   1  23
ATOM     23  C   UNL A   1      35.175  29.673  27.436  1.00  0.00     0.275 C 
BRANCH  23  24
ATOM     24  O   UNL A   1      35.635  29.827  28.789  1.00  0.00    -0.458 OA
BRANCH  24  25
ATOM     25  C   UNL A   1      36.964  30.054  28.802  1.00  0.00     0.338 C 
ATOM     26  O   UNL A   1      37.535  30.945  29.422  1.00  0.00    -0.246 OA
BRANCH  25  27
ATOM     27  C   UNL A   1      37.754  29.079  28.040  1.00  0.00     0.060 A 
ATOM     28  C   UNL A   1      38.021  27.842  28.625  1.00  0.00     0.016 A 
ATOM     29  C   UNL A   1      38.649  29.659  27.142  1.00  0.00     0.016 A 
ATOM     30  C   UNL A   1      39.326  27.358  28.583  1.00  0.00     0.010 A 
ATOM     31  C   UNL A   1      39.926  29.145  27.055  1.00  0.00     0.010 A 
ATOM     32  C   UNL A   1      40.301  28.080  27.886  1.00  0.00    -0.014 A 
BRANCH  32  33
ATOM     33  C   UNL A   1      41.716  27.666  27.911  1.00  0.00     0.031 A 
ATOM     34  C   UNL A   1      42.483  28.097  29.120  1.00  0.00     0.074 A 
ATOM     35  C   UNL A   1      42.139  26.716  27.041  1.00  0.00     0.049 A 
ATOM     36  N   UNL A   1      43.764  28.249  29.267  1.00  0.00    -0.248 NA
ATOM     37  C   UNL A   1      41.706  28.427  30.334  1.00  0.00     0.031 C 
ATOM     38  C   UNL A   1      41.344  26.146  25.941  1.00  0.00     0.029 A 
ATOM     39  N   UNL A   1      43.251  25.909  27.060  1.00  0.00    -0.354 N 
ATOM     40  C   UNL A   1      43.951  28.514  30.623  1.00  0.00     0.074 A 
ATOM     41  C   UNL A   1      42.660  28.734  31.206  1.00  0.00     0.031 C 
ATOM     42  C   UNL A   1      41.849  24.944  25.604  1.00  0.00     0.029 A 
ATOM     43  C   UNL A   1      43.035  24.695  26.405  1.00  0.00     0.049 A 
ATOM     44  H   UNL A   1      44.103  26.157  27.487  1.00  0.00     0.167 HD
ATOM     45  C   UNL A   1      45.117  28.232  31.254  1.00  0.00     0.037 A 
ATOM     46  C   UNL A   1      43.684  23.516  26.580  1.00  0.00     0.037 A 
ATOM     47  C   UNL A   1      46.243  28.254  30.372  1.00  0.00     0.049 A 
ATOM     48  C   UNL A   1      44.960  23.771  27.280  1.00  0.00     0.074 A 
ATOM     49  C   UNL A   1      46.942  29.223  29.689  1.00  0.00     0.029 A 
ATOM     50  N   UNL A   1      46.648  27.043  29.884  1.00  0.00    -0.354 N 
ATOM     51  N   UNL A   1      45.994  24.356  26.749  1.00  0.00    -0.248 NA
ATOM     52  C   UNL A   1      45.030  23.569  28.724  1.00  0.00     0.031 C 
ATOM     53  C   UNL A   1      47.588  28.558  28.609  1.00  0.00     0.029 A 
ATOM     54  C   UNL A   1      47.248  27.207  28.665  1.00  0.00     0.049 A 
ATOM     55  H   UNL A   1      46.526  26.181  30.343  1.00  0.00     0.167 HD
ATOM     56  C   UNL A   1      46.624  24.966  27.816  1.00  0.00     0.074 A 
ATOM     57  C   UNL A   1      46.118  24.290  28.998  1.00  0.00     0.031 C 
ATOM     58  C   UNL A   1      47.230  26.174  27.656  1.00  0.00     0.037 A 
BRANCH  45  59
ATOM     59  C   UNL A   1      45.149  27.486  32.568  1.00  0.00     0.064 A 
ATOM     60  C   UNL A   1      44.606  26.191  32.645  1.00  0.00     0.173 A 
ATOM     61  C   UNL A   1      45.394  28.124  33.807  1.00  0.00     0.173 A 
ATOM     62  F   UNL A   1      44.295  25.517  31.527  1.00  0.00    -0.203 F 
ATOM     63  C   UNL A   1      44.286  25.601  33.871  1.00  0.00     0.198 A 
ATOM     64  C   UNL A   1      45.125  27.510  35.028  1.00  0.00     0.198 A 
ATOM     65  F   UNL A   1      45.790  29.401  33.884  1.00  0.00    -0.203 F 
ATOM     66  F   UNL A   1      43.663  24.415  33.895  1.00  0.00    -0.200 F 
ATOM     67  C   UNL A   1      44.543  26.261  35.060  1.00  0.00     0.200 A 
ATOM     68  F   UNL A   1      45.356  28.178  36.167  1.00  0.00    -0.200 F 
ATOM     69  F   UNL A   1      44.184  25.721  36.231  1.00  0.00    -0.200 F 
ENDBRANCH  45  59
BRANCH  46  70
ATOM     70  C   UNL A   1      43.181  22.131  26.369  1.00  0.00     0.064 A 
ATOM     71  C   UNL A   1      43.809  21.264  25.457  1.00  0.00     0.173 A 
ATOM     72  C   UNL A   1      42.219  21.544  27.215  1.00  0.00     0.173 A 
ATOM     73  F   UNL A   1      44.778  21.719  24.649  1.00  0.00    -0.203 F 
ATOM     74  C   UNL A   1      43.499  19.901  25.401  1.00  0.00     0.198 A 
ATOM     75  C   UNL A   1      41.891  20.189  27.140  1.00  0.00     0.198 A 
ATOM     76  F   UNL A   1      41.637  22.248  28.196  1.00  0.00    -0.203 F 
ATOM     77  F   UNL A   1      44.169  19.098  24.561  1.00  0.00    -0.200 F 
ATOM     78  C   UNL A   1      42.541  19.364  26.242  1.00  0.00     0.200 A 
ATOM     79  F   UNL A   1      40.984  19.677  27.985  1.00  0.00    -0.200 F 
ATOM     80  F   UNL A   1      42.273  18.051  26.219  1.00  0.00    -0.200 F 
ENDBRANCH  46  70
BRANCH  58  81
ATOM     81  C   UNL A   1      47.677  26.536  26.276  1.00  0.00     0.064 A 
ATOM     82  C   UNL A   1      46.893  27.248  25.355  1.00  0.00     0.173 A 
ATOM     83  C   UNL A   1      48.988  26.210  25.903  1.00  0.00     0.173 A 
ATOM     84  F   UNL A   1      45.665  27.674  25.678  1.00  0.00    -0.203 F 
ATOM     85  C   UNL A   1      47.386  27.566  24.092  1.00  0.00     0.198 A 
ATOM     86  C   UNL A   1      49.491  26.567  24.658  1.00  0.00     0.198 A 
ATOM     87  F   UNL A   1      49.796  25.574  26.766  1.00  0.00    -0.203 F 
ATOM     88  F   UNL A   1      46.610  28.218  23.213  1.00  0.00    -0.200 F 
ATOM     89  C   UNL A   1      48.686  27.231  23.747  1.00  0.00     0.200 A 
ATOM     90  F   UNL A   1      50.764  26.282  24.345  1.00  0.00    -0.200 F 
ATOM     91  F   UNL A   1      49.170  27.566  22.543  1.00  0.00    -0.200 F 
ENDBRANCH  58  81
ENDBRANCH  32  33
ENDBRANCH  25  27
ENDBRANCH  24  25
ENDBRANCH  23  24
ENDBRANCH   1  23
TORSDOF 13
ENDMDL
MODEL 2
REMARK VINA RESULT:     -13.1      0.520      1.246
REMARK SMILES C[C@H]1OCC[C@@H]1C(=O)Nc1sc2c(c1C(=O)OCCOC(=O)c1ccc(-c3c4nc(c(-c5c(F)c(F)c(F)c(F)c5F)c5ccc([nH]5)c(-c5c(F)c(F)c(F)c(F)c5F)c5nc(c(-c6c(F)c(F)c(F)c(F)c6F)c6ccc3[nH]6)C=C5)C=C4)cc1)CCC2
REMARK SMILES IDX 18 1 17 2 15 3 16 4 14 5 10 6 11 7 12 8 13 9 88 10 86 11
REMARK SMILES IDX 87 12 9 13 7 14 8 15 6 17 1 18 2 19 3 20 4 21 5 22 19 23
REMARK SMILES IDX 20 24 21 25 22 26 23 27 24 28 85 29 25 30 84 31 26 32 27 33
REMARK SMILES IDX 28 34 78 35 29 36 83 37 77 38 79 39 30 40 82 41 76 42 75 43
REMARK SMILES IDX 31 45 63 46 43 47 62 48 44 49 47 50 61 51 80 52 45 53 46 54
REMARK SMILES IDX 60 56 81 57 48 58 32 59 33 60 41 61 34 62 35 63 39 64 42 65
REMARK SMILES IDX 36 66 37 67 40 68 38 69 64 70 65 71 73 72 66 73 67 74 71 75
REMARK SMILES IDX 74 76 68 77 69 78 72 79 70 80 49 81 50 82 58 83 51 84 52 85
REMARK SMILES IDX 56 86 59 87 53 88 54 89 57 90 55 91
REMARK H PARENT 9 16 79 44 47 55
REMARK Flexibility Score: inf
ROOT
ATOM      1  C   UNL A   1      33.674  29.516  27.282  1.00  0.00     0.275 C 
ENDROOT
BRANCH   1   2
ATOM      2  O   UNL A   1      33.348  28.157  26.927  1.00  0.00    -0.458 OA
BRANCH   2   3
ATOM      3  C   UNL A   1      32.027  27.818  27.022  1.00  0.00     0.341 C 
ATOM      4  O   UNL A   1      31.404  27.776  28.067  1.00  0.00    -0.246 OA
BRANCH   3   5
ATOM      5  C   UNL A   1      31.423  27.545  25.719  1.00  0.00     0.098 A 
ATOM      6  C   UNL A   1      30.921  26.297  25.368  1.00  0.00     0.110 A 
ATOM      7  S   UNL A   1      30.520  26.137  23.710  1.00  0.00    -0.122 S 
ATOM      8  C   UNL A   1      30.545  27.796  23.572  1.00  0.00     0.011 A 
ATOM      9  C   UNL A   1      31.022  28.445  24.684  1.00  0.00    -0.017 A 
ATOM     10  C   UNL A   1      29.993  28.687  22.529  1.00  0.00     0.047 C 
ATOM     11  C   UNL A   1      30.833  29.915  24.537  1.00  0.00     0.038 C 
ATOM     12  C   UNL A   1      29.791  29.983  23.368  1.00  0.00     0.010 C 
BRANCH   6  13
ATOM     13  N   UNL A   1      30.604  25.194  26.122  1.00  0.00    -0.317 N 
ATOM     14  C   UNL A   1      31.570  24.297  26.510  1.00  0.00     0.230 C 
ATOM     15  O   UNL A   1      31.437  23.809  27.642  1.00  0.00    -0.274 OA
ATOM     16  H   UNL A   1      29.670  25.042  26.389  1.00  0.00     0.170 HD
BRANCH  14  17
ATOM     17  C   UNL A   1      32.703  23.774  25.616  1.00  0.00     0.110 C 
ATOM     18  C   UNL A   1      32.275  21.358  24.953  1.00  0.00     0.039 C 
ATOM     19  C   UNL A   1      33.060  22.305  25.854  1.00  0.00     0.127 C 
ATOM     20  O   UNL A   1      34.459  22.154  25.500  1.00  0.00    -0.378 OA
ATOM     21  C   UNL A   1      34.859  23.345  24.813  1.00  0.00     0.161 C 
ATOM     22  C   UNL A   1      34.058  24.416  25.499  1.00  0.00     0.044 C 
ENDBRANCH  14  17
ENDBRANCH   6  13
ENDBRANCH   3   5
ENDBRANCH   2   3
ENDBRANCH   1   2
BRANCH   1  23
ATOM     23  C   UNL A   1      35.178  29.701  27.413  1.00  0.00     0.275 C 
BRANCH  23  24
ATOM     24  O   UNL A   1      35.599  29.676  28.787  1.00  0.00    -0.458 OA
BRANCH  24  25
ATOM     25  C   UNL A   1      36.928  29.893  28.868  1.00  0.00     0.338 C 
ATOM     26  O   UNL A   1      37.478  30.723  29.583  1.00  0.00    -0.246 OA
BRANCH  25  27
ATOM     27  C   UNL A   1      37.743  28.985  28.051  1.00  0.00     0.060 A 
ATOM     28  C   UNL A   1      38.008  27.709  28.545  1.00  0.00     0.016 A 
ATOM     29  C   UNL A   1      38.651  29.640  27.220  1.00  0.00     0.016 A 
ATOM     30  C   UNL A   1      39.318  27.240  28.494  1.00  0.00     0.010 A 
ATOM     31  C   UNL A   1      39.934  29.143  27.121  1.00  0.00     0.010 A 
ATOM     32  C   UNL A   1      40.301  28.020  27.877  1.00  0.00    -0.014 A 
BRANCH  32  33
ATOM     33  C   UNL A   1      41.719  27.616  27.901  1.00  0.00     0.031 A 
ATOM     34  C   UNL A   1      42.484  28.051  29.110  1.00  0.00     0.074 A 
ATOM     35  C   UNL A   1      42.148  26.669  27.030  1.00  0.00     0.049 A 
ATOM     36  N   UNL A   1      43.763  28.211  29.257  1.00  0.00    -0.248 NA
ATOM     37  C   UNL A   1      41.704  28.375  30.325  1.00  0.00     0.031 C 
ATOM     38  C   UNL A   1      41.357  26.095  25.930  1.00  0.00     0.029 A 
ATOM     39  N   UNL A   1      43.266  25.870  27.048  1.00  0.00    -0.354 N 
ATOM     40  C   UNL A   1      43.949  28.476  30.613  1.00  0.00     0.074 A 
ATOM     41  C   UNL A   1      42.656  28.687  31.196  1.00  0.00     0.031 C 
ATOM     42  C   UNL A   1      41.870  24.897  25.592  1.00  0.00     0.029 A 
ATOM     43  C   UNL A   1      43.058  24.655  26.391  1.00  0.00     0.049 A 
ATOM     44  H   UNL A   1      44.116  26.124  27.475  1.00  0.00     0.167 HD
ATOM     45  C   UNL A   1      45.117  28.202  31.243  1.00  0.00     0.037 A 
ATOM     46  C   UNL A   1      43.715  23.481  26.566  1.00  0.00     0.037 A 
ATOM     47  C   UNL A   1      46.243  28.232  30.361  1.00  0.00     0.049 A 
ATOM     48  C   UNL A   1      44.989  23.744  27.265  1.00  0.00     0.074 A 
ATOM     49  C   UNL A   1      46.934  29.207  29.679  1.00  0.00     0.029 A 
ATOM     50  N   UNL A   1      46.655  27.025  29.873  1.00  0.00    -0.354 N 
ATOM     51  N   UNL A   1      46.020  24.336  26.735  1.00  0.00    -0.248 NA
ATOM     52  C   UNL A   1      45.061  23.541  28.709  1.00  0.00     0.031 C 
ATOM     53  C   UNL A   1      47.585  28.547  28.598  1.00  0.00     0.029 A 
ATOM     54  C   UNL A   1      47.254  27.194  28.654  1.00  0.00     0.049 A 
ATOM     55  H   UNL A   1      46.540  26.161  30.330  1.00  0.00     0.167 HD
ATOM     56  C   UNL A   1      46.645  24.949  27.802  1.00  0.00     0.074 A 
ATOM     57  C   UNL A   1      46.145  24.268  28.984  1.00  0.00     0.031 C 
ATOM     58  C   UNL A   1      47.243  26.162  27.644  1.00  0.00     0.037 A 
BRANCH  45  59
ATOM     59  C   UNL A   1      45.154  27.455  32.557  1.00  0.00     0.064 A 
ATOM     60  C   UNL A   1      45.835  28.014  33.654  1.00  0.00     0.173 A 
ATOM     61  C   UNL A   1      44.829  26.083  32.670  1.00  0.00     0.173 A 
ATOM     62  F   UNL A   1      46.228  29.296  33.628  1.00  0.00    -0.203 F 
ATOM     63  C   UNL A   1      46.205  27.241  34.758  1.00  0.00     0.198 A 
ATOM     64  C   UNL A   1      45.151  25.330  33.796  1.00  0.00     0.198 A 
ATOM     65  F   UNL A   1      44.295  25.392  31.654  1.00  0.00    -0.203 F 
ATOM     66  F   UNL A   1      46.953  27.783  35.728  1.00  0.00    -0.200 F 
ATOM     67  C   UNL A   1      45.865  25.901  34.828  1.00  0.00     0.200 A 
ATOM     68  F   UNL A   1      44.837  24.027  33.831  1.00  0.00    -0.200 F 
ATOM     69  F   UNL A   1      46.269  25.148  35.858  1.00  0.00    -0.200 F 
ENDBRANCH  45  59
BRANCH  46  70
ATOM     70  C   UNL A   1      43.222  22.092  26.353  1.00  0.00     0.064 A 
ATOM     71  C   UNL A   1      43.858  21.229  25.444  1.00  0.00     0.173 A 
ATOM     72  C   UNL A   1      42.260  21.500  27.196  1.00  0.00     0.173 A 
ATOM     73  F   UNL A   1      44.827  21.689  24.640  1.00  0.00    -0.203 F 
ATOM     74  C   UNL A   1      43.557  19.863  25.387  1.00  0.00     0.198 A 
ATOM     75  C   UNL A   1      41.941  20.143  27.121  1.00  0.00     0.198 A 
ATOM     76  F   UNL A   1      41.670  22.201  28.174  1.00  0.00    -0.203 F 
ATOM     77  F   UNL A   1      44.235  19.064  24.551  1.00  0.00    -0.200 F 
ATOM     78  C   UNL A   1      42.599  19.322  26.226  1.00  0.00     0.200 A 
ATOM     79  F   UNL A   1      41.034  19.625  27.963  1.00  0.00    -0.200 F 
ATOM     80  F   UNL A   1      42.340  18.007  26.202  1.00  0.00    -0.200 F 
ENDBRANCH  46  70
BRANCH  58  81
ATOM     81  C   UNL A   1      47.687  26.528  26.264  1.00  0.00     0.064 A 
ATOM     82  C   UNL A   1      46.895  27.229  25.340  1.00  0.00     0.173 A 
ATOM     83  C   UNL A   1      49.003  26.218  25.893  1.00  0.00     0.173 A 
ATOM     84  F   UNL A   1      45.662  27.639  25.662  1.00  0.00    -0.203 F 
ATOM     85  C   UNL A   1      47.386  27.552  24.078  1.00  0.00     0.198 A 
ATOM     86  C   UNL A   1      49.503  26.581  24.648  1.00  0.00     0.198 A 
ATOM     87  F   UNL A   1      49.818  25.594  26.758  1.00  0.00    -0.203 F 
ATOM     88  F   UNL A   1      46.603  28.193  23.197  1.00  0.00    -0.200 F 
ATOM     89  C   UNL A   1      48.690  27.234  23.735  1.00  0.00     0.200 A 
ATOM     90  F   UNL A   1      50.780  26.312  24.338  1.00  0.00    -0.200 F 
ATOM     91  F   UNL A   1      49.172  27.574  22.531  1.00  0.00    -0.200 F 
ENDBRANCH  58  81
ENDBRANCH  32  33
ENDBRANCH  25  27
ENDBRANCH  24  25
ENDBRANCH  23  24
ENDBRANCH   1  23
TORSDOF 13
ENDMDL
MODEL 3
REMARK VINA RESULT:     -12.8      5.877     10.972
REMARK SMILES C[C@H]1OCC[C@@H]1C(=O)Nc1sc2c(c1C(=O)OCCOC(=O)c1ccc(-c3c4nc(c(-c5c(F)c(F)c(F)c(F)c5F)c5ccc([nH]5)c(-c5c(F)c(F)c(F)c(F)c5F)c5nc(c(-c6c(F)c(F)c(F)c(F)c6F)c6ccc3[nH]6)C=C5)C=C4)cc1)CCC2
REMARK SMILES IDX 18 1 17 2 15 3 16 4 14 5 10 6 11 7 12 8 13 9 88 10 86 11
REMARK SMILES IDX 87 12 9 13 7 14 8 15 6 17 1 18 2 19 3 20 4 21 5 22 19 23
REMARK SMILES IDX 20 24 21 25 22 26 23 27 24 28 85 29 25 30 84 31 26 32 27 33
REMARK SMILES IDX 28 34 78 35 29 36 83 37 77 38 79 39 30 40 82 41 76 42 75 43
REMARK SMILES IDX 31 45 63 46 43 47 62 48 44 49 47 50 61 51 80 52 45 53 46 54
REMARK SMILES IDX 60 56 81 57 48 58 32 59 33 60 41 61 34 62 35 63 39 64 42 65
REMARK SMILES IDX 36 66 37 67 40 68 38 69 64 70 65 71 73 72 66 73 67 74 71 75
REMARK SMILES IDX 74 76 68 77 69 78 72 79 70 80 49 81 50 82 58 83 51 84 52 85
REMARK SMILES IDX 56 86 59 87 53 88 54 89 57 90 55 91
REMARK H PARENT 9 16 79 44 47 55
REMARK Flexibility Score: inf
ROOT
ATOM      1  C   UNL A   1      37.777  22.882  25.728  1.00  0.00     0.275 C 
ENDROOT
BRANCH   1   2
ATOM      2  O   UNL A   1      36.402  23.232  25.473  1.00  0.00    -0.458 OA
BRANCH   2   3
ATOM      3  C   UNL A   1      35.958  23.008  24.199  1.00  0.00     0.341 C 
ATOM      4  O   UNL A   1      36.573  23.316  23.195  1.00  0.00    -0.246 OA
BRANCH   3   5
ATOM      5  C   UNL A   1      34.668  22.319  24.167  1.00  0.00     0.098 A 
ATOM      6  C   UNL A   1      33.556  22.832  23.510  1.00  0.00     0.110 A 
ATOM      7  S   UNL A   1      32.095  22.000  23.838  1.00  0.00    -0.122 S 
ATOM      8  C   UNL A   1      32.987  20.724  24.430  1.00  0.00     0.011 A 
ATOM      9  C   UNL A   1      34.329  20.985  24.552  1.00  0.00    -0.017 A 
ATOM     10  C   UNL A   1      32.608  19.318  24.687  1.00  0.00     0.047 C 
ATOM     11  C   UNL A   1      35.061  19.737  24.907  1.00  0.00     0.038 C 
ATOM     12  C   UNL A   1      34.002  18.638  24.551  1.00  0.00     0.010 C 
BRANCH   6  13
ATOM     13  N   UNL A   1      33.425  23.830  22.576  1.00  0.00    -0.317 N 
ATOM     14  C   UNL A   1      33.594  25.150  22.918  1.00  0.00     0.230 C 
ATOM     15  O   UNL A   1      34.147  25.867  22.071  1.00  0.00    -0.274 OA
ATOM     16  H   UNL A   1      33.207  23.597  21.646  1.00  0.00     0.170 HD
BRANCH  14  17
ATOM     17  C   UNL A   1      33.045  25.812  24.190  1.00  0.00     0.110 C 
ATOM     18  C   UNL A   1      30.969  27.179  23.663  1.00  0.00     0.039 C 
ATOM     19  C   UNL A   1      32.462  27.209  23.967  1.00  0.00     0.127 C 
ATOM     20  O   UNL A   1      32.620  27.930  25.217  1.00  0.00    -0.378 OA
ATOM     21  C   UNL A   1      32.985  26.975  26.220  1.00  0.00     0.161 C 
ATOM     22  C   UNL A   1      33.831  25.993  25.460  1.00  0.00     0.044 C 
ENDBRANCH  14  17
ENDBRANCH   6  13
ENDBRANCH   3   5
ENDBRANCH   2   3
ENDBRANCH   1   2
BRANCH   1  23
ATOM     23  C   UNL A   1      38.592  24.108  26.109  1.00  0.00     0.275 C 
BRANCH  23  24
ATOM     24  O   UNL A   1      39.548  23.814  27.140  1.00  0.00    -0.458 OA
BRANCH  24  25
ATOM     25  C   UNL A   1      40.178  24.942  27.523  1.00  0.00     0.338 C 
ATOM     26  O   UNL A   1      41.381  25.159  27.436  1.00  0.00    -0.246 OA
BRANCH  25  27
ATOM     27  C   UNL A   1      39.286  25.996  28.025  1.00  0.00     0.060 A 
ATOM     28  C   UNL A   1      39.317  27.242  27.401  1.00  0.00     0.016 A 
ATOM     29  C   UNL A   1      38.982  25.876  29.380  1.00  0.00     0.016 A 
ATOM     30  C   UNL A   1      39.389  28.380  28.201  1.00  0.00     0.010 A 
ATOM     31  C   UNL A   1      38.994  27.010  30.165  1.00  0.00     0.010 A 
ATOM     32  C   UNL A   1      39.340  28.243  29.592  1.00  0.00    -0.014 A 
BRANCH  32  33
ATOM     33  C   UNL A   1      39.527  29.407  30.477  1.00  0.00     0.031 A 
ATOM     34  C   UNL A   1      40.909  29.978  30.493  1.00  0.00     0.074 A 
ATOM     35  C   UNL A   1      38.435  30.047  30.962  1.00  0.00     0.049 A 
ATOM     36  N   UNL A   1      41.489  30.697  31.405  1.00  0.00    -0.248 NA
ATOM     37  C   UNL A   1      41.777  29.685  29.331  1.00  0.00     0.031 C 
ATOM     38  C   UNL A   1      37.042  29.596  30.815  1.00  0.00     0.029 A 
ATOM     39  N   UNL A   1      38.291  31.307  31.491  1.00  0.00    -0.354 N 
ATOM     40  C   UNL A   1      42.708  31.085  30.849  1.00  0.00     0.074 A 
ATOM     41  C   UNL A   1      42.890  30.343  29.636  1.00  0.00     0.031 C 
ATOM     42  C   UNL A   1      36.216  30.649  30.965  1.00  0.00     0.029 A 
ATOM     43  C   UNL A   1      37.009  31.822  31.289  1.00  0.00     0.049 A 
ATOM     44  H   UNL A   1      39.009  31.792  31.958  1.00  0.00     0.167 HD
ATOM     45  C   UNL A   1      43.349  32.211  31.247  1.00  0.00     0.037 A 
ATOM     46  C   UNL A   1      36.619  33.121  31.257  1.00  0.00     0.037 A 
ATOM     47  C   UNL A   1      43.044  32.576  32.595  1.00  0.00     0.049 A 
ATOM     48  C   UNL A   1      37.668  33.952  31.881  1.00  0.00     0.074 A 
ATOM     49  C   UNL A   1      43.331  32.071  33.843  1.00  0.00     0.029 A 
ATOM     50  N   UNL A   1      42.072  33.523  32.755  1.00  0.00    -0.354 N 
ATOM     51  N   UNL A   1      37.935  33.979  33.155  1.00  0.00    -0.248 NA
ATOM     52  C   UNL A   1      38.635  34.634  31.027  1.00  0.00     0.031 C 
ATOM     53  C   UNL A   1      42.322  32.571  34.714  1.00  0.00     0.029 A 
ATOM     54  C   UNL A   1      41.447  33.352  33.960  1.00  0.00     0.049 A 
ATOM     55  H   UNL A   1      41.854  34.225  32.100  1.00  0.00     0.167 HD
ATOM     56  C   UNL A   1      39.279  34.289  33.213  1.00  0.00     0.074 A 
ATOM     57  C   UNL A   1      39.596  34.873  31.921  1.00  0.00     0.031 C 
ATOM     58  C   UNL A   1      40.071  33.736  34.172  1.00  0.00     0.037 A 
BRANCH  45  59
ATOM     59  C   UNL A   1      43.881  33.215  30.250  1.00  0.00     0.064 A 
ATOM     60  C   UNL A   1      42.990  33.861  29.373  1.00  0.00     0.173 A 
ATOM     61  C   UNL A   1      45.252  33.312  29.914  1.00  0.00     0.173 A 
ATOM     62  F   UNL A   1      41.666  33.792  29.578  1.00  0.00    -0.203 F 
ATOM     63  C   UNL A   1      43.438  34.513  28.221  1.00  0.00     0.198 A 
ATOM     64  C   UNL A   1      45.698  34.010  28.794  1.00  0.00     0.198 A 
ATOM     65  F   UNL A   1      46.198  32.643  30.585  1.00  0.00    -0.203 F 
ATOM     66  F   UNL A   1      42.550  35.014  27.353  1.00  0.00    -0.200 F 
ATOM     67  C   UNL A   1      44.790  34.585  27.931  1.00  0.00     0.200 A 
ATOM     68  F   UNL A   1      47.009  34.043  28.517  1.00  0.00    -0.200 F 
ATOM     69  F   UNL A   1      45.215  35.158  26.799  1.00  0.00    -0.200 F 
ENDBRANCH  45  59
BRANCH  46  70
ATOM     70  C   UNL A   1      35.477  33.737  30.527  1.00  0.00     0.064 A 
ATOM     71  C   UNL A   1      34.413  34.339  31.222  1.00  0.00     0.173 A 
ATOM     72  C   UNL A   1      35.505  33.955  29.135  1.00  0.00     0.173 A 
ATOM     73  F   UNL A   1      34.332  34.235  32.557  1.00  0.00    -0.203 F 
ATOM     74  C   UNL A   1      33.447  35.113  30.569  1.00  0.00     0.198 A 
ATOM     75  C   UNL A   1      34.526  34.705  28.480  1.00  0.00     0.198 A 
ATOM     76  F   UNL A   1      36.530  33.524  28.387  1.00  0.00    -0.203 F 
ATOM     77  F   UNL A   1      32.487  35.722  31.280  1.00  0.00    -0.200 F 
ATOM     78  C   UNL A   1      33.504  35.295  29.199  1.00  0.00     0.200 A 
ATOM     79  F   UNL A   1      34.614  34.901  27.157  1.00  0.00    -0.200 F 
ATOM     80  F   UNL A   1      32.604  36.070  28.578  1.00  0.00    -0.200 F 
ENDBRANCH  46  70
BRANCH  58  81
ATOM     81  C   UNL A   1      39.401  33.275  35.427  1.00  0.00     0.064 A 
ATOM     82  C   UNL A   1      39.117  34.108  36.521  1.00  0.00     0.173 A 
ATOM     83  C   UNL A   1      38.959  31.946  35.487  1.00  0.00     0.173 A 
ATOM     84  F   UNL A   1      39.426  35.411  36.493  1.00  0.00    -0.203 F 
ATOM     85  C   UNL A   1      38.471  33.611  37.650  1.00  0.00     0.198 A 
ATOM     86  C   UNL A   1      38.276  31.465  36.598  1.00  0.00     0.198 A 
ATOM     87  F   UNL A   1      39.160  31.121  34.447  1.00  0.00    -0.203 F 
ATOM     88  F   UNL A   1      38.240  34.415  38.699  1.00  0.00    -0.200 F 
ATOM     89  C   UNL A   1      38.046  32.293  37.685  1.00  0.00     0.200 A 
ATOM     90  F   UNL A   1      37.826  30.202  36.609  1.00  0.00    -0.200 F 
ATOM     91  F   UNL A   1      37.396  31.824  38.759  1.00  0.00    -0.200 F 
ENDBRANCH  58  81
ENDBRANCH  32  33
ENDBRANCH  25  27
ENDBRANCH  24  25
ENDBRANCH  23  24
ENDBRANCH   1  23
TORSDOF 13
ENDMDL
