MODEL 1
REMARK VINA RESULT:     -11.7      0.000      0.000
REMARK SMILES C[C@H](NC(=O)c1cc(S(=O)(=O)N(C)C)cs1)C(=O)OCCOC(=O)c1ccc(-c2c3nc(c(-c4c(F)c(F)c(F)c(F)c4F)c4ccc([nH]4)c(-c4c(F)c(F)c(F)c(F)c4F)c4nc(c(-c5c(F)c(F)c(F)c(F)c5F)c5ccc2[nH]5)C=C4)C=C3)cc1
REMARK SMILES IDX 20 1 19 2 17 3 18 4 2 5 1 6 3 7 4 8 5 10 6 11 7 12 16 13
REMARK SMILES IDX 8 14 15 15 9 16 10 17 11 18 12 19 13 20 14 21 21 22 22 23
REMARK SMILES IDX 23 24 24 25 25 26 26 27 87 28 27 29 86 30 28 31 29 32 30 33
REMARK SMILES IDX 80 34 31 35 85 36 79 37 81 38 32 39 84 40 78 41 77 42 33 44
REMARK SMILES IDX 65 45 45 46 64 47 46 48 49 49 63 50 82 51 47 52 48 53 62 55
REMARK SMILES IDX 83 56 50 57 34 58 35 59 43 60 36 61 37 62 41 63 44 64 38 65
REMARK SMILES IDX 39 66 42 67 40 68 66 69 67 70 75 71 68 72 69 73 73 74 76 75
REMARK SMILES IDX 70 76 71 77 74 78 72 79 51 80 52 81 60 82 53 83 54 84 58 85
REMARK SMILES IDX 61 86 55 87 56 88 59 89 57 90
REMARK H PARENT 3 9 81 43 49 54
REMARK Flexibility Score: inf
ROOT
ATOM      1  C   UNL A   1      32.230  31.996  26.894  1.00  0.00     0.274 C 
ENDROOT
BRANCH   1   2
ATOM      2  O   UNL A   1      32.383  30.616  27.277  1.00  0.00    -0.461 OA
BRANCH   2   3
ATOM      3  C   UNL A   1      33.478  29.975  26.785  1.00  0.00     0.328 C 
ATOM      4  O   UNL A   1      34.638  30.267  27.048  1.00  0.00    -0.250 OA
BRANCH   3   5
ATOM      5  C   UNL A   1      33.108  28.879  25.777  1.00  0.00     0.189 C 
ATOM      6  C   UNL A   1      33.276  27.529  26.467  1.00  0.00     0.043 C 
BRANCH   5   7
ATOM      7  N   UNL A   1      33.869  28.942  24.524  1.00  0.00    -0.338 N 
ATOM      8  C   UNL A   1      33.451  28.695  23.235  1.00  0.00     0.262 C 
ATOM      9  H   UNL A   1      34.815  29.197  24.618  1.00  0.00     0.164 HD
ATOM     10  O   UNL A   1      34.295  28.669  22.341  1.00  0.00    -0.268 OA
BRANCH   8  11
ATOM     11  C   UNL A   1      32.035  28.478  23.005  1.00  0.00     0.093 A 
ATOM     12  C   UNL A   1      31.079  29.361  22.541  1.00  0.00     0.047 A 
ATOM     13  S   UNL A   1      31.354  26.936  23.323  1.00  0.00    -0.137 S 
ATOM     14  C   UNL A   1      29.766  28.818  22.610  1.00  0.00     0.094 A 
ATOM     15  C   UNL A   1      29.765  27.503  23.023  1.00  0.00     0.087 A 
BRANCH  14  16
ATOM     16  S   UNL A   1      28.330  29.742  22.319  1.00  0.00     0.243 S 
ATOM     17  O   UNL A   1      28.317  29.963  20.890  1.00  0.00    -0.207 OA
ATOM     18  O   UNL A   1      27.313  28.967  22.992  1.00  0.00    -0.207 OA
BRANCH  16  19
ATOM     19  N   UNL A   1      28.470  31.255  23.110  1.00  0.00    -0.204 NA
ATOM     20  C   UNL A   1      28.775  32.392  22.211  1.00  0.00     0.124 C 
ATOM     21  C   UNL A   1      27.313  31.556  23.985  1.00  0.00     0.124 C 
ENDBRANCH  16  19
ENDBRANCH  14  16
ENDBRANCH   8  11
ENDBRANCH   5   7
ENDBRANCH   3   5
ENDBRANCH   2   3
ENDBRANCH   1   2
BRANCH   1  22
ATOM     22  C   UNL A   1      32.931  32.921  27.891  1.00  0.00     0.275 C 
BRANCH  22  23
ATOM     23  O   UNL A   1      32.561  34.301  27.699  1.00  0.00    -0.458 OA
BRANCH  23  24
ATOM     24  C   UNL A   1      32.970  35.138  28.682  1.00  0.00     0.338 C 
ATOM     25  O   UNL A   1      32.442  36.185  29.020  1.00  0.00    -0.246 OA
BRANCH  24  26
ATOM     26  C   UNL A   1      34.101  34.550  29.423  1.00  0.00     0.060 A 
ATOM     27  C   UNL A   1      35.355  34.567  28.804  1.00  0.00     0.016 A 
ATOM     28  C   UNL A   1      33.931  33.924  30.661  1.00  0.00     0.016 A 
ATOM     29  C   UNL A   1      36.442  33.947  29.413  1.00  0.00     0.010 A 
ATOM     30  C   UNL A   1      35.025  33.294  31.268  1.00  0.00     0.010 A 
ATOM     31  C   UNL A   1      36.281  33.288  30.640  1.00  0.00    -0.014 A 
BRANCH  31  32
ATOM     32  C   UNL A   1      37.422  32.539  31.220  1.00  0.00     0.031 A 
ATOM     33  C   UNL A   1      37.927  32.889  32.592  1.00  0.00     0.074 A 
ATOM     34  C   UNL A   1      37.980  31.524  30.536  1.00  0.00     0.049 A 
ATOM     35  N   UNL A   1      38.917  32.363  33.268  1.00  0.00    -0.248 NA
ATOM     36  C   UNL A   1      37.220  33.968  33.297  1.00  0.00     0.031 C 
ATOM     37  C   UNL A   1      37.562  31.073  29.211  1.00  0.00     0.029 A 
ATOM     38  N   UNL A   1      39.020  30.692  30.864  1.00  0.00    -0.354 N 
ATOM     39  C   UNL A   1      38.961  33.053  34.471  1.00  0.00     0.074 A 
ATOM     40  C   UNL A   1      37.906  34.045  34.429  1.00  0.00     0.031 C 
ATOM     41  C   UNL A   1      38.345  30.048  28.832  1.00  0.00     0.029 A 
ATOM     42  C   UNL A   1      39.334  29.791  29.878  1.00  0.00     0.049 A 
ATOM     43  H   UNL A   1      39.497  30.738  31.725  1.00  0.00     0.167 HD
ATOM     44  C   UNL A   1      39.798  32.870  35.520  1.00  0.00     0.037 A 
ATOM     45  C   UNL A   1      40.320  28.877  29.818  1.00  0.00     0.037 A 
ATOM     46  C   UNL A   1      40.843  31.882  35.569  1.00  0.00     0.049 A 
ATOM     47  C   UNL A   1      41.266  28.725  30.977  1.00  0.00     0.074 A 
ATOM     48  C   UNL A   1      41.728  31.611  36.600  1.00  0.00     0.029 A 
ATOM     49  N   UNL A   1      41.145  31.002  34.542  1.00  0.00    -0.354 N 
ATOM     50  N   UNL A   1      41.285  29.369  32.119  1.00  0.00    -0.248 NA
ATOM     51  C   UNL A   1      42.328  27.717  30.840  1.00  0.00     0.031 C 
ATOM     52  C   UNL A   1      42.588  30.589  36.181  1.00  0.00     0.029 A 
ATOM     53  C   UNL A   1      42.215  30.200  34.906  1.00  0.00     0.049 A 
ATOM     54  H   UNL A   1      40.670  30.955  33.681  1.00  0.00     0.167 HD
ATOM     55  C   UNL A   1      42.346  28.837  32.840  1.00  0.00     0.074 A 
ATOM     56  C   UNL A   1      42.938  27.805  32.014  1.00  0.00     0.031 C 
ATOM     57  C   UNL A   1      42.790  29.175  34.074  1.00  0.00     0.037 A 
BRANCH  44  58
ATOM     58  C   UNL A   1      39.632  33.777  36.702  1.00  0.00     0.064 A 
ATOM     59  C   UNL A   1      40.237  35.041  36.746  1.00  0.00     0.173 A 
ATOM     60  C   UNL A   1      38.825  33.394  37.784  1.00  0.00     0.173 A 
ATOM     61  F   UNL A   1      41.028  35.445  35.740  1.00  0.00    -0.203 F 
ATOM     62  C   UNL A   1      40.053  35.884  37.839  1.00  0.00     0.198 A 
ATOM     63  C   UNL A   1      38.627  34.247  38.865  1.00  0.00     0.198 A 
ATOM     64  F   UNL A   1      38.223  32.195  37.785  1.00  0.00    -0.203 F 
ATOM     65  F   UNL A   1      40.666  37.075  37.876  1.00  0.00    -0.200 F 
ATOM     66  C   UNL A   1      39.243  35.489  38.894  1.00  0.00     0.200 A 
ATOM     67  F   UNL A   1      37.839  33.867  39.881  1.00  0.00    -0.200 F 
ATOM     68  F   UNL A   1      39.064  36.303  39.943  1.00  0.00    -0.200 F 
ENDBRANCH  44  58
BRANCH  45  69
ATOM     69  C   UNL A   1      40.469  28.034  28.605  1.00  0.00     0.064 A 
ATOM     70  C   UNL A   1      39.851  26.779  28.519  1.00  0.00     0.173 A 
ATOM     71  C   UNL A   1      41.236  28.464  27.514  1.00  0.00     0.173 A 
ATOM     72  F   UNL A   1      39.125  26.319  29.549  1.00  0.00    -0.203 F 
ATOM     73  C   UNL A   1      40.006  25.980  27.389  1.00  0.00     0.198 A 
ATOM     74  C   UNL A   1      41.370  27.674  26.375  1.00  0.00     0.198 A 
ATOM     75  F   UNL A   1      41.846  29.657  27.552  1.00  0.00    -0.203 F 
ATOM     76  F   UNL A   1      39.434  24.769  27.345  1.00  0.00    -0.200 F 
ATOM     77  C   UNL A   1      40.761  26.430  26.316  1.00  0.00     0.200 A 
ATOM     78  F   UNL A   1      42.092  28.117  25.336  1.00  0.00    -0.200 F 
ATOM     79  F   UNL A   1      40.905  25.662  25.227  1.00  0.00    -0.200 F 
ENDBRANCH  45  69
BRANCH  57  80
ATOM     80  C   UNL A   1      43.960  28.409  34.617  1.00  0.00     0.064 A 
ATOM     81  C   UNL A   1      45.274  28.868  34.452  1.00  0.00     0.173 A 
ATOM     82  C   UNL A   1      43.760  27.225  35.341  1.00  0.00     0.173 A 
ATOM     83  F   UNL A   1      45.516  29.987  33.753  1.00  0.00    -0.203 F 
ATOM     84  C   UNL A   1      46.350  28.156  34.978  1.00  0.00     0.198 A 
ATOM     85  C   UNL A   1      44.836  26.529  35.884  1.00  0.00     0.198 A 
ATOM     86  F   UNL A   1      42.521  26.748  35.528  1.00  0.00    -0.203 F 
ATOM     87  F   UNL A   1      47.602  28.593  34.777  1.00  0.00    -0.200 F 
ATOM     88  C   UNL A   1      46.130  26.991  35.698  1.00  0.00     0.200 A 
ATOM     89  F   UNL A   1      44.621  25.406  36.585  1.00  0.00    -0.200 F 
ATOM     90  F   UNL A   1      47.166  26.311  36.206  1.00  0.00    -0.200 F 
ENDBRANCH  57  80
ENDBRANCH  31  32
ENDBRANCH  24  26
ENDBRANCH  23  24
ENDBRANCH  22  23
ENDBRANCH   1  22
TORSDOF 15
ENDMDL
MODEL 2
REMARK VINA RESULT:     -11.6      5.628     10.782
REMARK SMILES C[C@H](NC(=O)c1cc(S(=O)(=O)N(C)C)cs1)C(=O)OCCOC(=O)c1ccc(-c2c3nc(c(-c4c(F)c(F)c(F)c(F)c4F)c4ccc([nH]4)c(-c4c(F)c(F)c(F)c(F)c4F)c4nc(c(-c5c(F)c(F)c(F)c(F)c5F)c5ccc2[nH]5)C=C4)C=C3)cc1
REMARK SMILES IDX 20 1 19 2 17 3 18 4 2 5 1 6 3 7 4 8 5 10 6 11 7 12 16 13
REMARK SMILES IDX 8 14 15 15 9 16 10 17 11 18 12 19 13 20 14 21 21 22 22 23
REMARK SMILES IDX 23 24 24 25 25 26 26 27 87 28 27 29 86 30 28 31 29 32 30 33
REMARK SMILES IDX 80 34 31 35 85 36 79 37 81 38 32 39 84 40 78 41 77 42 33 44
REMARK SMILES IDX 65 45 45 46 64 47 46 48 49 49 63 50 82 51 47 52 48 53 62 55
REMARK SMILES IDX 83 56 50 57 34 58 35 59 43 60 36 61 37 62 41 63 44 64 38 65
REMARK SMILES IDX 39 66 42 67 40 68 66 69 67 70 75 71 68 72 69 73 73 74 76 75
REMARK SMILES IDX 70 76 71 77 74 78 72 79 51 80 52 81 60 82 53 83 54 84 58 85
REMARK SMILES IDX 61 86 55 87 56 88 59 89 57 90
REMARK H PARENT 3 9 81 43 49 54
REMARK Flexibility Score: inf
ROOT
ATOM      1  C   UNL A   1      37.829  19.624  24.959  1.00  0.00     0.274 C 
ENDROOT
BRANCH   1   2
ATOM      2  O   UNL A   1      37.289  20.914  25.304  1.00  0.00    -0.461 OA
BRANCH   2   3
ATOM      3  C   UNL A   1      35.934  21.028  25.259  1.00  0.00     0.328 C 
ATOM      4  O   UNL A   1      35.180  20.217  24.737  1.00  0.00    -0.250 OA
BRANCH   3   5
ATOM      5  C   UNL A   1      35.439  22.349  25.863  1.00  0.00     0.189 C 
ATOM      6  C   UNL A   1      36.652  23.244  26.095  1.00  0.00     0.043 C 
BRANCH   5   7
ATOM      7  N   UNL A   1      34.649  22.182  27.089  1.00  0.00    -0.338 N 
ATOM      8  C   UNL A   1      33.373  22.618  27.370  1.00  0.00     0.262 C 
ATOM      9  H   UNL A   1      35.096  21.690  27.814  1.00  0.00     0.164 HD
ATOM     10  O   UNL A   1      32.951  22.491  28.518  1.00  0.00    -0.268 OA
BRANCH   8  11
ATOM     11  C   UNL A   1      32.596  23.203  26.294  1.00  0.00     0.093 A 
ATOM     12  C   UNL A   1      32.409  24.535  25.975  1.00  0.00     0.047 A 
ATOM     13  S   UNL A   1      31.755  22.179  25.205  1.00  0.00    -0.137 S 
ATOM     14  C   UNL A   1      31.441  24.711  24.946  1.00  0.00     0.094 A 
ATOM     15  C   UNL A   1      30.998  23.510  24.435  1.00  0.00     0.087 A 
BRANCH  14  16
ATOM     16  S   UNL A   1      30.815  26.255  24.474  1.00  0.00     0.243 S 
ATOM     17  O   UNL A   1      29.499  25.974  23.946  1.00  0.00    -0.207 OA
ATOM     18  O   UNL A   1      31.019  27.054  25.661  1.00  0.00    -0.207 OA
BRANCH  16  19
ATOM     19  N   UNL A   1      31.790  26.893  23.219  1.00  0.00    -0.204 NA
ATOM     20  C   UNL A   1      33.179  27.213  23.622  1.00  0.00     0.124 C 
ATOM     21  C   UNL A   1      31.763  26.065  21.992  1.00  0.00     0.124 C 
ENDBRANCH  16  19
ENDBRANCH  14  16
ENDBRANCH   8  11
ENDBRANCH   5   7
ENDBRANCH   3   5
ENDBRANCH   2   3
ENDBRANCH   1   2
BRANCH   1  22
ATOM     22  C   UNL A   1      39.135  19.358  25.712  1.00  0.00     0.275 C 
BRANCH  22  23
ATOM     23  O   UNL A   1      39.890  20.567  25.928  1.00  0.00    -0.458 OA
BRANCH  23  24
ATOM     24  C   UNL A   1      40.573  20.605  27.097  1.00  0.00     0.338 C 
ATOM     25  O   UNL A   1      40.964  19.651  27.749  1.00  0.00    -0.246 OA
BRANCH  24  26
ATOM     26  C   UNL A   1      40.924  21.995  27.443  1.00  0.00     0.060 A 
ATOM     27  C   UNL A   1      40.383  23.013  26.651  1.00  0.00     0.016 A 
ATOM     28  C   UNL A   1      41.823  22.299  28.468  1.00  0.00     0.016 A 
ATOM     29  C   UNL A   1      40.749  24.338  26.871  1.00  0.00     0.010 A 
ATOM     30  C   UNL A   1      42.196  23.632  28.684  1.00  0.00     0.010 A 
ATOM     31  C   UNL A   1      41.673  24.656  27.876  1.00  0.00    -0.014 A 
BRANCH  31  32
ATOM     32  C   UNL A   1      42.135  26.057  28.024  1.00  0.00     0.031 A 
ATOM     33  C   UNL A   1      43.459  26.473  27.449  1.00  0.00     0.074 A 
ATOM     34  C   UNL A   1      41.354  26.962  28.642  1.00  0.00     0.049 A 
ATOM     35  N   UNL A   1      44.044  27.644  27.483  1.00  0.00    -0.248 NA
ATOM     36  C   UNL A   1      44.221  25.439  26.735  1.00  0.00     0.031 C 
ATOM     37  C   UNL A   1      40.040  26.686  29.217  1.00  0.00     0.029 A 
ATOM     38  N   UNL A   1      41.558  28.296  28.887  1.00  0.00    -0.354 N 
ATOM     39  C   UNL A   1      45.247  27.485  26.808  1.00  0.00     0.074 A 
ATOM     40  C   UNL A   1      45.314  26.101  26.385  1.00  0.00     0.031 C 
ATOM     41  C   UNL A   1      39.556  27.817  29.758  1.00  0.00     0.029 A 
ATOM     42  C   UNL A   1      40.537  28.887  29.589  1.00  0.00     0.049 A 
ATOM     43  H   UNL A   1      42.360  28.783  28.589  1.00  0.00     0.167 HD
ATOM     44  C   UNL A   1      46.203  28.410  26.555  1.00  0.00     0.037 A 
ATOM     45  C   UNL A   1      40.418  30.142  30.059  1.00  0.00     0.037 A 
ATOM     46  C   UNL A   1      46.137  29.787  26.967  1.00  0.00     0.049 A 
ATOM     47  C   UNL A   1      41.516  31.139  29.804  1.00  0.00     0.074 A 
ATOM     48  C   UNL A   1      47.051  30.802  26.738  1.00  0.00     0.029 A 
ATOM     49  N   UNL A   1      45.098  30.343  27.696  1.00  0.00    -0.354 N 
ATOM     50  N   UNL A   1      42.639  30.983  29.147  1.00  0.00    -0.248 NA
ATOM     51  C   UNL A   1      41.328  32.489  30.358  1.00  0.00     0.031 C 
ATOM     52  C   UNL A   1      46.579  31.965  27.359  1.00  0.00     0.029 A 
ATOM     53  C   UNL A   1      45.356  31.683  27.942  1.00  0.00     0.049 A 
ATOM     54  H   UNL A   1      44.296  29.858  27.996  1.00  0.00     0.167 HD
ATOM     55  C   UNL A   1      43.283  32.212  29.194  1.00  0.00     0.074 A 
ATOM     56  C   UNL A   1      42.418  33.111  29.931  1.00  0.00     0.031 C 
ATOM     57  C   UNL A   1      44.484  32.564  28.674  1.00  0.00     0.037 A 
BRANCH  44  58
ATOM     58  C   UNL A   1      47.422  27.957  25.810  1.00  0.00     0.064 A 
ATOM     59  C   UNL A   1      48.601  27.604  26.481  1.00  0.00     0.173 A 
ATOM     60  C   UNL A   1      47.396  27.835  24.412  1.00  0.00     0.173 A 
ATOM     61  F   UNL A   1      48.678  27.718  27.816  1.00  0.00    -0.203 F 
ATOM     62  C   UNL A   1      49.718  27.160  25.778  1.00  0.00     0.198 A 
ATOM     63  C   UNL A   1      48.507  27.371  23.715  1.00  0.00     0.198 A 
ATOM     64  F   UNL A   1      46.289  28.158  23.727  1.00  0.00    -0.203 F 
ATOM     65  F   UNL A   1      50.846  26.859  26.435  1.00  0.00    -0.200 F 
ATOM     66  C   UNL A   1      49.668  27.038  24.396  1.00  0.00     0.200 A 
ATOM     67  F   UNL A   1      48.456  27.247  22.381  1.00  0.00    -0.200 F 
ATOM     68  F   UNL A   1      50.742  26.606  23.722  1.00  0.00    -0.200 F 
ENDBRANCH  44  58
BRANCH  45  69
ATOM     69  C   UNL A   1      39.210  30.528  30.830  1.00  0.00     0.064 A 
ATOM     70  C   UNL A   1      38.103  31.106  30.194  1.00  0.00     0.173 A 
ATOM     71  C   UNL A   1      39.143  30.333  32.217  1.00  0.00     0.173 A 
ATOM     72  F   UNL A   1      38.133  31.331  28.872  1.00  0.00    -0.203 F 
ATOM     73  C   UNL A   1      36.977  31.486  30.921  1.00  0.00     0.198 A 
ATOM     74  C   UNL A   1      38.007  30.691  32.938  1.00  0.00     0.198 A 
ATOM     75  F   UNL A   1      40.179  29.784  32.868  1.00  0.00    -0.203 F 
ATOM     76  F   UNL A   1      35.946  32.068  30.295  1.00  0.00    -0.200 F 
ATOM     77  C   UNL A   1      36.927  31.273  32.290  1.00  0.00     0.200 A 
ATOM     78  F   UNL A   1      37.959  30.474  34.259  1.00  0.00    -0.200 F 
ATOM     79  F   UNL A   1      35.841  31.633  32.988  1.00  0.00    -0.200 F 
ENDBRANCH  45  69
BRANCH  57  80
ATOM     80  C   UNL A   1      44.925  33.985  28.865  1.00  0.00     0.064 A 
ATOM     81  C   UNL A   1      44.573  34.989  27.953  1.00  0.00     0.173 A 
ATOM     82  C   UNL A   1      45.675  34.351  29.993  1.00  0.00     0.173 A 
ATOM     83  F   UNL A   1      43.870  34.683  26.852  1.00  0.00    -0.203 F 
ATOM     84  C   UNL A   1      44.975  36.308  28.152  1.00  0.00     0.198 A 
ATOM     85  C   UNL A   1      46.055  35.674  30.200  1.00  0.00     0.198 A 
ATOM     86  F   UNL A   1      46.032  33.426  30.896  1.00  0.00    -0.203 F 
ATOM     87  F   UNL A   1      44.659  37.246  27.248  1.00  0.00    -0.200 F 
ATOM     88  C   UNL A   1      45.709  36.649  29.278  1.00  0.00     0.200 A 
ATOM     89  F   UNL A   1      46.759  36.004  31.292  1.00  0.00    -0.200 F 
ATOM     90  F   UNL A   1      46.090  37.920  29.470  1.00  0.00    -0.200 F 
ENDBRANCH  57  80
ENDBRANCH  31  32
ENDBRANCH  24  26
ENDBRANCH  23  24
ENDBRANCH  22  23
ENDBRANCH   1  22
TORSDOF 15
ENDMDL
MODEL 3
REMARK VINA RESULT:     -11.6      2.934      4.805
REMARK SMILES C[C@H](NC(=O)c1cc(S(=O)(=O)N(C)C)cs1)C(=O)OCCOC(=O)c1ccc(-c2c3nc(c(-c4c(F)c(F)c(F)c(F)c4F)c4ccc([nH]4)c(-c4c(F)c(F)c(F)c(F)c4F)c4nc(c(-c5c(F)c(F)c(F)c(F)c5F)c5ccc2[nH]5)C=C4)C=C3)cc1
REMARK SMILES IDX 20 1 19 2 17 3 18 4 2 5 1 6 3 7 4 8 5 10 6 11 7 12 16 13
REMARK SMILES IDX 8 14 15 15 9 16 10 17 11 18 12 19 13 20 14 21 21 22 22 23
REMARK SMILES IDX 23 24 24 25 25 26 26 27 87 28 27 29 86 30 28 31 29 32 30 33
REMARK SMILES IDX 80 34 31 35 85 36 79 37 81 38 32 39 84 40 78 41 77 42 33 44
REMARK SMILES IDX 65 45 45 46 64 47 46 48 49 49 63 50 82 51 47 52 48 53 62 55
REMARK SMILES IDX 83 56 50 57 34 58 35 59 43 60 36 61 37 62 41 63 44 64 38 65
REMARK SMILES IDX 39 66 42 67 40 68 66 69 67 70 75 71 68 72 69 73 73 74 76 75
REMARK SMILES IDX 70 76 71 77 74 78 72 79 51 80 52 81 60 82 53 83 54 84 58 85
REMARK SMILES IDX 61 86 55 87 56 88 59 89 57 90
REMARK H PARENT 3 9 81 43 49 54
REMARK Flexibility Score: inf
ROOT
ATOM      1  C   UNL A   1      31.405  29.433  25.048  1.00  0.00     0.274 C 
ENDROOT
BRANCH   1   2
ATOM      2  O   UNL A   1      32.031  28.169  25.338  1.00  0.00    -0.461 OA
BRANCH   2   3
ATOM      3  C   UNL A   1      31.368  27.356  26.204  1.00  0.00     0.328 C 
ATOM      4  O   UNL A   1      31.163  27.609  27.385  1.00  0.00    -0.250 OA
BRANCH   3   5
ATOM      5  C   UNL A   1      30.968  26.020  25.563  1.00  0.00     0.189 C 
ATOM      6  C   UNL A   1      29.873  26.300  24.538  1.00  0.00     0.043 C 
BRANCH   5   7
ATOM      7  N   UNL A   1      30.554  24.996  26.529  1.00  0.00    -0.338 N 
ATOM      8  C   UNL A   1      30.976  23.690  26.652  1.00  0.00     0.262 C 
ATOM      9  H   UNL A   1      29.877  25.284  27.183  1.00  0.00     0.164 HD
ATOM     10  O   UNL A   1      30.391  22.960  27.449  1.00  0.00    -0.268 OA
BRANCH   8  11
ATOM     11  C   UNL A   1      32.088  23.250  25.831  1.00  0.00     0.093 A 
ATOM     12  C   UNL A   1      33.445  23.378  26.056  1.00  0.00     0.047 A 
ATOM     13  S   UNL A   1      31.776  22.444  24.349  1.00  0.00    -0.137 S 
ATOM     14  C   UNL A   1      34.218  22.967  24.934  1.00  0.00     0.094 A 
ATOM     15  C   UNL A   1      33.438  22.438  23.928  1.00  0.00     0.087 A 
BRANCH  14  16
ATOM     16  S   UNL A   1      35.928  23.210  24.808  1.00  0.00     0.243 S 
ATOM     17  O   UNL A   1      36.206  23.145  23.390  1.00  0.00    -0.207 OA
ATOM     18  O   UNL A   1      36.134  24.412  25.583  1.00  0.00    -0.207 OA
BRANCH  16  19
ATOM     19  N   UNL A   1      36.735  21.917  25.589  1.00  0.00    -0.204 NA
ATOM     20  C   UNL A   1      36.475  20.584  24.998  1.00  0.00     0.124 C 
ATOM     21  C   UNL A   1      38.187  22.160  25.752  1.00  0.00     0.124 C 
ENDBRANCH  16  19
ENDBRANCH  14  16
ENDBRANCH   8  11
ENDBRANCH   5   7
ENDBRANCH   3   5
ENDBRANCH   2   3
ENDBRANCH   1   2
BRANCH   1  22
ATOM     22  C   UNL A   1      31.793  30.486  26.089  1.00  0.00     0.275 C 
BRANCH  22  23
ATOM     23  O   UNL A   1      33.220  30.562  26.274  1.00  0.00    -0.458 OA
BRANCH  23  24
ATOM     24  C   UNL A   1      33.623  31.466  27.198  1.00  0.00     0.338 C 
ATOM     25  O   UNL A   1      32.988  32.422  27.613  1.00  0.00    -0.246 OA
BRANCH  24  26
ATOM     26  C   UNL A   1      34.923  31.074  27.771  1.00  0.00     0.060 A 
ATOM     27  C   UNL A   1      35.102  29.727  28.100  1.00  0.00     0.016 A 
ATOM     28  C   UNL A   1      35.921  32.010  28.056  1.00  0.00     0.016 A 
ATOM     29  C   UNL A   1      36.273  29.311  28.728  1.00  0.00     0.010 A 
ATOM     30  C   UNL A   1      37.095  31.591  28.694  1.00  0.00     0.010 A 
ATOM     31  C   UNL A   1      37.270  30.243  29.048  1.00  0.00    -0.014 A 
BRANCH  31  32
ATOM     32  C   UNL A   1      38.461  29.803  29.814  1.00  0.00     0.031 A 
ATOM     33  C   UNL A   1      38.695  30.330  31.202  1.00  0.00     0.074 A 
ATOM     34  C   UNL A   1      39.311  28.906  29.282  1.00  0.00     0.049 A 
ATOM     35  N   UNL A   1      39.680  30.078  32.027  1.00  0.00    -0.248 NA
ATOM     36  C   UNL A   1      37.686  31.258  31.732  1.00  0.00     0.031 C 
ATOM     37  C   UNL A   1      39.177  28.302  27.958  1.00  0.00     0.029 A 
ATOM     38  N   UNL A   1      40.456  28.349  29.794  1.00  0.00    -0.354 N 
ATOM     39  C   UNL A   1      39.415  30.823  33.168  1.00  0.00     0.074 A 
ATOM     40  C   UNL A   1      38.185  31.547  32.925  1.00  0.00     0.031 C 
ATOM     41  C   UNL A   1      40.206  27.463  27.757  1.00  0.00     0.029 A 
ATOM     42  C   UNL A   1      41.083  27.491  28.926  1.00  0.00     0.049 A 
ATOM     43  H   UNL A   1      40.795  28.547  30.697  1.00  0.00     0.167 HD
ATOM     44  C   UNL A   1      40.129  30.890  34.317  1.00  0.00     0.037 A 
ATOM     45  C   UNL A   1      42.243  26.821  29.053  1.00  0.00     0.037 A 
ATOM     46  C   UNL A   1      41.348  30.167  34.566  1.00  0.00     0.049 A 
ATOM     47  C   UNL A   1      43.041  26.948  30.323  1.00  0.00     0.074 A 
ATOM     48  C   UNL A   1      42.129  30.158  35.710  1.00  0.00     0.029 A 
ATOM     49  N   UNL A   1      41.965  29.325  33.654  1.00  0.00    -0.354 N 
ATOM     50  N   UNL A   1      42.771  27.639  31.403  1.00  0.00    -0.248 NA
ATOM     51  C   UNL A   1      44.306  26.201  30.390  1.00  0.00     0.031 C 
ATOM     52  C   UNL A   1      43.238  29.336  35.476  1.00  0.00     0.029 A 
ATOM     53  C   UNL A   1      43.127  28.805  34.202  1.00  0.00     0.049 A 
ATOM     54  H   UNL A   1      41.628  29.127  32.751  1.00  0.00     0.167 HD
ATOM     55  C   UNL A   1      43.819  27.400  32.282  1.00  0.00     0.074 A 
ATOM     56  C   UNL A   1      44.724  26.485  31.615  1.00  0.00     0.031 C 
ATOM     57  C   UNL A   1      44.015  27.894  33.527  1.00  0.00     0.037 A 
BRANCH  44  58
ATOM     58  C   UNL A   1      39.618  31.797  35.396  1.00  0.00     0.064 A 
ATOM     59  C   UNL A   1      40.053  33.125  35.502  1.00  0.00     0.173 A 
ATOM     60  C   UNL A   1      38.651  31.344  36.306  1.00  0.00     0.173 A 
ATOM     61  F   UNL A   1      40.986  33.599  34.663  1.00  0.00    -0.203 F 
ATOM     62  C   UNL A   1      39.550  33.965  36.493  1.00  0.00     0.198 A 
ATOM     63  C   UNL A   1      38.135  32.192  37.281  1.00  0.00     0.198 A 
ATOM     64  F   UNL A   1      38.202  30.082  36.241  1.00  0.00    -0.203 F 
ATOM     65  F   UNL A   1      40.002  35.222  36.598  1.00  0.00    -0.200 F 
ATOM     66  C   UNL A   1      38.587  33.500  37.377  1.00  0.00     0.200 A 
ATOM     67  F   UNL A   1      37.200  31.744  38.131  1.00  0.00    -0.200 F 
ATOM     68  F   UNL A   1      38.101  34.310  38.326  1.00  0.00    -0.200 F 
ENDBRANCH  44  58
BRANCH  45  69
ATOM     69  C   UNL A   1      42.728  25.970  27.938  1.00  0.00     0.064 A 
ATOM     70  C   UNL A   1      42.335  24.630  27.830  1.00  0.00     0.173 A 
ATOM     71  C   UNL A   1      43.599  26.480  26.964  1.00  0.00     0.173 A 
ATOM     72  F   UNL A   1      41.520  24.095  28.752  1.00  0.00    -0.203 F 
ATOM     73  C   UNL A   1      42.805  23.826  26.794  1.00  0.00     0.198 A 
ATOM     74  C   UNL A   1      44.048  25.682  25.915  1.00  0.00     0.198 A 
ATOM     75  F   UNL A   1      44.002  27.757  27.027  1.00  0.00    -0.203 F 
ATOM     76  F   UNL A   1      42.442  22.538  26.732  1.00  0.00    -0.200 F 
ATOM     77  C   UNL A   1      43.656  24.354  25.834  1.00  0.00     0.200 A 
ATOM     78  F   UNL A   1      44.862  26.199  24.985  1.00  0.00    -0.200 F 
ATOM     79  F   UNL A   1      44.104  23.582  24.835  1.00  0.00    -0.200 F 
ENDBRANCH  45  69
BRANCH  57  80
ATOM     80  C   UNL A   1      45.243  27.442  34.261  1.00  0.00     0.064 A 
ATOM     81  C   UNL A   1      45.239  26.284  35.049  1.00  0.00     0.173 A 
ATOM     82  C   UNL A   1      46.445  28.154  34.141  1.00  0.00     0.173 A 
ATOM     83  F   UNL A   1      44.108  25.579  35.206  1.00  0.00    -0.203 F 
ATOM     84  C   UNL A   1      46.391  25.865  35.710  1.00  0.00     0.198 A 
ATOM     85  C   UNL A   1      47.601  27.720  34.784  1.00  0.00     0.198 A 
ATOM     86  F   UNL A   1      46.500  29.266  33.394  1.00  0.00    -0.203 F 
ATOM     87  F   UNL A   1      46.355  24.775  36.490  1.00  0.00    -0.200 F 
ATOM     88  C   UNL A   1      47.572  26.580  35.572  1.00  0.00     0.200 A 
ATOM     89  F   UNL A   1      48.743  28.408  34.645  1.00  0.00    -0.200 F 
ATOM     90  F   UNL A   1      48.681  26.172  36.205  1.00  0.00    -0.200 F 
ENDBRANCH  57  80
ENDBRANCH  31  32
ENDBRANCH  24  26
ENDBRANCH  23  24
ENDBRANCH  22  23
ENDBRANCH   1  22
TORSDOF 15
ENDMDL
