MODEL 1
REMARK VINA RESULT:     -12.1      0.000      0.000
REMARK SMILES COc1ccc2c(C[NH2+]Cc3cccs3)c(C(=O)OCCOC(=O)c3ccc(-c4c5nc(c(-c6c(F)c(F)c(F)c(F)c6F)c6ccc([nH]6)c(-c6c(F)c(F)c(F)c(F)c6F)c6nc(c(-c7c(F)c(F)c(F)c(F)c7F)c7ccc4[nH]7)C=C6)C=C5)cc3)[nH]c2c1
REMARK SMILES IDX 20 1 19 2 17 3 18 4 16 5 3 6 4 7 90 8 5 9 89 10 6 11 88 12
REMARK SMILES IDX 7 13 2 15 1 16 8 17 9 18 10 21 11 22 12 23 15 24 13 25 14 26
REMARK SMILES IDX 21 27 22 28 23 29 24 30 25 31 26 32 87 33 27 34 86 35 28 36
REMARK SMILES IDX 29 37 30 38 80 39 31 40 85 41 79 42 81 43 32 44 84 45 78 46
REMARK SMILES IDX 77 47 33 49 65 50 45 51 64 52 46 53 49 54 63 55 82 56 47 57
REMARK SMILES IDX 48 58 62 60 83 61 50 62 34 63 35 64 43 65 36 66 37 67 41 68
REMARK SMILES IDX 44 69 38 70 39 71 42 72 40 73 66 74 67 75 75 76 68 77 69 78
REMARK SMILES IDX 73 79 76 80 70 81 71 82 74 83 72 84 51 85 52 86 60 87 53 88
REMARK SMILES IDX 54 89 58 90 61 91 55 92 56 93 59 94 57 95
REMARK H PARENT 88 14 9 19 9 20 81 48 49 59
REMARK Flexibility Score: inf
ROOT
ATOM      1  C   UNL A   1      33.468  28.298  24.845  1.00  0.00     0.275 C 
ENDROOT
BRANCH   1   2
ATOM      2  O   UNL A   1      33.961  28.107  23.498  1.00  0.00    -0.457 OA
BRANCH   2   3
ATOM      3  C   UNL A   1      33.206  27.288  22.700  1.00  0.00     0.355 C 
ATOM      4  O   UNL A   1      33.621  26.242  22.219  1.00  0.00    -0.244 OA
BRANCH   3   5
ATOM      5  C   UNL A   1      31.856  27.815  22.577  1.00  0.00     0.134 A 
ATOM      6  C   UNL A   1      28.105  30.500  22.060  1.00  0.00     0.120 A 
ATOM      7  C   UNL A   1      27.515  29.454  22.764  1.00  0.00     0.047 A 
ATOM      8  C   UNL A   1      29.466  30.453  21.706  1.00  0.00     0.073 A 
ATOM      9  C   UNL A   1      28.268  28.342  23.127  1.00  0.00     0.015 A 
ATOM     10  C   UNL A   1      30.216  29.337  22.112  1.00  0.00     0.050 A 
ATOM     11  C   UNL A   1      29.632  28.272  22.781  1.00  0.00     0.009 A 
ATOM     12  N   UNL A   1      31.555  29.040  22.000  1.00  0.00    -0.349 N 
ATOM     13  C   UNL A   1      30.636  27.276  22.995  1.00  0.00     0.046 A 
ATOM     14  H   UNL A   1      32.217  29.624  21.564  1.00  0.00     0.167 HD
BRANCH   6  15
ATOM     15  O   UNL A   1      27.416  31.607  21.638  1.00  0.00    -0.497 OA
ATOM     16  C   UNL A   1      28.025  32.318  20.562  1.00  0.00     0.278 C 
ENDBRANCH   6  15
BRANCH  13  17
ATOM     17  C   UNL A   1      30.300  26.020  23.727  1.00  0.00     0.300 C 
BRANCH  17  18
ATOM     18  N   UNL A   1      30.862  24.828  23.133  1.00  0.00    -0.338 N 
ATOM     19  H   UNL A   1      31.699  25.086  22.611  1.00  0.00     0.346 HD
ATOM     20  H   UNL A   1      30.151  24.420  22.527  1.00  0.00     0.346 HD
BRANCH  18  21
ATOM     21  C   UNL A   1      31.225  23.818  24.135  1.00  0.00     0.308 C 
BRANCH  21  22
ATOM     22  C   UNL A   1      32.689  23.755  24.521  1.00  0.00     0.059 A 
ATOM     23  C   UNL A   1      33.436  24.627  25.300  1.00  0.00     0.021 A 
ATOM     24  S   UNL A   1      33.691  22.510  23.891  1.00  0.00    -0.143 S 
ATOM     25  C   UNL A   1      34.818  24.296  25.350  1.00  0.00     0.012 A 
ATOM     26  C   UNL A   1      35.094  23.166  24.620  1.00  0.00     0.065 A 
ENDBRANCH  21  22
ENDBRANCH  18  21
ENDBRANCH  17  18
ENDBRANCH  13  17
ENDBRANCH   3   5
ENDBRANCH   2   3
ENDBRANCH   1   2
BRANCH   1  27
ATOM     27  C   UNL A   1      32.894  29.702  25.063  1.00  0.00     0.275 C 
BRANCH  27  28
ATOM     28  O   UNL A   1      32.603  29.918  26.456  1.00  0.00    -0.458 OA
BRANCH  28  29
ATOM     29  C   UNL A   1      33.032  31.087  26.990  1.00  0.00     0.338 C 
ATOM     30  O   UNL A   1      32.434  32.145  27.049  1.00  0.00    -0.246 OA
BRANCH  29  31
ATOM     31  C   UNL A   1      34.348  30.874  27.622  1.00  0.00     0.060 A 
ATOM     32  C   UNL A   1      34.675  29.575  27.969  1.00  0.00     0.016 A 
ATOM     33  C   UNL A   1      35.192  31.919  28.001  1.00  0.00     0.016 A 
ATOM     34  C   UNL A   1      35.822  29.322  28.715  1.00  0.00     0.010 A 
ATOM     35  C   UNL A   1      36.380  31.647  28.717  1.00  0.00     0.010 A 
ATOM     36  C   UNL A   1      36.703  30.335  29.094  1.00  0.00    -0.014 A 
BRANCH  36  37
ATOM     37  C   UNL A   1      37.854  29.954  29.971  1.00  0.00     0.031 A 
ATOM     38  C   UNL A   1      39.043  29.248  29.381  1.00  0.00     0.074 A 
ATOM     39  C   UNL A   1      37.950  30.406  31.240  1.00  0.00     0.049 A 
ATOM     40  N   UNL A   1      40.122  28.799  29.975  1.00  0.00    -0.248 NA
ATOM     41  C   UNL A   1      39.024  29.036  27.927  1.00  0.00     0.031 C 
ATOM     42  C   UNL A   1      36.958  31.242  31.910  1.00  0.00     0.029 A 
ATOM     43  N   UNL A   1      38.960  30.285  32.170  1.00  0.00    -0.354 N 
ATOM     44  C   UNL A   1      40.869  28.179  28.984  1.00  0.00     0.074 A 
ATOM     45  C   UNL A   1      40.149  28.361  27.741  1.00  0.00     0.031 C 
ATOM     46  C   UNL A   1      37.446  31.635  33.099  1.00  0.00     0.029 A 
ATOM     47  C   UNL A   1      38.736  30.992  33.330  1.00  0.00     0.049 A 
ATOM     48  H   UNL A   1      39.768  29.743  32.018  1.00  0.00     0.167 HD
ATOM     49  C   UNL A   1      42.028  27.488  29.111  1.00  0.00     0.037 A 
ATOM     50  C   UNL A   1      39.468  31.085  34.462  1.00  0.00     0.037 A 
ATOM     51  C   UNL A   1      42.769  27.342  30.339  1.00  0.00     0.049 A 
ATOM     52  C   UNL A   1      40.725  30.259  34.599  1.00  0.00     0.074 A 
ATOM     53  C   UNL A   1      43.912  26.595  30.572  1.00  0.00     0.029 A 
ATOM     54  N   UNL A   1      42.452  27.964  31.536  1.00  0.00    -0.354 N 
ATOM     55  N   UNL A   1      41.355  29.546  33.698  1.00  0.00    -0.248 NA
ATOM     56  C   UNL A   1      41.344  30.208  35.935  1.00  0.00     0.031 C 
ATOM     57  C   UNL A   1      44.255  26.722  31.922  1.00  0.00     0.029 A 
ATOM     58  C   UNL A   1      43.366  27.603  32.514  1.00  0.00     0.049 A 
ATOM     59  H   UNL A   1      41.691  28.574  31.671  1.00  0.00     0.167 HD
ATOM     60  C   UNL A   1      42.431  28.961  34.355  1.00  0.00     0.074 A 
ATOM     61  C   UNL A   1      42.402  29.440  35.719  1.00  0.00     0.031 C 
ATOM     62  C   UNL A   1      43.345  28.082  33.873  1.00  0.00     0.037 A 
BRANCH  49  63
ATOM     63  C   UNL A   1      42.506  26.730  27.909  1.00  0.00     0.064 A 
ATOM     64  C   UNL A   1      43.432  27.257  26.999  1.00  0.00     0.173 A 
ATOM     65  C   UNL A   1      42.026  25.429  27.682  1.00  0.00     0.173 A 
ATOM     66  F   UNL A   1      43.906  28.501  27.161  1.00  0.00    -0.203 F 
ATOM     67  C   UNL A   1      43.839  26.518  25.889  1.00  0.00     0.198 A 
ATOM     68  C   UNL A   1      42.459  24.683  26.592  1.00  0.00     0.198 A 
ATOM     69  F   UNL A   1      41.141  24.878  28.527  1.00  0.00    -0.203 F 
ATOM     70  F   UNL A   1      44.684  27.058  25.001  1.00  0.00    -0.200 F 
ATOM     71  C   UNL A   1      43.359  25.231  25.691  1.00  0.00     0.200 A 
ATOM     72  F   UNL A   1      42.003  23.436  26.413  1.00  0.00    -0.200 F 
ATOM     73  F   UNL A   1      43.754  24.522  24.626  1.00  0.00    -0.200 F 
ENDBRANCH  49  63
BRANCH  50  74
ATOM     74  C   UNL A   1      39.005  31.923  35.609  1.00  0.00     0.064 A 
ATOM     75  C   UNL A   1      39.418  33.258  35.748  1.00  0.00     0.173 A 
ATOM     76  C   UNL A   1      38.207  31.389  36.632  1.00  0.00     0.173 A 
ATOM     77  F   UNL A   1      40.223  33.811  34.828  1.00  0.00    -0.203 F 
ATOM     78  C   UNL A   1      39.068  34.011  36.869  1.00  0.00     0.198 A 
ATOM     79  C   UNL A   1      37.818  32.156  37.728  1.00  0.00     0.198 A 
ATOM     80  F   UNL A   1      37.806  30.110  36.576  1.00  0.00    -0.203 F 
ATOM     81  F   UNL A   1      39.543  35.257  37.012  1.00  0.00    -0.200 F 
ATOM     82  C   UNL A   1      38.260  33.463  37.853  1.00  0.00     0.200 A 
ATOM     83  F   UNL A   1      37.032  31.621  38.672  1.00  0.00    -0.200 F 
ATOM     84  F   UNL A   1      37.927  34.185  38.932  1.00  0.00    -0.200 F 
ENDBRANCH  50  74
BRANCH  62  85
ATOM     85  C   UNL A   1      44.407  27.585  34.817  1.00  0.00     0.064 A 
ATOM     86  C   UNL A   1      45.614  28.277  34.999  1.00  0.00     0.173 A 
ATOM     87  C   UNL A   1      44.191  26.433  35.589  1.00  0.00     0.173 A 
ATOM     88  F   UNL A   1      45.877  29.378  34.279  1.00  0.00    -0.203 F 
ATOM     89  C   UNL A   1      46.575  27.820  35.899  1.00  0.00     0.198 A 
ATOM     90  C   UNL A   1      45.141  25.997  36.511  1.00  0.00     0.198 A 
ATOM     91  F   UNL A   1      43.053  25.737  35.463  1.00  0.00    -0.203 F 
ATOM     92  F   UNL A   1      47.740  28.472  36.021  1.00  0.00    -0.200 F 
ATOM     93  C   UNL A   1      46.335  26.686  36.660  1.00  0.00     0.200 A 
ATOM     94  F   UNL A   1      44.899  24.910  37.257  1.00  0.00    -0.200 F 
ATOM     95  F   UNL A   1      47.256  26.255  37.533  1.00  0.00    -0.200 F 
ENDBRANCH  62  85
ENDBRANCH  36  37
ENDBRANCH  29  31
ENDBRANCH  28  29
ENDBRANCH  27  28
ENDBRANCH   1  27
TORSDOF 16
ENDMDL
MODEL 2
REMARK VINA RESULT:     -12.0      1.745      3.884
REMARK SMILES COc1ccc2c(C[NH2+]Cc3cccs3)c(C(=O)OCCOC(=O)c3ccc(-c4c5nc(c(-c6c(F)c(F)c(F)c(F)c6F)c6ccc([nH]6)c(-c6c(F)c(F)c(F)c(F)c6F)c6nc(c(-c7c(F)c(F)c(F)c(F)c7F)c7ccc4[nH]7)C=C6)C=C5)cc3)[nH]c2c1
REMARK SMILES IDX 20 1 19 2 17 3 18 4 16 5 3 6 4 7 90 8 5 9 89 10 6 11 88 12
REMARK SMILES IDX 7 13 2 15 1 16 8 17 9 18 10 21 11 22 12 23 15 24 13 25 14 26
REMARK SMILES IDX 21 27 22 28 23 29 24 30 25 31 26 32 87 33 27 34 86 35 28 36
REMARK SMILES IDX 29 37 30 38 80 39 31 40 85 41 79 42 81 43 32 44 84 45 78 46
REMARK SMILES IDX 77 47 33 49 65 50 45 51 64 52 46 53 49 54 63 55 82 56 47 57
REMARK SMILES IDX 48 58 62 60 83 61 50 62 34 63 35 64 43 65 36 66 37 67 41 68
REMARK SMILES IDX 44 69 38 70 39 71 42 72 40 73 66 74 67 75 75 76 68 77 69 78
REMARK SMILES IDX 73 79 76 80 70 81 71 82 74 83 72 84 51 85 52 86 60 87 53 88
REMARK SMILES IDX 54 89 58 90 61 91 55 92 56 93 59 94 57 95
REMARK H PARENT 88 14 9 19 9 20 81 48 49 59
REMARK Flexibility Score: inf
ROOT
ATOM      1  C   UNL A   1      31.168  28.415  24.766  1.00  0.00     0.275 C 
ENDROOT
BRANCH   1   2
ATOM      2  O   UNL A   1      32.190  27.436  25.066  1.00  0.00    -0.457 OA
BRANCH   2   3
ATOM      3  C   UNL A   1      31.778  26.129  25.072  1.00  0.00     0.355 C 
ATOM      4  O   UNL A   1      30.606  25.790  25.158  1.00  0.00    -0.244 OA
BRANCH   3   5
ATOM      5  C   UNL A   1      32.919  25.243  24.898  1.00  0.00     0.134 A 
ATOM      6  C   UNL A   1      37.090  23.210  24.994  1.00  0.00     0.120 A 
ATOM      7  C   UNL A   1      36.613  22.649  23.813  1.00  0.00     0.047 A 
ATOM      8  C   UNL A   1      36.285  24.078  25.754  1.00  0.00     0.073 A 
ATOM      9  C   UNL A   1      35.327  22.940  23.367  1.00  0.00     0.015 A 
ATOM     10  C   UNL A   1      35.004  24.387  25.269  1.00  0.00     0.050 A 
ATOM     11  C   UNL A   1      34.504  23.806  24.114  1.00  0.00     0.009 A 
ATOM     12  N   UNL A   1      34.033  25.249  25.725  1.00  0.00    -0.349 N 
ATOM     13  C   UNL A   1      33.164  24.270  23.926  1.00  0.00     0.046 A 
ATOM     14  H   UNL A   1      34.117  25.799  26.537  1.00  0.00     0.167 HD
BRANCH   6  15
ATOM     15  O   UNL A   1      38.330  22.937  25.510  1.00  0.00    -0.497 OA
ATOM     16  C   UNL A   1      38.725  23.777  26.593  1.00  0.00     0.278 C 
ENDBRANCH   6  15
BRANCH  13  17
ATOM     17  C   UNL A   1      32.380  23.831  22.735  1.00  0.00     0.300 C 
BRANCH  17  18
ATOM     18  N   UNL A   1      31.486  22.726  22.996  1.00  0.00    -0.338 N 
ATOM     19  H   UNL A   1      30.563  22.959  22.628  1.00  0.00     0.346 HD
ATOM     20  H   UNL A   1      31.463  22.579  24.004  1.00  0.00     0.346 HD
BRANCH  18  21
ATOM     21  C   UNL A   1      31.939  21.477  22.373  1.00  0.00     0.308 C 
BRANCH  21  22
ATOM     22  C   UNL A   1      32.319  20.357  23.320  1.00  0.00     0.059 A 
ATOM     23  C   UNL A   1      32.468  19.000  23.070  1.00  0.00     0.021 A 
ATOM     24  S   UNL A   1      32.542  20.682  24.992  1.00  0.00    -0.143 S 
ATOM     25  C   UNL A   1      32.726  18.236  24.240  1.00  0.00     0.012 A 
ATOM     26  C   UNL A   1      32.787  19.030  25.359  1.00  0.00     0.065 A 
ENDBRANCH  21  22
ENDBRANCH  18  21
ENDBRANCH  17  18
ENDBRANCH  13  17
ENDBRANCH   3   5
ENDBRANCH   2   3
ENDBRANCH   1   2
BRANCH   1  27
ATOM     27  C   UNL A   1      31.639  29.849  25.027  1.00  0.00     0.275 C 
BRANCH  27  28
ATOM     28  O   UNL A   1      32.871  29.849  25.772  1.00  0.00    -0.458 OA
BRANCH  28  29
ATOM     29  C   UNL A   1      33.025  30.836  26.687  1.00  0.00     0.338 C 
ATOM     30  O   UNL A   1      32.217  31.688  27.008  1.00  0.00    -0.246 OA
BRANCH  29  31
ATOM     31  C   UNL A   1      34.327  30.671  27.360  1.00  0.00     0.060 A 
ATOM     32  C   UNL A   1      34.738  29.377  27.626  1.00  0.00     0.016 A 
ATOM     33  C   UNL A   1      35.074  31.744  27.851  1.00  0.00     0.016 A 
ATOM     34  C   UNL A   1      35.870  29.152  28.402  1.00  0.00     0.010 A 
ATOM     35  C   UNL A   1      36.250  31.505  28.598  1.00  0.00     0.010 A 
ATOM     36  C   UNL A   1      36.657  30.194  28.892  1.00  0.00    -0.014 A 
BRANCH  36  37
ATOM     37  C   UNL A   1      37.798  29.833  29.789  1.00  0.00     0.031 A 
ATOM     38  C   UNL A   1      38.995  29.116  29.227  1.00  0.00     0.074 A 
ATOM     39  C   UNL A   1      37.879  30.310  31.050  1.00  0.00     0.049 A 
ATOM     40  N   UNL A   1      40.067  28.681  29.842  1.00  0.00    -0.248 NA
ATOM     41  C   UNL A   1      38.992  28.876  27.778  1.00  0.00     0.031 C 
ATOM     42  C   UNL A   1      36.879  31.158  31.692  1.00  0.00     0.029 A 
ATOM     43  N   UNL A   1      38.879  30.209  31.993  1.00  0.00    -0.354 N 
ATOM     44  C   UNL A   1      40.826  28.042  28.872  1.00  0.00     0.074 A 
ATOM     45  C   UNL A   1      40.120  28.198  27.617  1.00  0.00     0.031 C 
ATOM     46  C   UNL A   1      37.353  31.576  32.878  1.00  0.00     0.029 A 
ATOM     47  C   UNL A   1      38.642  30.939  33.136  1.00  0.00     0.049 A 
ATOM     48  H   UNL A   1      39.689  29.665  31.861  1.00  0.00     0.167 HD
ATOM     49  C   UNL A   1      41.984  27.355  29.026  1.00  0.00     0.037 A 
ATOM     50  C   UNL A   1      39.360  31.056  34.274  1.00  0.00     0.037 A 
ATOM     51  C   UNL A   1      42.712  27.234  30.264  1.00  0.00     0.049 A 
ATOM     52  C   UNL A   1      40.617  30.234  34.442  1.00  0.00     0.074 A 
ATOM     53  C   UNL A   1      43.853  26.494  30.524  1.00  0.00     0.029 A 
ATOM     54  N   UNL A   1      42.381  27.880  31.445  1.00  0.00    -0.354 N 
ATOM     55  N   UNL A   1      41.258  29.504  33.562  1.00  0.00    -0.248 NA
ATOM     56  C   UNL A   1      41.221  30.210  35.785  1.00  0.00     0.031 C 
ATOM     57  C   UNL A   1      44.181  26.648  31.876  1.00  0.00     0.029 A 
ATOM     58  C   UNL A   1      43.284  27.539  32.441  1.00  0.00     0.049 A 
ATOM     59  H   UNL A   1      41.617  28.491  31.559  1.00  0.00     0.167 HD
ATOM     60  C   UNL A   1      42.327  28.933  34.243  1.00  0.00     0.074 A 
ATOM     61  C   UNL A   1      42.282  29.439  35.596  1.00  0.00     0.031 C 
ATOM     62  C   UNL A   1      43.247  28.046  33.789  1.00  0.00     0.037 A 
BRANCH  49  63
ATOM     63  C   UNL A   1      42.477  26.574  27.845  1.00  0.00     0.064 A 
ATOM     64  C   UNL A   1      43.379  27.099  26.910  1.00  0.00     0.173 A 
ATOM     65  C   UNL A   1      42.035  25.252  27.663  1.00  0.00     0.173 A 
ATOM     66  F   UNL A   1      43.815  28.362  27.028  1.00  0.00    -0.203 F 
ATOM     67  C   UNL A   1      43.800  26.338  25.821  1.00  0.00     0.198 A 
ATOM     68  C   UNL A   1      42.483  24.485  26.594  1.00  0.00     0.198 A 
ATOM     69  F   UNL A   1      41.174  24.702  28.533  1.00  0.00    -0.203 F 
ATOM     70  F   UNL A   1      44.621  26.874  24.909  1.00  0.00    -0.200 F 
ATOM     71  C   UNL A   1      43.358  25.030  25.668  1.00  0.00     0.200 A 
ATOM     72  F   UNL A   1      42.064  23.219  26.459  1.00  0.00    -0.200 F 
ATOM     73  F   UNL A   1      43.767  24.300  24.623  1.00  0.00    -0.200 F 
ENDBRANCH  49  63
BRANCH  50  74
ATOM     74  C   UNL A   1      38.885  31.916  35.399  1.00  0.00     0.064 A 
ATOM     75  C   UNL A   1      39.215  33.279  35.463  1.00  0.00     0.173 A 
ATOM     76  C   UNL A   1      38.158  31.381  36.475  1.00  0.00     0.173 A 
ATOM     77  F   UNL A   1      39.950  33.838  34.489  1.00  0.00    -0.203 F 
ATOM     78  C   UNL A   1      38.855  34.061  36.561  1.00  0.00     0.198 A 
ATOM     79  C   UNL A   1      37.759  32.173  37.549  1.00  0.00     0.198 A 
ATOM     80  F   UNL A   1      37.840  30.078  36.490  1.00  0.00    -0.203 F 
ATOM     81  F   UNL A   1      39.253  35.339  36.630  1.00  0.00    -0.200 F 
ATOM     82  C   UNL A   1      38.119  33.510  37.598  1.00  0.00     0.200 A 
ATOM     83  F   UNL A   1      37.042  31.635  38.544  1.00  0.00    -0.200 F 
ATOM     84  F   UNL A   1      37.777  34.259  38.656  1.00  0.00    -0.200 F 
ENDBRANCH  50  74
BRANCH  62  85
ATOM     85  C   UNL A   1      44.299  27.569  34.754  1.00  0.00     0.064 A 
ATOM     86  C   UNL A   1      44.129  26.401  35.513  1.00  0.00     0.173 A 
ATOM     87  C   UNL A   1      45.515  28.259  34.880  1.00  0.00     0.173 A 
ATOM     88  F   UNL A   1      42.983  25.709  35.440  1.00  0.00    -0.203 F 
ATOM     89  C   UNL A   1      45.125  25.956  36.380  1.00  0.00     0.198 A 
ATOM     90  C   UNL A   1      46.522  27.793  35.724  1.00  0.00     0.198 A 
ATOM     91  F   UNL A   1      45.736  29.376  34.174  1.00  0.00    -0.203 F 
ATOM     92  F   UNL A   1      44.920  24.864  37.129  1.00  0.00    -0.200 F 
ATOM     93  C   UNL A   1      46.323  26.647  36.478  1.00  0.00     0.200 A 
ATOM     94  F   UNL A   1      47.685  28.454  35.805  1.00  0.00    -0.200 F 
ATOM     95  F   UNL A   1      47.285  26.211  37.305  1.00  0.00    -0.200 F 
ENDBRANCH  62  85
ENDBRANCH  36  37
ENDBRANCH  29  31
ENDBRANCH  28  29
ENDBRANCH  27  28
ENDBRANCH   1  27
TORSDOF 16
ENDMDL
MODEL 3
REMARK VINA RESULT:     -12.0      1.811      4.086
REMARK SMILES COc1ccc2c(C[NH2+]Cc3cccs3)c(C(=O)OCCOC(=O)c3ccc(-c4c5nc(c(-c6c(F)c(F)c(F)c(F)c6F)c6ccc([nH]6)c(-c6c(F)c(F)c(F)c(F)c6F)c6nc(c(-c7c(F)c(F)c(F)c(F)c7F)c7ccc4[nH]7)C=C6)C=C5)cc3)[nH]c2c1
REMARK SMILES IDX 20 1 19 2 17 3 18 4 16 5 3 6 4 7 90 8 5 9 89 10 6 11 88 12
REMARK SMILES IDX 7 13 2 15 1 16 8 17 9 18 10 21 11 22 12 23 15 24 13 25 14 26
REMARK SMILES IDX 21 27 22 28 23 29 24 30 25 31 26 32 87 33 27 34 86 35 28 36
REMARK SMILES IDX 29 37 30 38 80 39 31 40 85 41 79 42 81 43 32 44 84 45 78 46
REMARK SMILES IDX 77 47 33 49 65 50 45 51 64 52 46 53 49 54 63 55 82 56 47 57
REMARK SMILES IDX 48 58 62 60 83 61 50 62 34 63 35 64 43 65 36 66 37 67 41 68
REMARK SMILES IDX 44 69 38 70 39 71 42 72 40 73 66 74 67 75 75 76 68 77 69 78
REMARK SMILES IDX 73 79 76 80 70 81 71 82 74 83 72 84 51 85 52 86 60 87 53 88
REMARK SMILES IDX 54 89 58 90 61 91 55 92 56 93 59 94 57 95
REMARK H PARENT 88 14 9 19 9 20 81 48 49 59
REMARK Flexibility Score: inf
ROOT
ATOM      1  C   UNL A   1      31.321  28.472  24.691  1.00  0.00     0.275 C 
ENDROOT
BRANCH   1   2
ATOM      2  O   UNL A   1      32.346  27.491  24.975  1.00  0.00    -0.457 OA
BRANCH   2   3
ATOM      3  C   UNL A   1      31.928  26.186  25.006  1.00  0.00     0.355 C 
ATOM      4  O   UNL A   1      30.752  25.855  25.064  1.00  0.00    -0.244 OA
BRANCH   3   5
ATOM      5  C   UNL A   1      33.069  25.292  24.895  1.00  0.00     0.134 A 
ATOM      6  C   UNL A   1      37.194  23.195  25.263  1.00  0.00     0.120 A 
ATOM      7  C   UNL A   1      36.814  22.688  24.025  1.00  0.00     0.047 A 
ATOM      8  C   UNL A   1      36.337  24.046  25.987  1.00  0.00     0.073 A 
ATOM      9  C   UNL A   1      35.574  23.015  23.484  1.00  0.00     0.015 A 
ATOM     10  C   UNL A   1      35.106  24.391  25.407  1.00  0.00     0.050 A 
ATOM     11  C   UNL A   1      34.699  23.862  24.192  1.00  0.00     0.009 A 
ATOM     12  N   UNL A   1      34.108  25.249  25.812  1.00  0.00    -0.349 N 
ATOM     13  C   UNL A   1      33.386  24.353  23.909  1.00  0.00     0.046 A 
ATOM     14  H   UNL A   1      34.129  25.766  26.650  1.00  0.00     0.167 HD
BRANCH   6  15
ATOM     15  O   UNL A   1      38.382  22.885  25.872  1.00  0.00    -0.497 OA
ATOM     16  C   UNL A   1      38.830  21.546  25.666  1.00  0.00     0.278 C 
ENDBRANCH   6  15
BRANCH  13  17
ATOM     17  C   UNL A   1      32.702  23.972  22.639  1.00  0.00     0.300 C 
BRANCH  17  18
ATOM     18  N   UNL A   1      31.668  22.976  22.805  1.00  0.00    -0.338 N 
ATOM     19  H   UNL A   1      30.870  23.233  22.224  1.00  0.00     0.346 HD
ATOM     20  H   UNL A   1      31.420  22.951  23.794  1.00  0.00     0.346 HD
BRANCH  18  21
ATOM     21  C   UNL A   1      32.115  21.632  22.423  1.00  0.00     0.308 C 
BRANCH  21  22
ATOM     22  C   UNL A   1      32.344  20.654  23.558  1.00  0.00     0.059 A 
ATOM     23  C   UNL A   1      32.582  20.900  24.902  1.00  0.00     0.021 A 
ATOM     24  S   UNL A   1      32.424  18.968  23.237  1.00  0.00    -0.143 S 
ATOM     25  C   UNL A   1      32.862  19.724  25.650  1.00  0.00     0.012 A 
ATOM     26  C   UNL A   1      32.813  18.600  24.862  1.00  0.00     0.065 A 
ENDBRANCH  21  22
ENDBRANCH  18  21
ENDBRANCH  17  18
ENDBRANCH  13  17
ENDBRANCH   3   5
ENDBRANCH   2   3
ENDBRANCH   1   2
BRANCH   1  27
ATOM     27  C   UNL A   1      31.733  29.886  25.113  1.00  0.00     0.275 C 
BRANCH  27  28
ATOM     28  O   UNL A   1      32.979  29.855  25.836  1.00  0.00    -0.458 OA
BRANCH  28  29
ATOM     29  C   UNL A   1      33.175  30.838  26.746  1.00  0.00     0.338 C 
ATOM     30  O   UNL A   1      32.390  31.702  27.092  1.00  0.00    -0.246 OA
BRANCH  29  31
ATOM     31  C   UNL A   1      34.495  30.655  27.378  1.00  0.00     0.060 A 
ATOM     32  C   UNL A   1      34.877  29.357  27.670  1.00  0.00     0.016 A 
ATOM     33  C   UNL A   1      35.291  31.718  27.809  1.00  0.00     0.016 A 
ATOM     34  C   UNL A   1      36.029  29.121  28.413  1.00  0.00     0.010 A 
ATOM     35  C   UNL A   1      36.485  31.466  28.521  1.00  0.00     0.010 A 
ATOM     36  C   UNL A   1      36.863  30.154  28.843  1.00  0.00    -0.014 A 
BRANCH  36  37
ATOM     37  C   UNL A   1      38.025  29.785  29.710  1.00  0.00     0.031 A 
ATOM     38  C   UNL A   1      39.184  29.025  29.128  1.00  0.00     0.074 A 
ATOM     39  C   UNL A   1      38.159  30.290  30.956  1.00  0.00     0.049 A 
ATOM     40  N   UNL A   1      40.265  28.577  29.718  1.00  0.00    -0.248 NA
ATOM     41  C   UNL A   1      39.127  28.750  27.685  1.00  0.00     0.031 C 
ATOM     42  C   UNL A   1      37.202  31.178  31.609  1.00  0.00     0.029 A 
ATOM     43  N   UNL A   1      39.188  30.186  31.868  1.00  0.00    -0.354 N 
ATOM     44  C   UNL A   1      40.975  27.896  28.739  1.00  0.00     0.074 A 
ATOM     45  C   UNL A   1      40.232  28.040  27.505  1.00  0.00     0.031 C 
ATOM     46  C   UNL A   1      37.726  31.612  32.768  1.00  0.00     0.029 A 
ATOM     47  C   UNL A   1      39.007  30.949  33.000  1.00  0.00     0.049 A 
ATOM     48  H   UNL A   1      39.979  29.619  31.723  1.00  0.00     0.167 HD
ATOM     49  C   UNL A   1      42.121  27.185  28.872  1.00  0.00     0.037 A 
ATOM     50  C   UNL A   1      39.765  31.075  34.111  1.00  0.00     0.037 A 
ATOM     51  C   UNL A   1      42.886  27.075  30.088  1.00  0.00     0.049 A 
ATOM     52  C   UNL A   1      41.006  30.226  34.257  1.00  0.00     0.074 A 
ATOM     53  C   UNL A   1      44.017  26.312  30.329  1.00  0.00     0.029 A 
ATOM     54  N   UNL A   1      42.610  27.757  31.263  1.00  0.00    -0.354 N 
ATOM     55  N   UNL A   1      41.599  29.459  33.375  1.00  0.00    -0.248 NA
ATOM     56  C   UNL A   1      41.654  30.218  35.580  1.00  0.00     0.031 C 
ATOM     57  C   UNL A   1      44.393  26.491  31.665  1.00  0.00     0.029 A 
ATOM     58  C   UNL A   1      43.538  27.417  32.237  1.00  0.00     0.049 A 
ATOM     59  H   UNL A   1      41.866  28.390  31.387  1.00  0.00     0.167 HD
ATOM     60  C   UNL A   1      42.676  28.878  34.035  1.00  0.00     0.074 A 
ATOM     61  C   UNL A   1      42.689  29.417  35.376  1.00  0.00     0.031 C 
ATOM     62  C   UNL A   1      43.558  27.957  33.573  1.00  0.00     0.037 A 
BRANCH  49  63
ATOM     63  C   UNL A   1      42.554  26.363  27.695  1.00  0.00     0.064 A 
ATOM     64  C   UNL A   1      42.008  25.106  27.405  1.00  0.00     0.173 A 
ATOM     65  C   UNL A   1      43.538  26.869  26.829  1.00  0.00     0.173 A 
ATOM     66  F   UNL A   1      41.080  24.570  28.212  1.00  0.00    -0.203 F 
ATOM     67  C   UNL A   1      42.451  24.372  26.306  1.00  0.00     0.198 A 
ATOM     68  C   UNL A   1      43.953  26.149  25.714  1.00  0.00     0.198 A 
ATOM     69  F   UNL A   1      44.089  28.070  27.060  1.00  0.00    -0.203 F 
ATOM     70  F   UNL A   1      41.955  23.150  26.075  1.00  0.00    -0.200 F 
ATOM     71  C   UNL A   1      43.416  24.898  25.458  1.00  0.00     0.200 A 
ATOM     72  F   UNL A   1      44.876  26.667  24.891  1.00  0.00    -0.200 F 
ATOM     73  F   UNL A   1      43.837  24.193  24.399  1.00  0.00    -0.200 F 
ENDBRANCH  49  63
BRANCH  50  74
ATOM     74  C   UNL A   1      39.348  31.973  35.229  1.00  0.00     0.064 A 
ATOM     75  C   UNL A   1      38.553  31.499  36.285  1.00  0.00     0.173 A 
ATOM     76  C   UNL A   1      39.667  33.340  35.229  1.00  0.00     0.173 A 
ATOM     77  F   UNL A   1      38.174  30.213  36.314  1.00  0.00    -0.203 F 
ATOM     78  C   UNL A   1      38.081  32.358  37.278  1.00  0.00     0.198 A 
ATOM     79  C   UNL A   1      39.235  34.188  36.247  1.00  0.00     0.198 A 
ATOM     80  F   UNL A   1      40.396  33.862  34.232  1.00  0.00    -0.203 F 
ATOM     81  F   UNL A   1      37.258  31.892  38.228  1.00  0.00    -0.200 F 
ATOM     82  C   UNL A   1      38.430  33.699  37.263  1.00  0.00     0.200 A 
ATOM     83  F   UNL A   1      39.582  35.481  36.230  1.00  0.00    -0.200 F 
ATOM     84  F   UNL A   1      37.973  34.526  38.215  1.00  0.00    -0.200 F 
ENDBRANCH  50  74
BRANCH  62  85
ATOM     85  C   UNL A   1      44.630  27.477  34.514  1.00  0.00     0.064 A 
ATOM     86  C   UNL A   1      45.830  28.184  34.689  1.00  0.00     0.173 A 
ATOM     87  C   UNL A   1      44.431  26.325  35.292  1.00  0.00     0.173 A 
ATOM     88  F   UNL A   1      46.076  29.285  33.964  1.00  0.00    -0.203 F 
ATOM     89  C   UNL A   1      46.799  27.743  35.587  1.00  0.00     0.198 A 
ATOM     90  C   UNL A   1      45.390  25.905  36.213  1.00  0.00     0.198 A 
ATOM     91  F   UNL A   1      43.301  25.615  35.174  1.00  0.00    -0.203 F 
ATOM     92  F   UNL A   1      47.957  28.409  35.702  1.00  0.00    -0.200 F 
ATOM     93  C   UNL A   1      46.575  26.610  36.354  1.00  0.00     0.200 A 
ATOM     94  F   UNL A   1      45.164  24.819  36.964  1.00  0.00    -0.200 F 
ATOM     95  F   UNL A   1      47.505  26.193  37.226  1.00  0.00    -0.200 F 
ENDBRANCH  62  85
ENDBRANCH  36  37
ENDBRANCH  29  31
ENDBRANCH  28  29
ENDBRANCH  27  28
ENDBRANCH   1  27
TORSDOF 16
ENDMDL
