MODEL 1
REMARK VINA RESULT:      -9.2      0.000      0.000
REMARK SMILES CC(C)Cc1ccc([C@@H](C)C(=O)OCCOC(=O)c2ccc(-c3c4nc(c(-c5c(F)c(F)c(F)c(F)c5F)c5ccc([nH]5)c(-c5c(F)c(F)c(F)c(F)c5F)c5nc(c(-c6c(F)c(F)c(F)c(F)c6F)c6ccc3[nH]6)C=C5)C=C4)cc2)cc1
REMARK SMILES IDX 14 1 13 2 11 3 12 4 9 5 10 6 8 7 5 8 6 9 83 10 7 11 82 12
REMARK SMILES IDX 4 13 2 14 1 15 3 16 15 17 16 18 17 19 18 20 19 21 20 22
REMARK SMILES IDX 81 23 21 24 80 25 22 26 23 27 24 28 74 29 25 30 79 31 73 32
REMARK SMILES IDX 75 33 26 34 78 35 72 36 71 37 27 39 59 40 39 41 58 42 40 43
REMARK SMILES IDX 43 44 57 45 76 46 41 47 42 48 56 50 77 51 44 52 28 53 29 54
REMARK SMILES IDX 37 55 30 56 31 57 35 58 38 59 32 60 33 61 36 62 34 63 60 64
REMARK SMILES IDX 61 65 69 66 62 67 63 68 67 69 70 70 64 71 65 72 68 73 66 74
REMARK SMILES IDX 45 75 46 76 54 77 47 78 48 79 52 80 55 81 49 82 50 83 53 84
REMARK SMILES IDX 51 85
REMARK H PARENT 75 38 43 49
REMARK Flexibility Score: inf
ROOT
ATOM      1  C   UNL A   1      33.990  34.013  28.855  1.00  0.00     0.274 C 
ENDROOT
BRANCH   1   2
ATOM      2  O   UNL A   1      33.685  33.631  30.209  1.00  0.00    -0.462 OA
BRANCH   2   3
ATOM      3  C   UNL A   1      34.594  33.979  31.156  1.00  0.00     0.313 C 
ATOM      4  O   UNL A   1      34.542  35.007  31.827  1.00  0.00    -0.252 OA
BRANCH   3   5
ATOM      5  C   UNL A   1      35.736  32.984  31.296  1.00  0.00     0.126 C 
ATOM      6  C   UNL A   1      35.796  32.464  32.731  1.00  0.00     0.025 C 
BRANCH   5   7
ATOM      7  C   UNL A   1      37.084  33.454  30.775  1.00  0.00    -0.034 A 
ATOM      8  C   UNL A   1      39.528  34.500  29.817  1.00  0.00    -0.048 A 
ATOM      9  C   UNL A   1      38.674  33.793  28.964  1.00  0.00     0.004 A 
ATOM     10  C   UNL A   1      39.180  34.631  31.165  1.00  0.00     0.004 A 
ATOM     11  C   UNL A   1      37.468  33.270  29.439  1.00  0.00     0.005 A 
ATOM     12  C   UNL A   1      37.969  34.122  31.635  1.00  0.00     0.005 A 
BRANCH   8  13
ATOM     13  C   UNL A   1      40.761  35.179  29.275  1.00  0.00     0.038 C 
BRANCH  13  14
ATOM     14  C   UNL A   1      42.054  34.649  29.930  1.00  0.00    -0.013 C 
ATOM     15  C   UNL A   1      42.428  33.249  29.430  1.00  0.00     0.008 C 
ATOM     16  C   UNL A   1      43.212  35.611  29.663  1.00  0.00     0.008 C 
ENDBRANCH  13  14
ENDBRANCH   8  13
ENDBRANCH   5   7
ENDBRANCH   3   5
ENDBRANCH   2   3
ENDBRANCH   1   2
BRANCH   1  17
ATOM     17  C   UNL A   1      33.599  32.900  27.884  1.00  0.00     0.275 C 
BRANCH  17  18
ATOM     18  O   UNL A   1      34.757  32.120  27.540  1.00  0.00    -0.458 OA
BRANCH  18  19
ATOM     19  C   UNL A   1      34.630  30.781  27.674  1.00  0.00     0.338 C 
ATOM     20  O   UNL A   1      33.658  30.088  27.445  1.00  0.00    -0.246 OA
BRANCH  19  21
ATOM     21  C   UNL A   1      35.909  30.238  28.148  1.00  0.00     0.060 A 
ATOM     22  C   UNL A   1      36.009  29.765  29.457  1.00  0.00     0.016 A 
ATOM     23  C   UNL A   1      37.025  30.265  27.313  1.00  0.00     0.016 A 
ATOM     24  C   UNL A   1      37.237  29.332  29.950  1.00  0.00     0.010 A 
ATOM     25  C   UNL A   1      38.249  29.797  27.796  1.00  0.00     0.010 A 
ATOM     26  C   UNL A   1      38.366  29.338  29.120  1.00  0.00    -0.014 A 
BRANCH  26  27
ATOM     27  C   UNL A   1      39.676  28.869  29.631  1.00  0.00     0.031 A 
ATOM     28  C   UNL A   1      40.429  29.693  30.633  1.00  0.00     0.074 A 
ATOM     29  C   UNL A   1      40.194  27.714  29.176  1.00  0.00     0.049 A 
ATOM     30  N   UNL A   1      41.647  29.535  31.086  1.00  0.00    -0.248 NA
ATOM     31  C   UNL A   1      39.719  30.851  31.198  1.00  0.00     0.031 C 
ATOM     32  C   UNL A   1      39.537  26.806  28.235  1.00  0.00     0.029 A 
ATOM     33  N   UNL A   1      41.401  27.113  29.434  1.00  0.00    -0.354 N 
ATOM     34  C   UNL A   1      41.861  30.587  31.967  1.00  0.00     0.074 A 
ATOM     35  C   UNL A   1      40.649  31.380  31.982  1.00  0.00     0.031 C 
ATOM     36  C   UNL A   1      40.348  25.764  27.994  1.00  0.00     0.029 A 
ATOM     37  C   UNL A   1      41.602  25.961  28.716  1.00  0.00     0.049 A 
ATOM     38  H   UNL A   1      42.058  27.474  30.073  1.00  0.00     0.167 HD
ATOM     39  C   UNL A   1      42.969  30.861  32.693  1.00  0.00     0.037 A 
ATOM     40  C   UNL A   1      42.690  25.174  28.621  1.00  0.00     0.037 A 
ATOM     41  C   UNL A   1      44.163  30.056  32.692  1.00  0.00     0.049 A 
ATOM     42  C   UNL A   1      43.930  25.540  29.387  1.00  0.00     0.074 A 
ATOM     43  C   UNL A   1      45.328  30.236  33.417  1.00  0.00     0.029 A 
ATOM     44  N   UNL A   1      44.342  28.916  31.923  1.00  0.00    -0.354 N 
ATOM     45  N   UNL A   1      44.130  26.541  30.209  1.00  0.00    -0.248 NA
ATOM     46  C   UNL A   1      45.102  24.674  29.200  1.00  0.00     0.031 C 
ATOM     47  C   UNL A   1      46.227  29.225  33.059  1.00  0.00     0.029 A 
ATOM     48  C   UNL A   1      45.608  28.394  32.138  1.00  0.00     0.049 A 
ATOM     49  H   UNL A   1      43.670  28.533  31.315  1.00  0.00     0.167 HD
ATOM     50  C   UNL A   1      45.441  26.421  30.647  1.00  0.00     0.074 A 
ATOM     51  C   UNL A   1      45.986  25.238  30.011  1.00  0.00     0.031 C 
ATOM     52  C   UNL A   1      46.133  27.219  31.496  1.00  0.00     0.037 A 
BRANCH  39  53
ATOM     53  C   UNL A   1      42.960  32.103  33.533  1.00  0.00     0.064 A 
ATOM     54  C   UNL A   1      43.576  33.287  33.106  1.00  0.00     0.173 A 
ATOM     55  C   UNL A   1      42.284  32.117  34.762  1.00  0.00     0.173 A 
ATOM     56  F   UNL A   1      44.246  33.319  31.944  1.00  0.00    -0.203 F 
ATOM     57  C   UNL A   1      43.528  34.439  33.887  1.00  0.00     0.198 A 
ATOM     58  C   UNL A   1      42.221  33.276  35.531  1.00  0.00     0.198 A 
ATOM     59  F   UNL A   1      41.677  31.009  35.214  1.00  0.00    -0.203 F 
ATOM     60  F   UNL A   1      44.150  35.553  33.476  1.00  0.00    -0.200 F 
ATOM     61  C   UNL A   1      42.846  34.435  35.095  1.00  0.00     0.200 A 
ATOM     62  F   UNL A   1      41.554  33.272  36.693  1.00  0.00    -0.200 F 
ATOM     63  F   UNL A   1      42.794  35.546  35.841  1.00  0.00    -0.200 F 
ENDBRANCH  39  53
BRANCH  40  64
ATOM     64  C   UNL A   1      42.667  23.983  27.735  1.00  0.00     0.064 A 
ATOM     65  C   UNL A   1      42.315  22.723  28.236  1.00  0.00     0.173 A 
ATOM     66  C   UNL A   1      42.998  24.079  26.375  1.00  0.00     0.173 A 
ATOM     67  F   UNL A   1      42.018  22.578  29.535  1.00  0.00    -0.203 F 
ATOM     68  C   UNL A   1      42.307  21.599  27.411  1.00  0.00     0.198 A 
ATOM     69  C   UNL A   1      42.965  22.960  25.547  1.00  0.00     0.198 A 
ATOM     70  F   UNL A   1      43.347  25.263  25.852  1.00  0.00    -0.203 F 
ATOM     71  F   UNL A   1      42.006  20.398  27.922  1.00  0.00    -0.200 F 
ATOM     72  C   UNL A   1      42.625  21.721  26.067  1.00  0.00     0.200 A 
ATOM     73  F   UNL A   1      43.265  23.083  24.247  1.00  0.00    -0.200 F 
ATOM     74  F   UNL A   1      42.614  20.641  25.273  1.00  0.00    -0.200 F 
ENDBRANCH  40  64
BRANCH  52  75
ATOM     75  C   UNL A   1      47.548  26.827  31.797  1.00  0.00     0.064 A 
ATOM     76  C   UNL A   1      48.621  27.334  31.051  1.00  0.00     0.173 A 
ATOM     77  C   UNL A   1      47.834  25.961  32.863  1.00  0.00     0.173 A 
ATOM     78  F   UNL A   1      48.394  28.152  30.012  1.00  0.00    -0.203 F 
ATOM     79  C   UNL A   1      49.931  26.973  31.350  1.00  0.00     0.198 A 
ATOM     80  C   UNL A   1      49.147  25.620  33.172  1.00  0.00     0.198 A 
ATOM     81  F   UNL A   1      46.842  25.453  33.607  1.00  0.00    -0.203 F 
ATOM     82  F   UNL A   1      50.940  27.437  30.599  1.00  0.00    -0.200 F 
ATOM     83  C   UNL A   1      50.194  26.120  32.412  1.00  0.00     0.200 A 
ATOM     84  F   UNL A   1      49.401  24.802  34.204  1.00  0.00    -0.200 F 
ATOM     85  F   UNL A   1      51.457  25.775  32.699  1.00  0.00    -0.200 F 
ENDBRANCH  52  75
ENDBRANCH  26  27
ENDBRANCH  19  21
ENDBRANCH  18  19
ENDBRANCH  17  18
ENDBRANCH   1  17
TORSDOF 14
ENDMDL
MODEL 2
REMARK VINA RESULT:      -9.2      5.573      9.921
REMARK SMILES CC(C)Cc1ccc([C@@H](C)C(=O)OCCOC(=O)c2ccc(-c3c4nc(c(-c5c(F)c(F)c(F)c(F)c5F)c5ccc([nH]5)c(-c5c(F)c(F)c(F)c(F)c5F)c5nc(c(-c6c(F)c(F)c(F)c(F)c6F)c6ccc3[nH]6)C=C5)C=C4)cc2)cc1
REMARK SMILES IDX 14 1 13 2 11 3 12 4 9 5 10 6 8 7 5 8 6 9 83 10 7 11 82 12
REMARK SMILES IDX 4 13 2 14 1 15 3 16 15 17 16 18 17 19 18 20 19 21 20 22
REMARK SMILES IDX 81 23 21 24 80 25 22 26 23 27 24 28 74 29 25 30 79 31 73 32
REMARK SMILES IDX 75 33 26 34 78 35 72 36 71 37 27 39 59 40 39 41 58 42 40 43
REMARK SMILES IDX 43 44 57 45 76 46 41 47 42 48 56 50 77 51 44 52 28 53 29 54
REMARK SMILES IDX 37 55 30 56 31 57 35 58 38 59 32 60 33 61 36 62 34 63 60 64
REMARK SMILES IDX 61 65 69 66 62 67 63 68 67 69 70 70 64 71 65 72 68 73 66 74
REMARK SMILES IDX 45 75 46 76 54 77 47 78 48 79 52 80 55 81 49 82 50 83 53 84
REMARK SMILES IDX 51 85
REMARK H PARENT 75 38 43 49
REMARK Flexibility Score: inf
ROOT
ATOM      1  C   UNL A   1      36.621  22.863  23.628  1.00  0.00     0.274 C 
ENDROOT
BRANCH   1   2
ATOM      2  O   UNL A   1      35.425  23.352  24.263  1.00  0.00    -0.462 OA
BRANCH   2   3
ATOM      3  C   UNL A   1      34.311  23.417  23.488  1.00  0.00     0.313 C 
ATOM      4  O   UNL A   1      34.261  23.954  22.385  1.00  0.00    -0.252 OA
BRANCH   3   5
ATOM      5  C   UNL A   1      33.087  22.786  24.132  1.00  0.00     0.126 C 
ATOM      6  C   UNL A   1      32.896  23.345  25.541  1.00  0.00     0.025 C 
BRANCH   5   7
ATOM      7  C   UNL A   1      33.025  21.269  24.079  1.00  0.00    -0.034 A 
ATOM      8  C   UNL A   1      33.085  18.448  23.927  1.00  0.00    -0.048 A 
ATOM      9  C   UNL A   1      32.352  19.194  22.999  1.00  0.00     0.004 A 
ATOM     10  C   UNL A   1      33.741  19.116  24.964  1.00  0.00     0.004 A 
ATOM     11  C   UNL A   1      32.316  20.590  23.078  1.00  0.00     0.005 A 
ATOM     12  C   UNL A   1      33.718  20.509  25.034  1.00  0.00     0.005 A 
BRANCH   8  13
ATOM     13  C   UNL A   1      33.235  16.956  23.762  1.00  0.00     0.038 C 
BRANCH  13  14
ATOM     14  C   UNL A   1      33.583  16.254  25.092  1.00  0.00    -0.013 C 
ATOM     15  C   UNL A   1      32.668  15.059  25.376  1.00  0.00     0.008 C 
ATOM     16  C   UNL A   1      35.040  15.788  25.075  1.00  0.00     0.008 C 
ENDBRANCH  13  14
ENDBRANCH   8  13
ENDBRANCH   5   7
ENDBRANCH   3   5
ENDBRANCH   2   3
ENDBRANCH   1   2
BRANCH   1  17
ATOM     17  C   UNL A   1      37.134  21.615  24.345  1.00  0.00     0.275 C 
BRANCH  17  18
ATOM     18  O   UNL A   1      37.451  21.930  25.712  1.00  0.00    -0.458 OA
BRANCH  18  19
ATOM     19  C   UNL A   1      38.692  21.588  26.126  1.00  0.00     0.338 C 
ATOM     20  O   UNL A   1      39.212  20.490  26.128  1.00  0.00    -0.246 OA
BRANCH  19  21
ATOM     21  C   UNL A   1      39.378  22.802  26.587  1.00  0.00     0.060 A 
ATOM     22  C   UNL A   1      38.944  24.048  26.131  1.00  0.00     0.016 A 
ATOM     23  C   UNL A   1      40.494  22.695  27.413  1.00  0.00     0.016 A 
ATOM     24  C   UNL A   1      39.640  25.201  26.487  1.00  0.00     0.010 A 
ATOM     25  C   UNL A   1      41.171  23.854  27.799  1.00  0.00     0.010 A 
ATOM     26  C   UNL A   1      40.755  25.114  27.330  1.00  0.00    -0.014 A 
BRANCH  26  27
ATOM     27  C   UNL A   1      41.497  26.334  27.723  1.00  0.00     0.031 A 
ATOM     28  C   UNL A   1      40.815  27.401  28.527  1.00  0.00     0.074 A 
ATOM     29  C   UNL A   1      42.778  26.489  27.338  1.00  0.00     0.049 A 
ATOM     30  N   UNL A   1      41.239  28.599  28.842  1.00  0.00    -0.248 NA
ATOM     31  C   UNL A   1      39.475  27.079  29.043  1.00  0.00     0.031 C 
ATOM     32  C   UNL A   1      43.560  25.503  26.593  1.00  0.00     0.029 A 
ATOM     33  N   UNL A   1      43.640  27.542  27.511  1.00  0.00    -0.354 N 
ATOM     34  C   UNL A   1      40.210  29.185  29.567  1.00  0.00     0.074 A 
ATOM     35  C   UNL A   1      39.139  28.213  29.644  1.00  0.00     0.031 C 
ATOM     36  C   UNL A   1      44.788  25.998  26.370  1.00  0.00     0.029 A 
ATOM     37  C   UNL A   1      44.858  27.354  26.906  1.00  0.00     0.049 A 
ATOM     38  H   UNL A   1      43.409  28.352  28.020  1.00  0.00     0.167 HD
ATOM     39  C   UNL A   1      40.168  30.421  30.115  1.00  0.00     0.037 A 
ATOM     40  C   UNL A   1      45.898  28.198  26.765  1.00  0.00     0.037 A 
ATOM     41  C   UNL A   1      41.246  31.374  30.056  1.00  0.00     0.049 A 
ATOM     42  C   UNL A   1      45.799  29.588  27.327  1.00  0.00     0.074 A 
ATOM     43  C   UNL A   1      41.310  32.643  30.608  1.00  0.00     0.029 A 
ATOM     44  N   UNL A   1      42.450  31.162  29.403  1.00  0.00    -0.354 N 
ATOM     45  N   UNL A   1      44.819  30.139  28.002  1.00  0.00    -0.248 NA
ATOM     46  C   UNL A   1      46.944  30.479  27.094  1.00  0.00     0.031 C 
ATOM     47  C   UNL A   1      42.538  33.212  30.256  1.00  0.00     0.029 A 
ATOM     48  C   UNL A   1      43.255  32.284  29.516  1.00  0.00     0.049 A 
ATOM     49  H   UNL A   1      42.697  30.335  28.928  1.00  0.00     0.167 HD
ATOM     50  C   UNL A   1      45.232  31.434  28.285  1.00  0.00     0.074 A 
ATOM     51  C   UNL A   1      46.559  31.581  27.722  1.00  0.00     0.031 C 
ATOM     52  C   UNL A   1      44.571  32.413  28.948  1.00  0.00     0.037 A 
BRANCH  39  53
ATOM     53  C   UNL A   1      38.904  30.832  30.807  1.00  0.00     0.064 A 
ATOM     54  C   UNL A   1      38.734  30.672  32.190  1.00  0.00     0.173 A 
ATOM     55  C   UNL A   1      37.867  31.436  30.081  1.00  0.00     0.173 A 
ATOM     56  F   UNL A   1      39.692  30.087  32.924  1.00  0.00    -0.203 F 
ATOM     57  C   UNL A   1      37.563  31.090  32.818  1.00  0.00     0.198 A 
ATOM     58  C   UNL A   1      36.706  31.871  30.716  1.00  0.00     0.198 A 
ATOM     59  F   UNL A   1      37.982  31.613  28.756  1.00  0.00    -0.203 F 
ATOM     60  F   UNL A   1      37.407  30.900  34.136  1.00  0.00    -0.200 F 
ATOM     61  C   UNL A   1      36.554  31.694  32.083  1.00  0.00     0.200 A 
ATOM     62  F   UNL A   1      35.737  32.463  30.005  1.00  0.00    -0.200 F 
ATOM     63  F   UNL A   1      35.432  32.103  32.690  1.00  0.00    -0.200 F 
ENDBRANCH  39  53
BRANCH  40  64
ATOM     64  C   UNL A   1      47.110  27.761  26.027  1.00  0.00     0.064 A 
ATOM     65  C   UNL A   1      47.150  27.795  24.627  1.00  0.00     0.173 A 
ATOM     66  C   UNL A   1      48.248  27.296  26.704  1.00  0.00     0.173 A 
ATOM     67  F   UNL A   1      46.075  28.204  23.936  1.00  0.00    -0.203 F 
ATOM     68  C   UNL A   1      48.280  27.371  23.930  1.00  0.00     0.198 A 
ATOM     69  C   UNL A   1      49.385  26.897  26.007  1.00  0.00     0.198 A 
ATOM     70  F   UNL A   1      48.255  27.240  28.043  1.00  0.00    -0.203 F 
ATOM     71  F   UNL A   1      48.278  27.376  22.591  1.00  0.00    -0.200 F 
ATOM     72  C   UNL A   1      49.398  26.929  24.621  1.00  0.00     0.200 A 
ATOM     73  F   UNL A   1      50.467  26.478  26.678  1.00  0.00    -0.200 F 
ATOM     74  F   UNL A   1      50.486  26.524  23.951  1.00  0.00    -0.200 F 
ENDBRANCH  40  64
BRANCH  52  75
ATOM     75  C   UNL A   1      45.282  33.722  29.114  1.00  0.00     0.064 A 
ATOM     76  C   UNL A   1      46.128  33.960  30.207  1.00  0.00     0.173 A 
ATOM     77  C   UNL A   1      45.139  34.735  28.155  1.00  0.00     0.173 A 
ATOM     78  F   UNL A   1      46.280  33.027  31.158  1.00  0.00    -0.203 F 
ATOM     79  C   UNL A   1      46.792  35.175  30.342  1.00  0.00     0.198 A 
ATOM     80  C   UNL A   1      45.823  35.940  28.283  1.00  0.00     0.198 A 
ATOM     81  F   UNL A   1      44.343  34.553  27.091  1.00  0.00    -0.203 F 
ATOM     82  F   UNL A   1      47.565  35.399  31.414  1.00  0.00    -0.200 F 
ATOM     83  C   UNL A   1      46.643  36.163  29.378  1.00  0.00     0.200 A 
ATOM     84  F   UNL A   1      45.685  36.890  27.346  1.00  0.00    -0.200 F 
ATOM     85  F   UNL A   1      47.285  37.331  29.510  1.00  0.00    -0.200 F 
ENDBRANCH  52  75
ENDBRANCH  26  27
ENDBRANCH  19  21
ENDBRANCH  18  19
ENDBRANCH  17  18
ENDBRANCH   1  17
TORSDOF 14
ENDMDL
MODEL 3
REMARK VINA RESULT:      -9.1      3.748     10.168
REMARK SMILES CC(C)Cc1ccc([C@@H](C)C(=O)OCCOC(=O)c2ccc(-c3c4nc(c(-c5c(F)c(F)c(F)c(F)c5F)c5ccc([nH]5)c(-c5c(F)c(F)c(F)c(F)c5F)c5nc(c(-c6c(F)c(F)c(F)c(F)c6F)c6ccc3[nH]6)C=C5)C=C4)cc2)cc1
REMARK SMILES IDX 14 1 13 2 11 3 12 4 9 5 10 6 8 7 5 8 6 9 83 10 7 11 82 12
REMARK SMILES IDX 4 13 2 14 1 15 3 16 15 17 16 18 17 19 18 20 19 21 20 22
REMARK SMILES IDX 81 23 21 24 80 25 22 26 23 27 24 28 74 29 25 30 79 31 73 32
REMARK SMILES IDX 75 33 26 34 78 35 72 36 71 37 27 39 59 40 39 41 58 42 40 43
REMARK SMILES IDX 43 44 57 45 76 46 41 47 42 48 56 50 77 51 44 52 28 53 29 54
REMARK SMILES IDX 37 55 30 56 31 57 35 58 38 59 32 60 33 61 36 62 34 63 60 64
REMARK SMILES IDX 61 65 69 66 62 67 63 68 67 69 70 70 64 71 65 72 68 73 66 74
REMARK SMILES IDX 45 75 46 76 54 77 47 78 48 79 52 80 55 81 49 82 50 83 53 84
REMARK SMILES IDX 51 85
REMARK H PARENT 75 38 43 49
REMARK Flexibility Score: inf
ROOT
ATOM      1  C   UNL A   1      41.620  20.486  26.453  1.00  0.00     0.274 C 
ENDROOT
BRANCH   1   2
ATOM      2  O   UNL A   1      42.301  21.136  25.365  1.00  0.00    -0.462 OA
BRANCH   2   3
ATOM      3  C   UNL A   1      43.518  21.669  25.644  1.00  0.00     0.313 C 
ATOM      4  O   UNL A   1      44.576  21.046  25.608  1.00  0.00    -0.252 OA
BRANCH   3   5
ATOM      5  C   UNL A   1      43.461  23.132  26.055  1.00  0.00     0.126 C 
ATOM      6  C   UNL A   1      44.382  23.958  25.160  1.00  0.00     0.025 C 
BRANCH   5   7
ATOM      7  C   UNL A   1      43.664  23.406  27.536  1.00  0.00    -0.034 A 
ATOM      8  C   UNL A   1      44.153  23.770  30.295  1.00  0.00    -0.048 A 
ATOM      9  C   UNL A   1      42.900  23.343  29.846  1.00  0.00     0.004 A 
ATOM     10  C   UNL A   1      45.143  24.069  29.354  1.00  0.00     0.004 A 
ATOM     11  C   UNL A   1      42.656  23.169  28.480  1.00  0.00     0.005 A 
ATOM     12  C   UNL A   1      44.903  23.881  27.993  1.00  0.00     0.005 A 
BRANCH   8  13
ATOM     13  C   UNL A   1      44.458  23.827  31.771  1.00  0.00     0.038 C 
BRANCH  13  14
ATOM     14  C   UNL A   1      45.052  25.189  32.192  1.00  0.00    -0.013 C 
ATOM     15  C   UNL A   1      43.975  26.171  32.665  1.00  0.00     0.008 C 
ATOM     16  C   UNL A   1      46.085  24.992  33.303  1.00  0.00     0.008 C 
ENDBRANCH  13  14
ENDBRANCH   8  13
ENDBRANCH   5   7
ENDBRANCH   3   5
ENDBRANCH   2   3
ENDBRANCH   1   2
BRANCH   1  17
ATOM     17  C   UNL A   1      40.240  21.107  26.668  1.00  0.00     0.275 C 
BRANCH  17  18
ATOM     18  O   UNL A   1      40.173  22.388  26.017  1.00  0.00    -0.458 OA
BRANCH  18  19
ATOM     19  C   UNL A   1      39.110  23.160  26.338  1.00  0.00     0.338 C 
ATOM     20  O   UNL A   1      37.929  22.925  26.175  1.00  0.00    -0.246 OA
BRANCH  19  21
ATOM     21  C   UNL A   1      39.605  24.392  26.965  1.00  0.00     0.060 A 
ATOM     22  C   UNL A   1      39.264  24.670  28.290  1.00  0.00     0.016 A 
ATOM     23  C   UNL A   1      40.345  25.302  26.214  1.00  0.00     0.016 A 
ATOM     24  C   UNL A   1      39.649  25.876  28.870  1.00  0.00     0.010 A 
ATOM     25  C   UNL A   1      40.761  26.496  26.806  1.00  0.00     0.010 A 
ATOM     26  C   UNL A   1      40.407  26.797  28.135  1.00  0.00    -0.014 A 
BRANCH  26  27
ATOM     27  C   UNL A   1      40.830  28.079  28.744  1.00  0.00     0.031 A 
ATOM     28  C   UNL A   1      42.256  28.274  29.166  1.00  0.00     0.074 A 
ATOM     29  C   UNL A   1      39.926  29.057  28.936  1.00  0.00     0.049 A 
ATOM     30  N   UNL A   1      42.791  29.256  29.847  1.00  0.00    -0.248 NA
ATOM     31  C   UNL A   1      43.208  27.224  28.771  1.00  0.00     0.031 C 
ATOM     32  C   UNL A   1      38.522  29.000  28.528  1.00  0.00     0.029 A 
ATOM     33  N   UNL A   1      40.053  30.285  29.535  1.00  0.00    -0.354 N 
ATOM     34  C   UNL A   1      44.134  28.930  29.988  1.00  0.00     0.074 A 
ATOM     35  C   UNL A   1      44.333  27.658  29.325  1.00  0.00     0.031 C 
ATOM     36  C   UNL A   1      37.915  30.141  28.891  1.00  0.00     0.029 A 
ATOM     37  C   UNL A   1      38.872  30.982  29.605  1.00  0.00     0.049 A 
ATOM     38  H   UNL A   1      40.906  30.632  29.881  1.00  0.00     0.167 HD
ATOM     39  C   UNL A   1      45.106  29.632  30.616  1.00  0.00     0.037 A 
ATOM     40  C   UNL A   1      38.586  32.149  30.212  1.00  0.00     0.037 A 
ATOM     41  C   UNL A   1      44.906  30.907  31.253  1.00  0.00     0.049 A 
ATOM     42  C   UNL A   1      39.670  32.874  30.959  1.00  0.00     0.074 A 
ATOM     43  C   UNL A   1      45.837  31.711  31.890  1.00  0.00     0.029 A 
ATOM     44  N   UNL A   1      43.688  31.565  31.335  1.00  0.00    -0.354 N 
ATOM     45  N   UNL A   1      40.935  32.556  31.097  1.00  0.00    -0.248 NA
ATOM     46  C   UNL A   1      39.285  34.114  31.646  1.00  0.00     0.031 C 
ATOM     47  C   UNL A   1      45.174  32.837  32.390  1.00  0.00     0.029 A 
ATOM     48  C   UNL A   1      43.838  32.753  32.033  1.00  0.00     0.049 A 
ATOM     49  H   UNL A   1      42.842  31.237  30.954  1.00  0.00     0.167 HD
ATOM     50  C   UNL A   1      41.497  33.558  31.875  1.00  0.00     0.074 A 
ATOM     51  C   UNL A   1      40.440  34.505  32.165  1.00  0.00     0.031 C 
ATOM     52  C   UNL A   1      42.774  33.681  32.312  1.00  0.00     0.037 A 
BRANCH  39  53
ATOM     53  C   UNL A   1      46.474  29.024  30.672  1.00  0.00     0.064 A 
ATOM     54  C   UNL A   1      46.950  28.381  31.824  1.00  0.00     0.173 A 
ATOM     55  C   UNL A   1      47.303  29.047  29.540  1.00  0.00     0.173 A 
ATOM     56  F   UNL A   1      46.199  28.345  32.935  1.00  0.00    -0.203 F 
ATOM     57  C   UNL A   1      48.212  27.794  31.845  1.00  0.00     0.198 A 
ATOM     58  C   UNL A   1      48.557  28.442  29.558  1.00  0.00     0.198 A 
ATOM     59  F   UNL A   1      46.893  29.648  28.413  1.00  0.00    -0.203 F 
ATOM     60  F   UNL A   1      48.661  27.212  32.965  1.00  0.00    -0.200 F 
ATOM     61  C   UNL A   1      49.012  27.819  30.711  1.00  0.00     0.200 A 
ATOM     62  F   UNL A   1      49.323  28.459  28.459  1.00  0.00    -0.200 F 
ATOM     63  F   UNL A   1      50.223  27.248  30.730  1.00  0.00    -0.200 F 
ENDBRANCH  39  53
BRANCH  40  64
ATOM     64  C   UNL A   1      37.202  32.684  30.171  1.00  0.00     0.064 A 
ATOM     65  C   UNL A   1      36.281  32.374  31.179  1.00  0.00     0.173 A 
ATOM     66  C   UNL A   1      36.772  33.512  29.123  1.00  0.00     0.173 A 
ATOM     67  F   UNL A   1      36.639  31.563  32.186  1.00  0.00    -0.203 F 
ATOM     68  C   UNL A   1      34.976  32.861  31.136  1.00  0.00     0.198 A 
ATOM     69  C   UNL A   1      35.475  34.020  29.094  1.00  0.00     0.198 A 
ATOM     70  F   UNL A   1      37.616  33.833  28.132  1.00  0.00    -0.203 F 
ATOM     71  F   UNL A   1      34.103  32.517  32.091  1.00  0.00    -0.200 F 
ATOM     72  C   UNL A   1      34.578  33.690  30.097  1.00  0.00     0.200 A 
ATOM     73  F   UNL A   1      35.096  34.826  28.093  1.00  0.00    -0.200 F 
ATOM     74  F   UNL A   1      33.324  34.161  30.057  1.00  0.00    -0.200 F 
ENDBRANCH  40  64
BRANCH  52  75
ATOM     75  C   UNL A   1      43.098  34.892  33.135  1.00  0.00     0.064 A 
ATOM     76  C   UNL A   1      43.478  36.101  32.536  1.00  0.00     0.173 A 
ATOM     77  C   UNL A   1      42.996  34.849  34.533  1.00  0.00     0.173 A 
ATOM     78  F   UNL A   1      43.605  36.183  31.203  1.00  0.00    -0.203 F 
ATOM     79  C   UNL A   1      43.763  37.221  33.311  1.00  0.00     0.198 A 
ATOM     80  C   UNL A   1      43.260  35.978  35.302  1.00  0.00     0.198 A 
ATOM     81  F   UNL A   1      42.634  33.716  35.151  1.00  0.00    -0.203 F 
ATOM     82  F   UNL A   1      44.163  38.357  32.721  1.00  0.00    -0.200 F 
ATOM     83  C   UNL A   1      43.650  37.161  34.693  1.00  0.00     0.200 A 
ATOM     84  F   UNL A   1      43.143  35.921  36.637  1.00  0.00    -0.200 F 
ATOM     85  F   UNL A   1      43.923  38.242  35.436  1.00  0.00    -0.200 F 
ENDBRANCH  52  75
ENDBRANCH  26  27
ENDBRANCH  19  21
ENDBRANCH  18  19
ENDBRANCH  17  18
ENDBRANCH   1  17
TORSDOF 14
ENDMDL
