MODEL 1
REMARK VINA RESULT:     -12.5      0.000      0.000
REMARK SMILES C[C@@H](C(=O)OCCOC(=O)c1ccc(-c2c3nc(c(-c4c(F)c(F)c(F)c(F)c4F)c4ccc([nH]4)c(-c4c(F)c(F)c(F)c(F)c4F)c4nc(c(-c5c(F)c(F)c(F)c(F)c5F)c5ccc2[nH]5)C=C4)C=C3)cc1)c1ccc(C[C@H]2CCCC2=O)cc1F
REMARK SMILES IDX 6 1 5 2 3 3 4 4 2 5 1 6 74 7 75 8 86 9 76 10 85 11 87 12
REMARK SMILES IDX 77 13 78 14 79 15 80 16 83 17 81 18 82 19 84 20 7 21 8 22
REMARK SMILES IDX 9 23 10 24 11 25 12 26 73 27 13 28 72 29 14 30 15 31 16 32
REMARK SMILES IDX 66 33 17 34 71 35 65 36 67 37 18 38 70 39 64 40 63 41 19 43
REMARK SMILES IDX 51 44 31 45 50 46 32 47 35 48 49 49 68 50 33 51 34 52 48 54
REMARK SMILES IDX 69 55 36 56 20 57 21 58 29 59 22 60 23 61 27 62 30 63 24 64
REMARK SMILES IDX 25 65 28 66 26 67 52 68 53 69 61 70 54 71 55 72 59 73 62 74
REMARK SMILES IDX 56 75 57 76 60 77 58 78 37 79 38 80 46 81 39 82 40 83 44 84
REMARK SMILES IDX 47 85 41 86 42 87 45 88 43 89
REMARK H PARENT 67 42 35 53
REMARK Flexibility Score: inf
ROOT
ATOM      1  C   UNL A   1      31.930  28.287  27.268  1.00  0.00     0.274 C 
ENDROOT
BRANCH   1   2
ATOM      2  O   UNL A   1      32.490  27.274  26.406  1.00  0.00    -0.462 OA
BRANCH   2   3
ATOM      3  C   UNL A   1      31.645  26.292  25.988  1.00  0.00     0.313 C 
ATOM      4  O   UNL A   1      30.986  25.585  26.744  1.00  0.00    -0.252 OA
BRANCH   3   5
ATOM      5  C   UNL A   1      31.648  26.119  24.463  1.00  0.00     0.129 C 
ATOM      6  C   UNL A   1      33.053  26.002  23.864  1.00  0.00     0.025 C 
BRANCH   5   7
ATOM      7  C   UNL A   1      30.763  27.164  23.789  1.00  0.00     0.002 A 
ATOM      8  C   UNL A   1      31.368  28.209  23.068  1.00  0.00     0.008 A 
ATOM      9  C   UNL A   1      29.366  27.108  23.787  1.00  0.00     0.127 A 
ATOM     10  C   UNL A   1      30.599  29.149  22.370  1.00  0.00     0.004 A 
ATOM     11  C   UNL A   1      28.592  28.051  23.107  1.00  0.00     0.043 A 
ATOM     12  F   UNL A   1      28.722  26.111  24.407  1.00  0.00    -0.207 F 
ATOM     13  C   UNL A   1      29.201  29.076  22.375  1.00  0.00    -0.044 A 
BRANCH  13  14
ATOM     14  C   UNL A   1      28.377  30.048  21.564  1.00  0.00     0.047 C 
BRANCH  14  15
ATOM     15  C   UNL A   1      27.702  31.187  22.327  1.00  0.00     0.060 C 
ATOM     16  C   UNL A   1      27.996  31.246  23.829  1.00  0.00     0.012 C 
ATOM     17  C   UNL A   1      28.166  32.546  21.858  1.00  0.00     0.136 C 
ATOM     18  C   UNL A   1      29.132  32.247  23.994  1.00  0.00     0.009 C 
ATOM     19  C   UNL A   1      28.888  33.312  22.935  1.00  0.00     0.076 C 
ATOM     20  O   UNL A   1      27.967  32.984  20.731  1.00  0.00    -0.299 OA
ENDBRANCH  14  15
ENDBRANCH  13  14
ENDBRANCH   5   7
ENDBRANCH   3   5
ENDBRANCH   2   3
ENDBRANCH   1   2
BRANCH   1  21
ATOM     21  C   UNL A   1      31.659  29.557  26.467  1.00  0.00     0.275 C 
BRANCH  21  22
ATOM     22  O   UNL A   1      32.913  30.195  26.176  1.00  0.00    -0.458 OA
BRANCH  22  23
ATOM     23  C   UNL A   1      33.287  31.196  27.006  1.00  0.00     0.338 C 
ATOM     24  O   UNL A   1      32.655  32.203  27.272  1.00  0.00    -0.246 OA
BRANCH  23  25
ATOM     25  C   UNL A   1      34.628  30.904  27.562  1.00  0.00     0.060 A 
ATOM     26  C   UNL A   1      35.038  29.594  27.799  1.00  0.00     0.016 A 
ATOM     27  C   UNL A   1      35.461  31.962  27.931  1.00  0.00     0.016 A 
ATOM     28  C   UNL A   1      36.229  29.348  28.481  1.00  0.00     0.010 A 
ATOM     29  C   UNL A   1      36.696  31.705  28.542  1.00  0.00     0.010 A 
ATOM     30  C   UNL A   1      37.078  30.394  28.874  1.00  0.00    -0.014 A 
BRANCH  30  31
ATOM     31  C   UNL A   1      38.306  30.127  29.688  1.00  0.00     0.031 A 
ATOM     32  C   UNL A   1      39.450  29.329  29.106  1.00  0.00     0.074 A 
ATOM     33  C   UNL A   1      38.452  30.630  30.932  1.00  0.00     0.049 A 
ATOM     34  N   UNL A   1      40.494  28.810  29.707  1.00  0.00    -0.248 NA
ATOM     35  C   UNL A   1      39.417  29.076  27.657  1.00  0.00     0.031 C 
ATOM     36  C   UNL A   1      37.487  31.480  31.626  1.00  0.00     0.029 A 
ATOM     37  N   UNL A   1      39.489  30.512  31.830  1.00  0.00    -0.354 N 
ATOM     38  C   UNL A   1      41.182  28.096  28.733  1.00  0.00     0.074 A 
ATOM     39  C   UNL A   1      40.458  28.273  27.493  1.00  0.00     0.031 C 
ATOM     40  C   UNL A   1      38.000  31.865  32.803  1.00  0.00     0.029 A 
ATOM     41  C   UNL A   1      39.281  31.194  33.004  1.00  0.00     0.049 A 
ATOM     42  H   UNL A   1      40.303  29.988  31.649  1.00  0.00     0.167 HD
ATOM     43  C   UNL A   1      42.307  27.352  28.865  1.00  0.00     0.037 A 
ATOM     44  C   UNL A   1      40.003  31.242  34.140  1.00  0.00     0.037 A 
ATOM     45  C   UNL A   1      43.084  27.242  30.074  1.00  0.00     0.049 A 
ATOM     46  C   UNL A   1      41.248  30.411  34.267  1.00  0.00     0.074 A 
ATOM     47  C   UNL A   1      44.237  26.509  30.296  1.00  0.00     0.029 A 
ATOM     48  N   UNL A   1      42.804  27.912  31.254  1.00  0.00    -0.354 N 
ATOM     49  N   UNL A   1      41.814  29.632  33.379  1.00  0.00    -0.248 NA
ATOM     50  C   UNL A   1      41.931  30.435  35.569  1.00  0.00     0.031 C 
ATOM     51  C   UNL A   1      44.647  26.721  31.618  1.00  0.00     0.029 A 
ATOM     52  C   UNL A   1      43.766  27.613  32.206  1.00  0.00     0.049 A 
ATOM     53  H   UNL A   1      42.036  28.511  31.395  1.00  0.00     0.167 HD
ATOM     54  C   UNL A   1      42.910  29.066  34.016  1.00  0.00     0.074 A 
ATOM     55  C   UNL A   1      42.950  29.617  35.355  1.00  0.00     0.031 C 
ATOM     56  C   UNL A   1      43.792  28.156  33.539  1.00  0.00     0.037 A 
BRANCH  43  57
ATOM     57  C   UNL A   1      42.759  26.554  27.677  1.00  0.00     0.064 A 
ATOM     58  C   UNL A   1      43.723  27.034  26.781  1.00  0.00     0.173 A 
ATOM     59  C   UNL A   1      42.257  25.259  27.473  1.00  0.00     0.173 A 
ATOM     60  F   UNL A   1      44.222  28.271  26.925  1.00  0.00    -0.203 F 
ATOM     61  C   UNL A   1      44.157  26.252  25.713  1.00  0.00     0.198 A 
ATOM     62  C   UNL A   1      42.711  24.470  26.419  1.00  0.00     0.198 A 
ATOM     63  F   UNL A   1      41.338  24.751  28.307  1.00  0.00    -0.203 F 
ATOM     64  F   UNL A   1      45.056  26.742  24.848  1.00  0.00    -0.200 F 
ATOM     65  C   UNL A   1      43.658  24.969  25.538  1.00  0.00     0.200 A 
ATOM     66  F   UNL A   1      42.236  23.227  26.260  1.00  0.00    -0.200 F 
ATOM     67  F   UNL A   1      44.087  24.214  24.517  1.00  0.00    -0.200 F 
ENDBRANCH  43  57
BRANCH  44  68
ATOM     68  C   UNL A   1      39.526  32.069  35.280  1.00  0.00     0.064 A 
ATOM     69  C   UNL A   1      38.669  31.533  36.250  1.00  0.00     0.173 A 
ATOM     70  C   UNL A   1      39.928  33.405  35.428  1.00  0.00     0.173 A 
ATOM     71  F   UNL A   1      38.228  30.272  36.129  1.00  0.00    -0.203 F 
ATOM     72  C   UNL A   1      38.235  32.301  37.328  1.00  0.00     0.198 A 
ATOM     73  C   UNL A   1      39.518  34.162  36.523  1.00  0.00     0.198 A 
ATOM     74  F   UNL A   1      40.740  33.967  34.521  1.00  0.00    -0.203 F 
ATOM     75  F   UNL A   1      37.387  31.778  38.223  1.00  0.00    -0.200 F 
ATOM     76  C   UNL A   1      38.669  33.612  37.470  1.00  0.00     0.200 A 
ATOM     77  F   UNL A   1      39.950  35.423  36.660  1.00  0.00    -0.200 F 
ATOM     78  F   UNL A   1      38.263  34.345  38.514  1.00  0.00    -0.200 F 
ENDBRANCH  44  68
BRANCH  56  79
ATOM     79  C   UNL A   1      44.877  27.700  34.467  1.00  0.00     0.064 A 
ATOM     80  C   UNL A   1      44.711  26.569  35.279  1.00  0.00     0.173 A 
ATOM     81  C   UNL A   1      46.099  28.383  34.528  1.00  0.00     0.173 A 
ATOM     82  F   UNL A   1      43.553  25.892  35.265  1.00  0.00    -0.203 F 
ATOM     83  C   UNL A   1      45.726  26.150  36.136  1.00  0.00     0.198 A 
ATOM     84  C   UNL A   1      47.119  27.950  35.371  1.00  0.00     0.198 A 
ATOM     85  F   UNL A   1      46.306  29.468  33.767  1.00  0.00    -0.203 F 
ATOM     86  F   UNL A   1      45.532  25.090  36.932  1.00  0.00    -0.200 F 
ATOM     87  C   UNL A   1      46.929  26.838  36.178  1.00  0.00     0.200 A 
ATOM     88  F   UNL A   1      48.285  28.612  35.406  1.00  0.00    -0.200 F 
ATOM     89  F   UNL A   1      47.905  26.434  37.004  1.00  0.00    -0.200 F 
ENDBRANCH  56  79
ENDBRANCH  30  31
ENDBRANCH  23  25
ENDBRANCH  22  23
ENDBRANCH  21  22
ENDBRANCH   1  21
TORSDOF 14
ENDMDL
MODEL 2
REMARK VINA RESULT:     -12.3      5.370     10.585
REMARK SMILES C[C@@H](C(=O)OCCOC(=O)c1ccc(-c2c3nc(c(-c4c(F)c(F)c(F)c(F)c4F)c4ccc([nH]4)c(-c4c(F)c(F)c(F)c(F)c4F)c4nc(c(-c5c(F)c(F)c(F)c(F)c5F)c5ccc2[nH]5)C=C4)C=C3)cc1)c1ccc(C[C@H]2CCCC2=O)cc1F
REMARK SMILES IDX 6 1 5 2 3 3 4 4 2 5 1 6 74 7 75 8 86 9 76 10 85 11 87 12
REMARK SMILES IDX 77 13 78 14 79 15 80 16 83 17 81 18 82 19 84 20 7 21 8 22
REMARK SMILES IDX 9 23 10 24 11 25 12 26 73 27 13 28 72 29 14 30 15 31 16 32
REMARK SMILES IDX 66 33 17 34 71 35 65 36 67 37 18 38 70 39 64 40 63 41 19 43
REMARK SMILES IDX 51 44 31 45 50 46 32 47 35 48 49 49 68 50 33 51 34 52 48 54
REMARK SMILES IDX 69 55 36 56 20 57 21 58 29 59 22 60 23 61 27 62 30 63 24 64
REMARK SMILES IDX 25 65 28 66 26 67 52 68 53 69 61 70 54 71 55 72 59 73 62 74
REMARK SMILES IDX 56 75 57 76 60 77 58 78 37 79 38 80 46 81 39 82 40 83 44 84
REMARK SMILES IDX 47 85 41 86 42 87 45 88 43 89
REMARK H PARENT 67 42 35 53
REMARK Flexibility Score: inf
ROOT
ATOM      1  C   UNL A   1      36.576  22.696  23.468  1.00  0.00     0.274 C 
ENDROOT
BRANCH   1   2
ATOM      2  O   UNL A   1      35.746  23.573  24.259  1.00  0.00    -0.462 OA
BRANCH   2   3
ATOM      3  C   UNL A   1      34.543  23.922  23.725  1.00  0.00     0.313 C 
ATOM      4  O   UNL A   1      34.412  24.523  22.664  1.00  0.00    -0.252 OA
BRANCH   3   5
ATOM      5  C   UNL A   1      33.363  23.535  24.625  1.00  0.00     0.129 C 
ATOM      6  C   UNL A   1      33.456  24.116  26.039  1.00  0.00     0.025 C 
BRANCH   5   7
ATOM      7  C   UNL A   1      33.107  22.031  24.582  1.00  0.00     0.002 A 
ATOM      8  C   UNL A   1      33.374  21.258  25.725  1.00  0.00     0.008 A 
ATOM      9  C   UNL A   1      32.551  21.374  23.479  1.00  0.00     0.127 A 
ATOM     10  C   UNL A   1      33.086  19.888  25.760  1.00  0.00     0.004 A 
ATOM     11  C   UNL A   1      32.276  20.005  23.500  1.00  0.00     0.043 A 
ATOM     12  F   UNL A   1      32.221  22.054  22.374  1.00  0.00    -0.207 F 
ATOM     13  C   UNL A   1      32.526  19.246  24.648  1.00  0.00    -0.044 A 
BRANCH  13  14
ATOM     14  C   UNL A   1      32.150  17.784  24.713  1.00  0.00     0.047 C 
BRANCH  14  15
ATOM     15  C   UNL A   1      33.131  16.791  24.090  1.00  0.00     0.060 C 
ATOM     16  C   UNL A   1      34.480  17.372  23.658  1.00  0.00     0.012 C 
ATOM     17  C   UNL A   1      33.546  15.710  25.060  1.00  0.00     0.136 C 
ATOM     18  C   UNL A   1      35.442  17.099  24.807  1.00  0.00     0.009 C 
ATOM     19  C   UNL A   1      35.018  15.752  25.375  1.00  0.00     0.076 C 
ATOM     20  O   UNL A   1      32.775  14.883  25.532  1.00  0.00    -0.299 OA
ENDBRANCH  14  15
ENDBRANCH  13  14
ENDBRANCH   5   7
ENDBRANCH   3   5
ENDBRANCH   2   3
ENDBRANCH   1   2
BRANCH   1  21
ATOM     21  C   UNL A   1      36.821  21.393  24.225  1.00  0.00     0.275 C 
BRANCH  21  22
ATOM     22  O   UNL A   1      37.232  21.709  25.565  1.00  0.00    -0.458 OA
BRANCH  22  23
ATOM     23  C   UNL A   1      38.523  21.453  25.875  1.00  0.00     0.338 C 
ATOM     24  O   UNL A   1      39.122  20.403  25.719  1.00  0.00    -0.246 OA
BRANCH  23  25
ATOM     25  C   UNL A   1      39.139  22.662  26.468  1.00  0.00     0.060 A 
ATOM     26  C   UNL A   1      38.636  23.932  26.194  1.00  0.00     0.016 A 
ATOM     27  C   UNL A   1      40.292  22.533  27.245  1.00  0.00     0.016 A 
ATOM     28  C   UNL A   1      39.331  25.064  26.619  1.00  0.00     0.010 A 
ATOM     29  C   UNL A   1      40.940  23.673  27.739  1.00  0.00     0.010 A 
ATOM     30  C   UNL A   1      40.498  24.961  27.391  1.00  0.00    -0.014 A 
BRANCH  30  31
ATOM     31  C   UNL A   1      41.289  26.178  27.761  1.00  0.00     0.031 A 
ATOM     32  C   UNL A   1      40.679  27.249  28.636  1.00  0.00     0.074 A 
ATOM     33  C   UNL A   1      42.573  26.330  27.375  1.00  0.00     0.049 A 
ATOM     34  N   UNL A   1      41.110  28.461  28.891  1.00  0.00    -0.248 NA
ATOM     35  C   UNL A   1      39.415  26.916  29.312  1.00  0.00     0.031 C 
ATOM     36  C   UNL A   1      43.347  25.369  26.592  1.00  0.00     0.029 A 
ATOM     37  N   UNL A   1      43.465  27.352  27.612  1.00  0.00    -0.354 N 
ATOM     38  C   UNL A   1      40.129  29.060  29.672  1.00  0.00     0.074 A 
ATOM     39  C   UNL A   1      39.094  28.070  29.878  1.00  0.00     0.031 C 
ATOM     40  C   UNL A   1      44.609  25.807  26.473  1.00  0.00     0.029 A 
ATOM     41  C   UNL A   1      44.708  27.136  27.068  1.00  0.00     0.049 A 
ATOM     42  H   UNL A   1      43.234  28.161  28.123  1.00  0.00     0.167 HD
ATOM     43  C   UNL A   1      40.090  30.324  30.162  1.00  0.00     0.037 A 
ATOM     44  C   UNL A   1      45.795  27.929  27.001  1.00  0.00     0.037 A 
ATOM     45  C   UNL A   1      41.154  31.286  30.037  1.00  0.00     0.049 A 
ATOM     46  C   UNL A   1      45.733  29.326  27.550  1.00  0.00     0.074 A 
ATOM     47  C   UNL A   1      41.199  32.590  30.502  1.00  0.00     0.029 A 
ATOM     48  N   UNL A   1      42.375  31.038  29.430  1.00  0.00    -0.354 N 
ATOM     49  N   UNL A   1      44.747  29.927  28.168  1.00  0.00    -0.248 NA
ATOM     50  C   UNL A   1      46.922  30.167  27.354  1.00  0.00     0.031 C 
ATOM     51  C   UNL A   1      42.441  33.138  30.161  1.00  0.00     0.029 A 
ATOM     52  C   UNL A   1      43.181  32.163  29.514  1.00  0.00     0.049 A 
ATOM     53  H   UNL A   1      42.632  30.189  29.003  1.00  0.00     0.167 HD
ATOM     54  C   UNL A   1      45.191  31.216  28.425  1.00  0.00     0.074 A 
ATOM     55  C   UNL A   1      46.548  31.302  27.926  1.00  0.00     0.031 C 
ATOM     56  C   UNL A   1      44.525  32.243  29.005  1.00  0.00     0.037 A 
BRANCH  43  57
ATOM     57  C   UNL A   1      38.833  30.766  30.852  1.00  0.00     0.064 A 
ATOM     58  C   UNL A   1      38.691  30.711  32.245  1.00  0.00     0.173 A 
ATOM     59  C   UNL A   1      37.778  31.312  30.104  1.00  0.00     0.173 A 
ATOM     60  F   UNL A   1      39.665  30.185  33.003  1.00  0.00    -0.203 F 
ATOM     61  C   UNL A   1      37.530  31.172  32.863  1.00  0.00     0.198 A 
ATOM     62  C   UNL A   1      36.631  31.794  30.725  1.00  0.00     0.198 A 
ATOM     63  F   UNL A   1      37.869  31.393  28.768  1.00  0.00    -0.203 F 
ATOM     64  F   UNL A   1      37.400  31.081  34.193  1.00  0.00    -0.200 F 
ATOM     65  C   UNL A   1      36.506  31.722  32.104  1.00  0.00     0.200 A 
ATOM     66  F   UNL A   1      35.648  32.335  29.991  1.00  0.00    -0.200 F 
ATOM     67  F   UNL A   1      35.396  32.175  32.702  1.00  0.00    -0.200 F 
ENDBRANCH  43  57
BRANCH  44  68
ATOM     68  C   UNL A   1      47.025  27.434  26.328  1.00  0.00     0.064 A 
ATOM     69  C   UNL A   1      48.039  26.800  27.058  1.00  0.00     0.173 A 
ATOM     70  C   UNL A   1      47.204  27.574  24.945  1.00  0.00     0.173 A 
ATOM     71  F   UNL A   1      47.929  26.679  28.390  1.00  0.00    -0.203 F 
ATOM     72  C   UNL A   1      49.184  26.320  26.427  1.00  0.00     0.198 A 
ATOM     73  C   UNL A   1      48.335  27.066  24.311  1.00  0.00     0.198 A 
ATOM     74  F   UNL A   1      46.267  28.183  24.204  1.00  0.00    -0.203 F 
ATOM     75  F   UNL A   1      50.157  25.749  27.151  1.00  0.00    -0.200 F 
ATOM     76  C   UNL A   1      49.327  26.443  25.052  1.00  0.00     0.200 A 
ATOM     77  F   UNL A   1      48.461  27.178  22.981  1.00  0.00    -0.200 F 
ATOM     78  F   UNL A   1      50.422  25.969  24.444  1.00  0.00    -0.200 F 
ENDBRANCH  44  68
BRANCH  56  79
ATOM     79  C   UNL A   1      45.253  33.547  29.135  1.00  0.00     0.064 A 
ATOM     80  C   UNL A   1      45.161  34.533  28.142  1.00  0.00     0.173 A 
ATOM     81  C   UNL A   1      46.030  33.822  30.269  1.00  0.00     0.173 A 
ATOM     82  F   UNL A   1      44.441  34.309  27.033  1.00  0.00    -0.203 F 
ATOM     83  C   UNL A   1      45.838  35.743  28.273  1.00  0.00     0.198 A 
ATOM     84  C   UNL A   1      46.690  35.040  30.405  1.00  0.00     0.198 A 
ATOM     85  F   UNL A   1      46.146  32.911  31.246  1.00  0.00    -0.203 F 
ATOM     86  F   UNL A   1      45.767  36.657  27.295  1.00  0.00    -0.200 F 
ATOM     87  C   UNL A   1      46.597  35.997  29.405  1.00  0.00     0.200 A 
ATOM     88  F   UNL A   1      47.418  35.288  31.503  1.00  0.00    -0.200 F 
ATOM     89  F   UNL A   1      47.249  37.162  29.529  1.00  0.00    -0.200 F 
ENDBRANCH  56  79
ENDBRANCH  30  31
ENDBRANCH  23  25
ENDBRANCH  22  23
ENDBRANCH  21  22
ENDBRANCH   1  21
TORSDOF 14
ENDMDL
MODEL 3
REMARK VINA RESULT:     -12.1      2.772      4.974
REMARK SMILES C[C@@H](C(=O)OCCOC(=O)c1ccc(-c2c3nc(c(-c4c(F)c(F)c(F)c(F)c4F)c4ccc([nH]4)c(-c4c(F)c(F)c(F)c(F)c4F)c4nc(c(-c5c(F)c(F)c(F)c(F)c5F)c5ccc2[nH]5)C=C4)C=C3)cc1)c1ccc(C[C@H]2CCCC2=O)cc1F
REMARK SMILES IDX 6 1 5 2 3 3 4 4 2 5 1 6 74 7 75 8 86 9 76 10 85 11 87 12
REMARK SMILES IDX 77 13 78 14 79 15 80 16 83 17 81 18 82 19 84 20 7 21 8 22
REMARK SMILES IDX 9 23 10 24 11 25 12 26 73 27 13 28 72 29 14 30 15 31 16 32
REMARK SMILES IDX 66 33 17 34 71 35 65 36 67 37 18 38 70 39 64 40 63 41 19 43
REMARK SMILES IDX 51 44 31 45 50 46 32 47 35 48 49 49 68 50 33 51 34 52 48 54
REMARK SMILES IDX 69 55 36 56 20 57 21 58 29 59 22 60 23 61 27 62 30 63 24 64
REMARK SMILES IDX 25 65 28 66 26 67 52 68 53 69 61 70 54 71 55 72 59 73 62 74
REMARK SMILES IDX 56 75 57 76 60 77 58 78 37 79 38 80 46 81 39 82 40 83 44 84
REMARK SMILES IDX 47 85 41 86 42 87 45 88 43 89
REMARK H PARENT 67 42 35 53
REMARK Flexibility Score: inf
ROOT
ATOM      1  C   UNL A   1      31.477  28.261  26.231  1.00  0.00     0.274 C 
ENDROOT
BRANCH   1   2
ATOM      2  O   UNL A   1      31.756  27.123  25.386  1.00  0.00    -0.462 OA
BRANCH   2   3
ATOM      3  C   UNL A   1      31.971  25.934  26.013  1.00  0.00     0.313 C 
ATOM      4  O   UNL A   1      31.225  25.461  26.863  1.00  0.00    -0.252 OA
BRANCH   3   5
ATOM      5  C   UNL A   1      33.288  25.272  25.587  1.00  0.00     0.129 C 
ATOM      6  C   UNL A   1      33.886  25.867  24.308  1.00  0.00     0.025 C 
BRANCH   5   7
ATOM      7  C   UNL A   1      33.158  23.751  25.569  1.00  0.00     0.002 A 
ATOM      8  C   UNL A   1      32.367  23.143  24.579  1.00  0.00     0.008 A 
ATOM      9  C   UNL A   1      33.844  22.908  26.450  1.00  0.00     0.127 A 
ATOM     10  C   UNL A   1      32.277  21.750  24.475  1.00  0.00     0.004 A 
ATOM     11  C   UNL A   1      33.747  21.517  26.363  1.00  0.00     0.043 A 
ATOM     12  F   UNL A   1      34.658  23.413  27.385  1.00  0.00    -0.207 F 
ATOM     13  C   UNL A   1      32.973  20.920  25.363  1.00  0.00    -0.044 A 
BRANCH  13  14
ATOM     14  C   UNL A   1      32.931  19.418  25.204  1.00  0.00     0.047 C 
BRANCH  14  15
ATOM     15  C   UNL A   1      33.831  18.811  24.127  1.00  0.00     0.060 C 
ATOM     16  C   UNL A   1      35.049  18.037  24.639  1.00  0.00     0.012 C 
ATOM     17  C   UNL A   1      33.114  17.768  23.303  1.00  0.00     0.136 C 
ATOM     18  C   UNL A   1      34.637  16.571  24.658  1.00  0.00     0.009 C 
ATOM     19  C   UNL A   1      33.716  16.396  23.458  1.00  0.00     0.076 C 
ATOM     20  O   UNL A   1      32.156  18.010  22.578  1.00  0.00    -0.299 OA
ENDBRANCH  14  15
ENDBRANCH  13  14
ENDBRANCH   5   7
ENDBRANCH   3   5
ENDBRANCH   2   3
ENDBRANCH   1   2
BRANCH   1  21
ATOM     21  C   UNL A   1      31.653  29.552  25.436  1.00  0.00     0.275 C 
BRANCH  21  22
ATOM     22  O   UNL A   1      32.974  30.063  25.674  1.00  0.00    -0.458 OA
BRANCH  22  23
ATOM     23  C   UNL A   1      33.129  30.849  26.765  1.00  0.00     0.338 C 
ATOM     24  O   UNL A   1      32.328  31.650  27.212  1.00  0.00    -0.246 OA
BRANCH  23  25
ATOM     25  C   UNL A   1      34.462  30.608  27.363  1.00  0.00     0.060 A 
ATOM     26  C   UNL A   1      34.968  29.316  27.493  1.00  0.00     0.016 A 
ATOM     27  C   UNL A   1      35.186  31.684  27.880  1.00  0.00     0.016 A 
ATOM     28  C   UNL A   1      36.143  29.097  28.213  1.00  0.00     0.010 A 
ATOM     29  C   UNL A   1      36.407  31.464  28.531  1.00  0.00     0.010 A 
ATOM     30  C   UNL A   1      36.881  30.160  28.753  1.00  0.00    -0.014 A 
BRANCH  30  31
ATOM     31  C   UNL A   1      38.088  29.909  29.604  1.00  0.00     0.031 A 
ATOM     32  C   UNL A   1      39.248  29.104  29.066  1.00  0.00     0.074 A 
ATOM     33  C   UNL A   1      38.199  30.431  30.843  1.00  0.00     0.049 A 
ATOM     34  N   UNL A   1      40.276  28.597  29.703  1.00  0.00    -0.248 NA
ATOM     35  C   UNL A   1      39.254  28.828  27.620  1.00  0.00     0.031 C 
ATOM     36  C   UNL A   1      37.214  31.291  31.497  1.00  0.00     0.029 A 
ATOM     37  N   UNL A   1      39.211  30.330  31.771  1.00  0.00    -0.354 N 
ATOM     38  C   UNL A   1      40.992  27.870  28.760  1.00  0.00     0.074 A 
ATOM     39  C   UNL A   1      40.301  28.025  27.498  1.00  0.00     0.031 C 
ATOM     40  C   UNL A   1      37.695  31.695  32.681  1.00  0.00     0.029 A 
ATOM     41  C   UNL A   1      38.971  31.031  32.928  1.00  0.00     0.049 A 
ATOM     42  H   UNL A   1      40.031  29.806  31.620  1.00  0.00     0.167 HD
ATOM     43  C   UNL A   1      42.114  27.130  28.933  1.00  0.00     0.037 A 
ATOM     44  C   UNL A   1      39.662  31.098  34.082  1.00  0.00     0.037 A 
ATOM     45  C   UNL A   1      42.858  27.041  30.164  1.00  0.00     0.049 A 
ATOM     46  C   UNL A   1      40.905  30.272  34.255  1.00  0.00     0.074 A 
ATOM     47  C   UNL A   1      44.007  26.314  30.429  1.00  0.00     0.029 A 
ATOM     48  N   UNL A   1      42.545  27.729  31.326  1.00  0.00    -0.354 N 
ATOM     49  N   UNL A   1      41.496  29.480  33.396  1.00  0.00    -0.248 NA
ATOM     50  C   UNL A   1      41.552  30.318  35.575  1.00  0.00     0.031 C 
ATOM     51  C   UNL A   1      44.380  26.548  31.758  1.00  0.00     0.029 A 
ATOM     52  C   UNL A   1      43.482  27.447  32.308  1.00  0.00     0.049 A 
ATOM     53  H   UNL A   1      41.773  28.328  31.437  1.00  0.00     0.167 HD
ATOM     54  C   UNL A   1      42.574  28.926  34.071  1.00  0.00     0.074 A 
ATOM     55  C   UNL A   1      42.578  29.499  35.401  1.00  0.00     0.031 C 
ATOM     56  C   UNL A   1      43.471  28.011  33.632  1.00  0.00     0.037 A 
BRANCH  43  57
ATOM     57  C   UNL A   1      42.599  26.314  27.771  1.00  0.00     0.064 A 
ATOM     58  C   UNL A   1      42.071  25.050  27.476  1.00  0.00     0.173 A 
ATOM     59  C   UNL A   1      43.569  26.841  26.903  1.00  0.00     0.173 A 
ATOM     60  F   UNL A   1      41.153  24.498  28.284  1.00  0.00    -0.203 F 
ATOM     61  C   UNL A   1      42.508  24.336  26.363  1.00  0.00     0.198 A 
ATOM     62  C   UNL A   1      43.985  26.136  25.777  1.00  0.00     0.198 A 
ATOM     63  F   UNL A   1      44.099  28.050  27.137  1.00  0.00    -0.203 F 
ATOM     64  F   UNL A   1      42.014  23.114  26.117  1.00  0.00    -0.200 F 
ATOM     65  C   UNL A   1      43.457  24.882  25.510  1.00  0.00     0.200 A 
ATOM     66  F   UNL A   1      44.893  26.671  24.949  1.00  0.00    -0.200 F 
ATOM     67  F   UNL A   1      43.866  24.197  24.433  1.00  0.00    -0.200 F 
ENDBRANCH  43  57
BRANCH  44  68
ATOM     68  C   UNL A   1      39.153  31.942  35.196  1.00  0.00     0.064 A 
ATOM     69  C   UNL A   1      38.405  31.382  36.240  1.00  0.00     0.173 A 
ATOM     70  C   UNL A   1      39.415  33.319  35.243  1.00  0.00     0.173 A 
ATOM     71  F   UNL A   1      38.097  30.077  36.216  1.00  0.00    -0.203 F 
ATOM     72  C   UNL A   1      37.943  32.169  37.292  1.00  0.00     0.198 A 
ATOM     73  C   UNL A   1      38.978  34.098  36.311  1.00  0.00     0.198 A 
ATOM     74  F   UNL A   1      40.118  33.904  34.262  1.00  0.00    -0.203 F 
ATOM     75  F   UNL A   1      37.199  31.618  38.261  1.00  0.00    -0.200 F 
ATOM     76  C   UNL A   1      38.239  33.524  37.333  1.00  0.00     0.200 A 
ATOM     77  F   UNL A   1      39.278  35.404  36.351  1.00  0.00    -0.200 F 
ATOM     78  F   UNL A   1      37.806  34.276  38.353  1.00  0.00    -0.200 F 
ENDBRANCH  44  68
BRANCH  56  79
ATOM     79  C   UNL A   1      44.531  27.572  34.596  1.00  0.00     0.064 A 
ATOM     80  C   UNL A   1      44.296  26.540  35.516  1.00  0.00     0.173 A 
ATOM     81  C   UNL A   1      45.799  28.170  34.585  1.00  0.00     0.173 A 
ATOM     82  F   UNL A   1      43.093  25.949  35.572  1.00  0.00    -0.203 F 
ATOM     83  C   UNL A   1      45.288  26.136  36.406  1.00  0.00     0.198 A 
ATOM     84  C   UNL A   1      46.795  27.751  35.463  1.00  0.00     0.198 A 
ATOM     85  F   UNL A   1      46.073  29.159  33.721  1.00  0.00    -0.203 F 
ATOM     86  F   UNL A   1      45.029  25.175  37.302  1.00  0.00    -0.200 F 
ATOM     87  C   UNL A   1      46.537  26.738  36.376  1.00  0.00     0.200 A 
ATOM     88  F   UNL A   1      48.004  28.329  35.428  1.00  0.00    -0.200 F 
ATOM     89  F   UNL A   1      47.491  26.349  37.233  1.00  0.00    -0.200 F 
ENDBRANCH  56  79
ENDBRANCH  30  31
ENDBRANCH  23  25
ENDBRANCH  22  23
ENDBRANCH  21  22
ENDBRANCH   1  21
TORSDOF 14
ENDMDL
