MODEL 1
REMARK VINA RESULT:     -10.3      0.000      0.000
REMARK SMILES CCN(CCC(=O)OCCOC(=O)c1ccc(-c2c3nc(c(-c4c(F)c(F)c(F)c(F)c4F)c4ccc([nH]4)c(-c4c(F)c(F)c(F)c(F)c4F)c4nc(c(-c5c(F)c(F)c(F)c(F)c5F)c5ccc2[nH]5)C=C4)C=C3)cc1)S(=O)(=O)c1cn(CC)cn1
REMARK SMILES IDX 8 1 6 2 7 3 5 4 4 5 3 6 2 7 1 8 77 9 78 10 79 11 80 12 81 13
REMARK SMILES IDX 86 14 82 15 85 16 83 17 84 18 9 19 10 20 11 21 12 22 13 23
REMARK SMILES IDX 14 24 15 25 76 26 16 27 75 28 17 29 18 30 19 31 69 32 20 33
REMARK SMILES IDX 74 34 68 35 70 36 21 37 73 38 67 39 66 40 22 42 54 43 34 44
REMARK SMILES IDX 53 45 35 46 38 47 52 48 71 49 36 50 37 51 51 53 72 54 39 55
REMARK SMILES IDX 23 56 24 57 32 58 25 59 26 60 30 61 33 62 27 63 28 64 31 65
REMARK SMILES IDX 29 66 55 67 56 68 64 69 57 70 58 71 62 72 65 73 59 74 60 75
REMARK SMILES IDX 63 76 61 77 40 78 41 79 49 80 42 81 43 82 47 83 50 84 44 85
REMARK SMILES IDX 45 86 48 87 46 88
REMARK H PARENT 70 41 38 52
REMARK Flexibility Score: inf
ROOT
ATOM      1  O   UNL A   1      31.119  28.062  25.052  1.00  0.00    -0.462 OA
ENDROOT
BRANCH   1   2
ATOM      2  C   UNL A   1      30.345  27.479  24.116  1.00  0.00     0.307 C 
ATOM      3  O   UNL A   1      29.710  28.079  23.254  1.00  0.00    -0.252 OA
BRANCH   2   4
ATOM      4  C   UNL A   1      30.281  25.979  24.253  1.00  0.00     0.139 C 
BRANCH   4   5
ATOM      5  C   UNL A   1      30.938  25.154  23.145  1.00  0.00     0.114 C 
BRANCH   5   6
ATOM      6  N   UNL A   1      32.171  24.385  23.482  1.00  0.00    -0.196 NA
BRANCH   6   7
ATOM      7  C   UNL A   1      32.020  23.419  24.604  1.00  0.00     0.099 C 
ATOM      8  C   UNL A   1      32.206  21.962  24.230  1.00  0.00     0.022 C 
ENDBRANCH   6   7
BRANCH   6   9
ATOM      9  S   UNL A   1      33.695  25.148  23.310  1.00  0.00     0.262 S 
ATOM     10  O   UNL A   1      33.898  25.425  21.902  1.00  0.00    -0.205 OA
ATOM     11  O   UNL A   1      33.743  26.225  24.282  1.00  0.00    -0.205 OA
BRANCH   9  12
ATOM     12  C   UNL A   1      35.044  24.132  23.786  1.00  0.00     0.188 A 
ATOM     13  C   UNL A   1      35.678  24.110  25.019  1.00  0.00     0.129 A 
ATOM     14  N   UNL A   1      35.700  23.282  22.910  1.00  0.00    -0.224 NA
ATOM     15  N   UNL A   1      36.716  23.230  24.874  1.00  0.00    -0.336 N 
ATOM     16  C   UNL A   1      36.662  22.725  23.608  1.00  0.00     0.201 A 
BRANCH  15  17
ATOM     17  C   UNL A   1      37.775  22.963  25.826  1.00  0.00     0.120 C 
ATOM     18  C   UNL A   1      38.491  21.648  25.574  1.00  0.00     0.027 C 
ENDBRANCH  15  17
ENDBRANCH   9  12
ENDBRANCH   6   9
ENDBRANCH   5   6
ENDBRANCH   4   5
ENDBRANCH   2   4
ENDBRANCH   1   2
BRANCH   1  19
ATOM     19  C   UNL A   1      31.388  29.470  24.907  1.00  0.00     0.274 C 
BRANCH  19  20
ATOM     20  C   UNL A   1      32.749  29.859  25.495  1.00  0.00     0.275 C 
BRANCH  20  21
ATOM     21  O   UNL A   1      32.664  30.239  26.885  1.00  0.00    -0.458 OA
BRANCH  21  22
ATOM     22  C   UNL A   1      33.384  31.329  27.210  1.00  0.00     0.338 C 
ATOM     23  O   UNL A   1      33.033  32.499  27.211  1.00  0.00    -0.246 OA
BRANCH  22  24
ATOM     24  C   UNL A   1      34.704  30.999  27.728  1.00  0.00     0.060 A 
ATOM     25  C   UNL A   1      34.868  29.703  28.227  1.00  0.00     0.016 A 
ATOM     26  C   UNL A   1      35.675  31.981  27.915  1.00  0.00     0.016 A 
ATOM     27  C   UNL A   1      36.008  29.384  28.941  1.00  0.00     0.010 A 
ATOM     28  C   UNL A   1      36.834  31.652  28.617  1.00  0.00     0.010 A 
ATOM     29  C   UNL A   1      36.995  30.357  29.139  1.00  0.00    -0.014 A 
BRANCH  29  30
ATOM     30  C   UNL A   1      38.210  29.977  29.880  1.00  0.00     0.031 A 
ATOM     31  C   UNL A   1      38.443  30.484  31.267  1.00  0.00     0.074 A 
ATOM     32  C   UNL A   1      39.058  29.115  29.295  1.00  0.00     0.049 A 
ATOM     33  N   UNL A   1      39.449  30.255  32.070  1.00  0.00    -0.248 NA
ATOM     34  C   UNL A   1      37.409  31.366  31.831  1.00  0.00     0.031 C 
ATOM     35  C   UNL A   1      38.876  28.537  27.961  1.00  0.00     0.029 A 
ATOM     36  N   UNL A   1      40.223  28.559  29.747  1.00  0.00    -0.354 N 
ATOM     37  C   UNL A   1      39.185  30.980  33.222  1.00  0.00     0.074 A 
ATOM     38  C   UNL A   1      37.924  31.663  33.016  1.00  0.00     0.031 C 
ATOM     39  C   UNL A   1      39.882  27.686  27.713  1.00  0.00     0.029 A 
ATOM     40  C   UNL A   1      40.798  27.698  28.847  1.00  0.00     0.049 A 
ATOM     41  H   UNL A   1      40.609  28.757  30.630  1.00  0.00     0.167 HD
ATOM     42  C   UNL A   1      39.939  31.065  34.344  1.00  0.00     0.037 A 
ATOM     43  C   UNL A   1      41.949  27.008  28.931  1.00  0.00     0.037 A 
ATOM     44  C   UNL A   1      41.184  30.365  34.527  1.00  0.00     0.049 A 
ATOM     45  C   UNL A   1      42.772  27.140  30.179  1.00  0.00     0.074 A 
ATOM     46  C   UNL A   1      42.032  30.376  35.621  1.00  0.00     0.029 A 
ATOM     47  N   UNL A   1      41.759  29.523  33.585  1.00  0.00    -0.354 N 
ATOM     48  N   UNL A   1      42.523  27.836  31.262  1.00  0.00    -0.248 NA
ATOM     49  C   UNL A   1      44.035  26.395  30.215  1.00  0.00     0.031 C 
ATOM     50  C   UNL A   1      43.137  29.568  35.324  1.00  0.00     0.029 A 
ATOM     51  C   UNL A   1      42.958  29.020  34.064  1.00  0.00     0.049 A 
ATOM     52  H   UNL A   1      41.372  29.313  32.704  1.00  0.00     0.167 HD
ATOM     53  C   UNL A   1      43.589  27.604  32.117  1.00  0.00     0.074 A 
ATOM     54  C   UNL A   1      44.478  26.684  31.431  1.00  0.00     0.031 C 
ATOM     55  C   UNL A   1      43.817  28.106  33.355  1.00  0.00     0.037 A 
BRANCH  42  56
ATOM     56  C   UNL A   1      39.458  31.976  35.434  1.00  0.00     0.064 A 
ATOM     57  C   UNL A   1      38.560  31.543  36.420  1.00  0.00     0.173 A 
ATOM     58  C   UNL A   1      39.918  33.301  35.501  1.00  0.00     0.173 A 
ATOM     59  F   UNL A   1      38.076  30.292  36.392  1.00  0.00    -0.203 F 
ATOM     60  C   UNL A   1      38.124  32.410  37.421  1.00  0.00     0.198 A 
ATOM     61  C   UNL A   1      39.497  34.157  36.515  1.00  0.00     0.198 A 
ATOM     62  F   UNL A   1      40.776  33.765  34.580  1.00  0.00    -0.203 F 
ATOM     63  F   UNL A   1      37.231  31.988  38.328  1.00  0.00    -0.200 F 
ATOM     64  C   UNL A   1      38.595  33.712  37.470  1.00  0.00     0.200 A 
ATOM     65  F   UNL A   1      39.958  35.414  36.563  1.00  0.00    -0.200 F 
ATOM     66  F   UNL A   1      38.173  34.545  38.432  1.00  0.00    -0.200 F 
ENDBRANCH  42  56
BRANCH  43  67
ATOM     67  C   UNL A   1      42.370  26.141  27.803  1.00  0.00     0.064 A 
ATOM     68  C   UNL A   1      41.848  24.849  27.655  1.00  0.00     0.173 A 
ATOM     69  C   UNL A   1      43.275  26.597  26.833  1.00  0.00     0.173 A 
ATOM     70  F   UNL A   1      40.992  24.364  28.565  1.00  0.00    -0.203 F 
ATOM     71  C   UNL A   1      42.225  24.042  26.584  1.00  0.00     0.198 A 
ATOM     72  C   UNL A   1      43.630  25.800  25.749  1.00  0.00     0.198 A 
ATOM     73  F   UNL A   1      43.796  27.830  26.928  1.00  0.00    -0.203 F 
ATOM     74  F   UNL A   1      41.737  22.798  26.482  1.00  0.00    -0.200 F 
ATOM     75  C   UNL A   1      43.109  24.521  25.628  1.00  0.00     0.200 A 
ATOM     76  F   UNL A   1      44.472  26.272  24.819  1.00  0.00    -0.200 F 
ATOM     77  F   UNL A   1      43.464  23.747  24.592  1.00  0.00    -0.200 F 
ENDBRANCH  43  67
BRANCH  55  78
ATOM     78  C   UNL A   1      45.063  27.644  34.046  1.00  0.00     0.064 A 
ATOM     79  C   UNL A   1      46.273  28.341  33.915  1.00  0.00     0.173 A 
ATOM     80  C   UNL A   1      45.043  26.499  34.854  1.00  0.00     0.173 A 
ATOM     81  F   UNL A   1      46.343  29.431  33.136  1.00  0.00    -0.203 F 
ATOM     82  C   UNL A   1      47.427  27.891  34.550  1.00  0.00     0.198 A 
ATOM     83  C   UNL A   1      46.193  26.066  35.508  1.00  0.00     0.198 A 
ATOM     84  F   UNL A   1      43.907  25.802  35.012  1.00  0.00    -0.203 F 
ATOM     85  F   UNL A   1      48.584  28.542  34.372  1.00  0.00    -0.200 F 
ATOM     86  C   UNL A   1      47.384  26.757  35.348  1.00  0.00     0.200 A 
ATOM     87  F   UNL A   1      46.149  24.975  36.284  1.00  0.00    -0.200 F 
ATOM     88  F   UNL A   1      48.497  26.323  35.957  1.00  0.00    -0.200 F 
ENDBRANCH  55  78
ENDBRANCH  29  30
ENDBRANCH  22  24
ENDBRANCH  21  22
ENDBRANCH  20  21
ENDBRANCH  19  20
ENDBRANCH   1  19
TORSDOF 17
ENDMDL
MODEL 2
REMARK VINA RESULT:     -10.2      4.400      7.034
REMARK SMILES CCN(CCC(=O)OCCOC(=O)c1ccc(-c2c3nc(c(-c4c(F)c(F)c(F)c(F)c4F)c4ccc([nH]4)c(-c4c(F)c(F)c(F)c(F)c4F)c4nc(c(-c5c(F)c(F)c(F)c(F)c5F)c5ccc2[nH]5)C=C4)C=C3)cc1)S(=O)(=O)c1cn(CC)cn1
REMARK SMILES IDX 8 1 6 2 7 3 5 4 4 5 3 6 2 7 1 8 77 9 78 10 79 11 80 12 81 13
REMARK SMILES IDX 86 14 82 15 85 16 83 17 84 18 9 19 10 20 11 21 12 22 13 23
REMARK SMILES IDX 14 24 15 25 76 26 16 27 75 28 17 29 18 30 19 31 69 32 20 33
REMARK SMILES IDX 74 34 68 35 70 36 21 37 73 38 67 39 66 40 22 42 54 43 34 44
REMARK SMILES IDX 53 45 35 46 38 47 52 48 71 49 36 50 37 51 51 53 72 54 39 55
REMARK SMILES IDX 23 56 24 57 32 58 25 59 26 60 30 61 33 62 27 63 28 64 31 65
REMARK SMILES IDX 29 66 55 67 56 68 64 69 57 70 58 71 62 72 65 73 59 74 60 75
REMARK SMILES IDX 63 76 61 77 40 78 41 79 49 80 42 81 43 82 47 83 50 84 44 85
REMARK SMILES IDX 45 86 48 87 46 88
REMARK H PARENT 70 41 38 52
REMARK Flexibility Score: inf
ROOT
ATOM      1  O   UNL A   1      34.734  20.382  25.293  1.00  0.00    -0.462 OA
ENDROOT
BRANCH   1   2
ATOM      2  C   UNL A   1      33.723  19.787  24.629  1.00  0.00     0.307 C 
ATOM      3  O   UNL A   1      33.640  18.584  24.405  1.00  0.00    -0.252 OA
BRANCH   2   4
ATOM      4  C   UNL A   1      32.694  20.765  24.122  1.00  0.00     0.139 C 
BRANCH   4   5
ATOM      5  C   UNL A   1      31.794  21.426  25.167  1.00  0.00     0.114 C 
BRANCH   5   6
ATOM      6  N   UNL A   1      31.710  22.915  25.178  1.00  0.00    -0.196 NA
BRANCH   6   7
ATOM      7  C   UNL A   1      31.826  23.558  23.842  1.00  0.00     0.099 C 
ATOM      8  C   UNL A   1      30.540  24.142  23.293  1.00  0.00     0.022 C 
ENDBRANCH   6   7
BRANCH   6   9
ATOM      9  S   UNL A   1      32.354  23.770  26.515  1.00  0.00     0.262 S 
ATOM     10  O   UNL A   1      31.547  23.456  27.676  1.00  0.00    -0.205 OA
ATOM     11  O   UNL A   1      33.784  23.522  26.529  1.00  0.00    -0.205 OA
BRANCH   9  12
ATOM     12  C   UNL A   1      32.263  25.514  26.340  1.00  0.00     0.188 A 
ATOM     13  C   UNL A   1      33.304  26.378  26.037  1.00  0.00     0.129 A 
ATOM     14  N   UNL A   1      31.111  26.242  26.592  1.00  0.00    -0.224 NA
ATOM     15  N   UNL A   1      32.760  27.632  26.102  1.00  0.00    -0.336 N 
ATOM     16  C   UNL A   1      31.433  27.499  26.392  1.00  0.00     0.201 A 
BRANCH  15  17
ATOM     17  C   UNL A   1      33.464  28.896  26.016  1.00  0.00     0.120 C 
ATOM     18  C   UNL A   1      34.640  28.994  26.971  1.00  0.00     0.027 C 
ENDBRANCH  15  17
ENDBRANCH   9  12
ENDBRANCH   6   9
ENDBRANCH   5   6
ENDBRANCH   4   5
ENDBRANCH   2   4
ENDBRANCH   1   2
BRANCH   1  19
ATOM     19  C   UNL A   1      36.073  19.948  24.986  1.00  0.00     0.274 C 
BRANCH  19  20
ATOM     20  C   UNL A   1      37.000  21.127  24.668  1.00  0.00     0.275 C 
BRANCH  20  21
ATOM     21  O   UNL A   1      37.442  21.820  25.855  1.00  0.00    -0.458 OA
BRANCH  21  22
ATOM     22  C   UNL A   1      38.748  21.662  26.140  1.00  0.00     0.338 C 
ATOM     23  O   UNL A   1      39.465  20.699  25.913  1.00  0.00    -0.246 OA
BRANCH  22  24
ATOM     24  C   UNL A   1      39.356  22.867  26.684  1.00  0.00     0.060 A 
ATOM     25  C   UNL A   1      38.954  24.078  26.113  1.00  0.00     0.016 A 
ATOM     26  C   UNL A   1      40.433  22.800  27.567  1.00  0.00     0.016 A 
ATOM     27  C   UNL A   1      39.646  25.238  26.407  1.00  0.00     0.010 A 
ATOM     28  C   UNL A   1      41.117  23.975  27.881  1.00  0.00     0.010 A 
ATOM     29  C   UNL A   1      40.730  25.191  27.292  1.00  0.00    -0.014 A 
BRANCH  29  30
ATOM     30  C   UNL A   1      41.428  26.449  27.606  1.00  0.00     0.031 A 
ATOM     31  C   UNL A   1      40.752  27.509  28.415  1.00  0.00     0.074 A 
ATOM     32  C   UNL A   1      42.701  26.579  27.199  1.00  0.00     0.049 A 
ATOM     33  N   UNL A   1      41.209  28.675  28.791  1.00  0.00    -0.248 NA
ATOM     34  C   UNL A   1      39.381  27.224  28.866  1.00  0.00     0.031 C 
ATOM     35  C   UNL A   1      43.447  25.568  26.445  1.00  0.00     0.029 A 
ATOM     36  N   UNL A   1      43.598  27.596  27.377  1.00  0.00    -0.354 N 
ATOM     37  C   UNL A   1      40.179  29.274  29.500  1.00  0.00     0.074 A 
ATOM     38  C   UNL A   1      39.067  28.345  29.500  1.00  0.00     0.031 C 
ATOM     39  C   UNL A   1      44.698  26.006  26.247  1.00  0.00     0.029 A 
ATOM     40  C   UNL A   1      44.824  27.342  26.816  1.00  0.00     0.049 A 
ATOM     41  H   UNL A   1      43.385  28.427  27.859  1.00  0.00     0.167 HD
ATOM     42  C   UNL A   1      40.171  30.494  30.088  1.00  0.00     0.037 A 
ATOM     43  C   UNL A   1      45.923  28.116  26.762  1.00  0.00     0.037 A 
ATOM     44  C   UNL A   1      41.296  31.393  30.083  1.00  0.00     0.049 A 
ATOM     45  C   UNL A   1      45.875  29.470  27.405  1.00  0.00     0.074 A 
ATOM     46  C   UNL A   1      41.401  32.653  30.645  1.00  0.00     0.029 A 
ATOM     47  N   UNL A   1      42.517  31.122  29.480  1.00  0.00    -0.354 N 
ATOM     48  N   UNL A   1      44.894  30.037  28.065  1.00  0.00    -0.248 NA
ATOM     49  C   UNL A   1      47.084  30.294  27.293  1.00  0.00     0.031 C 
ATOM     50  C   UNL A   1      42.675  33.156  30.352  1.00  0.00     0.029 A 
ATOM     51  C   UNL A   1      43.377  32.195  29.643  1.00  0.00     0.049 A 
ATOM     52  H   UNL A   1      42.740  30.288  29.005  1.00  0.00     0.167 HD
ATOM     53  C   UNL A   1      45.367  31.278  28.462  1.00  0.00     0.074 A 
ATOM     54  C   UNL A   1      46.734  31.372  27.983  1.00  0.00     0.031 C 
ATOM     55  C   UNL A   1      44.732  32.254  29.155  1.00  0.00     0.037 A 
BRANCH  42  56
ATOM     56  C   UNL A   1      38.897  30.938  30.744  1.00  0.00     0.064 A 
ATOM     57  C   UNL A   1      38.681  30.787  32.122  1.00  0.00     0.173 A 
ATOM     58  C   UNL A   1      37.884  31.541  29.983  1.00  0.00     0.173 A 
ATOM     59  F   UNL A   1      39.610  30.201  32.892  1.00  0.00    -0.203 F 
ATOM     60  C   UNL A   1      37.487  31.203  32.709  1.00  0.00     0.198 A 
ATOM     61  C   UNL A   1      36.702  31.976  30.577  1.00  0.00     0.198 A 
ATOM     62  F   UNL A   1      38.041  31.707  28.661  1.00  0.00    -0.203 F 
ATOM     63  F   UNL A   1      37.283  31.008  34.019  1.00  0.00    -0.200 F 
ATOM     64  C   UNL A   1      36.502  31.801  31.938  1.00  0.00     0.200 A 
ATOM     65  F   UNL A   1      35.754  32.557  29.830  1.00  0.00    -0.200 F 
ATOM     66  F   UNL A   1      35.354  32.199  32.504  1.00  0.00    -0.200 F 
ENDBRANCH  42  56
BRANCH  43  67
ATOM     67  C   UNL A   1      47.140  27.616  26.077  1.00  0.00     0.064 A 
ATOM     68  C   UNL A   1      47.282  27.729  24.688  1.00  0.00     0.173 A 
ATOM     69  C   UNL A   1      48.200  27.048  26.799  1.00  0.00     0.173 A 
ATOM     70  F   UNL A   1      46.290  28.251  23.954  1.00  0.00    -0.203 F 
ATOM     71  C   UNL A   1      48.435  27.282  24.046  1.00  0.00     0.198 A 
ATOM     72  C   UNL A   1      49.362  26.626  26.160  1.00  0.00     0.198 A 
ATOM     73  F   UNL A   1      48.114  26.925  28.133  1.00  0.00    -0.203 F 
ATOM     74  F   UNL A   1      48.532  27.371  22.712  1.00  0.00    -0.200 F 
ATOM     75  C   UNL A   1      49.476  26.738  24.783  1.00  0.00     0.200 A 
ATOM     76  F   UNL A   1      50.372  26.116  26.878  1.00  0.00    -0.200 F 
ATOM     77  F   UNL A   1      50.589  26.317  24.166  1.00  0.00    -0.200 F 
ENDBRANCH  43  67
BRANCH  55  78
ATOM     78  C   UNL A   1      45.527  33.488  29.453  1.00  0.00     0.064 A 
ATOM     79  C   UNL A   1      46.311  33.590  30.612  1.00  0.00     0.173 A 
ATOM     80  C   UNL A   1      45.513  34.573  28.566  1.00  0.00     0.173 A 
ATOM     81  F   UNL A   1      46.340  32.584  31.499  1.00  0.00    -0.203 F 
ATOM     82  C   UNL A   1      47.032  34.749  30.884  1.00  0.00     0.198 A 
ATOM     83  C   UNL A   1      46.255  35.720  28.829  1.00  0.00     0.198 A 
ATOM     84  F   UNL A   1      44.780  34.518  27.443  1.00  0.00    -0.203 F 
ATOM     85  F   UNL A   1      47.735  34.847  32.021  1.00  0.00    -0.200 F 
ATOM     86  C   UNL A   1      47.006  35.810  29.991  1.00  0.00     0.200 A 
ATOM     87  F   UNL A   1      46.236  36.741  27.962  1.00  0.00    -0.200 F 
ATOM     88  F   UNL A   1      47.700  36.926  30.255  1.00  0.00    -0.200 F 
ENDBRANCH  55  78
ENDBRANCH  29  30
ENDBRANCH  22  24
ENDBRANCH  21  22
ENDBRANCH  20  21
ENDBRANCH  19  20
ENDBRANCH   1  19
TORSDOF 17
ENDMDL
MODEL 3
REMARK VINA RESULT:     -10.2      0.446      7.563
REMARK SMILES CCN(CCC(=O)OCCOC(=O)c1ccc(-c2c3nc(c(-c4c(F)c(F)c(F)c(F)c4F)c4ccc([nH]4)c(-c4c(F)c(F)c(F)c(F)c4F)c4nc(c(-c5c(F)c(F)c(F)c(F)c5F)c5ccc2[nH]5)C=C4)C=C3)cc1)S(=O)(=O)c1cn(CC)cn1
REMARK SMILES IDX 8 1 6 2 7 3 5 4 4 5 3 6 2 7 1 8 77 9 78 10 79 11 80 12 81 13
REMARK SMILES IDX 86 14 82 15 85 16 83 17 84 18 9 19 10 20 11 21 12 22 13 23
REMARK SMILES IDX 14 24 15 25 76 26 16 27 75 28 17 29 18 30 19 31 69 32 20 33
REMARK SMILES IDX 74 34 68 35 70 36 21 37 73 38 67 39 66 40 22 42 54 43 34 44
REMARK SMILES IDX 53 45 35 46 38 47 52 48 71 49 36 50 37 51 51 53 72 54 39 55
REMARK SMILES IDX 23 56 24 57 32 58 25 59 26 60 30 61 33 62 27 63 28 64 31 65
REMARK SMILES IDX 29 66 55 67 56 68 64 69 57 70 58 71 62 72 65 73 59 74 60 75
REMARK SMILES IDX 63 76 61 77 40 78 41 79 49 80 42 81 43 82 47 83 50 84 44 85
REMARK SMILES IDX 45 86 48 87 46 88
REMARK H PARENT 70 41 38 52
REMARK Flexibility Score: inf
ROOT
ATOM      1  O   UNL A   1      31.134  28.100  24.757  1.00  0.00    -0.462 OA
ENDROOT
BRANCH   1   2
ATOM      2  C   UNL A   1      30.554  27.548  23.673  1.00  0.00     0.307 C 
ATOM      3  O   UNL A   1      30.416  28.104  22.588  1.00  0.00    -0.252 OA
BRANCH   2   4
ATOM      4  C   UNL A   1      30.024  26.160  23.930  1.00  0.00     0.139 C 
BRANCH   4   5
ATOM      5  C   UNL A   1      30.816  24.996  23.333  1.00  0.00     0.114 C 
BRANCH   5   6
ATOM      6  N   UNL A   1      32.075  24.581  24.019  1.00  0.00    -0.196 NA
BRANCH   6   7
ATOM      7  C   UNL A   1      31.951  24.383  25.488  1.00  0.00     0.099 C 
ATOM      8  C   UNL A   1      32.020  22.942  25.953  1.00  0.00     0.022 C 
ENDBRANCH   6   7
BRANCH   6   9
ATOM      9  S   UNL A   1      33.570  25.177  23.434  1.00  0.00     0.262 S 
ATOM     10  O   UNL A   1      33.520  25.164  21.986  1.00  0.00    -0.205 OA
ATOM     11  O   UNL A   1      33.843  26.412  24.146  1.00  0.00    -0.205 OA
BRANCH   9  12
ATOM     12  C   UNL A   1      34.941  24.167  23.863  1.00  0.00     0.188 A 
ATOM     13  C   UNL A   1      35.627  24.160  25.067  1.00  0.00     0.129 A 
ATOM     14  N   UNL A   1      35.560  23.309  22.969  1.00  0.00    -0.224 NA
ATOM     15  N   UNL A   1      36.660  23.280  24.887  1.00  0.00    -0.336 N 
ATOM     16  C   UNL A   1      36.552  22.761  23.630  1.00  0.00     0.201 A 
BRANCH  15  17
ATOM     17  C   UNL A   1      37.760  23.026  25.795  1.00  0.00     0.120 C 
ATOM     18  C   UNL A   1      38.415  21.673  25.580  1.00  0.00     0.027 C 
ENDBRANCH  15  17
ENDBRANCH   9  12
ENDBRANCH   6   9
ENDBRANCH   5   6
ENDBRANCH   4   5
ENDBRANCH   2   4
ENDBRANCH   1   2
BRANCH   1  19
ATOM     19  C   UNL A   1      31.299  29.532  24.763  1.00  0.00     0.274 C 
BRANCH  19  20
ATOM     20  C   UNL A   1      32.642  29.953  25.370  1.00  0.00     0.275 C 
BRANCH  20  21
ATOM     21  O   UNL A   1      32.535  30.291  26.770  1.00  0.00    -0.458 OA
BRANCH  21  22
ATOM     22  C   UNL A   1      33.239  31.377  27.137  1.00  0.00     0.338 C 
ATOM     23  O   UNL A   1      32.883  32.546  27.149  1.00  0.00    -0.246 OA
BRANCH  22  24
ATOM     24  C   UNL A   1      34.544  31.044  27.688  1.00  0.00     0.060 A 
ATOM     25  C   UNL A   1      34.707  29.733  28.147  1.00  0.00     0.016 A 
ATOM     26  C   UNL A   1      35.497  32.030  27.944  1.00  0.00     0.016 A 
ATOM     27  C   UNL A   1      35.825  29.401  28.889  1.00  0.00     0.010 A 
ATOM     28  C   UNL A   1      36.635  31.688  28.674  1.00  0.00     0.010 A 
ATOM     29  C   UNL A   1      36.793  30.377  29.155  1.00  0.00    -0.014 A 
BRANCH  29  30
ATOM     30  C   UNL A   1      37.986  29.984  29.924  1.00  0.00     0.031 A 
ATOM     31  C   UNL A   1      39.016  29.085  29.320  1.00  0.00     0.074 A 
ATOM     32  C   UNL A   1      38.144  30.509  31.151  1.00  0.00     0.049 A 
ATOM     33  N   UNL A   1      40.127  28.636  29.843  1.00  0.00    -0.248 NA
ATOM     34  C   UNL A   1      38.770  28.629  27.942  1.00  0.00     0.031 C 
ATOM     35  C   UNL A   1      37.205  31.433  31.793  1.00  0.00     0.029 A 
ATOM     36  N   UNL A   1      39.151  30.364  32.064  1.00  0.00    -0.354 N 
ATOM     37  C   UNL A   1      40.701  27.828  28.873  1.00  0.00     0.074 A 
ATOM     38  C   UNL A   1      39.814  27.842  27.728  1.00  0.00     0.031 C 
ATOM     39  C   UNL A   1      37.695  31.793  32.988  1.00  0.00     0.029 A 
ATOM     40  C   UNL A   1      38.952  31.088  33.212  1.00  0.00     0.049 A 
ATOM     41  H   UNL A   1      39.941  29.796  31.913  1.00  0.00     0.167 HD
ATOM     42  C   UNL A   1      41.863  27.135  28.947  1.00  0.00     0.037 A 
ATOM     43  C   UNL A   1      39.702  31.161  34.325  1.00  0.00     0.037 A 
ATOM     44  C   UNL A   1      42.732  27.148  30.095  1.00  0.00     0.049 A 
ATOM     45  C   UNL A   1      40.973  30.365  34.383  1.00  0.00     0.074 A 
ATOM     46  C   UNL A   1      43.933  26.486  30.281  1.00  0.00     0.029 A 
ATOM     47  N   UNL A   1      42.489  27.869  31.257  1.00  0.00    -0.354 N 
ATOM     48  N   UNL A   1      41.506  29.593  33.468  1.00  0.00    -0.248 NA
ATOM     49  C   UNL A   1      41.743  30.448  35.629  1.00  0.00     0.031 C 
ATOM     50  C   UNL A   1      44.397  26.778  31.569  1.00  0.00     0.029 A 
ATOM     51  C   UNL A   1      43.509  27.655  32.171  1.00  0.00     0.049 A 
ATOM     52  H   UNL A   1      41.707  28.447  31.410  1.00  0.00     0.167 HD
ATOM     53  C   UNL A   1      42.682  29.107  34.017  1.00  0.00     0.074 A 
ATOM     54  C   UNL A   1      42.793  29.690  35.341  1.00  0.00     0.031 C 
ATOM     55  C   UNL A   1      43.588  28.253  33.479  1.00  0.00     0.037 A 
BRANCH  42  56
ATOM     56  C   UNL A   1      42.232  26.276  27.774  1.00  0.00     0.064 A 
ATOM     57  C   UNL A   1      41.671  25.006  27.579  1.00  0.00     0.173 A 
ATOM     58  C   UNL A   1      43.151  26.741  26.821  1.00  0.00     0.173 A 
ATOM     59  F   UNL A   1      40.802  24.506  28.471  1.00  0.00    -0.203 F 
ATOM     60  C   UNL A   1      42.034  24.223  26.484  1.00  0.00     0.198 A 
ATOM     61  C   UNL A   1      43.494  25.966  25.716  1.00  0.00     0.198 A 
ATOM     62  F   UNL A   1      43.718  27.948  26.962  1.00  0.00    -0.203 F 
ATOM     63  F   UNL A   1      41.519  22.994  26.341  1.00  0.00    -0.200 F 
ATOM     64  C   UNL A   1      42.940  24.705  25.552  1.00  0.00     0.200 A 
ATOM     65  F   UNL A   1      44.366  26.436  24.814  1.00  0.00    -0.200 F 
ATOM     66  F   UNL A   1      43.288  23.951  24.500  1.00  0.00    -0.200 F 
ENDBRANCH  42  56
BRANCH  43  67
ATOM     67  C   UNL A   1      39.262  32.017  35.454  1.00  0.00     0.064 A 
ATOM     68  C   UNL A   1      39.647  33.362  35.530  1.00  0.00     0.173 A 
ATOM     69  C   UNL A   1      38.421  31.520  36.460  1.00  0.00     0.173 A 
ATOM     70  F   UNL A   1      40.462  33.878  34.599  1.00  0.00    -0.203 F 
ATOM     71  C   UNL A   1      39.216  34.174  36.576  1.00  0.00     0.198 A 
ATOM     72  C   UNL A   1      37.969  32.338  37.491  1.00  0.00     0.198 A 
ATOM     73  F   UNL A   1      38.018  30.240  36.427  1.00  0.00    -0.203 F 
ATOM     74  F   UNL A   1      39.625  35.448  36.644  1.00  0.00    -0.200 F 
ATOM     75  C   UNL A   1      38.372  33.663  37.551  1.00  0.00     0.200 A 
ATOM     76  F   UNL A   1      37.140  31.846  38.422  1.00  0.00    -0.200 F 
ATOM     77  F   UNL A   1      37.949  34.448  38.553  1.00  0.00    -0.200 F 
ENDBRANCH  43  67
BRANCH  55  78
ATOM     78  C   UNL A   1      44.784  27.930  34.322  1.00  0.00     0.064 A 
ATOM     79  C   UNL A   1      44.794  26.824  35.184  1.00  0.00     0.173 A 
ATOM     80  C   UNL A   1      45.934  28.728  34.256  1.00  0.00     0.173 A 
ATOM     81  F   UNL A   1      43.708  26.043  35.293  1.00  0.00    -0.203 F 
ATOM     82  C   UNL A   1      45.906  26.545  35.972  1.00  0.00     0.198 A 
ATOM     83  C   UNL A   1      47.054  28.431  35.027  1.00  0.00     0.198 A 
ATOM     84  F   UNL A   1      45.972  29.795  33.442  1.00  0.00    -0.203 F 
ATOM     85  F   UNL A   1      45.877  25.513  36.826  1.00  0.00    -0.200 F 
ATOM     86  C   UNL A   1      47.036  27.346  35.889  1.00  0.00     0.200 A 
ATOM     87  F   UNL A   1      48.147  29.201  34.941  1.00  0.00    -0.200 F 
ATOM     88  F   UNL A   1      48.106  27.077  36.651  1.00  0.00    -0.200 F 
ENDBRANCH  55  78
ENDBRANCH  29  30
ENDBRANCH  22  24
ENDBRANCH  21  22
ENDBRANCH  20  21
ENDBRANCH  19  20
ENDBRANCH   1  19
TORSDOF 17
ENDMDL
