MODEL 1
REMARK VINA RESULT:     -12.7      0.000      0.000
REMARK SMILES CC(C)N1C[C@@H](C(=O)N2CCC(C(=O)OCCOC(=O)c3ccc(-c4c5nc(c(-c6c(F)c(F)c(F)c(F)c6F)c6ccc([nH]6)c(-c6c(F)c(F)c(F)c(F)c6F)c6nc(c(-c7c(F)c(F)c(F)c(F)c7F)c7ccc4[nH]7)C=C6)C=C5)cc3)CC2)CC1=O
REMARK SMILES IDX 16 1 15 2 13 3 14 4 12 5 7 6 8 7 9 8 10 9 85 10 11 11 84 12
REMARK SMILES IDX 6 13 4 14 5 15 87 16 86 17 88 18 2 19 1 20 3 21 17 22 18 23
REMARK SMILES IDX 19 24 20 25 21 26 22 27 83 28 23 29 82 30 24 31 25 32 26 33
REMARK SMILES IDX 76 34 27 35 81 36 75 37 77 38 28 39 80 40 74 41 73 42 29 44
REMARK SMILES IDX 61 45 41 46 60 47 42 48 45 49 59 50 78 51 43 52 44 53 58 55
REMARK SMILES IDX 79 56 46 57 30 58 31 59 39 60 32 61 33 62 37 63 40 64 34 65
REMARK SMILES IDX 35 66 38 67 36 68 62 69 63 70 71 71 64 72 65 73 69 74 72 75
REMARK SMILES IDX 66 76 67 77 70 78 68 79 47 80 48 81 56 82 49 83 50 84 54 85
REMARK SMILES IDX 57 86 51 87 52 88 55 89 53 90
REMARK H PARENT 77 43 45 54
REMARK Flexibility Score: inf
ROOT
ATOM      1  C   UNL A   1      31.288  28.765  25.074  1.00  0.00     0.274 C 
ENDROOT
BRANCH   1   2
ATOM      2  O   UNL A   1      32.274  27.750  25.341  1.00  0.00    -0.462 OA
BRANCH   2   3
ATOM      3  C   UNL A   1      31.824  26.618  25.936  1.00  0.00     0.309 C 
ATOM      4  O   UNL A   1      31.137  26.582  26.951  1.00  0.00    -0.252 OA
BRANCH   3   5
ATOM      5  C   UNL A   1      32.240  25.357  25.210  1.00  0.00     0.103 C 
ATOM      6  C   UNL A   1      32.821  21.351  25.403  1.00  0.00     0.227 C 
ATOM      7  O   UNL A   1      33.486  21.259  26.441  1.00  0.00    -0.274 OA
ATOM      8  N   UNL A   1      32.725  22.561  24.741  1.00  0.00    -0.342 N 
ATOM      9  C   UNL A   1      33.851  23.489  24.846  1.00  0.00     0.120 C 
ATOM     10  C   UNL A   1      31.473  23.158  24.285  1.00  0.00     0.120 C 
ATOM     11  C   UNL A   1      33.514  24.685  25.727  1.00  0.00     0.037 C 
ATOM     12  C   UNL A   1      31.092  24.352  25.165  1.00  0.00     0.037 C 
BRANCH   6  13
ATOM     13  C   UNL A   1      32.344  20.069  24.733  1.00  0.00     0.107 C 
ATOM     14  N   UNL A   1      32.886  17.823  24.380  1.00  0.00    -0.339 N 
ATOM     15  C   UNL A   1      33.046  18.871  25.358  1.00  0.00     0.133 C 
ATOM     16  C   UNL A   1      32.593  18.332  23.124  1.00  0.00     0.223 C 
ATOM     17  C   UNL A   1      32.445  19.830  23.235  1.00  0.00     0.115 C 
ATOM     18  O   UNL A   1      32.527  17.703  22.081  1.00  0.00    -0.275 OA
BRANCH  14  19
ATOM     19  C   UNL A   1      33.273  16.431  24.610  1.00  0.00     0.078 C 
ATOM     20  C   UNL A   1      34.778  16.321  24.852  1.00  0.00     0.031 C 
ATOM     21  C   UNL A   1      32.489  15.784  25.751  1.00  0.00     0.031 C 
ENDBRANCH  14  19
ENDBRANCH   6  13
ENDBRANCH   3   5
ENDBRANCH   2   3
ENDBRANCH   1   2
BRANCH   1  22
ATOM     22  C   UNL A   1      31.759  30.140  25.556  1.00  0.00     0.275 C 
BRANCH  22  23
ATOM     23  O   UNL A   1      33.080  30.083  26.129  1.00  0.00    -0.458 OA
BRANCH  23  24
ATOM     24  C   UNL A   1      33.389  31.103  26.963  1.00  0.00     0.338 C 
ATOM     25  O   UNL A   1      32.695  32.059  27.258  1.00  0.00    -0.246 OA
BRANCH  24  26
ATOM     26  C   UNL A   1      34.684  30.848  27.608  1.00  0.00     0.060 A 
ATOM     27  C   UNL A   1      34.968  29.540  28.005  1.00  0.00     0.016 A 
ATOM     28  C   UNL A   1      35.559  31.888  27.924  1.00  0.00     0.016 A 
ATOM     29  C   UNL A   1      36.123  29.257  28.725  1.00  0.00     0.010 A 
ATOM     30  C   UNL A   1      36.722  31.604  28.648  1.00  0.00     0.010 A 
ATOM     31  C   UNL A   1      37.004  30.290  29.064  1.00  0.00    -0.014 A 
BRANCH  31  32
ATOM     32  C   UNL A   1      38.187  29.991  29.904  1.00  0.00     0.031 A 
ATOM     33  C   UNL A   1      39.278  29.110  29.368  1.00  0.00     0.074 A 
ATOM     34  C   UNL A   1      38.299  30.542  31.125  1.00  0.00     0.049 A 
ATOM     35  N   UNL A   1      40.346  28.654  29.971  1.00  0.00    -0.248 NA
ATOM     36  C   UNL A   1      39.152  28.691  27.964  1.00  0.00     0.031 C 
ATOM     37  C   UNL A   1      37.337  31.467  31.725  1.00  0.00     0.029 A 
ATOM     38  N   UNL A   1      39.274  30.405  32.080  1.00  0.00    -0.354 N 
ATOM     39  C   UNL A   1      41.010  27.880  29.030  1.00  0.00     0.074 A 
ATOM     40  C   UNL A   1      40.219  27.918  27.817  1.00  0.00     0.031 C 
ATOM     41  C   UNL A   1      37.770  31.814  32.948  1.00  0.00     0.029 A 
ATOM     42  C   UNL A   1      39.010  31.099  33.235  1.00  0.00     0.049 A 
ATOM     43  H   UNL A   1      40.086  29.862  31.950  1.00  0.00     0.167 HD
ATOM     44  C   UNL A   1      42.175  27.203  29.166  1.00  0.00     0.037 A 
ATOM     45  C   UNL A   1      39.678  31.127  34.403  1.00  0.00     0.037 A 
ATOM     46  C   UNL A   1      42.961  27.176  30.372  1.00  0.00     0.049 A 
ATOM     47  C   UNL A   1      40.931  30.305  34.553  1.00  0.00     0.074 A 
ATOM     48  C   UNL A   1      44.146  26.504  30.617  1.00  0.00     0.029 A 
ATOM     49  N   UNL A   1      42.642  27.861  31.534  1.00  0.00    -0.354 N 
ATOM     50  N   UNL A   1      41.533  29.547  33.671  1.00  0.00    -0.248 NA
ATOM     51  C   UNL A   1      41.589  30.337  35.867  1.00  0.00     0.031 C 
ATOM     52  C   UNL A   1      44.527  26.757  31.940  1.00  0.00     0.029 A 
ATOM     53  C   UNL A   1      43.601  27.618  32.505  1.00  0.00     0.049 A 
ATOM     54  H   UNL A   1      41.851  28.435  31.654  1.00  0.00     0.167 HD
ATOM     55  C   UNL A   1      42.648  29.028  34.311  1.00  0.00     0.074 A 
ATOM     56  C   UNL A   1      42.648  29.568  35.655  1.00  0.00     0.031 C 
ATOM     57  C   UNL A   1      43.587  28.174  33.833  1.00  0.00     0.037 A 
BRANCH  44  58
ATOM     58  C   UNL A   1      42.654  26.410  27.989  1.00  0.00     0.064 A 
ATOM     59  C   UNL A   1      42.261  25.078  27.790  1.00  0.00     0.173 A 
ATOM     60  C   UNL A   1      43.492  26.999  27.030  1.00  0.00     0.173 A 
ATOM     61  F   UNL A   1      41.474  24.466  28.687  1.00  0.00    -0.203 F 
ATOM     62  C   UNL A   1      42.704  24.360  26.682  1.00  0.00     0.198 A 
ATOM     63  C   UNL A   1      43.915  26.285  25.912  1.00  0.00     0.198 A 
ATOM     64  F   UNL A   1      43.895  28.270  27.175  1.00  0.00    -0.203 F 
ATOM     65  F   UNL A   1      42.348  23.077  26.530  1.00  0.00    -0.200 F 
ATOM     66  C   UNL A   1      43.525  24.966  25.742  1.00  0.00     0.200 A 
ATOM     67  F   UNL A   1      44.702  26.874  25.001  1.00  0.00    -0.200 F 
ATOM     68  F   UNL A   1      43.948  24.274  24.675  1.00  0.00    -0.200 F 
ENDBRANCH  44  58
BRANCH  45  69
ATOM     69  C   UNL A   1      39.160  31.935  35.536  1.00  0.00     0.064 A 
ATOM     70  C   UNL A   1      39.502  33.287  35.673  1.00  0.00     0.173 A 
ATOM     71  C   UNL A   1      38.325  31.370  36.511  1.00  0.00     0.173 A 
ATOM     72  F   UNL A   1      40.319  33.865  34.782  1.00  0.00    -0.203 F 
ATOM     73  C   UNL A   1      39.038  34.040  36.752  1.00  0.00     0.198 A 
ATOM     74  C   UNL A   1      37.840  32.129  37.573  1.00  0.00     0.198 A 
ATOM     75  F   UNL A   1      37.973  30.078  36.425  1.00  0.00    -0.203 F 
ATOM     76  F   UNL A   1      39.415  35.319  36.884  1.00  0.00    -0.200 F 
ATOM     77  C   UNL A   1      38.203  33.461  37.697  1.00  0.00     0.200 A 
ATOM     78  F   UNL A   1      37.028  31.569  38.478  1.00  0.00    -0.200 F 
ATOM     79  F   UNL A   1      37.758  34.185  38.732  1.00  0.00    -0.200 F 
ENDBRANCH  45  69
BRANCH  57  80
ATOM     80  C   UNL A   1      44.707  27.803  34.758  1.00  0.00     0.064 A 
ATOM     81  C   UNL A   1      44.631  26.674  35.584  1.00  0.00     0.173 A 
ATOM     82  C   UNL A   1      45.881  28.570  34.792  1.00  0.00     0.173 A 
ATOM     83  F   UNL A   1      43.521  25.920  35.597  1.00  0.00    -0.203 F 
ATOM     84  C   UNL A   1      45.684  26.336  36.429  1.00  0.00     0.198 A 
ATOM     85  C   UNL A   1      46.941  28.215  35.621  1.00  0.00     0.198 A 
ATOM     86  F   UNL A   1      46.003  29.657  34.017  1.00  0.00    -0.203 F 
ATOM     87  F   UNL A   1      45.574  25.275  37.241  1.00  0.00    -0.200 F 
ATOM     88  C   UNL A   1      46.840  27.103  36.443  1.00  0.00     0.200 A 
ATOM     89  F   UNL A   1      48.061  28.952  35.627  1.00  0.00    -0.200 F 
ATOM     90  F   UNL A   1      47.854  26.774  37.256  1.00  0.00    -0.200 F 
ENDBRANCH  57  80
ENDBRANCH  31  32
ENDBRANCH  24  26
ENDBRANCH  23  24
ENDBRANCH  22  23
ENDBRANCH   1  22
TORSDOF 13
ENDMDL
MODEL 2
REMARK VINA RESULT:     -12.6      4.425     10.266
REMARK SMILES CC(C)N1C[C@@H](C(=O)N2CCC(C(=O)OCCOC(=O)c3ccc(-c4c5nc(c(-c6c(F)c(F)c(F)c(F)c6F)c6ccc([nH]6)c(-c6c(F)c(F)c(F)c(F)c6F)c6nc(c(-c7c(F)c(F)c(F)c(F)c7F)c7ccc4[nH]7)C=C6)C=C5)cc3)CC2)CC1=O
REMARK SMILES IDX 16 1 15 2 13 3 14 4 12 5 7 6 8 7 9 8 10 9 85 10 11 11 84 12
REMARK SMILES IDX 6 13 4 14 5 15 87 16 86 17 88 18 2 19 1 20 3 21 17 22 18 23
REMARK SMILES IDX 19 24 20 25 21 26 22 27 83 28 23 29 82 30 24 31 25 32 26 33
REMARK SMILES IDX 76 34 27 35 81 36 75 37 77 38 28 39 80 40 74 41 73 42 29 44
REMARK SMILES IDX 61 45 41 46 60 47 42 48 45 49 59 50 78 51 43 52 44 53 58 55
REMARK SMILES IDX 79 56 46 57 30 58 31 59 39 60 32 61 33 62 37 63 40 64 34 65
REMARK SMILES IDX 35 66 38 67 36 68 62 69 63 70 71 71 64 72 65 73 69 74 72 75
REMARK SMILES IDX 66 76 67 77 70 78 68 79 47 80 48 81 56 82 49 83 50 84 54 85
REMARK SMILES IDX 57 86 51 87 52 88 55 89 53 90
REMARK H PARENT 77 43 45 54
REMARK Flexibility Score: inf
ROOT
ATOM      1  C   UNL A   1      35.238  21.047  24.849  1.00  0.00     0.274 C 
ENDROOT
BRANCH   1   2
ATOM      2  O   UNL A   1      34.962  22.446  25.050  1.00  0.00    -0.462 OA
BRANCH   2   3
ATOM      3  C   UNL A   1      34.557  23.141  23.959  1.00  0.00     0.309 C 
ATOM      4  O   UNL A   1      35.092  23.095  22.857  1.00  0.00    -0.252 OA
BRANCH   3   5
ATOM      5  C   UNL A   1      33.335  23.997  24.216  1.00  0.00     0.103 C 
ATOM      6  C   UNL A   1      31.298  27.383  23.318  1.00  0.00     0.227 C 
ATOM      7  O   UNL A   1      32.199  28.226  23.391  1.00  0.00    -0.274 OA
ATOM      8  N   UNL A   1      31.449  26.148  23.920  1.00  0.00    -0.342 N 
ATOM      9  C   UNL A   1      32.283  26.069  25.120  1.00  0.00     0.120 C 
ATOM     10  C   UNL A   1      31.187  24.870  23.265  1.00  0.00     0.120 C 
ATOM     11  C   UNL A   1      33.606  25.368  24.839  1.00  0.00     0.037 C 
ATOM     12  C   UNL A   1      32.500  24.147  22.947  1.00  0.00     0.037 C 
BRANCH   6  13
ATOM     13  C   UNL A   1      29.936  27.822  22.796  1.00  0.00     0.107 C 
ATOM     14  N   UNL A   1      28.501  29.657  22.612  1.00  0.00    -0.339 N 
ATOM     15  C   UNL A   1      29.907  29.338  22.650  1.00  0.00     0.133 C 
ATOM     16  C   UNL A   1      27.726  28.637  23.143  1.00  0.00     0.223 C 
ATOM     17  C   UNL A   1      28.632  27.482  23.497  1.00  0.00     0.115 C 
ATOM     18  O   UNL A   1      26.526  28.670  23.358  1.00  0.00    -0.275 OA
BRANCH  14  19
ATOM     19  C   UNL A   1      27.979  30.994  22.328  1.00  0.00     0.078 C 
ATOM     20  C   UNL A   1      28.634  32.035  23.236  1.00  0.00     0.031 C 
ATOM     21  C   UNL A   1      28.127  31.383  20.858  1.00  0.00     0.031 C 
ENDBRANCH  14  19
ENDBRANCH   6  13
ENDBRANCH   3   5
ENDBRANCH   2   3
ENDBRANCH   1   2
BRANCH   1  22
ATOM     22  C   UNL A   1      36.732  20.746  25.003  1.00  0.00     0.275 C 
BRANCH  22  23
ATOM     23  O   UNL A   1      37.406  21.761  25.774  1.00  0.00    -0.458 OA
BRANCH  23  24
ATOM     24  C   UNL A   1      38.695  21.488  26.079  1.00  0.00     0.338 C 
ATOM     25  O   UNL A   1      39.307  20.455  25.872  1.00  0.00    -0.246 OA
BRANCH  24  26
ATOM     26  C   UNL A   1      39.351  22.693  26.608  1.00  0.00     0.060 A 
ATOM     27  C   UNL A   1      38.923  23.931  26.127  1.00  0.00     0.016 A 
ATOM     28  C   UNL A   1      40.442  22.608  27.473  1.00  0.00     0.016 A 
ATOM     29  C   UNL A   1      39.583  25.097  26.498  1.00  0.00     0.010 A 
ATOM     30  C   UNL A   1      41.106  23.781  27.849  1.00  0.00     0.010 A 
ATOM     31  C   UNL A   1      40.688  25.031  27.354  1.00  0.00    -0.014 A 
BRANCH  31  32
ATOM     32  C   UNL A   1      41.435  26.268  27.675  1.00  0.00     0.031 A 
ATOM     33  C   UNL A   1      40.780  27.343  28.493  1.00  0.00     0.074 A 
ATOM     34  C   UNL A   1      42.709  26.408  27.269  1.00  0.00     0.049 A 
ATOM     35  N   UNL A   1      41.224  28.533  28.805  1.00  0.00    -0.248 NA
ATOM     36  C   UNL A   1      39.448  27.034  29.035  1.00  0.00     0.031 C 
ATOM     37  C   UNL A   1      43.474  25.404  26.529  1.00  0.00     0.029 A 
ATOM     38  N   UNL A   1      43.587  27.450  27.426  1.00  0.00    -0.354 N 
ATOM     39  C   UNL A   1      40.222  29.124  29.563  1.00  0.00     0.074 A 
ATOM     40  C   UNL A   1      39.141  28.164  29.656  1.00  0.00     0.031 C 
ATOM     41  C   UNL A   1      44.707  25.880  26.294  1.00  0.00     0.029 A 
ATOM     42  C   UNL A   1      44.802  27.238  26.823  1.00  0.00     0.049 A 
ATOM     43  H   UNL A   1      43.368  28.272  27.923  1.00  0.00     0.167 HD
ATOM     44  C   UNL A   1      40.209  30.352  30.132  1.00  0.00     0.037 A 
ATOM     45  C   UNL A   1      45.859  28.060  26.685  1.00  0.00     0.037 A 
ATOM     46  C   UNL A   1      41.291  31.298  30.045  1.00  0.00     0.049 A 
ATOM     47  C   UNL A   1      45.790  29.449  27.263  1.00  0.00     0.074 A 
ATOM     48  C   UNL A   1      41.367  32.576  30.570  1.00  0.00     0.029 A 
ATOM     49  N   UNL A   1      42.492  31.062  29.393  1.00  0.00    -0.354 N 
ATOM     50  N   UNL A   1      44.825  30.012  27.948  1.00  0.00    -0.248 NA
ATOM     51  C   UNL A   1      46.954  30.317  27.039  1.00  0.00     0.031 C 
ATOM     52  C   UNL A   1      42.603  33.126  30.209  1.00  0.00     0.029 A 
ATOM     53  C   UNL A   1      43.311  32.175  29.491  1.00  0.00     0.049 A 
ATOM     54  H   UNL A   1      42.728  30.227  28.928  1.00  0.00     0.167 HD
ATOM     55  C   UNL A   1      45.271  31.290  28.253  1.00  0.00     0.074 A 
ATOM     56  C   UNL A   1      46.599  31.415  27.691  1.00  0.00     0.031 C 
ATOM     57  C   UNL A   1      44.634  32.275  28.933  1.00  0.00     0.037 A 
BRANCH  44  58
ATOM     58  C   UNL A   1      38.973  30.756  30.877  1.00  0.00     0.064 A 
ATOM     59  C   UNL A   1      38.860  30.583  32.264  1.00  0.00     0.173 A 
ATOM     60  C   UNL A   1      37.900  31.353  30.199  1.00  0.00     0.173 A 
ATOM     61  F   UNL A   1      39.854  30.001  32.954  1.00  0.00    -0.203 F 
ATOM     62  C   UNL A   1      37.710  30.977  32.943  1.00  0.00     0.198 A 
ATOM     63  C   UNL A   1      36.760  31.767  30.884  1.00  0.00     0.198 A 
ATOM     64  F   UNL A   1      37.959  31.542  28.873  1.00  0.00    -0.203 F 
ATOM     65  F   UNL A   1      37.608  30.768  34.262  1.00  0.00    -0.200 F 
ATOM     66  C   UNL A   1      36.665  31.573  32.253  1.00  0.00     0.200 A 
ATOM     67  F   UNL A   1      35.755  32.349  30.218  1.00  0.00    -0.200 F 
ATOM     68  F   UNL A   1      35.560  31.955  32.909  1.00  0.00    -0.200 F 
ENDBRANCH  44  58
BRANCH  45  69
ATOM     69  C   UNL A   1      47.061  27.606  25.942  1.00  0.00     0.064 A 
ATOM     70  C   UNL A   1      48.168  27.073  26.617  1.00  0.00     0.173 A 
ATOM     71  C   UNL A   1      47.135  27.707  24.545  1.00  0.00     0.173 A 
ATOM     72  F   UNL A   1      48.156  26.981  27.954  1.00  0.00    -0.203 F 
ATOM     73  C   UNL A   1      49.309  26.673  25.922  1.00  0.00     0.198 A 
ATOM     74  C   UNL A   1      48.263  27.282  23.850  1.00  0.00     0.198 A 
ATOM     75  F   UNL A   1      46.102  28.214  23.854  1.00  0.00    -0.203 F 
ATOM     76  F   UNL A   1      50.371  26.207  26.594  1.00  0.00    -0.200 F 
ATOM     77  C   UNL A   1      49.353  26.771  24.540  1.00  0.00     0.200 A 
ATOM     78  F   UNL A   1      48.298  27.371  22.514  1.00  0.00    -0.200 F 
ATOM     79  F   UNL A   1      50.448  26.385  23.873  1.00  0.00    -0.200 F 
ENDBRANCH  45  69
BRANCH  57  80
ATOM     80  C   UNL A   1      45.383  33.558  29.135  1.00  0.00     0.064 A 
ATOM     81  C   UNL A   1      45.290  34.612  28.216  1.00  0.00     0.173 A 
ATOM     82  C   UNL A   1      46.175  33.745  30.277  1.00  0.00     0.173 A 
ATOM     83  F   UNL A   1      44.558  34.473  27.101  1.00  0.00    -0.203 F 
ATOM     84  C   UNL A   1      45.982  35.802  28.423  1.00  0.00     0.198 A 
ATOM     85  C   UNL A   1      46.846  34.945  30.493  1.00  0.00     0.198 A 
ATOM     86  F   UNL A   1      46.291  32.767  31.188  1.00  0.00    -0.203 F 
ATOM     87  F   UNL A   1      45.913  36.783  27.511  1.00  0.00    -0.200 F 
ATOM     88  C   UNL A   1      46.755  35.969  29.563  1.00  0.00     0.200 A 
ATOM     89  F   UNL A   1      47.586  35.108  31.599  1.00  0.00    -0.200 F 
ATOM     90  F   UNL A   1      47.418  37.117  29.762  1.00  0.00    -0.200 F 
ENDBRANCH  57  80
ENDBRANCH  31  32
ENDBRANCH  24  26
ENDBRANCH  23  24
ENDBRANCH  22  23
ENDBRANCH   1  22
TORSDOF 13
ENDMDL
MODEL 3
REMARK VINA RESULT:     -12.5      3.209      8.368
REMARK SMILES CC(C)N1C[C@@H](C(=O)N2CCC(C(=O)OCCOC(=O)c3ccc(-c4c5nc(c(-c6c(F)c(F)c(F)c(F)c6F)c6ccc([nH]6)c(-c6c(F)c(F)c(F)c(F)c6F)c6nc(c(-c7c(F)c(F)c(F)c(F)c7F)c7ccc4[nH]7)C=C6)C=C5)cc3)CC2)CC1=O
REMARK SMILES IDX 16 1 15 2 13 3 14 4 12 5 7 6 8 7 9 8 10 9 85 10 11 11 84 12
REMARK SMILES IDX 6 13 4 14 5 15 87 16 86 17 88 18 2 19 1 20 3 21 17 22 18 23
REMARK SMILES IDX 19 24 20 25 21 26 22 27 83 28 23 29 82 30 24 31 25 32 26 33
REMARK SMILES IDX 76 34 27 35 81 36 75 37 77 38 28 39 80 40 74 41 73 42 29 44
REMARK SMILES IDX 61 45 41 46 60 47 42 48 45 49 59 50 78 51 43 52 44 53 58 55
REMARK SMILES IDX 79 56 46 57 30 58 31 59 39 60 32 61 33 62 37 63 40 64 34 65
REMARK SMILES IDX 35 66 38 67 36 68 62 69 63 70 71 71 64 72 65 73 69 74 72 75
REMARK SMILES IDX 66 76 67 77 70 78 68 79 47 80 48 81 56 82 49 83 50 84 54 85
REMARK SMILES IDX 57 86 51 87 52 88 55 89 53 90
REMARK H PARENT 77 43 45 54
REMARK Flexibility Score: inf
ROOT
ATOM      1  C   UNL A   1      42.921  20.692  26.194  1.00  0.00     0.274 C 
ENDROOT
BRANCH   1   2
ATOM      2  O   UNL A   1      41.556  20.666  25.738  1.00  0.00    -0.462 OA
BRANCH   2   3
ATOM      3  C   UNL A   1      40.629  21.175  26.586  1.00  0.00     0.309 C 
ATOM      4  O   UNL A   1      40.718  21.172  27.809  1.00  0.00    -0.252 OA
BRANCH   3   5
ATOM      5  C   UNL A   1      39.441  21.786  25.874  1.00  0.00     0.103 C 
ATOM      6  C   UNL A   1      35.487  22.666  25.989  1.00  0.00     0.227 C 
ATOM      7  O   UNL A   1      35.015  21.583  26.355  1.00  0.00    -0.274 OA
ATOM      8  N   UNL A   1      36.756  22.725  25.446  1.00  0.00    -0.342 N 
ATOM      9  C   UNL A   1      37.244  21.553  24.718  1.00  0.00     0.120 C 
ATOM     10  C   UNL A   1      37.789  23.671  25.857  1.00  0.00     0.120 C 
ATOM     11  C   UNL A   1      38.320  20.813  25.502  1.00  0.00     0.037 C 
ATOM     12  C   UNL A   1      38.879  22.963  26.668  1.00  0.00     0.037 C 
BRANCH   6  13
ATOM     13  C   UNL A   1      34.555  23.868  25.899  1.00  0.00     0.107 C 
ATOM     14  N   UNL A   1      32.334  24.496  25.535  1.00  0.00    -0.339 N 
ATOM     15  C   UNL A   1      33.113  23.415  26.086  1.00  0.00     0.133 C 
ATOM     16  C   UNL A   1      33.084  25.287  24.678  1.00  0.00     0.223 C 
ATOM     17  C   UNL A   1      34.511  24.792  24.693  1.00  0.00     0.115 C 
ATOM     18  O   UNL A   1      32.671  26.192  23.973  1.00  0.00    -0.275 OA
BRANCH  14  19
ATOM     19  C   UNL A   1      30.877  24.576  25.628  1.00  0.00     0.078 C 
ATOM     20  C   UNL A   1      30.326  23.450  26.503  1.00  0.00     0.031 C 
ATOM     21  C   UNL A   1      30.394  25.938  26.127  1.00  0.00     0.031 C 
ENDBRANCH  14  19
ENDBRANCH   6  13
ENDBRANCH   3   5
ENDBRANCH   2   3
ENDBRANCH   1   2
BRANCH   1  22
ATOM     22  C   UNL A   1      43.782  21.611  25.322  1.00  0.00     0.275 C 
BRANCH  22  23
ATOM     23  O   UNL A   1      43.062  22.791  24.912  1.00  0.00    -0.458 OA
BRANCH  23  24
ATOM     24  C   UNL A   1      43.756  23.948  25.002  1.00  0.00     0.338 C 
ATOM     25  O   UNL A   1      44.691  24.310  24.310  1.00  0.00    -0.246 OA
BRANCH  24  26
ATOM     26  C   UNL A   1      43.141  24.826  26.007  1.00  0.00     0.060 A 
ATOM     27  C   UNL A   1      43.574  26.152  26.065  1.00  0.00     0.016 A 
ATOM     28  C   UNL A   1      42.240  24.334  26.951  1.00  0.00     0.016 A 
ATOM     29  C   UNL A   1      43.118  26.998  27.069  1.00  0.00     0.010 A 
ATOM     30  C   UNL A   1      41.778  25.185  27.961  1.00  0.00     0.010 A 
ATOM     31  C   UNL A   1      42.225  26.518  28.033  1.00  0.00    -0.014 A 
BRANCH  31  32
ATOM     32  C   UNL A   1      41.811  27.403  29.147  1.00  0.00     0.031 A 
ATOM     33  C   UNL A   1      42.611  27.425  30.417  1.00  0.00     0.074 A 
ATOM     34  C   UNL A   1      40.748  28.212  29.002  1.00  0.00     0.049 A 
ATOM     35  N   UNL A   1      42.369  28.054  31.538  1.00  0.00    -0.248 NA
ATOM     36  C   UNL A   1      43.852  26.635  30.424  1.00  0.00     0.031 C 
ATOM     37  C   UNL A   1      39.935  28.329  27.791  1.00  0.00     0.029 A 
ATOM     38  N   UNL A   1      40.170  29.093  29.880  1.00  0.00    -0.354 N 
ATOM     39  C   UNL A   1      43.414  27.725  32.390  1.00  0.00     0.074 A 
ATOM     40  C   UNL A   1      44.288  26.829  31.661  1.00  0.00     0.031 C 
ATOM     41  C   UNL A   1      38.962  29.229  28.003  1.00  0.00     0.029 A 
ATOM     42  C   UNL A   1      39.053  29.714  29.378  1.00  0.00     0.049 A 
ATOM     43  H   UNL A   1      40.522  29.264  30.784  1.00  0.00     0.167 HD
ATOM     44  C   UNL A   1      43.624  28.136  33.663  1.00  0.00     0.037 A 
ATOM     45  C   UNL A   1      38.185  30.553  29.972  1.00  0.00     0.037 A 
ATOM     46  C   UNL A   1      42.756  29.034  34.380  1.00  0.00     0.049 A 
ATOM     47  C   UNL A   1      38.401  30.936  31.412  1.00  0.00     0.074 A 
ATOM     48  C   UNL A   1      42.871  29.495  35.680  1.00  0.00     0.029 A 
ATOM     49  N   UNL A   1      41.613  29.613  33.850  1.00  0.00    -0.354 N 
ATOM     50  N   UNL A   1      39.371  30.591  32.222  1.00  0.00    -0.248 NA
ATOM     51  C   UNL A   1      37.393  31.815  32.021  1.00  0.00     0.031 C 
ATOM     52  C   UNL A   1      41.780  30.330  35.947  1.00  0.00     0.029 A 
ATOM     53  C   UNL A   1      41.006  30.418  34.801  1.00  0.00     0.049 A 
ATOM     54  H   UNL A   1      41.281  29.473  32.934  1.00  0.00     0.167 HD
ATOM     55  C   UNL A   1      39.104  31.225  33.427  1.00  0.00     0.074 A 
ATOM     56  C   UNL A   1      37.887  31.987  33.239  1.00  0.00     0.031 C 
ATOM     57  C   UNL A   1      39.801  31.176  34.589  1.00  0.00     0.037 A 
BRANCH  44  58
ATOM     58  C   UNL A   1      44.826  27.594  34.374  1.00  0.00     0.064 A 
ATOM     59  C   UNL A   1      46.068  28.244  34.319  1.00  0.00     0.173 A 
ATOM     60  C   UNL A   1      44.728  26.427  35.147  1.00  0.00     0.173 A 
ATOM     61  F   UNL A   1      46.216  29.354  33.581  1.00  0.00    -0.203 F 
ATOM     62  C   UNL A   1      47.172  27.734  34.998  1.00  0.00     0.198 A 
ATOM     63  C   UNL A   1      45.828  25.933  35.842  1.00  0.00     0.198 A 
ATOM     64  F   UNL A   1      43.562  25.769  35.232  1.00  0.00    -0.203 F 
ATOM     65  F   UNL A   1      48.358  28.350  34.902  1.00  0.00    -0.200 F 
ATOM     66  C   UNL A   1      47.050  26.583  35.763  1.00  0.00     0.200 A 
ATOM     67  F   UNL A   1      45.706  24.825  36.586  1.00  0.00    -0.200 F 
ATOM     68  F   UNL A   1      48.112  26.097  36.418  1.00  0.00    -0.200 F 
ENDBRANCH  44  58
BRANCH  45  69
ATOM     69  C   UNL A   1      37.013  31.065  29.217  1.00  0.00     0.064 A 
ATOM     70  C   UNL A   1      36.971  32.389  28.759  1.00  0.00     0.173 A 
ATOM     71  C   UNL A   1      35.905  30.247  28.952  1.00  0.00     0.173 A 
ATOM     72  F   UNL A   1      37.994  33.218  29.013  1.00  0.00    -0.203 F 
ATOM     73  C   UNL A   1      35.859  32.879  28.076  1.00  0.00     0.198 A 
ATOM     74  C   UNL A   1      34.806  30.728  28.245  1.00  0.00     0.198 A 
ATOM     75  F   UNL A   1      35.896  28.973  29.373  1.00  0.00    -0.203 F 
ATOM     76  F   UNL A   1      35.825  34.160  27.687  1.00  0.00    -0.200 F 
ATOM     77  C   UNL A   1      34.781  32.046  27.814  1.00  0.00     0.200 A 
ATOM     78  F   UNL A   1      33.771  29.919  27.987  1.00  0.00    -0.200 F 
ATOM     79  F   UNL A   1      33.713  32.517  27.156  1.00  0.00    -0.200 F 
ENDBRANCH  45  69
BRANCH  57  80
ATOM     80  C   UNL A   1      39.281  31.996  35.732  1.00  0.00     0.064 A 
ATOM     81  C   UNL A   1      39.667  33.332  35.909  1.00  0.00     0.173 A 
ATOM     82  C   UNL A   1      38.363  31.447  36.638  1.00  0.00     0.173 A 
ATOM     83  F   UNL A   1      40.556  33.894  35.077  1.00  0.00    -0.203 F 
ATOM     84  C   UNL A   1      39.167  34.084  36.968  1.00  0.00     0.198 A 
ATOM     85  C   UNL A   1      37.846  32.209  37.682  1.00  0.00     0.198 A 
ATOM     86  F   UNL A   1      37.960  30.174  36.507  1.00  0.00    -0.203 F 
ATOM     87  F   UNL A   1      39.580  35.347  37.144  1.00  0.00    -0.200 F 
ATOM     88  C   UNL A   1      38.253  33.524  37.850  1.00  0.00     0.200 A 
ATOM     89  F   UNL A   1      36.957  31.670  38.528  1.00  0.00    -0.200 F 
ATOM     90  F   UNL A   1      37.770  34.251  38.867  1.00  0.00    -0.200 F 
ENDBRANCH  57  80
ENDBRANCH  31  32
ENDBRANCH  24  26
ENDBRANCH  23  24
ENDBRANCH  22  23
ENDBRANCH   1  22
TORSDOF 13
ENDMDL
