MODEL 1
REMARK VINA RESULT:     -12.3      0.000      0.000
REMARK SMILES C[C@H]1[C@H](C(=O)OCCOC(=O)c2ccc(-c3c4nc(c(-c5c(F)c(F)c(F)c(F)c5F)c5ccc([nH]5)c(-c5c(F)c(F)c(F)c(F)c5F)c5nc(c(-c6c(F)c(F)c(F)c(F)c6F)c6ccc3[nH]6)C=C5)C=C4)cc2)CCN1C(=O)[C@H]1CC=CCC1
REMARK SMILES IDX 7 1 6 2 4 3 5 4 3 5 1 6 2 7 77 8 75 9 76 10 78 11 79 12
REMARK SMILES IDX 80 13 81 14 85 15 82 16 84 17 83 18 8 19 9 20 10 21 11 22
REMARK SMILES IDX 12 23 13 24 74 25 14 26 73 27 15 28 16 29 17 30 67 31 18 32
REMARK SMILES IDX 72 33 66 34 68 35 19 36 71 37 65 38 64 39 20 41 52 42 32 43
REMARK SMILES IDX 51 44 33 45 36 46 50 47 69 48 34 49 35 50 49 52 70 53 37 54
REMARK SMILES IDX 21 55 22 56 30 57 23 58 24 59 28 60 31 61 25 62 26 63 29 64
REMARK SMILES IDX 27 65 53 66 54 67 62 68 55 69 56 70 60 71 63 72 57 73 58 74
REMARK SMILES IDX 61 75 59 76 38 77 39 78 47 79 40 80 41 81 45 82 48 83 42 84
REMARK SMILES IDX 43 85 46 86 44 87
REMARK H PARENT 68 40 36 51
REMARK Flexibility Score: inf
ROOT
ATOM      1  C   UNL A   1      31.979  28.040  27.100  1.00  0.00     0.274 C 
ENDROOT
BRANCH   1   2
ATOM      2  O   UNL A   1      30.855  27.164  26.872  1.00  0.00    -0.462 OA
BRANCH   2   3
ATOM      3  C   UNL A   1      31.121  26.018  26.196  1.00  0.00     0.311 C 
ATOM      4  O   UNL A   1      31.655  25.029  26.686  1.00  0.00    -0.252 OA
BRANCH   3   5
ATOM      5  C   UNL A   1      30.748  26.078  24.733  1.00  0.00     0.123 C 
ATOM      6  C   UNL A   1      28.425  26.529  23.901  1.00  0.00     0.032 C 
ATOM      7  C   UNL A   1      29.744  27.184  24.331  1.00  0.00     0.096 C 
ATOM      8  N   UNL A   1      30.383  27.872  23.204  1.00  0.00    -0.339 N 
ATOM      9  C   UNL A   1      31.983  26.307  23.864  1.00  0.00     0.039 C 
ATOM     10  C   UNL A   1      31.429  27.028  22.652  1.00  0.00     0.121 C 
BRANCH   8  11
ATOM     11  C   UNL A   1      30.161  29.110  22.649  1.00  0.00     0.226 C 
ATOM     12  O   UNL A   1      31.064  29.642  21.986  1.00  0.00    -0.275 OA
BRANCH  11  13
ATOM     13  C   UNL A   1      28.869  29.919  22.845  1.00  0.00     0.083 C 
ATOM     14  C   UNL A   1      28.965  31.144  23.755  1.00  0.00     0.040 C 
ATOM     15  C   UNL A   1      28.008  30.088  21.585  1.00  0.00     0.018 C 
ATOM     16  C   UNL A   1      28.774  32.465  23.080  1.00  0.00    -0.030 C 
ATOM     17  C   UNL A   1      28.025  31.459  20.913  1.00  0.00     0.028 C 
ATOM     18  C   UNL A   1      28.354  32.602  21.817  1.00  0.00    -0.031 C 
ENDBRANCH  11  13
ENDBRANCH   8  11
ENDBRANCH   3   5
ENDBRANCH   2   3
ENDBRANCH   1   2
BRANCH   1  19
ATOM     19  C   UNL A   1      31.775  29.425  26.479  1.00  0.00     0.275 C 
BRANCH  19  20
ATOM     20  O   UNL A   1      33.022  30.061  26.145  1.00  0.00    -0.458 OA
BRANCH  20  21
ATOM     21  C   UNL A   1      33.361  31.092  26.948  1.00  0.00     0.338 C 
ATOM     22  O   UNL A   1      32.666  32.044  27.266  1.00  0.00    -0.246 OA
BRANCH  21  23
ATOM     23  C   UNL A   1      34.689  30.882  27.529  1.00  0.00     0.060 A 
ATOM     24  C   UNL A   1      35.054  29.577  27.871  1.00  0.00     0.016 A 
ATOM     25  C   UNL A   1      35.508  31.963  27.856  1.00  0.00     0.016 A 
ATOM     26  C   UNL A   1      36.227  29.342  28.576  1.00  0.00     0.010 A 
ATOM     27  C   UNL A   1      36.698  31.724  28.544  1.00  0.00     0.010 A 
ATOM     28  C   UNL A   1      37.053  30.416  28.921  1.00  0.00    -0.014 A 
BRANCH  28  29
ATOM     29  C   UNL A   1      38.292  30.175  29.689  1.00  0.00     0.031 A 
ATOM     30  C   UNL A   1      39.362  29.295  29.122  1.00  0.00     0.074 A 
ATOM     31  C   UNL A   1      38.439  30.748  30.897  1.00  0.00     0.049 A 
ATOM     32  N   UNL A   1      40.433  28.819  29.702  1.00  0.00    -0.248 NA
ATOM     33  C   UNL A   1      39.206  28.895  27.716  1.00  0.00     0.031 C 
ATOM     34  C   UNL A   1      37.491  31.676  31.510  1.00  0.00     0.029 A 
ATOM     35  N   UNL A   1      39.437  30.617  31.828  1.00  0.00    -0.354 N 
ATOM     36  C   UNL A   1      41.064  28.040  28.743  1.00  0.00     0.074 A 
ATOM     37  C   UNL A   1      40.261  28.109  27.541  1.00  0.00     0.031 C 
ATOM     38  C   UNL A   1      37.943  32.020  32.726  1.00  0.00     0.029 A 
ATOM     39  C   UNL A   1      39.178  31.291  32.995  1.00  0.00     0.049 A 
ATOM     40  H   UNL A   1      40.255  30.093  31.675  1.00  0.00     0.167 HD
ATOM     41  C   UNL A   1      42.208  27.328  28.867  1.00  0.00     0.037 A 
ATOM     42  C   UNL A   1      39.841  31.279  34.166  1.00  0.00     0.037 A 
ATOM     43  C   UNL A   1      43.004  27.280  30.065  1.00  0.00     0.049 A 
ATOM     44  C   UNL A   1      41.073  30.429  34.299  1.00  0.00     0.074 A 
ATOM     45  C   UNL A   1      44.177  26.585  30.298  1.00  0.00     0.029 A 
ATOM     46  N   UNL A   1      42.703  27.964  31.234  1.00  0.00    -0.354 N 
ATOM     47  N   UNL A   1      41.646  29.663  33.404  1.00  0.00    -0.248 NA
ATOM     48  C   UNL A   1      41.742  30.431  35.607  1.00  0.00     0.031 C 
ATOM     49  C   UNL A   1      44.572  26.825  31.619  1.00  0.00     0.029 A 
ATOM     50  C   UNL A   1      43.662  27.697  32.197  1.00  0.00     0.049 A 
ATOM     51  H   UNL A   1      41.924  28.551  31.361  1.00  0.00     0.167 HD
ATOM     52  C   UNL A   1      42.751  29.104  34.031  1.00  0.00     0.074 A 
ATOM     53  C   UNL A   1      42.771  29.624  35.383  1.00  0.00     0.031 C 
ATOM     54  C   UNL A   1      43.665  28.238  33.531  1.00  0.00     0.037 A 
BRANCH  41  55
ATOM     55  C   UNL A   1      42.646  26.512  27.690  1.00  0.00     0.064 A 
ATOM     56  C   UNL A   1      43.574  27.000  26.759  1.00  0.00     0.173 A 
ATOM     57  C   UNL A   1      42.157  25.210  27.513  1.00  0.00     0.173 A 
ATOM     58  F   UNL A   1      44.058  28.245  26.878  1.00  0.00    -0.203 F 
ATOM     59  C   UNL A   1      43.985  26.216  25.684  1.00  0.00     0.198 A 
ATOM     60  C   UNL A   1      42.586  24.422  26.448  1.00  0.00     0.198 A 
ATOM     61  F   UNL A   1      41.267  24.698  28.378  1.00  0.00    -0.203 F 
ATOM     62  F   UNL A   1      44.849  26.713  24.787  1.00  0.00    -0.200 F 
ATOM     63  C   UNL A   1      43.495  24.927  25.532  1.00  0.00     0.200 A 
ATOM     64  F   UNL A   1      42.115  23.174  26.307  1.00  0.00    -0.200 F 
ATOM     65  F   UNL A   1      43.897  24.174  24.499  1.00  0.00    -0.200 F 
ENDBRANCH  41  55
BRANCH  42  66
ATOM     66  C   UNL A   1      39.321  32.068  35.309  1.00  0.00     0.064 A 
ATOM     67  C   UNL A   1      38.496  31.478  36.275  1.00  0.00     0.173 A 
ATOM     68  C   UNL A   1      39.660  33.419  35.471  1.00  0.00     0.173 A 
ATOM     69  F   UNL A   1      38.130  30.195  36.150  1.00  0.00    -0.203 F 
ATOM     70  C   UNL A   1      38.025  32.214  37.361  1.00  0.00     0.198 A 
ATOM     71  C   UNL A   1      39.207  34.147  36.569  1.00  0.00     0.198 A 
ATOM     72  F   UNL A   1      40.448  34.026  34.572  1.00  0.00    -0.203 F 
ATOM     73  F   UNL A   1      37.214  31.636  38.258  1.00  0.00    -0.200 F 
ATOM     74  C   UNL A   1      38.387  33.546  37.510  1.00  0.00     0.200 A 
ATOM     75  F   UNL A   1      39.569  35.429  36.716  1.00  0.00    -0.200 F 
ATOM     76  F   UNL A   1      37.941  34.248  38.560  1.00  0.00    -0.200 F 
ENDBRANCH  42  66
BRANCH  54  77
ATOM     77  C   UNL A   1      44.783  27.827  34.438  1.00  0.00     0.064 A 
ATOM     78  C   UNL A   1      45.959  28.582  34.534  1.00  0.00     0.173 A 
ATOM     79  C   UNL A   1      44.648  26.699  35.259  1.00  0.00     0.173 A 
ATOM     80  F   UNL A   1      46.135  29.660  33.755  1.00  0.00    -0.203 F 
ATOM     81  C   UNL A   1      46.969  28.216  35.420  1.00  0.00     0.198 A 
ATOM     82  C   UNL A   1      45.652  26.346  36.156  1.00  0.00     0.198 A 
ATOM     83  F   UNL A   1      43.538  25.949  35.201  1.00  0.00    -0.203 F 
ATOM     84  F   UNL A   1      48.097  28.936  35.481  1.00  0.00    -0.200 F 
ATOM     85  C   UNL A   1      46.811  27.104  36.234  1.00  0.00     0.200 A 
ATOM     86  F   UNL A   1      45.496  25.277  36.947  1.00  0.00    -0.200 F 
ATOM     87  F   UNL A   1      47.781  26.760  37.093  1.00  0.00    -0.200 F 
ENDBRANCH  54  77
ENDBRANCH  28  29
ENDBRANCH  21  23
ENDBRANCH  20  21
ENDBRANCH  19  20
ENDBRANCH   1  19
TORSDOF 13
ENDMDL
MODEL 2
REMARK VINA RESULT:     -12.2      0.257      2.012
REMARK SMILES C[C@H]1[C@H](C(=O)OCCOC(=O)c2ccc(-c3c4nc(c(-c5c(F)c(F)c(F)c(F)c5F)c5ccc([nH]5)c(-c5c(F)c(F)c(F)c(F)c5F)c5nc(c(-c6c(F)c(F)c(F)c(F)c6F)c6ccc3[nH]6)C=C5)C=C4)cc2)CCN1C(=O)[C@H]1CC=CCC1
REMARK SMILES IDX 7 1 6 2 4 3 5 4 3 5 1 6 2 7 77 8 75 9 76 10 78 11 79 12
REMARK SMILES IDX 80 13 81 14 85 15 82 16 84 17 83 18 8 19 9 20 10 21 11 22
REMARK SMILES IDX 12 23 13 24 74 25 14 26 73 27 15 28 16 29 17 30 67 31 18 32
REMARK SMILES IDX 72 33 66 34 68 35 19 36 71 37 65 38 64 39 20 41 52 42 32 43
REMARK SMILES IDX 51 44 33 45 36 46 50 47 69 48 34 49 35 50 49 52 70 53 37 54
REMARK SMILES IDX 21 55 22 56 30 57 23 58 24 59 28 60 31 61 25 62 26 63 29 64
REMARK SMILES IDX 27 65 53 66 54 67 62 68 55 69 56 70 60 71 63 72 57 73 58 74
REMARK SMILES IDX 61 75 59 76 38 77 39 78 47 79 40 80 41 81 45 82 48 83 42 84
REMARK SMILES IDX 43 85 46 86 44 87
REMARK H PARENT 68 40 36 51
REMARK Flexibility Score: inf
ROOT
ATOM      1  C   UNL A   1      31.917  28.050  27.314  1.00  0.00     0.274 C 
ENDROOT
BRANCH   1   2
ATOM      2  O   UNL A   1      30.954  27.150  26.728  1.00  0.00    -0.462 OA
BRANCH   2   3
ATOM      3  C   UNL A   1      31.460  26.156  25.955  1.00  0.00     0.311 C 
ATOM      4  O   UNL A   1      32.288  25.334  26.334  1.00  0.00    -0.252 OA
BRANCH   3   5
ATOM      5  C   UNL A   1      30.954  26.177  24.532  1.00  0.00     0.123 C 
ATOM      6  C   UNL A   1      28.562  26.602  23.908  1.00  0.00     0.032 C 
ATOM      7  C   UNL A   1      29.912  27.271  24.196  1.00  0.00     0.096 C 
ATOM      8  N   UNL A   1      30.441  27.929  22.997  1.00  0.00    -0.339 N 
ATOM      9  C   UNL A   1      32.102  26.385  23.547  1.00  0.00     0.039 C 
ATOM     10  C   UNL A   1      31.435  27.074  22.374  1.00  0.00     0.121 C 
BRANCH   8  11
ATOM     11  C   UNL A   1      30.164  29.152  22.434  1.00  0.00     0.226 C 
ATOM     12  O   UNL A   1      31.014  29.686  21.707  1.00  0.00    -0.275 OA
BRANCH  11  13
ATOM     13  C   UNL A   1      28.871  29.944  22.693  1.00  0.00     0.083 C 
ATOM     14  C   UNL A   1      28.966  31.089  23.702  1.00  0.00     0.040 C 
ATOM     15  C   UNL A   1      28.014  30.218  21.450  1.00  0.00     0.018 C 
ATOM     16  C   UNL A   1      28.778  32.462  23.139  1.00  0.00    -0.030 C 
ATOM     17  C   UNL A   1      28.033  31.640  20.894  1.00  0.00     0.028 C 
ATOM     18  C   UNL A   1      28.361  32.703  21.891  1.00  0.00    -0.031 C 
ENDBRANCH  11  13
ENDBRANCH   8  11
ENDBRANCH   3   5
ENDBRANCH   2   3
ENDBRANCH   1   2
BRANCH   1  19
ATOM     19  C   UNL A   1      31.780  29.480  26.783  1.00  0.00     0.275 C 
BRANCH  19  20
ATOM     20  O   UNL A   1      33.041  30.024  26.353  1.00  0.00    -0.458 OA
BRANCH  20  21
ATOM     21  C   UNL A   1      33.451  31.109  27.044  1.00  0.00     0.338 C 
ATOM     22  O   UNL A   1      32.820  32.132  27.260  1.00  0.00    -0.246 OA
BRANCH  21  23
ATOM     23  C   UNL A   1      34.767  30.876  27.643  1.00  0.00     0.060 A 
ATOM     24  C   UNL A   1      35.113  29.562  27.968  1.00  0.00     0.016 A 
ATOM     25  C   UNL A   1      35.591  31.942  28.002  1.00  0.00     0.016 A 
ATOM     26  C   UNL A   1      36.271  29.303  28.689  1.00  0.00     0.010 A 
ATOM     27  C   UNL A   1      36.767  31.680  28.705  1.00  0.00     0.010 A 
ATOM     28  C   UNL A   1      37.102  30.362  29.066  1.00  0.00    -0.014 A 
BRANCH  28  29
ATOM     29  C   UNL A   1      38.325  30.096  29.851  1.00  0.00     0.031 A 
ATOM     30  C   UNL A   1      39.386  29.197  29.296  1.00  0.00     0.074 A 
ATOM     31  C   UNL A   1      38.467  30.662  31.062  1.00  0.00     0.049 A 
ATOM     32  N   UNL A   1      40.440  28.699  29.889  1.00  0.00    -0.248 NA
ATOM     33  C   UNL A   1      39.243  28.804  27.886  1.00  0.00     0.031 C 
ATOM     34  C   UNL A   1      37.528  31.607  31.664  1.00  0.00     0.029 A 
ATOM     35  N   UNL A   1      39.448  30.510  32.006  1.00  0.00    -0.354 N 
ATOM     36  C   UNL A   1      41.069  27.912  28.937  1.00  0.00     0.074 A 
ATOM     37  C   UNL A   1      40.284  27.999  27.724  1.00  0.00     0.031 C 
ATOM     38  C   UNL A   1      37.969  31.939  32.888  1.00  0.00     0.029 A 
ATOM     39  C   UNL A   1      39.186  31.186  33.172  1.00  0.00     0.049 A 
ATOM     40  H   UNL A   1      40.259  29.971  31.863  1.00  0.00     0.167 HD
ATOM     41  C   UNL A   1      42.198  27.178  29.074  1.00  0.00     0.037 A 
ATOM     42  C   UNL A   1      39.833  31.158  34.352  1.00  0.00     0.037 A 
ATOM     43  C   UNL A   1      42.976  27.111  30.283  1.00  0.00     0.049 A 
ATOM     44  C   UNL A   1      41.046  30.284  34.500  1.00  0.00     0.074 A 
ATOM     45  C   UNL A   1      44.132  26.393  30.530  1.00  0.00     0.029 A 
ATOM     46  N   UNL A   1      42.672  27.797  31.450  1.00  0.00    -0.354 N 
ATOM     47  N   UNL A   1      41.617  29.510  33.610  1.00  0.00    -0.248 NA
ATOM     48  C   UNL A   1      41.696  30.270  35.817  1.00  0.00     0.031 C 
ATOM     49  C   UNL A   1      44.513  26.622  31.857  1.00  0.00     0.029 A 
ATOM     50  C   UNL A   1      43.612  27.509  32.425  1.00  0.00     0.049 A 
ATOM     51  H   UNL A   1      41.902  28.399  31.568  1.00  0.00     0.167 HD
ATOM     52  C   UNL A   1      42.702  28.929  34.250  1.00  0.00     0.074 A 
ATOM     53  C   UNL A   1      42.713  29.444  35.604  1.00  0.00     0.031 C 
ATOM     54  C   UNL A   1      43.607  28.047  33.761  1.00  0.00     0.037 A 
BRANCH  41  55
ATOM     55  C   UNL A   1      42.637  26.356  27.901  1.00  0.00     0.064 A 
ATOM     56  C   UNL A   1      42.128  25.071  27.669  1.00  0.00     0.173 A 
ATOM     57  C   UNL A   1      43.553  26.880  26.977  1.00  0.00     0.173 A 
ATOM     58  F   UNL A   1      41.262  24.522  28.534  1.00  0.00    -0.203 F 
ATOM     59  C   UNL A   1      42.534  24.333  26.560  1.00  0.00     0.198 A 
ATOM     60  C   UNL A   1      43.940  26.147  25.859  1.00  0.00     0.198 A 
ATOM     61  F   UNL A   1      44.068  28.106  27.156  1.00  0.00    -0.203 F 
ATOM     62  F   UNL A   1      42.060  23.092  26.373  1.00  0.00    -0.200 F 
ATOM     63  C   UNL A   1      43.434  24.873  25.653  1.00  0.00     0.200 A 
ATOM     64  F   UNL A   1      44.807  26.673  24.981  1.00  0.00    -0.200 F 
ATOM     65  F   UNL A   1      43.818  24.161  24.585  1.00  0.00    -0.200 F 
ENDBRANCH  41  55
BRANCH  42  66
ATOM     66  C   UNL A   1      39.311  31.953  35.490  1.00  0.00     0.064 A 
ATOM     67  C   UNL A   1      39.636  33.308  35.631  1.00  0.00     0.173 A 
ATOM     68  C   UNL A   1      38.458  31.380  36.444  1.00  0.00     0.173 A 
ATOM     69  F   UNL A   1      40.465  33.892  34.754  1.00  0.00    -0.203 F 
ATOM     70  C   UNL A   1      39.128  34.061  36.688  1.00  0.00     0.198 A 
ATOM     71  C   UNL A   1      37.933  32.140  37.487  1.00  0.00     0.198 A 
ATOM     72  F   UNL A   1      38.118  30.086  36.351  1.00  0.00    -0.203 F 
ATOM     73  F   UNL A   1      39.476  35.349  36.818  1.00  0.00    -0.200 F 
ATOM     74  C   UNL A   1      38.272  33.477  37.611  1.00  0.00     0.200 A 
ATOM     75  F   UNL A   1      37.096  31.575  38.369  1.00  0.00    -0.200 F 
ATOM     76  F   UNL A   1      37.777  34.206  38.620  1.00  0.00    -0.200 F 
ENDBRANCH  42  66
BRANCH  54  77
ATOM     77  C   UNL A   1      44.704  27.612  34.682  1.00  0.00     0.064 A 
ATOM     78  C   UNL A   1      44.571  26.474  35.488  1.00  0.00     0.173 A 
ATOM     79  C   UNL A   1      45.920  28.310  34.711  1.00  0.00     0.173 A 
ATOM     80  F   UNL A   1      43.420  25.787  35.501  1.00  0.00    -0.203 F 
ATOM     81  C   UNL A   1      45.620  26.052  36.300  1.00  0.00     0.198 A 
ATOM     82  C   UNL A   1      46.972  27.875  35.511  1.00  0.00     0.198 A 
ATOM     83  F   UNL A   1      46.090  29.403  33.954  1.00  0.00    -0.203 F 
ATOM     84  F   UNL A   1      45.468  24.975  37.083  1.00  0.00    -0.200 F 
ATOM     85  C   UNL A   1      46.820  26.748  36.306  1.00  0.00     0.200 A 
ATOM     86  F   UNL A   1      48.133  28.543  35.510  1.00  0.00    -0.200 F 
ATOM     87  F   UNL A   1      47.832  26.334  37.081  1.00  0.00    -0.200 F 
ENDBRANCH  54  77
ENDBRANCH  28  29
ENDBRANCH  21  23
ENDBRANCH  20  21
ENDBRANCH  19  20
ENDBRANCH   1  19
TORSDOF 13
ENDMDL
MODEL 3
REMARK VINA RESULT:     -12.0      1.734      3.959
REMARK SMILES C[C@H]1[C@H](C(=O)OCCOC(=O)c2ccc(-c3c4nc(c(-c5c(F)c(F)c(F)c(F)c5F)c5ccc([nH]5)c(-c5c(F)c(F)c(F)c(F)c5F)c5nc(c(-c6c(F)c(F)c(F)c(F)c6F)c6ccc3[nH]6)C=C5)C=C4)cc2)CCN1C(=O)[C@H]1CC=CCC1
REMARK SMILES IDX 7 1 6 2 4 3 5 4 3 5 1 6 2 7 77 8 75 9 76 10 78 11 79 12
REMARK SMILES IDX 80 13 81 14 85 15 82 16 84 17 83 18 8 19 9 20 10 21 11 22
REMARK SMILES IDX 12 23 13 24 74 25 14 26 73 27 15 28 16 29 17 30 67 31 18 32
REMARK SMILES IDX 72 33 66 34 68 35 19 36 71 37 65 38 64 39 20 41 52 42 32 43
REMARK SMILES IDX 51 44 33 45 36 46 50 47 69 48 34 49 35 50 49 52 70 53 37 54
REMARK SMILES IDX 21 55 22 56 30 57 23 58 24 59 28 60 31 61 25 62 26 63 29 64
REMARK SMILES IDX 27 65 53 66 54 67 62 68 55 69 56 70 60 71 63 72 57 73 58 74
REMARK SMILES IDX 61 75 59 76 38 77 39 78 47 79 40 80 41 81 45 82 48 83 42 84
REMARK SMILES IDX 43 85 46 86 44 87
REMARK H PARENT 68 40 36 51
REMARK Flexibility Score: inf
ROOT
ATOM      1  C   UNL A   1      31.467  29.268  24.612  1.00  0.00     0.274 C 
ENDROOT
BRANCH   1   2
ATOM      2  O   UNL A   1      30.719  28.114  25.048  1.00  0.00    -0.462 OA
BRANCH   2   3
ATOM      3  C   UNL A   1      30.586  27.113  24.141  1.00  0.00     0.311 C 
ATOM      4  O   UNL A   1      29.628  26.980  23.387  1.00  0.00    -0.252 OA
BRANCH   3   5
ATOM      5  C   UNL A   1      31.717  26.112  24.175  1.00  0.00     0.123 C 
ATOM      6  C   UNL A   1      33.685  26.280  25.722  1.00  0.00     0.032 C 
ATOM      7  C   UNL A   1      32.256  25.741  25.577  1.00  0.00     0.096 C 
ATOM      8  N   UNL A   1      32.241  24.274  25.602  1.00  0.00    -0.339 N 
ATOM      9  C   UNL A   1      31.297  24.792  23.532  1.00  0.00     0.039 C 
ATOM     10  C   UNL A   1      32.156  23.767  24.243  1.00  0.00     0.121 C 
BRANCH   8  11
ATOM     11  C   UNL A   1      32.275  23.382  26.647  1.00  0.00     0.226 C 
ATOM     12  O   UNL A   1      31.373  23.416  27.497  1.00  0.00    -0.275 OA
BRANCH  11  13
ATOM     13  C   UNL A   1      33.405  22.363  26.870  1.00  0.00     0.083 C 
ATOM     14  C   UNL A   1      33.247  21.010  26.177  1.00  0.00     0.040 C 
ATOM     15  C   UNL A   1      34.823  22.951  26.872  1.00  0.00     0.018 C 
ATOM     16  C   UNL A   1      34.243  20.716  25.100  1.00  0.00    -0.030 C 
ATOM     17  C   UNL A   1      35.682  22.694  25.637  1.00  0.00     0.028 C 
ATOM     18  C   UNL A   1      35.325  21.465  24.865  1.00  0.00    -0.031 C 
ENDBRANCH  11  13
ENDBRANCH   8  11
ENDBRANCH   3   5
ENDBRANCH   2   3
ENDBRANCH   1   2
BRANCH   1  19
ATOM     19  C   UNL A   1      31.735  30.255  25.752  1.00  0.00     0.275 C 
BRANCH  19  20
ATOM     20  O   UNL A   1      33.101  30.210  26.201  1.00  0.00    -0.458 OA
BRANCH  20  21
ATOM     21  C   UNL A   1      33.460  31.224  27.016  1.00  0.00     0.338 C 
ATOM     22  O   UNL A   1      32.794  32.201  27.321  1.00  0.00    -0.246 OA
BRANCH  21  23
ATOM     23  C   UNL A   1      34.765  30.962  27.627  1.00  0.00     0.060 A 
ATOM     24  C   UNL A   1      35.064  29.646  27.992  1.00  0.00     0.016 A 
ATOM     25  C   UNL A   1      35.625  32.009  27.959  1.00  0.00     0.016 A 
ATOM     26  C   UNL A   1      36.209  29.368  28.725  1.00  0.00     0.010 A 
ATOM     27  C   UNL A   1      36.789  31.725  28.675  1.00  0.00     0.010 A 
ATOM     28  C   UNL A   1      37.076  30.407  29.074  1.00  0.00    -0.014 A 
BRANCH  28  29
ATOM     29  C   UNL A   1      38.286  30.121  29.872  1.00  0.00     0.031 A 
ATOM     30  C   UNL A   1      39.344  29.214  29.322  1.00  0.00     0.074 A 
ATOM     31  C   UNL A   1      38.420  30.676  31.089  1.00  0.00     0.049 A 
ATOM     32  N   UNL A   1      40.385  28.699  29.924  1.00  0.00    -0.248 NA
ATOM     33  C   UNL A   1      39.213  28.834  27.908  1.00  0.00     0.031 C 
ATOM     34  C   UNL A   1      37.485  31.626  31.688  1.00  0.00     0.029 A 
ATOM     35  N   UNL A   1      39.388  30.505  32.044  1.00  0.00    -0.354 N 
ATOM     36  C   UNL A   1      41.016  27.912  28.973  1.00  0.00     0.074 A 
ATOM     37  C   UNL A   1      40.247  28.018  27.751  1.00  0.00     0.031 C 
ATOM     38  C   UNL A   1      37.915  31.943  32.919  1.00  0.00     0.029 A 
ATOM     39  C   UNL A   1      39.120  31.174  33.212  1.00  0.00     0.049 A 
ATOM     40  H   UNL A   1      40.194  29.958  31.906  1.00  0.00     0.167 HD
ATOM     41  C   UNL A   1      42.135  27.163  29.118  1.00  0.00     0.037 A 
ATOM     42  C   UNL A   1      39.752  31.129  34.399  1.00  0.00     0.037 A 
ATOM     43  C   UNL A   1      42.897  27.078  30.336  1.00  0.00     0.049 A 
ATOM     44  C   UNL A   1      40.953  30.240  34.554  1.00  0.00     0.074 A 
ATOM     45  C   UNL A   1      44.042  26.345  30.591  1.00  0.00     0.029 A 
ATOM     46  N   UNL A   1      42.587  27.759  31.504  1.00  0.00    -0.354 N 
ATOM     47  N   UNL A   1      41.526  29.466  33.665  1.00  0.00    -0.248 NA
ATOM     48  C   UNL A   1      41.587  30.208  35.879  1.00  0.00     0.031 C 
ATOM     49  C   UNL A   1      44.409  26.559  31.924  1.00  0.00     0.029 A 
ATOM     50  C   UNL A   1      43.512  27.452  32.489  1.00  0.00     0.049 A 
ATOM     51  H   UNL A   1      41.823  28.369  31.618  1.00  0.00     0.167 HD
ATOM     52  C   UNL A   1      42.596  28.868  34.314  1.00  0.00     0.074 A 
ATOM     53  C   UNL A   1      42.597  29.372  35.672  1.00  0.00     0.031 C 
ATOM     54  C   UNL A   1      43.496  27.979  33.828  1.00  0.00     0.037 A 
BRANCH  41  55
ATOM     55  C   UNL A   1      42.578  26.347  27.944  1.00  0.00     0.064 A 
ATOM     56  C   UNL A   1      42.074  25.060  27.708  1.00  0.00     0.173 A 
ATOM     57  C   UNL A   1      43.494  26.875  27.023  1.00  0.00     0.173 A 
ATOM     58  F   UNL A   1      41.208  24.506  28.570  1.00  0.00    -0.203 F 
ATOM     59  C   UNL A   1      42.484  24.326  26.598  1.00  0.00     0.198 A 
ATOM     60  C   UNL A   1      43.885  26.146  25.904  1.00  0.00     0.198 A 
ATOM     61  F   UNL A   1      44.004  28.103  27.205  1.00  0.00    -0.203 F 
ATOM     62  F   UNL A   1      42.015  23.084  26.408  1.00  0.00    -0.200 F 
ATOM     63  C   UNL A   1      43.384  24.871  25.694  1.00  0.00     0.200 A 
ATOM     64  F   UNL A   1      44.752  26.677  25.028  1.00  0.00    -0.200 F 
ATOM     65  F   UNL A   1      43.772  24.163  24.624  1.00  0.00    -0.200 F 
ENDBRANCH  41  55
BRANCH  42  66
ATOM     66  C   UNL A   1      39.226  31.922  35.538  1.00  0.00     0.064 A 
ATOM     67  C   UNL A   1      38.357  31.348  36.474  1.00  0.00     0.173 A 
ATOM     68  C   UNL A   1      39.602  33.260  35.724  1.00  0.00     0.173 A 
ATOM     69  F   UNL A   1      37.955  30.078  36.324  1.00  0.00    -0.203 F 
ATOM     70  C   UNL A   1      37.881  32.086  37.556  1.00  0.00     0.198 A 
ATOM     71  C   UNL A   1      39.143  33.989  36.818  1.00  0.00     0.198 A 
ATOM     72  F   UNL A   1      40.433  33.851  34.853  1.00  0.00    -0.203 F 
ATOM     73  F   UNL A   1      37.029  31.525  38.424  1.00  0.00    -0.200 F 
ATOM     74  C   UNL A   1      38.280  33.404  37.730  1.00  0.00     0.200 A 
ATOM     75  F   UNL A   1      39.541  35.258  36.989  1.00  0.00    -0.200 F 
ATOM     76  F   UNL A   1      37.828  34.109  38.776  1.00  0.00    -0.200 F 
ENDBRANCH  42  66
BRANCH  54  77
ATOM     77  C   UNL A   1      44.578  27.525  34.759  1.00  0.00     0.064 A 
ATOM     78  C   UNL A   1      44.431  26.369  35.536  1.00  0.00     0.173 A 
ATOM     79  C   UNL A   1      45.793  28.222  34.825  1.00  0.00     0.173 A 
ATOM     80  F   UNL A   1      43.280  25.681  35.514  1.00  0.00    -0.203 F 
ATOM     81  C   UNL A   1      45.466  25.929  36.358  1.00  0.00     0.198 A 
ATOM     82  C   UNL A   1      46.830  27.770  35.634  1.00  0.00     0.198 A 
ATOM     83  F   UNL A   1      45.975  29.332  34.096  1.00  0.00    -0.203 F 
ATOM     84  F   UNL A   1      45.300  24.835  37.113  1.00  0.00    -0.200 F 
ATOM     85  C   UNL A   1      46.665  26.626  36.400  1.00  0.00     0.200 A 
ATOM     86  F   UNL A   1      47.990  28.438  35.669  1.00  0.00    -0.200 F 
ATOM     87  F   UNL A   1      47.663  26.194  37.185  1.00  0.00    -0.200 F 
ENDBRANCH  54  77
ENDBRANCH  28  29
ENDBRANCH  21  23
ENDBRANCH  20  21
ENDBRANCH  19  20
ENDBRANCH   1  19
TORSDOF 13
ENDMDL
