MODEL 1
REMARK VINA RESULT:     -11.5      0.000      0.000
REMARK SMILES CC(C)(C)C(=O)C[N@H+]1CCCC[C@H]1C(=O)OCCOC(=O)c1ccc(-c2c3nc(c(-c4c(F)c(F)c(F)c(F)c4F)c4ccc([nH]4)c(-c4c(F)c(F)c(F)c(F)c4F)c4nc(c(-c5c(F)c(F)c(F)c(F)c5F)c5ccc2[nH]5)C=C4)C=C3)cc1
REMARK SMILES IDX 17 1 16 2 14 3 15 4 13 5 8 6 9 7 10 9 12 10 11 11 7 12 5 13
REMARK SMILES IDX 6 14 2 15 1 16 3 17 4 18 18 19 19 20 20 21 21 22 22 23 23 24
REMARK SMILES IDX 84 25 24 26 83 27 25 28 26 29 27 30 77 31 28 32 82 33 76 34
REMARK SMILES IDX 78 35 29 36 81 37 75 38 74 39 30 41 62 42 42 43 61 44 43 45
REMARK SMILES IDX 46 46 60 47 79 48 44 49 45 50 59 52 80 53 47 54 31 55 32 56
REMARK SMILES IDX 40 57 33 58 34 59 38 60 41 61 35 62 36 63 39 64 37 65 63 66
REMARK SMILES IDX 64 67 72 68 65 69 66 70 70 71 73 72 67 73 68 74 71 75 69 76
REMARK SMILES IDX 48 77 49 78 57 79 50 80 51 81 55 82 58 83 52 84 53 85 56 86
REMARK SMILES IDX 54 87
REMARK H PARENT 8 8 78 40 46 51
REMARK Flexibility Score: inf
ROOT
ATOM      1  C   UNL A   1      31.787  28.260  27.394  1.00  0.00     0.274 C 
ENDROOT
BRANCH   1   2
ATOM      2  O   UNL A   1      31.004  27.347  26.596  1.00  0.00    -0.458 OA
BRANCH   2   3
ATOM      3  C   UNL A   1      31.549  26.984  25.395  1.00  0.00     0.365 C 
ATOM      4  O   UNL A   1      32.756  26.921  25.198  1.00  0.00    -0.245 OA
BRANCH   3   5
ATOM      5  C   UNL A   1      30.453  26.776  24.319  1.00  0.00     0.295 C 
ATOM      6  N   UNL A   1      30.493  27.738  23.171  1.00  0.00    -0.317 N 
ATOM      7  C   UNL A   1      31.593  27.497  22.243  1.00  0.00     0.263 C 
ATOM      8  H   UNL A   1      29.620  27.532  22.684  1.00  0.00     0.349 HD
ATOM      9  C   UNL A   1      31.564  26.086  21.673  1.00  0.00     0.062 C 
ATOM     10  C   UNL A   1      30.420  25.335  23.768  1.00  0.00     0.078 C 
ATOM     11  C   UNL A   1      31.550  25.047  22.783  1.00  0.00     0.013 C 
BRANCH   6  12
ATOM     12  C   UNL A   1      30.425  29.162  23.540  1.00  0.00     0.340 C 
BRANCH  12  13
ATOM     13  C   UNL A   1      29.354  29.883  22.732  1.00  0.00     0.192 C 
ATOM     14  O   UNL A   1      28.956  29.395  21.668  1.00  0.00    -0.293 OA
BRANCH  13  15
ATOM     15  C   UNL A   1      28.838  31.246  23.244  1.00  0.00     0.026 C 
ATOM     16  C   UNL A   1      27.386  31.078  23.723  1.00  0.00     0.019 C 
ATOM     17  C   UNL A   1      28.866  32.282  22.114  1.00  0.00     0.019 C 
ATOM     18  C   UNL A   1      29.688  31.731  24.427  1.00  0.00     0.019 C 
ENDBRANCH  13  15
ENDBRANCH  12  13
ENDBRANCH   6  12
ENDBRANCH   3   5
ENDBRANCH   2   3
ENDBRANCH   1   2
BRANCH   1  19
ATOM     19  C   UNL A   1      31.571  29.710  26.958  1.00  0.00     0.275 C 
BRANCH  19  20
ATOM     20  O   UNL A   1      32.800  30.248  26.442  1.00  0.00    -0.458 OA
BRANCH  20  21
ATOM     21  C   UNL A   1      33.295  31.343  27.067  1.00  0.00     0.338 C 
ATOM     22  O   UNL A   1      32.733  32.415  27.206  1.00  0.00    -0.246 OA
BRANCH  21  23
ATOM     23  C   UNL A   1      34.638  31.050  27.636  1.00  0.00     0.060 A 
ATOM     24  C   UNL A   1      35.017  29.751  27.959  1.00  0.00     0.016 A 
ATOM     25  C   UNL A   1      35.500  32.098  27.957  1.00  0.00     0.016 A 
ATOM     26  C   UNL A   1      36.173  29.512  28.708  1.00  0.00     0.010 A 
ATOM     27  C   UNL A   1      36.723  31.839  28.599  1.00  0.00     0.010 A 
ATOM     28  C   UNL A   1      37.065  30.543  29.025  1.00  0.00    -0.014 A 
BRANCH  28  29
ATOM     29  C   UNL A   1      38.307  30.284  29.826  1.00  0.00     0.031 A 
ATOM     30  C   UNL A   1      39.443  29.485  29.231  1.00  0.00     0.074 A 
ATOM     31  C   UNL A   1      38.469  30.764  31.078  1.00  0.00     0.049 A 
ATOM     32  N   UNL A   1      40.432  28.871  29.833  1.00  0.00    -0.248 NA
ATOM     33  C   UNL A   1      39.459  29.347  27.767  1.00  0.00     0.031 C 
ATOM     34  C   UNL A   1      37.532  31.628  31.796  1.00  0.00     0.029 A 
ATOM     35  N   UNL A   1      39.506  30.602  31.971  1.00  0.00    -0.354 N 
ATOM     36  C   UNL A   1      41.119  28.188  28.836  1.00  0.00     0.074 A 
ATOM     37  C   UNL A   1      40.458  28.493  27.586  1.00  0.00     0.031 C 
ATOM     38  C   UNL A   1      38.067  31.987  32.971  1.00  0.00     0.029 A 
ATOM     39  C   UNL A   1      39.315  31.259  33.163  1.00  0.00     0.049 A 
ATOM     40  H   UNL A   1      40.308  30.067  31.773  1.00  0.00     0.167 HD
ATOM     41  C   UNL A   1      42.191  27.369  28.961  1.00  0.00     0.037 A 
ATOM     42  C   UNL A   1      40.012  31.230  34.316  1.00  0.00     0.037 A 
ATOM     43  C   UNL A   1      42.914  27.151  30.189  1.00  0.00     0.049 A 
ATOM     44  C   UNL A   1      41.181  30.296  34.449  1.00  0.00     0.074 A 
ATOM     45  C   UNL A   1      44.011  26.335  30.417  1.00  0.00     0.029 A 
ATOM     46  N   UNL A   1      42.637  27.786  31.390  1.00  0.00    -0.354 N 
ATOM     47  N   UNL A   1      41.717  29.510  33.550  1.00  0.00    -0.248 NA
ATOM     48  C   UNL A   1      41.803  30.204  35.778  1.00  0.00     0.031 C 
ATOM     49  C   UNL A   1      44.386  26.464  31.760  1.00  0.00     0.029 A 
ATOM     50  C   UNL A   1      43.543  27.384  32.359  1.00  0.00     0.049 A 
ATOM     51  H   UNL A   1      41.905  28.428  31.532  1.00  0.00     0.167 HD
ATOM     52  C   UNL A   1      42.731  28.823  34.202  1.00  0.00     0.074 A 
ATOM     53  C   UNL A   1      42.756  29.306  35.567  1.00  0.00     0.031 C 
ATOM     54  C   UNL A   1      43.554  27.864  33.715  1.00  0.00     0.037 A 
BRANCH  41  55
ATOM     55  C   UNL A   1      42.626  26.596  27.750  1.00  0.00     0.064 A 
ATOM     56  C   UNL A   1      43.618  27.064  26.878  1.00  0.00     0.173 A 
ATOM     57  C   UNL A   1      42.066  25.335  27.491  1.00  0.00     0.173 A 
ATOM     58  F   UNL A   1      44.175  28.268  27.073  1.00  0.00    -0.203 F 
ATOM     59  C   UNL A   1      44.018  26.306  25.780  1.00  0.00     0.198 A 
ATOM     60  C   UNL A   1      42.487  24.568  26.409  1.00  0.00     0.198 A 
ATOM     61  F   UNL A   1      41.117  24.838  28.300  1.00  0.00    -0.203 F 
ATOM     62  F   UNL A   1      44.941  26.788  24.935  1.00  0.00    -0.200 F 
ATOM     63  C   UNL A   1      43.460  25.056  25.551  1.00  0.00     0.200 A 
ATOM     64  F   UNL A   1      41.955  23.356  26.198  1.00  0.00    -0.200 F 
ATOM     65  F   UNL A   1      43.854  24.325  24.499  1.00  0.00    -0.200 F 
ENDBRANCH  41  55
BRANCH  42  66
ATOM     66  C   UNL A   1      39.566  32.055  35.469  1.00  0.00     0.064 A 
ATOM     67  C   UNL A   1      38.640  31.554  36.393  1.00  0.00     0.173 A 
ATOM     68  C   UNL A   1      40.071  33.346  35.683  1.00  0.00     0.173 A 
ATOM     69  F   UNL A   1      38.101  30.340  36.210  1.00  0.00    -0.203 F 
ATOM     70  C   UNL A   1      38.246  32.311  37.495  1.00  0.00     0.198 A 
ATOM     71  C   UNL A   1      39.702  34.087  36.803  1.00  0.00     0.198 A 
ATOM     72  F   UNL A   1      40.952  33.874  34.821  1.00  0.00    -0.203 F 
ATOM     73  F   UNL A   1      37.339  31.821  38.351  1.00  0.00    -0.200 F 
ATOM     74  C   UNL A   1      38.787  33.570  37.707  1.00  0.00     0.200 A 
ATOM     75  F   UNL A   1      40.240  35.297  37.010  1.00  0.00    -0.200 F 
ATOM     76  F   UNL A   1      38.425  34.287  38.779  1.00  0.00    -0.200 F 
ENDBRANCH  42  66
BRANCH  54  77
ATOM     77  C   UNL A   1      44.562  27.287  34.662  1.00  0.00     0.064 A 
ATOM     78  C   UNL A   1      45.813  27.891  34.852  1.00  0.00     0.173 A 
ATOM     79  C   UNL A   1      44.268  26.129  35.397  1.00  0.00     0.173 A 
ATOM     80  F   UNL A   1      46.145  28.989  34.158  1.00  0.00    -0.203 F 
ATOM     81  C   UNL A   1      46.743  27.344  35.732  1.00  0.00     0.198 A 
ATOM     82  C   UNL A   1      45.193  25.596  36.290  1.00  0.00     0.198 A 
ATOM     83  F   UNL A   1      43.083  25.517  35.249  1.00  0.00    -0.203 F 
ATOM     84  F   UNL A   1      47.949  27.912  35.869  1.00  0.00    -0.200 F 
ATOM     85  C   UNL A   1      46.431  26.199  36.452  1.00  0.00     0.200 A 
ATOM     86  F   UNL A   1      44.889  24.494  36.989  1.00  0.00    -0.200 F 
ATOM     87  F   UNL A   1      47.329  25.672  37.296  1.00  0.00    -0.200 F 
ENDBRANCH  54  77
ENDBRANCH  28  29
ENDBRANCH  21  23
ENDBRANCH  20  21
ENDBRANCH  19  20
ENDBRANCH   1  19
TORSDOF 14
ENDMDL
MODEL 2
REMARK VINA RESULT:     -11.3      5.094     10.441
REMARK SMILES CC(C)(C)C(=O)C[N@H+]1CCCC[C@H]1C(=O)OCCOC(=O)c1ccc(-c2c3nc(c(-c4c(F)c(F)c(F)c(F)c4F)c4ccc([nH]4)c(-c4c(F)c(F)c(F)c(F)c4F)c4nc(c(-c5c(F)c(F)c(F)c(F)c5F)c5ccc2[nH]5)C=C4)C=C3)cc1
REMARK SMILES IDX 17 1 16 2 14 3 15 4 13 5 8 6 9 7 10 9 12 10 11 11 7 12 5 13
REMARK SMILES IDX 6 14 2 15 1 16 3 17 4 18 18 19 19 20 20 21 21 22 22 23 23 24
REMARK SMILES IDX 84 25 24 26 83 27 25 28 26 29 27 30 77 31 28 32 82 33 76 34
REMARK SMILES IDX 78 35 29 36 81 37 75 38 74 39 30 41 62 42 42 43 61 44 43 45
REMARK SMILES IDX 46 46 60 47 79 48 44 49 45 50 59 52 80 53 47 54 31 55 32 56
REMARK SMILES IDX 40 57 33 58 34 59 38 60 41 61 35 62 36 63 39 64 37 65 63 66
REMARK SMILES IDX 64 67 72 68 65 69 66 70 70 71 73 72 67 73 68 74 71 75 69 76
REMARK SMILES IDX 48 77 49 78 57 79 50 80 51 81 55 82 58 83 52 84 53 85 56 86
REMARK SMILES IDX 54 87
REMARK H PARENT 8 8 78 40 46 51
REMARK Flexibility Score: inf
ROOT
ATOM      1  C   UNL A   1      36.646  22.773  23.564  1.00  0.00     0.274 C 
ENDROOT
BRANCH   1   2
ATOM      2  O   UNL A   1      35.307  22.738  23.026  1.00  0.00    -0.458 OA
BRANCH   2   3
ATOM      3  C   UNL A   1      34.297  22.963  23.920  1.00  0.00     0.365 C 
ATOM      4  O   UNL A   1      34.416  23.693  24.896  1.00  0.00    -0.245 OA
BRANCH   3   5
ATOM      5  C   UNL A   1      33.051  22.102  23.591  1.00  0.00     0.295 C 
ATOM      6  N   UNL A   1      32.648  21.126  24.655  1.00  0.00    -0.317 N 
ATOM      7  C   UNL A   1      32.034  21.753  25.822  1.00  0.00     0.263 C 
ATOM      8  H   UNL A   1      31.934  20.572  24.184  1.00  0.00     0.349 HD
ATOM      9  C   UNL A   1      30.809  22.577  25.450  1.00  0.00     0.062 C 
ATOM     10  C   UNL A   1      31.825  22.949  23.194  1.00  0.00     0.078 C 
ATOM     11  C   UNL A   1      31.146  23.612  24.389  1.00  0.00     0.013 C 
BRANCH   6  12
ATOM     12  C   UNL A   1      33.695  20.175  25.066  1.00  0.00     0.340 C 
BRANCH  12  13
ATOM     13  C   UNL A   1      33.158  18.749  25.082  1.00  0.00     0.192 C 
ATOM     14  O   UNL A   1      32.080  18.506  25.636  1.00  0.00    -0.293 OA
BRANCH  13  15
ATOM     15  C   UNL A   1      34.017  17.633  24.449  1.00  0.00     0.026 C 
ATOM     16  C   UNL A   1      35.497  18.045  24.522  1.00  0.00     0.019 C 
ATOM     17  C   UNL A   1      33.633  17.438  22.977  1.00  0.00     0.019 C 
ATOM     18  C   UNL A   1      33.839  16.317  25.220  1.00  0.00     0.019 C 
ENDBRANCH  13  15
ENDBRANCH  12  13
ENDBRANCH   6  12
ENDBRANCH   3   5
ENDBRANCH   2   3
ENDBRANCH   1   2
BRANCH   1  19
ATOM     19  C   UNL A   1      37.006  21.456  24.254  1.00  0.00     0.275 C 
BRANCH  19  20
ATOM     20  O   UNL A   1      37.367  21.710  25.622  1.00  0.00    -0.458 OA
BRANCH  20  21
ATOM     21  C   UNL A   1      38.649  21.453  25.971  1.00  0.00     0.338 C 
ATOM     22  O   UNL A   1      39.254  20.409  25.797  1.00  0.00    -0.246 OA
BRANCH  21  23
ATOM     23  C   UNL A   1      39.277  22.665  26.564  1.00  0.00     0.060 A 
ATOM     24  C   UNL A   1      38.859  23.943  26.206  1.00  0.00     0.016 A 
ATOM     25  C   UNL A   1      40.376  22.534  27.412  1.00  0.00     0.016 A 
ATOM     26  C   UNL A   1      39.604  25.066  26.577  1.00  0.00     0.010 A 
ATOM     27  C   UNL A   1      41.045  23.675  27.887  1.00  0.00     0.010 A 
ATOM     28  C   UNL A   1      40.697  24.964  27.445  1.00  0.00    -0.014 A 
BRANCH  28  29
ATOM     29  C   UNL A   1      41.493  26.171  27.846  1.00  0.00     0.031 A 
ATOM     30  C   UNL A   1      40.888  27.212  28.758  1.00  0.00     0.074 A 
ATOM     31  C   UNL A   1      42.766  26.363  27.437  1.00  0.00     0.049 A 
ATOM     32  N   UNL A   1      41.251  28.456  28.957  1.00  0.00    -0.248 NA
ATOM     33  C   UNL A   1      39.710  26.803  29.539  1.00  0.00     0.031 C 
ATOM     34  C   UNL A   1      43.558  25.436  26.628  1.00  0.00     0.029 A 
ATOM     35  N   UNL A   1      43.631  27.410  27.665  1.00  0.00    -0.354 N 
ATOM     36  C   UNL A   1      40.287  29.004  29.795  1.00  0.00     0.074 A 
ATOM     37  C   UNL A   1      39.344  27.949  30.098  1.00  0.00     0.031 C 
ATOM     38  C   UNL A   1      44.805  25.909  26.502  1.00  0.00     0.029 A 
ATOM     39  C   UNL A   1      44.865  27.244  27.084  1.00  0.00     0.049 A 
ATOM     40  H   UNL A   1      43.387  28.203  28.195  1.00  0.00     0.167 HD
ATOM     41  C   UNL A   1      40.192  30.277  30.251  1.00  0.00     0.037 A 
ATOM     42  C   UNL A   1      45.909  28.086  26.958  1.00  0.00     0.037 A 
ATOM     43  C   UNL A   1      41.187  31.297  30.036  1.00  0.00     0.049 A 
ATOM     44  C   UNL A   1      45.779  29.502  27.442  1.00  0.00     0.074 A 
ATOM     45  C   UNL A   1      41.179  32.618  30.455  1.00  0.00     0.029 A 
ATOM     46  N   UNL A   1      42.391  31.099  29.378  1.00  0.00    -0.354 N 
ATOM     47  N   UNL A   1      44.785  30.070  28.076  1.00  0.00    -0.248 NA
ATOM     48  C   UNL A   1      46.897  30.407  27.139  1.00  0.00     0.031 C 
ATOM     49  C   UNL A   1      42.370  33.223  30.034  1.00  0.00     0.029 A 
ATOM     50  C   UNL A   1      43.133  32.270  29.382  1.00  0.00     0.049 A 
ATOM     51  H   UNL A   1      42.676  30.250  28.968  1.00  0.00     0.167 HD
ATOM     52  C   UNL A   1      45.149  31.399  28.239  1.00  0.00     0.074 A 
ATOM     53  C   UNL A   1      46.470  31.547  27.664  1.00  0.00     0.031 C 
ATOM     54  C   UNL A   1      44.442  32.408  28.801  1.00  0.00     0.037 A 
BRANCH  41  55
ATOM     55  C   UNL A   1      38.943  30.665  30.987  1.00  0.00     0.064 A 
ATOM     56  C   UNL A   1      38.848  30.611  32.384  1.00  0.00     0.173 A 
ATOM     57  C   UNL A   1      37.836  31.148  30.271  1.00  0.00     0.173 A 
ATOM     58  F   UNL A   1      39.872  30.145  33.112  1.00  0.00    -0.203 F 
ATOM     59  C   UNL A   1      37.682  31.009  33.035  1.00  0.00     0.198 A 
ATOM     60  C   UNL A   1      36.683  31.570  30.927  1.00  0.00     0.198 A 
ATOM     61  F   UNL A   1      37.878  31.227  28.932  1.00  0.00    -0.203 F 
ATOM     62  F   UNL A   1      37.597  30.913  34.369  1.00  0.00    -0.200 F 
ATOM     63  C   UNL A   1      36.605  31.495  32.309  1.00  0.00     0.200 A 
ATOM     64  F   UNL A   1      35.649  32.052  30.222  1.00  0.00    -0.200 F 
ATOM     65  F   UNL A   1      35.488  31.886  32.939  1.00  0.00    -0.200 F 
ENDBRANCH  41  55
BRANCH  42  66
ATOM     66  C   UNL A   1      47.143  27.633  26.264  1.00  0.00     0.064 A 
ATOM     67  C   UNL A   1      48.233  27.137  26.991  1.00  0.00     0.173 A 
ATOM     68  C   UNL A   1      47.248  27.663  24.865  1.00  0.00     0.173 A 
ATOM     69  F   UNL A   1      48.194  27.123  28.330  1.00  0.00    -0.203 F 
ATOM     70  C   UNL A   1      49.378  26.677  26.342  1.00  0.00     0.198 A 
ATOM     71  C   UNL A   1      48.379  27.172  24.218  1.00  0.00     0.198 A 
ATOM     72  F   UNL A   1      46.236  28.137  24.125  1.00  0.00    -0.203 F 
ATOM     73  F   UNL A   1      50.419  26.232  27.060  1.00  0.00    -0.200 F 
ATOM     74  C   UNL A   1      49.445  26.682  24.957  1.00  0.00     0.200 A 
ATOM     75  F   UNL A   1      48.432  27.164  22.878  1.00  0.00    -0.200 F 
ATOM     76  F   UNL A   1      50.537  26.218  24.334  1.00  0.00    -0.200 F 
ENDBRANCH  42  66
BRANCH  54  77
ATOM     77  C   UNL A   1      45.091  33.758  28.834  1.00  0.00     0.064 A 
ATOM     78  C   UNL A   1      44.874  34.696  27.815  1.00  0.00     0.173 A 
ATOM     79  C   UNL A   1      45.925  34.123  29.901  1.00  0.00     0.173 A 
ATOM     80  F   UNL A   1      44.099  34.386  26.765  1.00  0.00    -0.203 F 
ATOM     81  C   UNL A   1      45.486  35.946  27.853  1.00  0.00     0.198 A 
ATOM     82  C   UNL A   1      46.519  35.381  29.945  1.00  0.00     0.198 A 
ATOM     83  F   UNL A   1      46.162  33.259  30.899  1.00  0.00    -0.203 F 
ATOM     84  F   UNL A   1      45.299  36.814  26.848  1.00  0.00    -0.200 F 
ATOM     85  C   UNL A   1      46.305  36.289  28.919  1.00  0.00     0.200 A 
ATOM     86  F   UNL A   1      47.306  35.712  30.978  1.00  0.00    -0.200 F 
ATOM     87  F   UNL A   1      46.896  37.491  28.953  1.00  0.00    -0.200 F 
ENDBRANCH  54  77
ENDBRANCH  28  29
ENDBRANCH  21  23
ENDBRANCH  20  21
ENDBRANCH  19  20
ENDBRANCH   1  19
TORSDOF 14
ENDMDL
MODEL 3
REMARK VINA RESULT:     -11.3      1.674      3.430
REMARK SMILES CC(C)(C)C(=O)C[N@H+]1CCCC[C@H]1C(=O)OCCOC(=O)c1ccc(-c2c3nc(c(-c4c(F)c(F)c(F)c(F)c4F)c4ccc([nH]4)c(-c4c(F)c(F)c(F)c(F)c4F)c4nc(c(-c5c(F)c(F)c(F)c(F)c5F)c5ccc2[nH]5)C=C4)C=C3)cc1
REMARK SMILES IDX 17 1 16 2 14 3 15 4 13 5 8 6 9 7 10 9 12 10 11 11 7 12 5 13
REMARK SMILES IDX 6 14 2 15 1 16 3 17 4 18 18 19 19 20 20 21 21 22 22 23 23 24
REMARK SMILES IDX 84 25 24 26 83 27 25 28 26 29 27 30 77 31 28 32 82 33 76 34
REMARK SMILES IDX 78 35 29 36 81 37 75 38 74 39 30 41 62 42 42 43 61 44 43 45
REMARK SMILES IDX 46 46 60 47 79 48 44 49 45 50 59 52 80 53 47 54 31 55 32 56
REMARK SMILES IDX 40 57 33 58 34 59 38 60 41 61 35 62 36 63 39 64 37 65 63 66
REMARK SMILES IDX 64 67 72 68 65 69 66 70 70 71 73 72 67 73 68 74 71 75 69 76
REMARK SMILES IDX 48 77 49 78 57 79 50 80 51 81 55 82 58 83 52 84 53 85 56 86
REMARK SMILES IDX 54 87
REMARK H PARENT 8 8 78 40 46 51
REMARK Flexibility Score: inf
ROOT
ATOM      1  C   UNL A   1      31.550  29.079  24.449  1.00  0.00     0.274 C 
ENDROOT
BRANCH   1   2
ATOM      2  O   UNL A   1      32.679  28.193  24.616  1.00  0.00    -0.458 OA
BRANCH   2   3
ATOM      3  C   UNL A   1      32.378  26.882  24.861  1.00  0.00     0.365 C 
ATOM      4  O   UNL A   1      32.051  26.464  25.965  1.00  0.00    -0.245 OA
BRANCH   3   5
ATOM      5  C   UNL A   1      32.610  26.006  23.604  1.00  0.00     0.295 C 
ATOM      6  N   UNL A   1      33.266  24.683  23.857  1.00  0.00    -0.317 N 
ATOM      7  C   UNL A   1      32.389  23.708  24.500  1.00  0.00     0.263 C 
ATOM      8  H   UNL A   1      33.464  24.353  22.913  1.00  0.00     0.349 HD
ATOM      9  C   UNL A   1      31.122  23.459  23.693  1.00  0.00     0.062 C 
ATOM     10  C   UNL A   1      31.323  25.782  22.784  1.00  0.00     0.078 C 
ATOM     11  C   UNL A   1      30.383  24.759  23.418  1.00  0.00     0.013 C 
BRANCH   6  12
ATOM     12  C   UNL A   1      34.566  24.746  24.546  1.00  0.00     0.340 C 
BRANCH  12  13
ATOM     13  C   UNL A   1      35.493  23.640  24.059  1.00  0.00     0.192 C 
ATOM     14  O   UNL A   1      35.542  23.367  22.854  1.00  0.00    -0.293 OA
BRANCH  13  15
ATOM     15  C   UNL A   1      36.307  22.847  25.105  1.00  0.00     0.026 C 
ATOM     16  C   UNL A   1      37.236  23.819  25.850  1.00  0.00     0.019 C 
ATOM     17  C   UNL A   1      37.164  21.781  24.413  1.00  0.00     0.019 C 
ATOM     18  C   UNL A   1      35.369  22.189  26.127  1.00  0.00     0.019 C 
ENDBRANCH  13  15
ENDBRANCH  12  13
ENDBRANCH   6  12
ENDBRANCH   3   5
ENDBRANCH   2   3
ENDBRANCH   1   2
BRANCH   1  19
ATOM     19  C   UNL A   1      31.517  30.154  25.537  1.00  0.00     0.275 C 
BRANCH  19  20
ATOM     20  O   UNL A   1      32.641  29.985  26.418  1.00  0.00    -0.458 OA
BRANCH  20  21
ATOM     21  C   UNL A   1      33.124  31.103  27.008  1.00  0.00     0.338 C 
ATOM     22  O   UNL A   1      32.543  32.166  27.136  1.00  0.00    -0.246 OA
BRANCH  21  23
ATOM     23  C   UNL A   1      34.485  30.851  27.556  1.00  0.00     0.060 A 
ATOM     24  C   UNL A   1      34.929  29.560  27.820  1.00  0.00     0.016 A 
ATOM     25  C   UNL A   1      35.297  31.925  27.919  1.00  0.00     0.016 A 
ATOM     26  C   UNL A   1      36.101  29.345  28.551  1.00  0.00     0.010 A 
ATOM     27  C   UNL A   1      36.537  31.698  28.541  1.00  0.00     0.010 A 
ATOM     28  C   UNL A   1      36.945  30.403  28.908  1.00  0.00    -0.014 A 
BRANCH  28  29
ATOM     29  C   UNL A   1      38.203  30.170  29.690  1.00  0.00     0.031 A 
ATOM     30  C   UNL A   1      39.336  29.371  29.088  1.00  0.00     0.074 A 
ATOM     31  C   UNL A   1      38.385  30.675  30.930  1.00  0.00     0.049 A 
ATOM     32  N   UNL A   1      40.342  28.776  29.682  1.00  0.00    -0.248 NA
ATOM     33  C   UNL A   1      39.325  29.205  27.626  1.00  0.00     0.031 C 
ATOM     34  C   UNL A   1      37.454  31.543  31.649  1.00  0.00     0.029 A 
ATOM     35  N   UNL A   1      39.440  30.538  31.806  1.00  0.00    -0.354 N 
ATOM     36  C   UNL A   1      41.016  28.082  28.685  1.00  0.00     0.074 A 
ATOM     37  C   UNL A   1      40.329  28.357  27.441  1.00  0.00     0.031 C 
ATOM     38  C   UNL A   1      38.008  31.928  32.807  1.00  0.00     0.029 A 
ATOM     39  C   UNL A   1      39.266  31.215  32.988  1.00  0.00     0.049 A 
ATOM     40  H   UNL A   1      40.243  30.006  31.602  1.00  0.00     0.167 HD
ATOM     41  C   UNL A   1      42.098  27.274  28.804  1.00  0.00     0.037 A 
ATOM     42  C   UNL A   1      39.985  31.213  34.128  1.00  0.00     0.037 A 
ATOM     43  C   UNL A   1      42.846  27.086  30.022  1.00  0.00     0.049 A 
ATOM     44  C   UNL A   1      41.164  30.292  34.256  1.00  0.00     0.074 A 
ATOM     45  C   UNL A   1      43.954  26.284  30.243  1.00  0.00     0.029 A 
ATOM     46  N   UNL A   1      42.586  27.740  31.216  1.00  0.00    -0.354 N 
ATOM     47  N   UNL A   1      41.691  29.495  33.361  1.00  0.00    -0.248 NA
ATOM     48  C   UNL A   1      41.813  30.231  35.574  1.00  0.00     0.031 C 
ATOM     49  C   UNL A   1      44.353  26.441  31.576  1.00  0.00     0.029 A 
ATOM     50  C   UNL A   1      43.514  27.364  32.174  1.00  0.00     0.049 A 
ATOM     51  H   UNL A   1      41.851  28.378  31.360  1.00  0.00     0.167 HD
ATOM     52  C   UNL A   1      42.723  28.829  34.006  1.00  0.00     0.074 A 
ATOM     53  C   UNL A   1      42.769  29.337  35.362  1.00  0.00     0.031 C 
ATOM     54  C   UNL A   1      43.546  27.869  33.521  1.00  0.00     0.037 A 
BRANCH  41  55
ATOM     55  C   UNL A   1      42.517  26.484  27.598  1.00  0.00     0.064 A 
ATOM     56  C   UNL A   1      43.539  26.909  26.740  1.00  0.00     0.173 A 
ATOM     57  C   UNL A   1      41.908  25.246  27.333  1.00  0.00     0.173 A 
ATOM     58  F   UNL A   1      44.143  28.089  26.943  1.00  0.00    -0.203 F 
ATOM     59  C   UNL A   1      43.923  26.134  25.648  1.00  0.00     0.198 A 
ATOM     60  C   UNL A   1      42.312  24.462  26.256  1.00  0.00     0.198 A 
ATOM     61  F   UNL A   1      40.929  24.790  28.128  1.00  0.00    -0.203 F 
ATOM     62  F   UNL A   1      44.876  26.577  24.817  1.00  0.00    -0.200 F 
ATOM     63  C   UNL A   1      43.316  24.909  25.411  1.00  0.00     0.200 A 
ATOM     64  F   UNL A   1      41.733  23.273  26.038  1.00  0.00    -0.200 F 
ATOM     65  F   UNL A   1      43.695  24.161  24.365  1.00  0.00    -0.200 F 
ENDBRANCH  41  55
BRANCH  42  66
ATOM     66  C   UNL A   1      39.553  32.055  35.274  1.00  0.00     0.064 A 
ATOM     67  C   UNL A   1      39.994  33.380  35.397  1.00  0.00     0.173 A 
ATOM     68  C   UNL A   1      38.676  31.564  36.253  1.00  0.00     0.173 A 
ATOM     69  F   UNL A   1      40.861  33.882  34.506  1.00  0.00    -0.203 F 
ATOM     70  C   UNL A   1      39.562  34.184  36.450  1.00  0.00     0.198 A 
ATOM     71  C   UNL A   1      38.220  32.380  37.286  1.00  0.00     0.198 A 
ATOM     72  F   UNL A   1      38.234  30.300  36.185  1.00  0.00    -0.203 F 
ATOM     73  F   UNL A   1      40.019  35.440  36.561  1.00  0.00    -0.200 F 
ATOM     74  C   UNL A   1      38.667  33.688  37.385  1.00  0.00     0.200 A 
ATOM     75  F   UNL A   1      37.342  31.900  38.178  1.00  0.00    -0.200 F 
ATOM     76  F   UNL A   1      38.235  34.470  38.384  1.00  0.00    -0.200 F 
ENDBRANCH  42  66
BRANCH  54  77
ATOM     77  C   UNL A   1      44.577  27.319  34.459  1.00  0.00     0.064 A 
ATOM     78  C   UNL A   1      45.826  27.936  34.613  1.00  0.00     0.173 A 
ATOM     79  C   UNL A   1      44.307  26.173  35.222  1.00  0.00     0.173 A 
ATOM     80  F   UNL A   1      46.135  29.023  33.891  1.00  0.00    -0.203 F 
ATOM     81  C   UNL A   1      46.778  27.413  35.484  1.00  0.00     0.198 A 
ATOM     82  C   UNL A   1      45.254  25.665  36.107  1.00  0.00     0.198 A 
ATOM     83  F   UNL A   1      43.125  25.548  35.109  1.00  0.00    -0.203 F 
ATOM     84  F   UNL A   1      47.981  27.994  35.587  1.00  0.00    -0.200 F 
ATOM     85  C   UNL A   1      46.490  26.281  36.233  1.00  0.00     0.200 A 
ATOM     86  F   UNL A   1      44.973  24.574  36.832  1.00  0.00    -0.200 F 
ATOM     87  F   UNL A   1      47.409  25.777  37.068  1.00  0.00    -0.200 F 
ENDBRANCH  54  77
ENDBRANCH  28  29
ENDBRANCH  21  23
ENDBRANCH  20  21
ENDBRANCH  19  20
ENDBRANCH   1  19
TORSDOF 14
ENDMDL
