MODEL 1
REMARK VINA RESULT:     -11.5      0.000      0.000
REMARK SMILES CC[C@H](C)[C@@H](NC(=O)[C@@H]1CCCN1C(=O)C1CC1)C(=O)OCCOC(=O)c1ccc(-c2c3nc(c(-c4c(F)c(F)c(F)c(F)c4F)c4ccc([nH]4)c(-c4c(F)c(F)c(F)c(F)c4F)c4nc(c(-c5c(F)c(F)c(F)c(F)c5F)c5ccc2[nH]5)C=C4)C=C3)cc1
REMARK SMILES IDX 22 1 21 2 19 3 20 4 5 5 3 6 4 7 2 8 1 9 6 10 7 11 8 13 9 14
REMARK SMILES IDX 10 15 13 16 11 17 12 18 14 19 15 20 16 21 17 22 18 23 23 24
REMARK SMILES IDX 24 25 25 26 26 27 27 28 28 29 89 30 29 31 88 32 30 33 31 34
REMARK SMILES IDX 32 35 82 36 33 37 87 38 81 39 83 40 34 41 86 42 80 43 79 44
REMARK SMILES IDX 35 46 67 47 47 48 66 49 48 50 51 51 65 52 84 53 49 54 50 55
REMARK SMILES IDX 64 57 85 58 52 59 36 60 37 61 45 62 38 63 39 64 43 65 46 66
REMARK SMILES IDX 40 67 41 68 44 69 42 70 68 71 69 72 77 73 70 74 71 75 75 76
REMARK SMILES IDX 78 77 72 78 73 79 76 80 74 81 53 82 54 83 62 84 55 85 56 86
REMARK SMILES IDX 60 87 63 88 57 89 58 90 61 91 59 92
REMARK H PARENT 6 12 83 45 51 56
REMARK Flexibility Score: inf
ROOT
ATOM      1  C   UNL A   1      36.004  20.796  24.634  1.00  0.00     0.274 C 
ENDROOT
BRANCH   1   2
ATOM      2  O   UNL A   1      35.242  21.213  25.787  1.00  0.00    -0.461 OA
BRANCH   2   3
ATOM      3  C   UNL A   1      33.950  20.796  25.817  1.00  0.00     0.329 C 
ATOM      4  O   UNL A   1      33.331  20.546  26.848  1.00  0.00    -0.250 OA
BRANCH   3   5
ATOM      5  C   UNL A   1      33.332  20.546  24.427  1.00  0.00     0.195 C 
BRANCH   5   6
ATOM      6  C   UNL A   1      32.724  19.130  24.189  1.00  0.00     0.019 C 
ATOM      7  C   UNL A   1      32.171  19.011  22.757  1.00  0.00     0.010 C 
BRANCH   6   8
ATOM      8  C   UNL A   1      33.784  18.032  24.475  1.00  0.00     0.002 C 
ATOM      9  C   UNL A   1      33.942  16.921  23.449  1.00  0.00     0.004 C 
ENDBRANCH   6   8
ENDBRANCH   5   6
BRANCH   5  10
ATOM     10  N   UNL A   1      32.402  21.653  24.162  1.00  0.00    -0.341 N 
ATOM     11  C   UNL A   1      32.790  22.651  23.292  1.00  0.00     0.243 C 
ATOM     12  H   UNL A   1      31.518  21.680  24.596  1.00  0.00     0.164 HD
ATOM     13  O   UNL A   1      32.885  22.409  22.089  1.00  0.00    -0.273 OA
BRANCH  11  14
ATOM     14  C   UNL A   1      32.903  24.089  23.865  1.00  0.00     0.174 C 
ATOM     15  C   UNL A   1      34.389  24.474  23.942  1.00  0.00     0.037 C 
ATOM     16  N   UNL A   1      32.371  24.295  25.209  1.00  0.00    -0.330 N 
ATOM     17  C   UNL A   1      34.713  24.709  25.411  1.00  0.00     0.024 C 
ATOM     18  C   UNL A   1      33.385  24.763  26.130  1.00  0.00     0.120 C 
BRANCH  16  19
ATOM     19  C   UNL A   1      31.059  24.329  25.639  1.00  0.00     0.226 C 
ATOM     20  O   UNL A   1      30.534  23.342  26.150  1.00  0.00    -0.275 OA
BRANCH  19  21
ATOM     21  C   UNL A   1      30.267  25.591  25.665  1.00  0.00     0.079 C 
ATOM     22  C   UNL A   1      30.597  26.982  25.206  1.00  0.00     0.014 C 
ATOM     23  C   UNL A   1      29.703  26.123  24.365  1.00  0.00     0.014 C 
ENDBRANCH  19  21
ENDBRANCH  16  19
ENDBRANCH  11  14
ENDBRANCH   5  10
ENDBRANCH   3   5
ENDBRANCH   2   3
ENDBRANCH   1   2
BRANCH   1  24
ATOM     24  C   UNL A   1      37.479  20.558  24.952  1.00  0.00     0.275 C 
BRANCH  24  25
ATOM     25  O   UNL A   1      38.072  21.729  25.544  1.00  0.00    -0.458 OA
BRANCH  25  26
ATOM     26  C   UNL A   1      39.263  21.523  26.142  1.00  0.00     0.338 C 
ATOM     27  O   UNL A   1      39.986  20.546  26.050  1.00  0.00    -0.246 OA
BRANCH  26  28
ATOM     28  C   UNL A   1      39.673  22.712  26.899  1.00  0.00     0.060 A 
ATOM     29  C   UNL A   1      39.118  23.944  26.545  1.00  0.00     0.016 A 
ATOM     30  C   UNL A   1      40.754  22.645  27.775  1.00  0.00     0.016 A 
ATOM     31  C   UNL A   1      39.690  25.127  26.995  1.00  0.00     0.010 A 
ATOM     32  C   UNL A   1      41.314  23.833  28.250  1.00  0.00     0.010 A 
ATOM     33  C   UNL A   1      40.817  25.077  27.818  1.00  0.00    -0.014 A 
BRANCH  33  34
ATOM     34  C   UNL A   1      41.574  26.314  28.099  1.00  0.00     0.031 A 
ATOM     35  C   UNL A   1      40.903  27.409  28.877  1.00  0.00     0.074 A 
ATOM     36  C   UNL A   1      42.848  26.447  27.694  1.00  0.00     0.049 A 
ATOM     37  N   UNL A   1      41.290  28.642  29.080  1.00  0.00    -0.248 NA
ATOM     38  C   UNL A   1      39.621  27.067  29.513  1.00  0.00     0.031 C 
ATOM     39  C   UNL A   1      43.631  25.413  27.019  1.00  0.00     0.029 A 
ATOM     40  N   UNL A   1      43.700  27.516  27.783  1.00  0.00    -0.354 N 
ATOM     41  C   UNL A   1      40.282  29.232  29.830  1.00  0.00     0.074 A 
ATOM     42  C   UNL A   1      39.268  28.225  30.053  1.00  0.00     0.031 C 
ATOM     43  C   UNL A   1      44.847  25.907  26.736  1.00  0.00     0.029 A 
ATOM     44  C   UNL A   1      44.903  27.304  27.157  1.00  0.00     0.049 A 
ATOM     45  H   UNL A   1      43.473  28.353  28.250  1.00  0.00     0.167 HD
ATOM     46  C   UNL A   1      40.211  30.505  30.284  1.00  0.00     0.037 A 
ATOM     47  C   UNL A   1      45.909  28.161  26.908  1.00  0.00     0.037 A 
ATOM     48  C   UNL A   1      41.237  31.491  30.073  1.00  0.00     0.049 A 
ATOM     49  C   UNL A   1      45.782  29.590  27.364  1.00  0.00     0.074 A 
ATOM     50  C   UNL A   1      41.260  32.817  30.465  1.00  0.00     0.029 A 
ATOM     51  N   UNL A   1      42.434  31.246  29.413  1.00  0.00    -0.354 N 
ATOM     52  N   UNL A   1      44.800  30.167  28.011  1.00  0.00    -0.248 NA
ATOM     53  C   UNL A   1      46.899  30.489  27.042  1.00  0.00     0.031 C 
ATOM     54  C   UNL A   1      42.460  33.383  30.018  1.00  0.00     0.029 A 
ATOM     55  C   UNL A   1      43.199  32.399  29.379  1.00  0.00     0.049 A 
ATOM     56  H   UNL A   1      42.699  30.381  29.027  1.00  0.00     0.167 HD
ATOM     57  C   UNL A   1      45.180  31.490  28.184  1.00  0.00     0.074 A 
ATOM     58  C   UNL A   1      46.493  31.628  27.587  1.00  0.00     0.031 C 
ATOM     59  C   UNL A   1      44.505  32.503  28.780  1.00  0.00     0.037 A 
BRANCH  46  60
ATOM     60  C   UNL A   1      38.964  30.910  31.010  1.00  0.00     0.064 A 
ATOM     61  C   UNL A   1      37.856  31.443  30.337  1.00  0.00     0.173 A 
ATOM     62  C   UNL A   1      38.877  30.754  32.401  1.00  0.00     0.173 A 
ATOM     63  F   UNL A   1      37.898  31.631  29.009  1.00  0.00    -0.203 F 
ATOM     64  C   UNL A   1      36.712  31.826  31.035  1.00  0.00     0.198 A 
ATOM     65  C   UNL A   1      37.724  31.116  33.093  1.00  0.00     0.198 A 
ATOM     66  F   UNL A   1      39.911  30.250  33.091  1.00  0.00    -0.203 F 
ATOM     67  F   UNL A   1      35.680  32.373  30.378  1.00  0.00    -0.200 F 
ATOM     68  C   UNL A   1      36.646  31.657  32.410  1.00  0.00     0.200 A 
ATOM     69  F   UNL A   1      37.659  30.947  34.421  1.00  0.00    -0.200 F 
ATOM     70  F   UNL A   1      35.545  32.026  33.079  1.00  0.00    -0.200 F 
ENDBRANCH  46  60
BRANCH  47  71
ATOM     71  C   UNL A   1      47.096  27.700  26.147  1.00  0.00     0.064 A 
ATOM     72  C   UNL A   1      48.227  27.199  26.803  1.00  0.00     0.173 A 
ATOM     73  C   UNL A   1      47.118  27.742  24.744  1.00  0.00     0.173 A 
ATOM     74  F   UNL A   1      48.263  27.165  28.144  1.00  0.00    -0.203 F 
ATOM     75  C   UNL A   1      49.339  26.762  26.086  1.00  0.00     0.198 A 
ATOM     76  C   UNL A   1      48.220  27.281  24.027  1.00  0.00     0.198 A 
ATOM     77  F   UNL A   1      46.060  28.215  24.070  1.00  0.00    -0.203 F 
ATOM     78  F   UNL A   1      50.423  26.320  26.738  1.00  0.00    -0.200 F 
ATOM     79  C   UNL A   1      49.332  26.797  24.699  1.00  0.00     0.200 A 
ATOM     80  F   UNL A   1      48.204  27.308  22.688  1.00  0.00    -0.200 F 
ATOM     81  F   UNL A   1      50.399  26.370  24.010  1.00  0.00    -0.200 F 
ENDBRANCH  47  71
BRANCH  59  82
ATOM     82  C   UNL A   1      45.186  33.836  28.835  1.00  0.00     0.064 A 
ATOM     83  C   UNL A   1      44.985  34.801  27.839  1.00  0.00     0.173 A 
ATOM     84  C   UNL A   1      46.014  34.165  29.918  1.00  0.00     0.173 A 
ATOM     85  F   UNL A   1      44.212  34.523  26.777  1.00  0.00    -0.203 F 
ATOM     86  C   UNL A   1      45.604  36.045  27.915  1.00  0.00     0.198 A 
ATOM     87  C   UNL A   1      46.614  35.418  30.002  1.00  0.00     0.198 A 
ATOM     88  F   UNL A   1      46.231  33.275  30.897  1.00  0.00    -0.203 F 
ATOM     89  F   UNL A   1      45.428  36.940  26.934  1.00  0.00    -0.200 F 
ATOM     90  C   UNL A   1      46.413  36.354  28.999  1.00  0.00     0.200 A 
ATOM     91  F   UNL A   1      47.389  35.718  31.053  1.00  0.00    -0.200 F 
ATOM     92  F   UNL A   1      47.005  37.553  29.073  1.00  0.00    -0.200 F 
ENDBRANCH  59  82
ENDBRANCH  33  34
ENDBRANCH  26  28
ENDBRANCH  25  26
ENDBRANCH  24  25
ENDBRANCH   1  24
TORSDOF 17
ENDMDL
MODEL 2
REMARK VINA RESULT:     -11.4      4.331      9.860
REMARK SMILES CC[C@H](C)[C@@H](NC(=O)[C@@H]1CCCN1C(=O)C1CC1)C(=O)OCCOC(=O)c1ccc(-c2c3nc(c(-c4c(F)c(F)c(F)c(F)c4F)c4ccc([nH]4)c(-c4c(F)c(F)c(F)c(F)c4F)c4nc(c(-c5c(F)c(F)c(F)c(F)c5F)c5ccc2[nH]5)C=C4)C=C3)cc1
REMARK SMILES IDX 22 1 21 2 19 3 20 4 5 5 3 6 4 7 2 8 1 9 6 10 7 11 8 13 9 14
REMARK SMILES IDX 10 15 13 16 11 17 12 18 14 19 15 20 16 21 17 22 18 23 23 24
REMARK SMILES IDX 24 25 25 26 26 27 27 28 28 29 89 30 29 31 88 32 30 33 31 34
REMARK SMILES IDX 32 35 82 36 33 37 87 38 81 39 83 40 34 41 86 42 80 43 79 44
REMARK SMILES IDX 35 46 67 47 47 48 66 49 48 50 51 51 65 52 84 53 49 54 50 55
REMARK SMILES IDX 64 57 85 58 52 59 36 60 37 61 45 62 38 63 39 64 43 65 46 66
REMARK SMILES IDX 40 67 41 68 44 69 42 70 68 71 69 72 77 73 70 74 71 75 75 76
REMARK SMILES IDX 78 77 72 78 73 79 76 80 74 81 53 82 54 83 62 84 55 85 56 86
REMARK SMILES IDX 60 87 63 88 57 89 58 90 61 91 59 92
REMARK H PARENT 6 12 83 45 51 56
REMARK Flexibility Score: inf
ROOT
ATOM      1  C   UNL A   1      32.291  29.223  25.427  1.00  0.00     0.274 C 
ENDROOT
BRANCH   1   2
ATOM      2  O   UNL A   1      33.133  29.475  24.282  1.00  0.00    -0.461 OA
BRANCH   2   3
ATOM      3  C   UNL A   1      33.234  28.454  23.393  1.00  0.00     0.329 C 
ATOM      4  O   UNL A   1      33.671  28.575  22.252  1.00  0.00    -0.250 OA
BRANCH   3   5
ATOM      5  C   UNL A   1      32.644  27.119  23.891  1.00  0.00     0.195 C 
BRANCH   5   6
ATOM      6  C   UNL A   1      31.271  26.704  23.282  1.00  0.00     0.019 C 
ATOM      7  C   UNL A   1      30.289  26.288  24.392  1.00  0.00     0.010 C 
BRANCH   6   8
ATOM      8  C   UNL A   1      30.690  27.859  22.423  1.00  0.00     0.002 C 
ATOM      9  C   UNL A   1      29.463  28.584  22.953  1.00  0.00     0.004 C 
ENDBRANCH   6   8
ENDBRANCH   5   6
BRANCH   5  10
ATOM     10  N   UNL A   1      33.697  26.103  23.751  1.00  0.00    -0.341 N 
ATOM     11  C   UNL A   1      33.556  25.132  22.781  1.00  0.00     0.243 C 
ATOM     12  H   UNL A   1      34.488  26.116  24.338  1.00  0.00     0.164 HD
ATOM     13  O   UNL A   1      33.656  25.436  21.593  1.00  0.00    -0.273 OA
BRANCH  11  14
ATOM     14  C   UNL A   1      33.464  23.657  23.260  1.00  0.00     0.174 C 
ATOM     15  C   UNL A   1      31.999  23.202  23.176  1.00  0.00     0.037 C 
ATOM     16  N   UNL A   1      33.883  23.395  24.633  1.00  0.00    -0.330 N 
ATOM     17  C   UNL A   1      31.556  22.864  24.594  1.00  0.00     0.024 C 
ATOM     18  C   UNL A   1      32.815  22.827  25.429  1.00  0.00     0.120 C 
BRANCH  16  19
ATOM     19  C   UNL A   1      35.151  23.393  25.181  1.00  0.00     0.226 C 
ATOM     20  O   UNL A   1      35.687  24.440  25.537  1.00  0.00    -0.275 OA
BRANCH  19  21
ATOM     21  C   UNL A   1      35.865  22.131  25.522  1.00  0.00     0.079 C 
ATOM     22  C   UNL A   1      35.788  20.754  24.928  1.00  0.00     0.014 C 
ATOM     23  C   UNL A   1      36.952  21.635  24.592  1.00  0.00     0.014 C 
ENDBRANCH  19  21
ENDBRANCH  16  19
ENDBRANCH  11  14
ENDBRANCH   5  10
ENDBRANCH   3   5
ENDBRANCH   2   3
ENDBRANCH   1   2
BRANCH   1  24
ATOM     24  C   UNL A   1      31.898  30.501  26.167  1.00  0.00     0.275 C 
BRANCH  24  25
ATOM     25  O   UNL A   1      32.627  30.621  27.403  1.00  0.00    -0.458 OA
BRANCH  25  26
ATOM     26  C   UNL A   1      33.402  31.722  27.501  1.00  0.00     0.338 C 
ATOM     27  O   UNL A   1      33.051  32.888  27.457  1.00  0.00    -0.246 OA
BRANCH  26  28
ATOM     28  C   UNL A   1      34.795  31.349  27.774  1.00  0.00     0.060 A 
ATOM     29  C   UNL A   1      35.078  30.010  28.053  1.00  0.00     0.016 A 
ATOM     30  C   UNL A   1      35.755  32.337  27.980  1.00  0.00     0.016 A 
ATOM     31  C   UNL A   1      36.293  29.654  28.624  1.00  0.00     0.010 A 
ATOM     32  C   UNL A   1      36.988  31.977  28.529  1.00  0.00     0.010 A 
ATOM     33  C   UNL A   1      37.239  30.643  28.902  1.00  0.00    -0.014 A 
BRANCH  33  34
ATOM     34  C   UNL A   1      38.422  30.315  29.725  1.00  0.00     0.031 A 
ATOM     35  C   UNL A   1      39.456  29.383  29.161  1.00  0.00     0.074 A 
ATOM     36  C   UNL A   1      38.586  30.862  30.940  1.00  0.00     0.049 A 
ATOM     37  N   UNL A   1      40.466  28.805  29.757  1.00  0.00    -0.248 NA
ATOM     38  C   UNL A   1      39.333  29.058  27.732  1.00  0.00     0.031 C 
ATOM     39  C   UNL A   1      37.699  31.853  31.546  1.00  0.00     0.029 A 
ATOM     40  N   UNL A   1      39.554  30.648  31.885  1.00  0.00    -0.354 N 
ATOM     41  C   UNL A   1      41.073  28.020  28.787  1.00  0.00     0.074 A 
ATOM     42  C   UNL A   1      40.324  28.196  27.563  1.00  0.00     0.031 C 
ATOM     43  C   UNL A   1      38.154  32.148  32.775  1.00  0.00     0.029 A 
ATOM     44  C   UNL A   1      39.325  31.324  33.058  1.00  0.00     0.049 A 
ATOM     45  H   UNL A   1      40.335  30.067  31.740  1.00  0.00     0.167 HD
ATOM     46  C   UNL A   1      42.156  27.217  28.916  1.00  0.00     0.037 A 
ATOM     47  C   UNL A   1      39.962  31.242  34.240  1.00  0.00     0.037 A 
ATOM     48  C   UNL A   1      42.905  27.068  30.135  1.00  0.00     0.049 A 
ATOM     49  C   UNL A   1      41.124  30.295  34.380  1.00  0.00     0.074 A 
ATOM     50  C   UNL A   1      44.002  26.265  30.386  1.00  0.00     0.029 A 
ATOM     51  N   UNL A   1      42.630  27.752  31.310  1.00  0.00    -0.354 N 
ATOM     52  N   UNL A   1      41.654  29.499  33.484  1.00  0.00    -0.248 NA
ATOM     53  C   UNL A   1      41.765  30.225  35.701  1.00  0.00     0.031 C 
ATOM     54  C   UNL A   1      44.375  26.442  31.724  1.00  0.00     0.029 A 
ATOM     55  C   UNL A   1      43.531  27.383  32.294  1.00  0.00     0.049 A 
ATOM     56  H   UNL A   1      41.901  28.404  31.428  1.00  0.00     0.167 HD
ATOM     57  C   UNL A   1      42.696  28.842  34.125  1.00  0.00     0.074 A 
ATOM     58  C   UNL A   1      42.733  29.346  35.483  1.00  0.00     0.031 C 
ATOM     59  C   UNL A   1      43.545  27.905  33.637  1.00  0.00     0.037 A 
BRANCH  46  60
ATOM     60  C   UNL A   1      42.562  26.410  27.720  1.00  0.00     0.064 A 
ATOM     61  C   UNL A   1      43.549  26.854  26.828  1.00  0.00     0.173 A 
ATOM     62  C   UNL A   1      41.956  25.171  27.468  1.00  0.00     0.173 A 
ATOM     63  F   UNL A   1      44.143  28.041  27.015  1.00  0.00    -0.203 F 
ATOM     64  C   UNL A   1      43.899  26.093  25.714  1.00  0.00     0.198 A 
ATOM     65  C   UNL A   1      42.324  24.403  26.367  1.00  0.00     0.198 A 
ATOM     66  F   UNL A   1      41.004  24.704  28.290  1.00  0.00    -0.203 F 
ATOM     67  F   UNL A   1      44.815  26.554  24.851  1.00  0.00    -0.200 F 
ATOM     68  C   UNL A   1      43.291  24.867  25.488  1.00  0.00     0.200 A 
ATOM     69  F   UNL A   1      41.739  23.216  26.153  1.00  0.00    -0.200 F 
ATOM     70  F   UNL A   1      43.629  24.138  24.416  1.00  0.00    -0.200 F 
ENDBRANCH  46  60
BRANCH  47  71
ATOM     71  C   UNL A   1      39.478  32.041  35.393  1.00  0.00     0.064 A 
ATOM     72  C   UNL A   1      39.900  33.363  35.584  1.00  0.00     0.173 A 
ATOM     73  C   UNL A   1      38.575  31.500  36.320  1.00  0.00     0.173 A 
ATOM     74  F   UNL A   1      40.784  33.913  34.738  1.00  0.00    -0.203 F 
ATOM     75  C   UNL A   1      39.441  34.113  36.665  1.00  0.00     0.198 A 
ATOM     76  C   UNL A   1      38.097  32.260  37.386  1.00  0.00     0.198 A 
ATOM     77  F   UNL A   1      38.144  30.238  36.181  1.00  0.00    -0.203 F 
ATOM     78  F   UNL A   1      39.886  35.363  36.848  1.00  0.00    -0.200 F 
ATOM     79  C   UNL A   1      38.535  33.564  37.561  1.00  0.00     0.200 A 
ATOM     80  F   UNL A   1      37.215  31.728  38.243  1.00  0.00    -0.200 F 
ATOM     81  F   UNL A   1      38.089  34.288  38.595  1.00  0.00    -0.200 F 
ENDBRANCH  47  71
BRANCH  59  82
ATOM     82  C   UNL A   1      44.595  27.386  34.570  1.00  0.00     0.064 A 
ATOM     83  C   UNL A   1      44.386  26.231  35.334  1.00  0.00     0.173 A 
ATOM     84  C   UNL A   1      45.839  28.028  34.665  1.00  0.00     0.173 A 
ATOM     85  F   UNL A   1      43.206  25.593  35.286  1.00  0.00    -0.203 F 
ATOM     86  C   UNL A   1      45.380  25.745  36.179  1.00  0.00     0.198 A 
ATOM     87  C   UNL A   1      46.838  27.527  35.493  1.00  0.00     0.198 A 
ATOM     88  F   UNL A   1      46.085  29.133  33.948  1.00  0.00    -0.203 F 
ATOM     89  F   UNL A   1      45.147  24.659  36.929  1.00  0.00    -0.200 F 
ATOM     90  C   UNL A   1      46.607  26.390  36.253  1.00  0.00     0.200 A 
ATOM     91  F   UNL A   1      48.025  28.146  35.559  1.00  0.00    -0.200 F 
ATOM     92  F   UNL A   1      47.564  25.918  37.062  1.00  0.00    -0.200 F 
ENDBRANCH  59  82
ENDBRANCH  33  34
ENDBRANCH  26  28
ENDBRANCH  25  26
ENDBRANCH  24  25
ENDBRANCH   1  24
TORSDOF 17
ENDMDL
MODEL 3
REMARK VINA RESULT:     -11.4      4.512      9.561
REMARK SMILES CC[C@H](C)[C@@H](NC(=O)[C@@H]1CCCN1C(=O)C1CC1)C(=O)OCCOC(=O)c1ccc(-c2c3nc(c(-c4c(F)c(F)c(F)c(F)c4F)c4ccc([nH]4)c(-c4c(F)c(F)c(F)c(F)c4F)c4nc(c(-c5c(F)c(F)c(F)c(F)c5F)c5ccc2[nH]5)C=C4)C=C3)cc1
REMARK SMILES IDX 22 1 21 2 19 3 20 4 5 5 3 6 4 7 2 8 1 9 6 10 7 11 8 13 9 14
REMARK SMILES IDX 10 15 13 16 11 17 12 18 14 19 15 20 16 21 17 22 18 23 23 24
REMARK SMILES IDX 24 25 25 26 26 27 27 28 28 29 89 30 29 31 88 32 30 33 31 34
REMARK SMILES IDX 32 35 82 36 33 37 87 38 81 39 83 40 34 41 86 42 80 43 79 44
REMARK SMILES IDX 35 46 67 47 47 48 66 49 48 50 51 51 65 52 84 53 49 54 50 55
REMARK SMILES IDX 64 57 85 58 52 59 36 60 37 61 45 62 38 63 39 64 43 65 46 66
REMARK SMILES IDX 40 67 41 68 44 69 42 70 68 71 69 72 77 73 70 74 71 75 75 76
REMARK SMILES IDX 78 77 72 78 73 79 76 80 74 81 53 82 54 83 62 84 55 85 56 86
REMARK SMILES IDX 60 87 63 88 57 89 58 90 61 91 59 92
REMARK H PARENT 6 12 83 45 51 56
REMARK Flexibility Score: inf
ROOT
ATOM      1  C   UNL A   1      31.944  28.364  27.521  1.00  0.00     0.274 C 
ENDROOT
BRANCH   1   2
ATOM      2  O   UNL A   1      31.711  27.428  26.447  1.00  0.00    -0.461 OA
BRANCH   2   3
ATOM      3  C   UNL A   1      32.756  26.617  26.141  1.00  0.00     0.329 C 
ATOM      4  O   UNL A   1      33.932  26.970  26.164  1.00  0.00    -0.250 OA
BRANCH   3   5
ATOM      5  C   UNL A   1      32.346  25.216  25.644  1.00  0.00     0.195 C 
BRANCH   5   6
ATOM      6  C   UNL A   1      31.829  24.224  26.729  1.00  0.00     0.019 C 
ATOM      7  C   UNL A   1      30.402  23.750  26.395  1.00  0.00     0.010 C 
BRANCH   6   8
ATOM      8  C   UNL A   1      32.801  23.022  26.869  1.00  0.00     0.002 C 
ATOM      9  C   UNL A   1      34.281  23.281  26.631  1.00  0.00     0.004 C 
ENDBRANCH   6   8
ENDBRANCH   5   6
BRANCH   5  10
ATOM     10  N   UNL A   1      31.422  25.412  24.517  1.00  0.00    -0.341 N 
ATOM     11  C   UNL A   1      31.887  25.205  23.235  1.00  0.00     0.243 C 
ATOM     12  H   UNL A   1      30.488  25.684  24.676  1.00  0.00     0.164 HD
ATOM     13  O   UNL A   1      32.147  24.064  22.856  1.00  0.00    -0.273 OA
BRANCH  11  14
ATOM     14  C   UNL A   1      31.876  26.422  22.270  1.00  0.00     0.174 C 
ATOM     15  C   UNL A   1      33.326  26.849  21.998  1.00  0.00     0.037 C 
ATOM     16  N   UNL A   1      31.192  27.620  22.747  1.00  0.00    -0.330 N 
ATOM     17  C   UNL A   1      33.478  28.270  22.527  1.00  0.00     0.024 C 
ATOM     18  C   UNL A   1      32.078  28.763  22.813  1.00  0.00     0.120 C 
BRANCH  16  19
ATOM     19  C   UNL A   1      29.841  27.857  22.907  1.00  0.00     0.226 C 
ATOM     20  O   UNL A   1      29.144  27.107  23.589  1.00  0.00    -0.275 OA
BRANCH  19  21
ATOM     21  C   UNL A   1      29.190  29.102  22.413  1.00  0.00     0.079 C 
ATOM     22  C   UNL A   1      27.820  29.670  22.651  1.00  0.00     0.014 C 
ATOM     23  C   UNL A   1      28.994  30.253  23.377  1.00  0.00     0.014 C 
ENDBRANCH  19  21
ENDBRANCH  16  19
ENDBRANCH  11  14
ENDBRANCH   5  10
ENDBRANCH   3   5
ENDBRANCH   2   3
ENDBRANCH   1   2
BRANCH   1  24
ATOM     24  C   UNL A   1      31.804  29.820  27.081  1.00  0.00     0.275 C 
BRANCH  24  25
ATOM     25  O   UNL A   1      33.056  30.328  26.583  1.00  0.00    -0.458 OA
BRANCH  25  26
ATOM     26  C   UNL A   1      33.588  31.336  27.306  1.00  0.00     0.338 C 
ATOM     27  O   UNL A   1      33.020  32.321  27.744  1.00  0.00    -0.246 OA
BRANCH  26  28
ATOM     28  C   UNL A   1      34.999  31.067  27.606  1.00  0.00     0.060 A 
ATOM     29  C   UNL A   1      35.402  29.737  27.746  1.00  0.00     0.016 A 
ATOM     30  C   UNL A   1      35.847  32.109  27.973  1.00  0.00     0.016 A 
ATOM     31  C   UNL A   1      36.622  29.431  28.334  1.00  0.00     0.010 A 
ATOM     32  C   UNL A   1      37.087  31.804  28.540  1.00  0.00     0.010 A 
ATOM     33  C   UNL A   1      37.454  30.465  28.772  1.00  0.00    -0.014 A 
BRANCH  33  34
ATOM     34  C   UNL A   1      38.628  30.154  29.612  1.00  0.00     0.031 A 
ATOM     35  C   UNL A   1      39.679  29.229  29.069  1.00  0.00     0.074 A 
ATOM     36  C   UNL A   1      38.771  30.712  30.826  1.00  0.00     0.049 A 
ATOM     37  N   UNL A   1      40.688  28.665  29.682  1.00  0.00    -0.248 NA
ATOM     38  C   UNL A   1      39.578  28.893  27.641  1.00  0.00     0.031 C 
ATOM     39  C   UNL A   1      37.867  31.698  31.413  1.00  0.00     0.029 A 
ATOM     40  N   UNL A   1      39.729  30.513  31.785  1.00  0.00    -0.354 N 
ATOM     41  C   UNL A   1      41.315  27.879  28.726  1.00  0.00     0.074 A 
ATOM     42  C   UNL A   1      40.580  28.039  27.490  1.00  0.00     0.031 C 
ATOM     43  C   UNL A   1      38.303  32.006  32.645  1.00  0.00     0.029 A 
ATOM     44  C   UNL A   1      39.479  31.195  32.950  1.00  0.00     0.049 A 
ATOM     45  H   UNL A   1      40.518  29.940  31.654  1.00  0.00     0.167 HD
ATOM     46  C   UNL A   1      42.404  27.088  28.874  1.00  0.00     0.037 A 
ATOM     47  C   UNL A   1      40.101  31.128  34.141  1.00  0.00     0.037 A 
ATOM     48  C   UNL A   1      43.138  26.955  30.104  1.00  0.00     0.049 A 
ATOM     49  C   UNL A   1      41.269  30.194  34.303  1.00  0.00     0.074 A 
ATOM     50  C   UNL A   1      44.240  26.165  30.376  1.00  0.00     0.029 A 
ATOM     51  N   UNL A   1      42.841  27.645  31.271  1.00  0.00    -0.354 N 
ATOM     52  N   UNL A   1      41.820  29.397  33.420  1.00  0.00    -0.248 NA
ATOM     53  C   UNL A   1      41.894  30.140  35.632  1.00  0.00     0.031 C 
ATOM     54  C   UNL A   1      44.593  26.355  31.717  1.00  0.00     0.029 A 
ATOM     55  C   UNL A   1      43.732  27.291  32.269  1.00  0.00     0.049 A 
ATOM     56  H   UNL A   1      42.104  28.290  31.374  1.00  0.00     0.167 HD
ATOM     57  C   UNL A   1      42.859  28.755  34.078  1.00  0.00     0.074 A 
ATOM     58  C   UNL A   1      42.873  29.268  35.433  1.00  0.00     0.031 C 
ATOM     59  C   UNL A   1      43.724  27.823  33.608  1.00  0.00     0.037 A 
BRANCH  46  60
ATOM     60  C   UNL A   1      42.833  26.277  27.690  1.00  0.00     0.064 A 
ATOM     61  C   UNL A   1      42.298  25.007  27.430  1.00  0.00     0.173 A 
ATOM     62  C   UNL A   1      43.789  26.783  26.798  1.00  0.00     0.173 A 
ATOM     63  F   UNL A   1      41.395  24.471  28.264  1.00  0.00    -0.203 F 
ATOM     64  C   UNL A   1      42.723  24.264  26.330  1.00  0.00     0.198 A 
ATOM     65  C   UNL A   1      44.195  26.048  25.687  1.00  0.00     0.198 A 
ATOM     66  F   UNL A   1      44.333  27.992  27.004  1.00  0.00    -0.203 F 
ATOM     67  F   UNL A   1      42.230  23.035  26.123  1.00  0.00    -0.200 F 
ATOM     68  C   UNL A   1      43.665  24.787  25.458  1.00  0.00     0.200 A 
ATOM     69  F   UNL A   1      45.102  26.557  24.842  1.00  0.00    -0.200 F 
ATOM     70  F   UNL A   1      44.072  24.071  24.401  1.00  0.00    -0.200 F 
ENDBRANCH  46  60
BRANCH  47  71
ATOM     71  C   UNL A   1      39.594  31.930  35.281  1.00  0.00     0.064 A 
ATOM     72  C   UNL A   1      40.017  33.250  35.482  1.00  0.00     0.173 A 
ATOM     73  C   UNL A   1      38.666  31.395  36.188  1.00  0.00     0.173 A 
ATOM     74  F   UNL A   1      40.924  33.795  34.657  1.00  0.00    -0.203 F 
ATOM     75  C   UNL A   1      39.537  34.003  36.551  1.00  0.00     0.198 A 
ATOM     76  C   UNL A   1      38.167  32.157  37.242  1.00  0.00     0.198 A 
ATOM     77  F   UNL A   1      38.232  30.135  36.039  1.00  0.00    -0.203 F 
ATOM     78  F   UNL A   1      39.984  35.252  36.743  1.00  0.00    -0.200 F 
ATOM     79  C   UNL A   1      38.608  33.460  37.426  1.00  0.00     0.200 A 
ATOM     80  F   UNL A   1      37.262  31.630  38.077  1.00  0.00    -0.200 F 
ATOM     81  F   UNL A   1      38.141  34.187  38.449  1.00  0.00    -0.200 F 
ENDBRANCH  47  71
BRANCH  59  82
ATOM     82  C   UNL A   1      44.767  27.321  34.558  1.00  0.00     0.064 A 
ATOM     83  C   UNL A   1      45.995  27.979  34.708  1.00  0.00     0.173 A 
ATOM     84  C   UNL A   1      44.516  26.196  35.357  1.00  0.00     0.173 A 
ATOM     85  F   UNL A   1      46.283  29.051  33.953  1.00  0.00    -0.203 F 
ATOM     86  C   UNL A   1      46.946  27.517  35.613  1.00  0.00     0.198 A 
ATOM     87  C   UNL A   1      45.460  25.749  36.276  1.00  0.00     0.198 A 
ATOM     88  F   UNL A   1      43.353  25.538  35.251  1.00  0.00    -0.203 F 
ATOM     89  F   UNL A   1      48.129  28.138  35.716  1.00  0.00    -0.200 F 
ATOM     90  C   UNL A   1      46.675  26.406  36.400  1.00  0.00     0.200 A 
ATOM     91  F   UNL A   1      45.195  24.681  37.041  1.00  0.00    -0.200 F 
ATOM     92  F   UNL A   1      47.590  25.965  37.274  1.00  0.00    -0.200 F 
ENDBRANCH  59  82
ENDBRANCH  33  34
ENDBRANCH  26  28
ENDBRANCH  25  26
ENDBRANCH  24  25
ENDBRANCH   1  24
TORSDOF 17
ENDMDL
