MODEL 1
REMARK VINA RESULT:     -15.1      0.000      0.000
REMARK SMILES Cc1ccc(NC(=O)c2ccccc2NC(=O)[C@H]2CCCC[C@H]2C(=O)OCCOC(=O)c2ccc(-c3c4nc(c(-c5c(F)c(F)c(F)c(F)c5F)c5ccc([nH]5)c(-c5c(F)c(F)c(F)c(F)c5F)c5nc(c(-c6c(F)c(F)c(F)c(F)c6F)c6ccc3[nH]6)C=C5)C=C4)cc2)cc1
REMARK SMILES IDX 27 1 26 2 24 3 25 4 23 5 18 6 19 7 20 8 22 9 21 10 16 11
REMARK SMILES IDX 15 12 17 14 14 15 9 16 10 17 11 18 13 19 12 20 7 21 6 22
REMARK SMILES IDX 8 24 5 25 1 26 2 27 3 28 96 29 4 30 95 31 28 32 29 33 30 34
REMARK SMILES IDX 31 35 32 36 33 37 94 38 34 39 93 40 35 41 36 42 37 43 87 44
REMARK SMILES IDX 38 45 92 46 86 47 88 48 39 49 91 50 85 51 84 52 40 54 72 55
REMARK SMILES IDX 52 56 71 57 53 58 56 59 70 60 89 61 54 62 55 63 69 65 90 66
REMARK SMILES IDX 57 67 41 68 42 69 50 70 43 71 44 72 48 73 51 74 45 75 46 76
REMARK SMILES IDX 49 77 47 78 73 79 74 80 82 81 75 82 76 83 80 84 83 85 77 86
REMARK SMILES IDX 78 87 81 88 79 89 58 90 59 91 67 92 60 93 61 94 65 95 68 96
REMARK SMILES IDX 62 97 63 98 66 99 64 100
REMARK H PARENT 15 13 6 23 88 53 56 64
REMARK Flexibility Score: inf
ROOT
ATOM      1  C   UNL A   1      39.160  21.672  26.443  1.00  0.00     0.274 C 
ENDROOT
BRANCH   1   2
ATOM      2  O   UNL A   1      38.436  21.956  25.231  1.00  0.00    -0.462 OA
BRANCH   2   3
ATOM      3  C   UNL A   1      37.232  22.774  25.340  1.00  0.00     0.309 C 
ATOM      4  O   UNL A   1      37.684  23.960  25.314  1.00  0.00    -0.252 OA
BRANCH   3   5
ATOM      5  C   UNL A   1      35.185  21.973  25.527  1.00  0.00     0.111 C 
ATOM      6  C   UNL A   1      33.595  22.773  25.529  1.00  0.00     0.093 C 
ATOM      7  C   UNL A   1      32.328  21.947  25.839  1.00  0.00     0.014 C 
ATOM      8  C   UNL A   1      32.148  20.736  24.958  1.00  0.00     0.001 C 
ATOM      9  C   UNL A   1      34.608  20.303  25.043  1.00  0.00     0.016 C 
ATOM     10  C   UNL A   1      33.217  19.766  25.352  1.00  0.00     0.001 C 
BRANCH   6  11
ATOM     11  C   UNL A   1      33.204  23.590  24.315  1.00  0.00     0.228 C 
ATOM     12  N   UNL A   1      33.029  24.938  24.408  1.00  0.00    -0.325 N 
ATOM     13  H   UNL A   1      32.952  25.343  23.515  1.00  0.00     0.169 HD
ATOM     14  O   UNL A   1      33.189  23.080  23.190  1.00  0.00    -0.274 OA
BRANCH  12  15
ATOM     15  C   UNL A   1      32.928  25.924  25.415  1.00  0.00     0.054 A 
ATOM     16  C   UNL A   1      31.676  26.135  26.045  1.00  0.00     0.063 A 
ATOM     17  C   UNL A   1      31.508  27.266  26.874  1.00  0.00     0.016 A 
ATOM     18  C   UNL A   1      32.556  28.148  27.124  1.00  0.00     0.001 A 
ATOM     19  C   UNL A   1      33.999  26.746  25.795  1.00  0.00     0.027 A 
ATOM     20  C   UNL A   1      33.809  27.871  26.603  1.00  0.00     0.002 A 
BRANCH  16  21
ATOM     21  C   UNL A   1      30.412  25.373  25.781  1.00  0.00     0.257 C 
ATOM     22  N   UNL A   1      29.424  25.724  24.883  1.00  0.00    -0.322 N 
ATOM     23  H   UNL A   1      28.603  25.191  24.988  1.00  0.00     0.170 HD
ATOM     24  O   UNL A   1      30.181  24.395  26.500  1.00  0.00    -0.269 OA
BRANCH  22  25
ATOM     25  C   UNL A   1      29.329  26.675  23.852  1.00  0.00     0.041 A 
ATOM     26  C   UNL A   1      29.001  30.507  21.952  1.00  0.00     0.044 C 
ATOM     27  C   UNL A   1      29.077  29.100  22.468  1.00  0.00    -0.051 A 
ATOM     28  C   UNL A   1      30.308  28.433  22.516  1.00  0.00     0.005 A 
ATOM     29  C   UNL A   1      27.948  28.481  23.015  1.00  0.00     0.005 A 
ATOM     30  C   UNL A   1      30.433  27.212  23.191  1.00  0.00     0.026 A 
ATOM     31  C   UNL A   1      28.068  27.261  23.683  1.00  0.00     0.026 A 
ENDBRANCH  22  25
ENDBRANCH  16  21
ENDBRANCH  12  15
ENDBRANCH   6  11
ENDBRANCH   3   5
ENDBRANCH   2   3
ENDBRANCH   1   2
BRANCH   1  32
ATOM     32  C   UNL A   1      40.644  21.447  26.122  1.00  0.00     0.275 C 
BRANCH  32  33
ATOM     33  O   UNL A   1      41.438  22.651  25.875  1.00  0.00    -0.458 OA
BRANCH  33  34
ATOM     34  C   UNL A   1      41.656  23.720  26.696  1.00  0.00     0.338 C 
ATOM     35  O   UNL A   1      42.437  23.693  27.635  1.00  0.00    -0.246 OA
BRANCH  34  36
ATOM     36  C   UNL A   1      40.668  24.822  26.627  1.00  0.00     0.060 A 
ATOM     37  C   UNL A   1      41.220  26.279  25.738  1.00  0.00     0.016 A 
ATOM     38  C   UNL A   1      39.584  24.981  28.033  1.00  0.00     0.016 A 
ATOM     39  C   UNL A   1      40.807  27.919  26.404  1.00  0.00     0.010 A 
ATOM     40  C   UNL A   1      39.086  26.595  28.649  1.00  0.00     0.010 A 
ATOM     41  C   UNL A   1      39.826  28.056  27.925  1.00  0.00    -0.014 A 
BRANCH  41  42
ATOM     42  C   UNL A   1      39.945  29.127  28.893  1.00  0.00     0.031 A 
ATOM     43  C   UNL A   1      38.849  30.103  29.014  1.00  0.00     0.074 A 
ATOM     44  C   UNL A   1      40.985  29.049  29.750  1.00  0.00     0.049 A 
ATOM     45  N   UNL A   1      39.046  31.341  29.306  1.00  0.00    -0.248 NA
ATOM     46  C   UNL A   1      37.447  29.824  28.691  1.00  0.00     0.031 C 
ATOM     47  C   UNL A   1      41.215  29.786  30.982  1.00  0.00     0.029 A 
ATOM     48  N   UNL A   1      42.141  28.293  29.650  1.00  0.00    -0.354 N 
ATOM     49  C   UNL A   1      37.807  31.901  29.533  1.00  0.00     0.074 A 
ATOM     50  C   UNL A   1      36.878  31.010  28.907  1.00  0.00     0.031 C 
ATOM     51  C   UNL A   1      42.517  29.672  31.318  1.00  0.00     0.029 A 
ATOM     52  C   UNL A   1      43.196  28.944  30.254  1.00  0.00     0.049 A 
ATOM     53  H   UNL A   1      42.201  27.415  29.210  1.00  0.00     0.167 HD
ATOM     54  C   UNL A   1      37.708  32.928  30.426  1.00  0.00     0.037 A 
ATOM     55  C   UNL A   1      44.244  29.399  29.504  1.00  0.00     0.037 A 
ATOM     56  C   UNL A   1      39.049  33.257  30.925  1.00  0.00     0.049 A 
ATOM     57  C   UNL A   1      44.193  30.914  29.413  1.00  0.00     0.074 A 
ATOM     58  C   UNL A   1      39.724  32.892  32.080  1.00  0.00     0.029 A 
ATOM     59  N   UNL A   1      40.023  33.689  30.027  1.00  0.00    -0.354 N 
ATOM     60  N   UNL A   1      43.116  31.621  29.637  1.00  0.00    -0.248 NA
ATOM     61  C   UNL A   1      45.349  31.747  29.112  1.00  0.00     0.031 C 
ATOM     62  C   UNL A   1      41.118  33.044  31.840  1.00  0.00     0.029 A 
ATOM     63  C   UNL A   1      41.293  33.522  30.551  1.00  0.00     0.049 A 
ATOM     64  H   UNL A   1      39.833  34.063  29.137  1.00  0.00     0.167 HD
ATOM     65  C   UNL A   1      43.410  32.953  29.566  1.00  0.00     0.074 A 
ATOM     66  C   UNL A   1      44.824  32.979  29.235  1.00  0.00     0.031 C 
ATOM     67  C   UNL A   1      42.472  33.926  29.791  1.00  0.00     0.037 A 
BRANCH  54  68
ATOM     68  C   UNL A   1      36.420  33.391  31.089  1.00  0.00     0.064 A 
ATOM     69  C   UNL A   1      35.491  34.171  30.364  1.00  0.00     0.173 A 
ATOM     70  C   UNL A   1      36.038  33.147  32.426  1.00  0.00     0.173 A 
ATOM     71  F   UNL A   1      35.663  34.428  29.060  1.00  0.00    -0.203 F 
ATOM     72  C   UNL A   1      34.338  34.716  30.944  1.00  0.00     0.198 A 
ATOM     73  C   UNL A   1      34.906  33.722  33.018  1.00  0.00     0.198 A 
ATOM     74  F   UNL A   1      36.699  32.294  33.212  1.00  0.00    -0.203 F 
ATOM     75  F   UNL A   1      33.502  35.449  30.196  1.00  0.00    -0.200 F 
ATOM     76  C   UNL A   1      34.057  34.509  32.277  1.00  0.00     0.200 A 
ATOM     77  F   UNL A   1      34.645  33.488  34.312  1.00  0.00    -0.200 F 
ATOM     78  F   UNL A   1      32.961  35.040  32.837  1.00  0.00    -0.200 F 
ENDBRANCH  54  68
BRANCH  55  79
ATOM     79  C   UNL A   1      44.702  28.452  28.437  1.00  0.00     0.064 A 
ATOM     80  C   UNL A   1      45.183  27.185  28.843  1.00  0.00     0.173 A 
ATOM     81  C   UNL A   1      44.402  28.596  27.077  1.00  0.00     0.173 A 
ATOM     82  F   UNL A   1      45.538  26.989  30.123  1.00  0.00    -0.203 F 
ATOM     83  C   UNL A   1      45.217  26.090  27.977  1.00  0.00     0.198 A 
ATOM     84  C   UNL A   1      44.455  27.497  26.203  1.00  0.00     0.198 A 
ATOM     85  F   UNL A   1      43.926  29.757  26.605  1.00  0.00    -0.203 F 
ATOM     86  F   UNL A   1      45.565  24.880  28.439  1.00  0.00    -0.200 F 
ATOM     87  C   UNL A   1      44.824  26.241  26.662  1.00  0.00     0.200 A 
ATOM     88  F   UNL A   1      44.018  27.628  24.940  1.00  0.00    -0.200 F 
ATOM     89  F   UNL A   1      44.741  25.174  25.852  1.00  0.00    -0.200 F 
ENDBRANCH  55  79
BRANCH  67  90
ATOM     90  C   UNL A   1      42.613  35.381  29.399  1.00  0.00     0.064 A 
ATOM     91  C   UNL A   1      43.316  36.331  30.157  1.00  0.00     0.173 A 
ATOM     92  C   UNL A   1      42.162  35.837  28.134  1.00  0.00     0.173 A 
ATOM     93  F   UNL A   1      43.932  36.003  31.300  1.00  0.00    -0.203 F 
ATOM     94  C   UNL A   1      43.471  37.652  29.731  1.00  0.00     0.198 A 
ATOM     95  C   UNL A   1      42.400  37.129  27.673  1.00  0.00     0.198 A 
ATOM     96  F   UNL A   1      41.503  35.037  27.283  1.00  0.00    -0.203 F 
ATOM     97  F   UNL A   1      44.086  38.535  30.531  1.00  0.00    -0.200 F 
ATOM     98  C   UNL A   1      43.029  38.047  28.485  1.00  0.00     0.200 A 
ATOM     99  F   UNL A   1      42.035  37.468  26.428  1.00  0.00    -0.200 F 
ATOM    100  F   UNL A   1      43.228  39.300  28.058  1.00  0.00    -0.200 F 
ENDBRANCH  67  90
ENDBRANCH  41  42
ENDBRANCH  34  36
ENDBRANCH  33  34
ENDBRANCH  32  33
ENDBRANCH   1  32
TORSDOF 15
ENDMDL
MODEL 2
REMARK VINA RESULT:     -13.8      3.705      9.922
REMARK SMILES Cc1ccc(NC(=O)c2ccccc2NC(=O)[C@H]2CCCC[C@H]2C(=O)OCCOC(=O)c2ccc(-c3c4nc(c(-c5c(F)c(F)c(F)c(F)c5F)c5ccc([nH]5)c(-c5c(F)c(F)c(F)c(F)c5F)c5nc(c(-c6c(F)c(F)c(F)c(F)c6F)c6ccc3[nH]6)C=C5)C=C4)cc2)cc1
REMARK SMILES IDX 27 1 26 2 24 3 25 4 23 5 18 6 19 7 20 8 22 9 21 10 16 11
REMARK SMILES IDX 15 12 17 14 14 15 9 16 10 17 11 18 13 19 12 20 7 21 6 22
REMARK SMILES IDX 8 24 5 25 1 26 2 27 3 28 96 29 4 30 95 31 28 32 29 33 30 34
REMARK SMILES IDX 31 35 32 36 33 37 94 38 34 39 93 40 35 41 36 42 37 43 87 44
REMARK SMILES IDX 38 45 92 46 86 47 88 48 39 49 91 50 85 51 84 52 40 54 72 55
REMARK SMILES IDX 52 56 71 57 53 58 56 59 70 60 89 61 54 62 55 63 69 65 90 66
REMARK SMILES IDX 57 67 41 68 42 69 50 70 43 71 44 72 48 73 51 74 45 75 46 76
REMARK SMILES IDX 49 77 47 78 73 79 74 80 82 81 75 82 76 83 80 84 83 85 77 86
REMARK SMILES IDX 78 87 81 88 79 89 58 90 59 91 67 92 60 93 61 94 65 95 68 96
REMARK SMILES IDX 62 97 63 98 66 99 64 100
REMARK H PARENT 15 13 6 23 88 53 56 64
REMARK Flexibility Score: inf
ROOT
ATOM      1  C   UNL A   1      33.797  29.723  27.189  1.00  0.00     0.274 C 
ENDROOT
BRANCH   1   2
ATOM      2  O   UNL A   1      32.367  29.609  27.325  1.00  0.00    -0.462 OA
BRANCH   2   3
ATOM      3  C   UNL A   1      31.758  28.324  26.996  1.00  0.00     0.309 C 
ATOM      4  O   UNL A   1      31.126  28.024  28.056  1.00  0.00    -0.252 OA
BRANCH   3   5
ATOM      5  C   UNL A   1      32.006  27.276  25.071  1.00  0.00     0.111 C 
ATOM      6  C   UNL A   1      32.495  25.609  24.685  1.00  0.00     0.093 C 
ATOM      7  C   UNL A   1      32.732  25.206  23.213  1.00  0.00     0.014 C 
ATOM      8  C   UNL A   1      31.564  25.487  22.300  1.00  0.00     0.001 C 
ATOM      9  C   UNL A   1      31.135  27.636  23.501  1.00  0.00     0.016 C 
ATOM     10  C   UNL A   1      31.476  26.975  22.172  1.00  0.00     0.001 C 
BRANCH   6  11
ATOM     11  C   UNL A   1      31.660  24.472  25.238  1.00  0.00     0.228 C 
ATOM     12  N   UNL A   1      32.233  23.278  25.562  1.00  0.00    -0.325 N 
ATOM     13  H   UNL A   1      31.603  22.713  26.064  1.00  0.00     0.169 HD
ATOM     14  O   UNL A   1      30.479  24.652  25.553  1.00  0.00    -0.274 OA
BRANCH  12  15
ATOM     15  C   UNL A   1      33.470  22.618  25.387  1.00  0.00     0.054 A 
ATOM     16  C   UNL A   1      33.556  21.565  24.442  1.00  0.00     0.063 A 
ATOM     17  C   UNL A   1      34.710  20.748  24.430  1.00  0.00     0.016 A 
ATOM     18  C   UNL A   1      35.779  20.987  25.289  1.00  0.00     0.001 A 
ATOM     19  C   UNL A   1      34.614  22.919  26.139  1.00  0.00     0.027 A 
ATOM     20  C   UNL A   1      35.739  22.089  26.126  1.00  0.00     0.002 A 
BRANCH  16  21
ATOM     21  C   UNL A   1      32.453  21.085  23.547  1.00  0.00     0.257 C 
ATOM     22  N   UNL A   1      32.154  19.768  23.261  1.00  0.00    -0.322 N 
ATOM     23  H   UNL A   1      31.513  19.672  22.520  1.00  0.00     0.170 HD
ATOM     24  O   UNL A   1      31.815  21.942  22.928  1.00  0.00    -0.269 OA
BRANCH  22  25
ATOM     25  C   UNL A   1      32.562  18.532  23.793  1.00  0.00     0.041 A 
ATOM     26  C   UNL A   1      35.167  15.513  25.375  1.00  0.00     0.044 C 
ATOM     27  C   UNL A   1      34.142  16.448  24.803  1.00  0.00    -0.051 A 
ATOM     28  C   UNL A   1      33.310  17.187  25.654  1.00  0.00     0.005 A 
ATOM     29  C   UNL A   1      34.083  16.682  23.426  1.00  0.00     0.005 A 
ATOM     30  C   UNL A   1      32.505  18.216  25.149  1.00  0.00     0.026 A 
ATOM     31  C   UNL A   1      33.277  17.703  22.918  1.00  0.00     0.026 A 
ENDBRANCH  22  25
ENDBRANCH  16  21
ENDBRANCH  12  15
ENDBRANCH   6  11
ENDBRANCH   3   5
ENDBRANCH   2   3
ENDBRANCH   1   2
BRANCH   1  32
ATOM     32  C   UNL A   1      34.228  31.176  27.436  1.00  0.00     0.275 C 
BRANCH  32  33
ATOM     33  O   UNL A   1      34.759  31.472  28.767  1.00  0.00    -0.458 OA
BRANCH  33  34
ATOM     34  C   UNL A   1      34.546  32.567  29.553  1.00  0.00     0.338 C 
ATOM     35  O   UNL A   1      33.609  33.336  29.389  1.00  0.00    -0.246 OA
BRANCH  34  36
ATOM     36  C   UNL A   1      35.672  32.998  30.412  1.00  0.00     0.060 A 
ATOM     37  C   UNL A   1      36.912  33.999  29.588  1.00  0.00     0.016 A 
ATOM     38  C   UNL A   1      36.143  31.863  31.702  1.00  0.00     0.016 A 
ATOM     39  C   UNL A   1      38.666  33.702  29.962  1.00  0.00     0.010 A 
ATOM     40  C   UNL A   1      37.867  31.625  32.153  1.00  0.00     0.010 A 
ATOM     41  C   UNL A   1      39.129  32.432  31.173  1.00  0.00    -0.014 A 
BRANCH  41  42
ATOM     42  C   UNL A   1      40.348  31.650  31.127  1.00  0.00     0.031 A 
ATOM     43  C   UNL A   1      40.386  30.438  30.293  1.00  0.00     0.074 A 
ATOM     44  C   UNL A   1      41.432  32.193  31.720  1.00  0.00     0.049 A 
ATOM     45  N   UNL A   1      41.067  29.393  30.611  1.00  0.00    -0.248 NA
ATOM     46  C   UNL A   1      39.567  30.224  29.097  1.00  0.00     0.031 C 
ATOM     47  C   UNL A   1      42.830  31.808  31.605  1.00  0.00     0.029 A 
ATOM     48  N   UNL A   1      41.495  33.222  32.646  1.00  0.00    -0.354 N 
ATOM     49  C   UNL A   1      41.037  28.547  29.522  1.00  0.00     0.074 A 
ATOM     50  C   UNL A   1      39.919  28.988  28.744  1.00  0.00     0.031 C 
ATOM     51  C   UNL A   1      43.517  32.362  32.626  1.00  0.00     0.029 A 
ATOM     52  C   UNL A   1      42.564  33.039  33.497  1.00  0.00     0.049 A 
ATOM     53  H   UNL A   1      40.866  33.977  32.689  1.00  0.00     0.167 HD
ATOM     54  C   UNL A   1      42.106  27.729  29.301  1.00  0.00     0.037 A 
ATOM     55  C   UNL A   1      42.352  32.776  34.822  1.00  0.00     0.037 A 
ATOM     56  C   UNL A   1      43.079  27.911  30.385  1.00  0.00     0.049 A 
ATOM     57  C   UNL A   1      42.687  31.326  35.119  1.00  0.00     0.074 A 
ATOM     58  C   UNL A   1      44.233  28.674  30.475  1.00  0.00     0.029 A 
ATOM     59  N   UNL A   1      42.702  27.620  31.694  1.00  0.00    -0.354 N 
ATOM     60  N   UNL A   1      42.747  30.390  34.208  1.00  0.00    -0.248 NA
ATOM     61  C   UNL A   1      43.022  30.827  36.447  1.00  0.00     0.031 C 
ATOM     62  C   UNL A   1      44.506  28.894  31.854  1.00  0.00     0.029 A 
ATOM     63  C   UNL A   1      43.534  28.250  32.603  1.00  0.00     0.049 A 
ATOM     64  H   UNL A   1      41.944  27.042  31.940  1.00  0.00     0.167 HD
ATOM     65  C   UNL A   1      43.158  29.215  34.772  1.00  0.00     0.074 A 
ATOM     66  C   UNL A   1      43.318  29.543  36.178  1.00  0.00     0.031 C 
ATOM     67  C   UNL A   1      43.340  28.072  34.039  1.00  0.00     0.037 A 
BRANCH  54  68
ATOM     68  C   UNL A   1      42.425  27.044  27.980  1.00  0.00     0.064 A 
ATOM     69  C   UNL A   1      41.845  25.792  27.673  1.00  0.00     0.173 A 
ATOM     70  C   UNL A   1      43.305  27.524  26.987  1.00  0.00     0.173 A 
ATOM     71  F   UNL A   1      40.928  25.233  28.474  1.00  0.00    -0.203 F 
ATOM     72  C   UNL A   1      42.177  25.061  26.525  1.00  0.00     0.198 A 
ATOM     73  C   UNL A   1      43.667  26.778  25.858  1.00  0.00     0.198 A 
ATOM     74  F   UNL A   1      43.812  28.758  27.019  1.00  0.00    -0.203 F 
ATOM     75  F   UNL A   1      41.590  23.878  26.300  1.00  0.00    -0.200 F 
ATOM     76  C   UNL A   1      43.105  25.545  25.628  1.00  0.00     0.200 A 
ATOM     77  F   UNL A   1      44.557  27.281  24.990  1.00  0.00    -0.200 F 
ATOM     78  F   UNL A   1      43.433  24.842  24.536  1.00  0.00    -0.200 F 
ENDBRANCH  54  68
BRANCH  55  79
ATOM     79  C   UNL A   1      41.263  33.593  35.450  1.00  0.00     0.064 A 
ATOM     80  C   UNL A   1      40.000  32.981  35.626  1.00  0.00     0.173 A 
ATOM     81  C   UNL A   1      41.481  34.784  36.153  1.00  0.00     0.173 A 
ATOM     82  F   UNL A   1      39.703  31.864  34.944  1.00  0.00    -0.203 F 
ATOM     83  C   UNL A   1      39.072  33.447  36.559  1.00  0.00     0.198 A 
ATOM     84  C   UNL A   1      40.538  35.261  37.078  1.00  0.00     0.198 A 
ATOM     85  F   UNL A   1      42.655  35.424  36.059  1.00  0.00    -0.203 F 
ATOM     86  F   UNL A   1      37.939  32.764  36.778  1.00  0.00    -0.200 F 
ATOM     87  C   UNL A   1      39.355  34.572  37.308  1.00  0.00     0.200 A 
ATOM     88  F   UNL A   1      40.835  36.321  37.848  1.00  0.00    -0.200 F 
ATOM     89  F   UNL A   1      38.525  34.962  38.288  1.00  0.00    -0.200 F 
ENDBRANCH  55  79
BRANCH  67  90
ATOM     90  C   UNL A   1      43.446  26.676  34.613  1.00  0.00     0.064 A 
ATOM     91  C   UNL A   1      42.339  25.880  34.946  1.00  0.00     0.173 A 
ATOM     92  C   UNL A   1      44.703  26.023  34.700  1.00  0.00     0.173 A 
ATOM     93  F   UNL A   1      41.083  26.310  34.764  1.00  0.00    -0.203 F 
ATOM     94  C   UNL A   1      42.480  24.574  35.419  1.00  0.00     0.198 A 
ATOM     95  C   UNL A   1      44.831  24.691  35.083  1.00  0.00     0.198 A 
ATOM     96  F   UNL A   1      45.850  26.642  34.384  1.00  0.00    -0.203 F 
ATOM     97  F   UNL A   1      41.391  23.887  35.794  1.00  0.00    -0.200 F 
ATOM     98  C   UNL A   1      43.722  23.974  35.473  1.00  0.00     0.200 A 
ATOM     99  F   UNL A   1      46.036  24.103  35.050  1.00  0.00    -0.200 F 
ATOM    100  F   UNL A   1      43.846  22.703  35.875  1.00  0.00    -0.200 F 
ENDBRANCH  67  90
ENDBRANCH  41  42
ENDBRANCH  34  36
ENDBRANCH  33  34
ENDBRANCH  32  33
ENDBRANCH   1  32
TORSDOF 15
ENDMDL
MODEL 3
REMARK VINA RESULT:     -13.3      2.654      4.216
REMARK SMILES Cc1ccc(NC(=O)c2ccccc2NC(=O)[C@H]2CCCC[C@H]2C(=O)OCCOC(=O)c2ccc(-c3c4nc(c(-c5c(F)c(F)c(F)c(F)c5F)c5ccc([nH]5)c(-c5c(F)c(F)c(F)c(F)c5F)c5nc(c(-c6c(F)c(F)c(F)c(F)c6F)c6ccc3[nH]6)C=C5)C=C4)cc2)cc1
REMARK SMILES IDX 27 1 26 2 24 3 25 4 23 5 18 6 19 7 20 8 22 9 21 10 16 11
REMARK SMILES IDX 15 12 17 14 14 15 9 16 10 17 11 18 13 19 12 20 7 21 6 22
REMARK SMILES IDX 8 24 5 25 1 26 2 27 3 28 96 29 4 30 95 31 28 32 29 33 30 34
REMARK SMILES IDX 31 35 32 36 33 37 94 38 34 39 93 40 35 41 36 42 37 43 87 44
REMARK SMILES IDX 38 45 92 46 86 47 88 48 39 49 91 50 85 51 84 52 40 54 72 55
REMARK SMILES IDX 52 56 71 57 53 58 56 59 70 60 89 61 54 62 55 63 69 65 90 66
REMARK SMILES IDX 57 67 41 68 42 69 50 70 43 71 44 72 48 73 51 74 45 75 46 76
REMARK SMILES IDX 49 77 47 78 73 79 74 80 82 81 75 82 76 83 80 84 83 85 77 86
REMARK SMILES IDX 78 87 81 88 79 89 58 90 59 91 67 92 60 93 61 94 65 95 68 96
REMARK SMILES IDX 62 97 63 98 66 99 64 100
REMARK H PARENT 15 13 6 23 88 53 56 64
REMARK Flexibility Score: inf
ROOT
ATOM      1  C   UNL A   1      38.693  21.289  25.624  1.00  0.00     0.274 C 
ENDROOT
BRANCH   1   2
ATOM      2  O   UNL A   1      37.356  21.793  25.805  1.00  0.00    -0.462 OA
BRANCH   2   3
ATOM      3  C   UNL A   1      36.368  21.470  24.781  1.00  0.00     0.309 C 
ATOM      4  O   UNL A   1      36.552  22.372  23.906  1.00  0.00    -0.252 OA
BRANCH   3   5
ATOM      5  C   UNL A   1      34.944  19.789  24.898  1.00  0.00     0.111 C 
ATOM      6  C   UNL A   1      33.165  19.743  24.904  1.00  0.00     0.093 C 
ATOM      7  C   UNL A   1      32.439  18.403  25.158  1.00  0.00     0.014 C 
ATOM      8  C   UNL A   1      32.851  17.291  24.226  1.00  0.00     0.001 C 
ATOM      9  C   UNL A   1      35.223  18.069  24.337  1.00  0.00     0.016 C 
ATOM     10  C   UNL A   1      34.252  16.925  24.599  1.00  0.00     0.001 C 
BRANCH   6  11
ATOM     11  C   UNL A   1      32.430  20.331  23.717  1.00  0.00     0.228 C 
ATOM     12  N   UNL A   1      32.154  21.664  23.657  1.00  0.00    -0.325 N 
ATOM     13  H   UNL A   1      31.836  21.915  22.761  1.00  0.00     0.169 HD
ATOM     14  O   UNL A   1      32.205  19.647  22.713  1.00  0.00    -0.274 OA
BRANCH  12  15
ATOM     15  C   UNL A   1      32.195  22.791  24.509  1.00  0.00     0.054 A 
ATOM     16  C   UNL A   1      32.809  23.980  24.042  1.00  0.00     0.063 A 
ATOM     17  C   UNL A   1      33.065  25.025  24.959  1.00  0.00     0.016 A 
ATOM     18  C   UNL A   1      32.683  24.930  26.294  1.00  0.00     0.001 A 
ATOM     19  C   UNL A   1      31.697  22.781  25.820  1.00  0.00     0.027 A 
ATOM     20  C   UNL A   1      31.976  23.816  26.717  1.00  0.00     0.002 A 
BRANCH  16  21
ATOM     21  C   UNL A   1      33.406  24.195  22.683  1.00  0.00     0.257 C 
ATOM     22  N   UNL A   1      33.199  25.291  21.869  1.00  0.00    -0.322 N 
ATOM     23  H   UNL A   1      33.536  25.157  20.954  1.00  0.00     0.170 HD
ATOM     24  O   UNL A   1      34.061  23.266  22.201  1.00  0.00    -0.269 OA
BRANCH  22  25
ATOM     25  C   UNL A   1      32.613  26.555  22.056  1.00  0.00     0.041 A 
ATOM     26  C   UNL A   1      30.510  29.750  23.999  1.00  0.00     0.044 C 
ATOM     27  C   UNL A   1      31.225  28.717  23.177  1.00  0.00    -0.051 A 
ATOM     28  C   UNL A   1      32.622  28.747  23.069  1.00  0.00     0.005 A 
ATOM     29  C   UNL A   1      30.524  27.650  22.609  1.00  0.00     0.005 A 
ATOM     30  C   UNL A   1      33.317  27.677  22.491  1.00  0.00     0.026 A 
ATOM     31  C   UNL A   1      31.213  26.583  22.028  1.00  0.00     0.026 A 
ENDBRANCH  22  25
ENDBRANCH  16  21
ENDBRANCH  12  15
ENDBRANCH   6  11
ENDBRANCH   3   5
ENDBRANCH   2   3
ENDBRANCH   1   2
BRANCH   1  32
ATOM     32  C   UNL A   1      39.646  21.974  26.614  1.00  0.00     0.275 C 
BRANCH  32  33
ATOM     33  O   UNL A   1      40.873  22.532  26.043  1.00  0.00    -0.458 OA
BRANCH  33  34
ATOM     34  C   UNL A   1      42.092  21.941  25.881  1.00  0.00     0.338 C 
ATOM     35  O   UNL A   1      42.230  20.786  25.506  1.00  0.00    -0.246 OA
BRANCH  34  36
ATOM     36  C   UNL A   1      43.250  22.629  26.496  1.00  0.00     0.060 A 
ATOM     37  C   UNL A   1      43.448  22.352  28.257  1.00  0.00     0.016 A 
ATOM     38  C   UNL A   1      43.694  24.197  25.775  1.00  0.00     0.016 A 
ATOM     39  C   UNL A   1      43.929  23.751  29.314  1.00  0.00     0.010 A 
ATOM     40  C   UNL A   1      44.265  25.564  26.793  1.00  0.00     0.010 A 
ATOM     41  C   UNL A   1      44.231  25.380  28.574  1.00  0.00    -0.014 A 
BRANCH  41  42
ATOM     42  C   UNL A   1      43.989  26.647  29.235  1.00  0.00     0.031 A 
ATOM     43  C   UNL A   1      42.630  27.212  29.218  1.00  0.00     0.074 A 
ATOM     44  C   UNL A   1      45.002  27.137  29.981  1.00  0.00     0.049 A 
ATOM     45  N   UNL A   1      42.400  28.478  29.178  1.00  0.00    -0.248 NA
ATOM     46  C   UNL A   1      41.401  26.421  29.108  1.00  0.00     0.031 C 
ATOM     47  C   UNL A   1      44.979  28.205  30.968  1.00  0.00     0.029 A 
ATOM     48  N   UNL A   1      46.344  26.796  29.959  1.00  0.00    -0.354 N 
ATOM     49  C   UNL A   1      41.047  28.647  29.379  1.00  0.00     0.074 A 
ATOM     50  C   UNL A   1      40.467  27.372  29.080  1.00  0.00     0.031 C 
ATOM     51  C   UNL A   1      46.246  28.610  31.196  1.00  0.00     0.029 A 
ATOM     52  C   UNL A   1      47.123  27.888  30.282  1.00  0.00     0.049 A 
ATOM     53  H   UNL A   1      46.692  25.902  29.744  1.00  0.00     0.167 HD
ATOM     54  C   UNL A   1      40.615  29.783  29.998  1.00  0.00     0.037 A 
ATOM     55  C   UNL A   1      47.950  28.444  29.347  1.00  0.00     0.037 A 
ATOM     56  C   UNL A   1      41.771  30.646  30.272  1.00  0.00     0.049 A 
ATOM     57  C   UNL A   1      47.391  29.780  28.894  1.00  0.00     0.074 A 
ATOM     58  C   UNL A   1      42.539  30.835  31.411  1.00  0.00     0.029 A 
ATOM     59  N   UNL A   1      42.535  31.117  29.207  1.00  0.00    -0.354 N 
ATOM     60  N   UNL A   1      46.141  30.134  29.040  1.00  0.00    -0.248 NA
ATOM     61  C   UNL A   1      48.197  30.833  28.289  1.00  0.00     0.031 C 
ATOM     62  C   UNL A   1      43.797  31.361  31.009  1.00  0.00     0.029 A 
ATOM     63  C   UNL A   1      43.792  31.513  29.631  1.00  0.00     0.049 A 
ATOM     64  H   UNL A   1      42.223  31.163  28.274  1.00  0.00     0.167 HD
ATOM     65  C   UNL A   1      45.968  31.422  28.618  1.00  0.00     0.074 A 
ATOM     66  C   UNL A   1      47.289  31.816  28.157  1.00  0.00     0.031 C 
ATOM     67  C   UNL A   1      44.760  32.063  28.687  1.00  0.00     0.037 A 
BRANCH  54  68
ATOM     68  C   UNL A   1      39.251  29.961  30.648  1.00  0.00     0.064 A 
ATOM     69  C   UNL A   1      38.370  30.963  30.182  1.00  0.00     0.173 A 
ATOM     70  C   UNL A   1      38.749  29.225  31.743  1.00  0.00     0.173 A 
ATOM     71  F   UNL A   1      38.661  31.699  29.101  1.00  0.00    -0.203 F 
ATOM     72  C   UNL A   1      37.146  31.249  30.801  1.00  0.00     0.198 A 
ATOM     73  C   UNL A   1      37.544  29.534  32.386  1.00  0.00     0.198 A 
ATOM     74  F   UNL A   1      39.360  28.134  32.209  1.00  0.00    -0.203 F 
ATOM     75  F   UNL A   1      36.363  32.216  30.305  1.00  0.00    -0.200 F 
ATOM     76  C   UNL A   1      36.743  30.548  31.917  1.00  0.00     0.200 A 
ATOM     77  F   UNL A   1      37.165  28.823  33.458  1.00  0.00    -0.200 F 
ATOM     78  F   UNL A   1      35.579  30.828  32.518  1.00  0.00    -0.200 F 
ENDBRANCH  54  68
BRANCH  55  79
ATOM     79  C   UNL A   1      48.692  27.450  28.505  1.00  0.00     0.064 A 
ATOM     80  C   UNL A   1      48.182  27.168  27.217  1.00  0.00     0.173 A 
ATOM     81  C   UNL A   1      50.001  27.024  28.763  1.00  0.00     0.173 A 
ATOM     82  F   UNL A   1      46.917  27.502  26.916  1.00  0.00    -0.203 F 
ATOM     83  C   UNL A   1      48.978  26.631  26.203  1.00  0.00     0.198 A 
ATOM     84  C   UNL A   1      50.794  26.468  27.746  1.00  0.00     0.198 A 
ATOM     85  F   UNL A   1      50.572  27.263  29.952  1.00  0.00    -0.203 F 
ATOM     86  F   UNL A   1      48.485  26.495  24.963  1.00  0.00    -0.200 F 
ATOM     87  C   UNL A   1      50.296  26.309  26.461  1.00  0.00     0.200 A 
ATOM     88  F   UNL A   1      52.091  26.207  27.979  1.00  0.00    -0.200 F 
ATOM     89  F   UNL A   1      51.102  25.903  25.468  1.00  0.00    -0.200 F 
ENDBRANCH  55  79
BRANCH  67  90
ATOM     90  C   UNL A   1      44.399  33.328  27.940  1.00  0.00     0.064 A 
ATOM     91  C   UNL A   1      44.035  33.359  26.584  1.00  0.00     0.173 A 
ATOM     92  C   UNL A   1      44.255  34.560  28.628  1.00  0.00     0.173 A 
ATOM     93  F   UNL A   1      43.972  32.243  25.846  1.00  0.00    -0.203 F 
ATOM     94  C   UNL A   1      43.653  34.541  25.946  1.00  0.00     0.198 A 
ATOM     95  C   UNL A   1      43.784  35.715  28.009  1.00  0.00     0.198 A 
ATOM     96  F   UNL A   1      44.533  34.681  29.935  1.00  0.00    -0.203 F 
ATOM     97  F   UNL A   1      43.390  34.526  24.631  1.00  0.00    -0.200 F 
ATOM     98  C   UNL A   1      43.512  35.714  26.660  1.00  0.00     0.200 A 
ATOM     99  F   UNL A   1      43.577  36.822  28.738  1.00  0.00    -0.200 F 
ATOM    100  F   UNL A   1      43.093  36.832  26.055  1.00  0.00    -0.200 F 
ENDBRANCH  67  90
ENDBRANCH  41  42
ENDBRANCH  34  36
ENDBRANCH  33  34
ENDBRANCH  32  33
ENDBRANCH   1  32
TORSDOF 15
ENDMDL
