MODEL 1
REMARK VINA RESULT:      -9.4      0.000      0.000
REMARK SMILES O=C(CCCc1nc2cc(Cl)ccc2[nH]1)OCCOC(=O)c1ccc(-c2c3nc(c(-c4c(F)c(F)c(F)c(F)c4F)c4ccc([nH]4)c(-c4c(F)c(F)c(F)c(F)c4F)c4nc(c(-c5c(F)c(F)c(F)c(F)c5F)c5ccc2[nH]5)C=C4)C=C3)cc1
REMARK SMILES IDX 17 1 16 2 2 3 1 4 3 5 4 6 5 7 6 8 7 9 15 10 8 11 14 12 9 14
REMARK SMILES IDX 13 15 10 16 12 17 11 18 18 19 19 20 20 21 21 22 22 23 23 24
REMARK SMILES IDX 84 25 24 26 83 27 25 28 26 29 27 30 77 31 28 32 82 33 76 34
REMARK SMILES IDX 78 35 29 36 81 37 75 38 74 39 30 41 62 42 42 43 61 44 43 45
REMARK SMILES IDX 46 46 60 47 79 48 44 49 45 50 59 52 80 53 47 54 31 55 32 56
REMARK SMILES IDX 40 57 33 58 34 59 38 60 41 61 35 62 36 63 39 64 37 65 63 66
REMARK SMILES IDX 64 67 72 68 65 69 66 70 70 71 73 72 67 73 68 74 71 75 69 76
REMARK SMILES IDX 48 77 49 78 57 79 50 80 51 81 55 82 58 83 52 84 53 85 56 86
REMARK SMILES IDX 54 87
REMARK H PARENT 15 13 78 40 46 51
REMARK Flexibility Score: inf
ROOT
ATOM      1  C   UNL A   1      44.479  19.030  24.592  1.00  0.00     0.274 C 
ENDROOT
BRANCH   1   2
ATOM      2  O   UNL A   1      44.584  20.386  24.120  1.00  0.00    -0.462 OA
BRANCH   2   3
ATOM      3  C   UNL A   1      45.717  21.098  24.343  1.00  0.00     0.305 C 
ATOM      4  O   UNL A   1      46.689  20.582  24.890  1.00  0.00    -0.252 OA
BRANCH   3   5
ATOM      5  C   UNL A   1      45.674  22.587  24.069  1.00  0.00     0.123 C 
BRANCH   5   6
ATOM      6  C   UNL A   1      46.087  23.459  25.257  1.00  0.00     0.020 C 
BRANCH   6   7
ATOM      7  C   UNL A   1      46.635  24.840  24.884  1.00  0.00     0.076 C 
BRANCH   7   8
ATOM      8  C   UNL A   1      45.759  25.971  25.322  1.00  0.00     0.107 A 
ATOM      9  N   UNL A   1      46.156  27.026  26.006  1.00  0.00    -0.233 NA
ATOM     10  N   UNL A   1      44.419  26.060  25.030  1.00  0.00    -0.342 N 
ATOM     11  C   UNL A   1      45.061  27.841  26.116  1.00  0.00     0.090 A 
ATOM     12  C   UNL A   1      43.954  27.261  25.509  1.00  0.00     0.066 A 
ATOM     13  H   UNL A   1      43.885  25.380  24.557  1.00  0.00     0.168 HD
ATOM     14  C   UNL A   1      44.949  29.101  26.717  1.00  0.00     0.051 A 
ATOM     15  C   UNL A   1      42.700  27.874  25.469  1.00  0.00     0.030 A 
ATOM     16  C   UNL A   1      43.706  29.735  26.683  1.00  0.00     0.043 A 
ATOM     17  C   UNL A   1      42.601  29.136  26.073  1.00  0.00     0.023 A 
ATOM     18  Cl  UNL A   1      43.538  31.291  27.403  1.00  0.00    -0.084 Cl
ENDBRANCH   7   8
ENDBRANCH   6   7
ENDBRANCH   5   6
ENDBRANCH   3   5
ENDBRANCH   2   3
ENDBRANCH   1   2
BRANCH   1  19
ATOM     19  C   UNL A   1      43.347  18.836  25.604  1.00  0.00     0.275 C 
BRANCH  19  20
ATOM     20  O   UNL A   1      42.119  19.416  25.130  1.00  0.00    -0.458 OA
BRANCH  20  21
ATOM     21  C   UNL A   1      41.312  19.902  26.105  1.00  0.00     0.338 C 
ATOM     22  O   UNL A   1      40.368  19.337  26.624  1.00  0.00    -0.246 OA
BRANCH  21  23
ATOM     23  C   UNL A   1      41.853  21.187  26.604  1.00  0.00     0.060 A 
ATOM     24  C   UNL A   1      41.985  21.330  27.990  1.00  0.00     0.016 A 
ATOM     25  C   UNL A   1      42.234  22.229  25.752  1.00  0.00     0.016 A 
ATOM     26  C   UNL A   1      42.470  22.521  28.531  1.00  0.00     0.010 A 
ATOM     27  C   UNL A   1      42.714  23.428  26.297  1.00  0.00     0.010 A 
ATOM     28  C   UNL A   1      42.815  23.586  27.691  1.00  0.00    -0.014 A 
BRANCH  28  29
ATOM     29  C   UNL A   1      43.194  24.893  28.283  1.00  0.00     0.031 A 
ATOM     30  C   UNL A   1      42.136  25.937  28.505  1.00  0.00     0.074 A 
ATOM     31  C   UNL A   1      44.466  25.141  28.646  1.00  0.00     0.049 A 
ATOM     32  N   UNL A   1      42.251  27.136  29.020  1.00  0.00    -0.248 NA
ATOM     33  C   UNL A   1      40.767  25.585  28.096  1.00  0.00     0.031 C 
ATOM     34  C   UNL A   1      45.581  24.206  28.512  1.00  0.00     0.029 A 
ATOM     35  N   UNL A   1      45.032  26.264  29.197  1.00  0.00    -0.354 N 
ATOM     36  C   UNL A   1      40.973  27.676  29.005  1.00  0.00     0.074 A 
ATOM     37  C   UNL A   1      40.100  26.689  28.404  1.00  0.00     0.031 C 
ATOM     38  C   UNL A   1      46.704  24.804  28.950  1.00  0.00     0.029 A 
ATOM     39  C   UNL A   1      46.389  26.167  29.375  1.00  0.00     0.049 A 
ATOM     40  H   UNL A   1      44.513  27.065  29.441  1.00  0.00     0.167 HD
ATOM     41  C   UNL A   1      40.562  28.882  29.460  1.00  0.00     0.037 A 
ATOM     42  C   UNL A   1      47.279  27.080  29.812  1.00  0.00     0.037 A 
ATOM     43  C   UNL A   1      41.419  29.864  30.070  1.00  0.00     0.049 A 
ATOM     44  C   UNL A   1      46.803  28.448  30.232  1.00  0.00     0.074 A 
ATOM     45  C   UNL A   1      41.070  31.081  30.631  1.00  0.00     0.029 A 
ATOM     46  N   UNL A   1      42.794  29.750  30.182  1.00  0.00    -0.354 N 
ATOM     47  N   UNL A   1      45.582  28.919  30.286  1.00  0.00    -0.248 NA
ATOM     48  C   UNL A   1      47.833  29.412  30.652  1.00  0.00     0.031 C 
ATOM     49  C   UNL A   1      42.243  31.729  31.033  1.00  0.00     0.029 A 
ATOM     50  C   UNL A   1      43.316  30.898  30.757  1.00  0.00     0.049 A 
ATOM     51  H   UNL A   1      43.323  28.970  29.896  1.00  0.00     0.167 HD
ATOM     52  C   UNL A   1      45.694  30.220  30.762  1.00  0.00     0.074 A 
ATOM     53  C   UNL A   1      47.102  30.462  30.996  1.00  0.00     0.031 C 
ATOM     54  C   UNL A   1      44.717  31.132  30.984  1.00  0.00     0.037 A 
BRANCH  41  55
ATOM     55  C   UNL A   1      39.114  29.229  29.312  1.00  0.00     0.064 A 
ATOM     56  C   UNL A   1      38.556  29.521  28.059  1.00  0.00     0.173 A 
ATOM     57  C   UNL A   1      38.260  29.186  30.423  1.00  0.00     0.173 A 
ATOM     58  F   UNL A   1      39.336  29.582  26.971  1.00  0.00    -0.203 F 
ATOM     59  C   UNL A   1      37.191  29.763  27.926  1.00  0.00     0.198 A 
ATOM     60  C   UNL A   1      36.894  29.409  30.284  1.00  0.00     0.198 A 
ATOM     61  F   UNL A   1      38.749  28.905  31.640  1.00  0.00    -0.203 F 
ATOM     62  F   UNL A   1      36.679  30.056  26.724  1.00  0.00    -0.200 F 
ATOM     63  C   UNL A   1      36.361  29.698  29.036  1.00  0.00     0.200 A 
ATOM     64  F   UNL A   1      36.091  29.337  31.354  1.00  0.00    -0.200 F 
ATOM     65  F   UNL A   1      35.046  29.914  28.903  1.00  0.00    -0.200 F 
ENDBRANCH  41  55
BRANCH  42  66
ATOM     66  C   UNL A   1      48.729  26.757  29.838  1.00  0.00     0.064 A 
ATOM     67  C   UNL A   1      49.316  26.131  30.947  1.00  0.00     0.173 A 
ATOM     68  C   UNL A   1      49.568  27.125  28.775  1.00  0.00     0.173 A 
ATOM     69  F   UNL A   1      48.559  25.790  32.000  1.00  0.00    -0.203 F 
ATOM     70  C   UNL A   1      50.690  25.909  31.001  1.00  0.00     0.198 A 
ATOM     71  C   UNL A   1      50.937  26.879  28.820  1.00  0.00     0.198 A 
ATOM     72  F   UNL A   1      49.055  27.733  27.694  1.00  0.00    -0.203 F 
ATOM     73  F   UNL A   1      51.235  25.360  32.097  1.00  0.00    -0.200 F 
ATOM     74  C   UNL A   1      51.499  26.280  29.938  1.00  0.00     0.200 A 
ATOM     75  F   UNL A   1      51.713  27.234  27.787  1.00  0.00    -0.200 F 
ATOM     76  F   UNL A   1      52.822  26.076  29.996  1.00  0.00    -0.200 F 
ENDBRANCH  42  66
BRANCH  54  77
ATOM     77  C   UNL A   1      45.127  32.476  31.510  1.00  0.00     0.064 A 
ATOM     78  C   UNL A   1      45.374  33.552  30.646  1.00  0.00     0.173 A 
ATOM     79  C   UNL A   1      45.216  32.707  32.891  1.00  0.00     0.173 A 
ATOM     80  F   UNL A   1      45.317  33.377  29.316  1.00  0.00    -0.203 F 
ATOM     81  C   UNL A   1      45.710  34.808  31.146  1.00  0.00     0.198 A 
ATOM     82  C   UNL A   1      45.528  33.970  33.387  1.00  0.00     0.198 A 
ATOM     83  F   UNL A   1      44.983  31.711  33.759  1.00  0.00    -0.203 F 
ATOM     84  F   UNL A   1      45.976  35.814  30.300  1.00  0.00    -0.200 F 
ATOM     85  C   UNL A   1      45.778  35.018  32.514  1.00  0.00     0.200 A 
ATOM     86  F   UNL A   1      45.581  34.174  34.711  1.00  0.00    -0.200 F 
ATOM     87  F   UNL A   1      46.090  36.230  32.993  1.00  0.00    -0.200 F 
ENDBRANCH  54  77
ENDBRANCH  28  29
ENDBRANCH  21  23
ENDBRANCH  20  21
ENDBRANCH  19  20
ENDBRANCH   1  19
TORSDOF 14
ENDMDL
MODEL 2
REMARK VINA RESULT:      -9.2      5.309     10.392
REMARK SMILES O=C(CCCc1nc2cc(Cl)ccc2[nH]1)OCCOC(=O)c1ccc(-c2c3nc(c(-c4c(F)c(F)c(F)c(F)c4F)c4ccc([nH]4)c(-c4c(F)c(F)c(F)c(F)c4F)c4nc(c(-c5c(F)c(F)c(F)c(F)c5F)c5ccc2[nH]5)C=C4)C=C3)cc1
REMARK SMILES IDX 17 1 16 2 2 3 1 4 3 5 4 6 5 7 6 8 7 9 15 10 8 11 14 12 9 14
REMARK SMILES IDX 13 15 10 16 12 17 11 18 18 19 19 20 20 21 21 22 22 23 23 24
REMARK SMILES IDX 84 25 24 26 83 27 25 28 26 29 27 30 77 31 28 32 82 33 76 34
REMARK SMILES IDX 78 35 29 36 81 37 75 38 74 39 30 41 62 42 42 43 61 44 43 45
REMARK SMILES IDX 46 46 60 47 79 48 44 49 45 50 59 52 80 53 47 54 31 55 32 56
REMARK SMILES IDX 40 57 33 58 34 59 38 60 41 61 35 62 36 63 39 64 37 65 63 66
REMARK SMILES IDX 64 67 72 68 65 69 66 70 70 71 73 72 67 73 68 74 71 75 69 76
REMARK SMILES IDX 48 77 49 78 57 79 50 80 51 81 55 82 58 83 52 84 53 85 56 86
REMARK SMILES IDX 54 87
REMARK H PARENT 15 13 78 40 46 51
REMARK Flexibility Score: inf
ROOT
ATOM      1  C   UNL A   1      33.695  34.154  28.557  1.00  0.00     0.274 C 
ENDROOT
BRANCH   1   2
ATOM      2  O   UNL A   1      33.329  34.815  29.784  1.00  0.00    -0.462 OA
BRANCH   2   3
ATOM      3  C   UNL A   1      32.798  36.063  29.750  1.00  0.00     0.305 C 
ATOM      4  O   UNL A   1      32.164  36.453  28.774  1.00  0.00    -0.252 OA
BRANCH   3   5
ATOM      5  C   UNL A   1      33.172  37.013  30.870  1.00  0.00     0.123 C 
BRANCH   5   6
ATOM      6  C   UNL A   1      32.850  36.493  32.272  1.00  0.00     0.020 C 
BRANCH   6   7
ATOM      7  C   UNL A   1      34.028  36.505  33.251  1.00  0.00     0.076 C 
BRANCH   7   8
ATOM      8  C   UNL A   1      34.834  35.244  33.234  1.00  0.00     0.107 A 
ATOM      9  N   UNL A   1      35.817  34.953  34.062  1.00  0.00    -0.233 NA
ATOM     10  N   UNL A   1      34.617  34.209  32.356  1.00  0.00    -0.342 N 
ATOM     11  C   UNL A   1      36.214  33.681  33.749  1.00  0.00     0.090 A 
ATOM     12  C   UNL A   1      35.476  33.185  32.681  1.00  0.00     0.066 A 
ATOM     13  H   UNL A   1      33.960  34.201  31.623  1.00  0.00     0.168 HD
ATOM     14  C   UNL A   1      37.197  32.884  34.348  1.00  0.00     0.051 A 
ATOM     15  C   UNL A   1      35.668  31.908  32.151  1.00  0.00     0.030 A 
ATOM     16  C   UNL A   1      37.402  31.601  33.837  1.00  0.00     0.043 A 
ATOM     17  C   UNL A   1      36.655  31.120  32.759  1.00  0.00     0.023 A 
ATOM     18  Cl  UNL A   1      38.597  30.592  34.559  1.00  0.00    -0.084 Cl
ENDBRANCH   7   8
ENDBRANCH   6   7
ENDBRANCH   5   6
ENDBRANCH   3   5
ENDBRANCH   2   3
ENDBRANCH   1   2
BRANCH   1  19
ATOM     19  C   UNL A   1      34.552  32.907  28.784  1.00  0.00     0.275 C 
BRANCH  19  20
ATOM     20  O   UNL A   1      34.638  32.108  27.592  1.00  0.00    -0.458 OA
BRANCH  20  21
ATOM     21  C   UNL A   1      34.502  30.774  27.795  1.00  0.00     0.338 C 
ATOM     22  O   UNL A   1      33.505  30.102  27.609  1.00  0.00    -0.246 OA
BRANCH  21  23
ATOM     23  C   UNL A   1      35.821  30.184  28.117  1.00  0.00     0.060 A 
ATOM     24  C   UNL A   1      35.945  29.527  29.348  1.00  0.00     0.016 A 
ATOM     25  C   UNL A   1      36.915  30.255  27.247  1.00  0.00     0.016 A 
ATOM     26  C   UNL A   1      37.164  28.964  29.724  1.00  0.00     0.010 A 
ATOM     27  C   UNL A   1      38.141  29.695  27.630  1.00  0.00     0.010 A 
ATOM     28  C   UNL A   1      38.276  29.064  28.880  1.00  0.00    -0.014 A 
BRANCH  28  29
ATOM     29  C   UNL A   1      39.600  28.587  29.352  1.00  0.00     0.031 A 
ATOM     30  C   UNL A   1      40.357  29.397  30.367  1.00  0.00     0.074 A 
ATOM     31  C   UNL A   1      40.113  27.428  28.903  1.00  0.00     0.049 A 
ATOM     32  N   UNL A   1      41.519  29.154  30.920  1.00  0.00    -0.248 NA
ATOM     33  C   UNL A   1      39.722  30.644  30.820  1.00  0.00     0.031 C 
ATOM     34  C   UNL A   1      39.470  26.534  27.942  1.00  0.00     0.029 A 
ATOM     35  N   UNL A   1      41.304  26.808  29.194  1.00  0.00    -0.354 N 
ATOM     36  C   UNL A   1      41.749  30.209  31.791  1.00  0.00     0.074 A 
ATOM     37  C   UNL A   1      40.623  31.111  31.674  1.00  0.00     0.031 C 
ATOM     38  C   UNL A   1      40.285  25.490  27.706  1.00  0.00     0.029 A 
ATOM     39  C   UNL A   1      41.513  25.653  28.484  1.00  0.00     0.049 A 
ATOM     40  H   UNL A   1      41.948  27.161  29.850  1.00  0.00     0.167 HD
ATOM     41  C   UNL A   1      42.800  30.403  32.621  1.00  0.00     0.037 A 
ATOM     42  C   UNL A   1      42.581  24.831  28.451  1.00  0.00     0.037 A 
ATOM     43  C   UNL A   1      43.918  29.506  32.753  1.00  0.00     0.049 A 
ATOM     44  C   UNL A   1      43.776  25.119  29.324  1.00  0.00     0.074 A 
ATOM     45  C   UNL A   1      44.987  29.587  33.628  1.00  0.00     0.029 A 
ATOM     46  N   UNL A   1      44.118  28.377  31.979  1.00  0.00    -0.354 N 
ATOM     47  N   UNL A   1      43.948  26.079  30.200  1.00  0.00    -0.248 NA
ATOM     48  C   UNL A   1      44.926  24.210  29.201  1.00  0.00     0.031 C 
ATOM     49  C   UNL A   1      45.864  28.536  33.345  1.00  0.00     0.029 A 
ATOM     50  C   UNL A   1      45.320  27.779  32.321  1.00  0.00     0.049 A 
ATOM     51  H   UNL A   1      43.498  28.046  31.288  1.00  0.00     0.167 HD
ATOM     52  C   UNL A   1      45.211  25.876  30.744  1.00  0.00     0.074 A 
ATOM     53  C   UNL A   1      45.757  24.695  30.112  1.00  0.00     0.031 C 
ATOM     54  C   UNL A   1      45.859  26.607  31.685  1.00  0.00     0.037 A 
BRANCH  41  55
ATOM     55  C   UNL A   1      42.811  31.645  33.457  1.00  0.00     0.064 A 
ATOM     56  C   UNL A   1      43.293  32.861  32.953  1.00  0.00     0.173 A 
ATOM     57  C   UNL A   1      42.257  31.634  34.744  1.00  0.00     0.173 A 
ATOM     58  F   UNL A   1      43.840  32.916  31.730  1.00  0.00    -0.203 F 
ATOM     59  C   UNL A   1      43.223  34.025  33.714  1.00  0.00     0.198 A 
ATOM     60  C   UNL A   1      42.170  32.803  35.494  1.00  0.00     0.198 A 
ATOM     61  F   UNL A   1      41.778  30.494  35.264  1.00  0.00    -0.203 F 
ATOM     62  F   UNL A   1      43.702  35.175  33.222  1.00  0.00    -0.200 F 
ATOM     63  C   UNL A   1      42.654  33.996  34.979  1.00  0.00     0.200 A 
ATOM     64  F   UNL A   1      41.612  32.777  36.712  1.00  0.00    -0.200 F 
ATOM     65  F   UNL A   1      42.571  35.121  35.703  1.00  0.00    -0.200 F 
ENDBRANCH  41  55
BRANCH  42  66
ATOM     66  C   UNL A   1      42.600  23.669  27.525  1.00  0.00     0.064 A 
ATOM     67  C   UNL A   1      42.176  22.399  27.940  1.00  0.00     0.173 A 
ATOM     68  C   UNL A   1      43.102  23.796  26.221  1.00  0.00     0.173 A 
ATOM     69  F   UNL A   1      41.718  22.223  29.188  1.00  0.00    -0.203 F 
ATOM     70  C   UNL A   1      42.277  21.297  27.095  1.00  0.00     0.198 A 
ATOM     71  C   UNL A   1      43.179  22.698  25.369  1.00  0.00     0.198 A 
ATOM     72  F   UNL A   1      43.527  24.990  25.778  1.00  0.00    -0.203 F 
ATOM     73  F   UNL A   1      41.918  20.082  27.536  1.00  0.00    -0.200 F 
ATOM     74  C   UNL A   1      42.776  21.447  25.810  1.00  0.00     0.200 A 
ATOM     75  F   UNL A   1      43.655  22.850  24.125  1.00  0.00    -0.200 F 
ATOM     76  F   UNL A   1      42.883  20.384  25.001  1.00  0.00    -0.200 F 
ENDBRANCH  42  66
BRANCH  54  77
ATOM     77  C   UNL A   1      47.229  26.153  32.094  1.00  0.00     0.064 A 
ATOM     78  C   UNL A   1      47.415  25.285  33.179  1.00  0.00     0.173 A 
ATOM     79  C   UNL A   1      48.360  26.542  31.360  1.00  0.00     0.173 A 
ATOM     80  F   UNL A   1      46.366  24.898  33.921  1.00  0.00    -0.203 F 
ATOM     81  C   UNL A   1      48.687  24.834  33.524  1.00  0.00     0.198 A 
ATOM     82  C   UNL A   1      49.627  26.069  31.692  1.00  0.00     0.198 A 
ATOM     83  F   UNL A   1      48.234  27.367  30.310  1.00  0.00    -0.203 F 
ATOM     84  F   UNL A   1      48.846  24.032  34.586  1.00  0.00    -0.200 F 
ATOM     85  C   UNL A   1      49.789  25.219  32.776  1.00  0.00     0.200 A 
ATOM     86  F   UNL A   1      50.690  26.432  30.962  1.00  0.00    -0.200 F 
ATOM     87  F   UNL A   1      51.011  24.774  33.102  1.00  0.00    -0.200 F 
ENDBRANCH  54  77
ENDBRANCH  28  29
ENDBRANCH  21  23
ENDBRANCH  20  21
ENDBRANCH  19  20
ENDBRANCH   1  19
TORSDOF 14
ENDMDL
MODEL 3
REMARK VINA RESULT:      -9.2      4.214      9.182
REMARK SMILES O=C(CCCc1nc2cc(Cl)ccc2[nH]1)OCCOC(=O)c1ccc(-c2c3nc(c(-c4c(F)c(F)c(F)c(F)c4F)c4ccc([nH]4)c(-c4c(F)c(F)c(F)c(F)c4F)c4nc(c(-c5c(F)c(F)c(F)c(F)c5F)c5ccc2[nH]5)C=C4)C=C3)cc1
REMARK SMILES IDX 17 1 16 2 2 3 1 4 3 5 4 6 5 7 6 8 7 9 15 10 8 11 14 12 9 14
REMARK SMILES IDX 13 15 10 16 12 17 11 18 18 19 19 20 20 21 21 22 22 23 23 24
REMARK SMILES IDX 84 25 24 26 83 27 25 28 26 29 27 30 77 31 28 32 82 33 76 34
REMARK SMILES IDX 78 35 29 36 81 37 75 38 74 39 30 41 62 42 42 43 61 44 43 45
REMARK SMILES IDX 46 46 60 47 79 48 44 49 45 50 59 52 80 53 47 54 31 55 32 56
REMARK SMILES IDX 40 57 33 58 34 59 38 60 41 61 35 62 36 63 39 64 37 65 63 66
REMARK SMILES IDX 64 67 72 68 65 69 66 70 70 71 73 72 67 73 68 74 71 75 69 76
REMARK SMILES IDX 48 77 49 78 57 79 50 80 51 81 55 82 58 83 52 84 53 85 56 86
REMARK SMILES IDX 54 87
REMARK H PARENT 15 13 78 40 46 51
REMARK Flexibility Score: inf
ROOT
ATOM      1  C   UNL A   1      44.889  21.519  25.426  1.00  0.00     0.274 C 
ENDROOT
BRANCH   1   2
ATOM      2  O   UNL A   1      45.602  20.310  25.104  1.00  0.00    -0.462 OA
BRANCH   2   3
ATOM      3  C   UNL A   1      44.918  19.183  24.782  1.00  0.00     0.305 C 
ATOM      4  O   UNL A   1      44.854  18.794  23.619  1.00  0.00    -0.252 OA
BRANCH   3   5
ATOM      5  C   UNL A   1      44.087  18.533  25.870  1.00  0.00     0.123 C 
BRANCH   5   6
ATOM      6  C   UNL A   1      42.592  18.852  25.797  1.00  0.00     0.020 C 
BRANCH   6   7
ATOM      7  C   UNL A   1      42.013  19.518  27.050  1.00  0.00     0.076 C 
BRANCH   7   8
ATOM      8  C   UNL A   1      40.997  20.574  26.751  1.00  0.00     0.107 A 
ATOM      9  N   UNL A   1      39.943  20.424  25.973  1.00  0.00    -0.233 NA
ATOM     10  N   UNL A   1      41.026  21.839  27.287  1.00  0.00    -0.342 N 
ATOM     11  C   UNL A   1      39.246  21.600  26.047  1.00  0.00     0.090 A 
ATOM     12  C   UNL A   1      39.901  22.509  26.868  1.00  0.00     0.066 A 
ATOM     13  H   UNL A   1      41.731  22.203  27.872  1.00  0.00     0.168 HD
ATOM     14  C   UNL A   1      38.034  21.953  25.441  1.00  0.00     0.051 A 
ATOM     15  C   UNL A   1      39.413  23.791  27.125  1.00  0.00     0.030 A 
ATOM     16  C   UNL A   1      37.524  23.228  25.689  1.00  0.00     0.043 A 
ATOM     17  C   UNL A   1      38.198  24.133  26.513  1.00  0.00     0.023 A 
ATOM     18  Cl  UNL A   1      36.029  23.690  24.967  1.00  0.00    -0.084 Cl
ENDBRANCH   7   8
ENDBRANCH   6   7
ENDBRANCH   5   6
ENDBRANCH   3   5
ENDBRANCH   2   3
ENDBRANCH   1   2
BRANCH   1  19
ATOM     19  C   UNL A   1      44.451  22.301  24.186  1.00  0.00     0.275 C 
BRANCH  19  20
ATOM     20  O   UNL A   1      43.763  23.510  24.548  1.00  0.00    -0.458 OA
BRANCH  20  21
ATOM     21  C   UNL A   1      44.569  24.508  24.985  1.00  0.00     0.338 C 
ATOM     22  O   UNL A   1      45.633  24.854  24.507  1.00  0.00    -0.246 OA
BRANCH  21  23
ATOM     23  C   UNL A   1      43.881  25.271  26.051  1.00  0.00     0.060 A 
ATOM     24  C   UNL A   1      44.132  26.648  26.116  1.00  0.00     0.016 A 
ATOM     25  C   UNL A   1      43.007  24.674  26.966  1.00  0.00     0.016 A 
ATOM     26  C   UNL A   1      43.533  27.425  27.107  1.00  0.00     0.010 A 
ATOM     27  C   UNL A   1      42.412  25.456  27.966  1.00  0.00     0.010 A 
ATOM     28  C   UNL A   1      42.688  26.832  28.053  1.00  0.00    -0.014 A 
BRANCH  28  29
ATOM     29  C   UNL A   1      42.172  27.642  29.184  1.00  0.00     0.031 A 
ATOM     30  C   UNL A   1      42.873  27.587  30.512  1.00  0.00     0.074 A 
ATOM     31  C   UNL A   1      41.101  28.442  29.025  1.00  0.00     0.049 A 
ATOM     32  N   UNL A   1      42.595  28.224  31.622  1.00  0.00    -0.248 NA
ATOM     33  C   UNL A   1      44.044  26.701  30.602  1.00  0.00     0.031 C 
ATOM     34  C   UNL A   1      40.348  28.609  27.783  1.00  0.00     0.029 A 
ATOM     35  N   UNL A   1      40.460  29.260  29.922  1.00  0.00    -0.354 N 
ATOM     36  C   UNL A   1      43.558  27.823  32.537  1.00  0.00     0.074 A 
ATOM     37  C   UNL A   1      44.412  26.867  31.865  1.00  0.00     0.031 C 
ATOM     38  C   UNL A   1      39.331  29.461  28.004  1.00  0.00     0.029 A 
ATOM     39  C   UNL A   1      39.351  29.883  29.405  1.00  0.00     0.049 A 
ATOM     40  H   UNL A   1      40.765  29.388  30.849  1.00  0.00     0.167 HD
ATOM     41  C   UNL A   1      43.722  28.224  33.819  1.00  0.00     0.037 A 
ATOM     42  C   UNL A   1      38.445  30.685  29.999  1.00  0.00     0.037 A 
ATOM     43  C   UNL A   1      42.886  29.183  34.492  1.00  0.00     0.049 A 
ATOM     44  C   UNL A   1      38.605  31.047  31.454  1.00  0.00     0.074 A 
ATOM     45  C   UNL A   1      43.028  29.705  35.766  1.00  0.00     0.029 A 
ATOM     46  N   UNL A   1      41.744  29.749  33.952  1.00  0.00    -0.354 N 
ATOM     47  N   UNL A   1      39.564  30.723  32.287  1.00  0.00    -0.248 NA
ATOM     48  C   UNL A   1      37.554  31.886  32.051  1.00  0.00     0.031 C 
ATOM     49  C   UNL A   1      41.940  30.546  36.018  1.00  0.00     0.029 A 
ATOM     50  C   UNL A   1      41.142  30.577  34.886  1.00  0.00     0.049 A 
ATOM     51  H   UNL A   1      41.408  29.588  33.040  1.00  0.00     0.167 HD
ATOM     52  C   UNL A   1      39.243  31.333  33.493  1.00  0.00     0.074 A 
ATOM     53  C   UNL A   1      38.009  32.058  33.284  1.00  0.00     0.031 C 
ATOM     54  C   UNL A   1      39.913  31.292  34.671  1.00  0.00     0.037 A 
BRANCH  41  55
ATOM     55  C   UNL A   1      44.846  27.622  34.602  1.00  0.00     0.064 A 
ATOM     56  C   UNL A   1      46.091  28.259  34.703  1.00  0.00     0.173 A 
ATOM     57  C   UNL A   1      44.647  26.438  35.326  1.00  0.00     0.173 A 
ATOM     58  F   UNL A   1      46.328  29.389  34.021  1.00  0.00    -0.203 F 
ATOM     59  C   UNL A   1      47.100  27.727  35.501  1.00  0.00     0.198 A 
ATOM     60  C   UNL A   1      45.652  25.920  36.137  1.00  0.00     0.198 A 
ATOM     61  F   UNL A   1      43.470  25.797  35.263  1.00  0.00    -0.203 F 
ATOM     62  F   UNL A   1      48.289  28.341  35.573  1.00  0.00    -0.200 F 
ATOM     63  C   UNL A   1      46.877  26.564  36.223  1.00  0.00     0.200 A 
ATOM     64  F   UNL A   1      45.433  24.801  36.841  1.00  0.00    -0.200 F 
ATOM     65  F   UNL A   1      47.844  26.063  37.003  1.00  0.00    -0.200 F 
ENDBRANCH  41  55
BRANCH  42  66
ATOM     66  C   UNL A   1      37.269  31.176  29.236  1.00  0.00     0.064 A 
ATOM     67  C   UNL A   1      37.160  32.519  28.850  1.00  0.00     0.173 A 
ATOM     68  C   UNL A   1      36.201  30.320  28.930  1.00  0.00     0.173 A 
ATOM     69  F   UNL A   1      38.142  33.382  29.148  1.00  0.00    -0.203 F 
ATOM     70  C   UNL A   1      36.016  32.992  28.210  1.00  0.00     0.198 A 
ATOM     71  C   UNL A   1      35.069  30.788  28.269  1.00  0.00     0.198 A 
ATOM     72  F   UNL A   1      36.254  29.027  29.285  1.00  0.00    -0.203 F 
ATOM     73  F   UNL A   1      35.912  34.293  27.903  1.00  0.00    -0.200 F 
ATOM     74  C   UNL A   1      34.973  32.127  27.918  1.00  0.00     0.200 A 
ATOM     75  F   UNL A   1      34.067  29.946  27.983  1.00  0.00    -0.200 F 
ATOM     76  F   UNL A   1      33.869  32.584  27.313  1.00  0.00    -0.200 F 
ENDBRANCH  42  66
BRANCH  54  77
ATOM     77  C   UNL A   1      39.334  32.055  35.826  1.00  0.00     0.064 A 
ATOM     78  C   UNL A   1      39.655  33.402  36.044  1.00  0.00     0.173 A 
ATOM     79  C   UNL A   1      38.406  31.451  36.689  1.00  0.00     0.173 A 
ATOM     80  F   UNL A   1      40.549  34.019  35.256  1.00  0.00    -0.203 F 
ATOM     81  C   UNL A   1      39.077  34.115  37.093  1.00  0.00     0.198 A 
ATOM     82  C   UNL A   1      37.812  32.174  37.720  1.00  0.00     0.198 A 
ATOM     83  F   UNL A   1      38.062  30.166  36.519  1.00  0.00    -0.203 F 
ATOM     84  F   UNL A   1      39.424  35.392  37.303  1.00  0.00    -0.200 F 
ATOM     85  C   UNL A   1      38.151  33.503  37.924  1.00  0.00     0.200 A 
ATOM     86  F   UNL A   1      36.908  31.584  38.515  1.00  0.00    -0.200 F 
ATOM     87  F   UNL A   1      37.588  34.193  38.925  1.00  0.00    -0.200 F 
ENDBRANCH  54  77
ENDBRANCH  28  29
ENDBRANCH  21  23
ENDBRANCH  20  21
ENDBRANCH  19  20
ENDBRANCH   1  19
TORSDOF 14
ENDMDL
