MODEL 1
REMARK VINA RESULT:     -11.6      0.000      0.000
REMARK SMILES C[C@@H]1[C@@H](C(=O)OCCOC(=O)c2ccc(-c3c4nc(c(-c5c(F)c(F)c(F)c(F)c5F)c5ccc([nH]5)c(-c5c(F)c(F)c(F)c(F)c5F)c5nc(c(-c6c(F)c(F)c(F)c(F)c6F)c6ccc3[nH]6)C=C5)C=C4)cc2)CCN1C(=O)Nc1nccs1
REMARK SMILES IDX 7 1 6 2 4 3 5 4 3 5 1 6 2 7 77 8 75 9 76 10 78 11 79 12
REMARK SMILES IDX 80 13 81 15 82 16 85 17 83 18 84 19 8 20 9 21 10 22 11 23
REMARK SMILES IDX 12 24 13 25 74 26 14 27 73 28 15 29 16 30 17 31 67 32 18 33
REMARK SMILES IDX 72 34 66 35 68 36 19 37 71 38 65 39 64 40 20 42 52 43 32 44
REMARK SMILES IDX 51 45 33 46 36 47 50 48 69 49 34 50 35 51 49 53 70 54 37 55
REMARK SMILES IDX 21 56 22 57 30 58 23 59 24 60 28 61 31 62 25 63 26 64 29 65
REMARK SMILES IDX 27 66 53 67 54 68 62 69 55 70 56 71 60 72 63 73 57 74 58 75
REMARK SMILES IDX 61 76 59 77 38 78 39 79 47 80 40 81 41 82 45 83 48 84 42 85
REMARK SMILES IDX 43 86 46 87 44 88
REMARK H PARENT 80 14 68 41 36 52
REMARK Flexibility Score: inf
ROOT
ATOM      1  C   UNL A   1      31.636  28.467  25.765  1.00  0.00     0.274 C 
ENDROOT
BRANCH   1   2
ATOM      2  O   UNL A   1      31.423  27.904  24.455  1.00  0.00    -0.462 OA
BRANCH   2   3
ATOM      3  C   UNL A   1      30.973  26.616  24.414  1.00  0.00     0.311 C 
ATOM      4  O   UNL A   1      29.878  26.251  24.814  1.00  0.00    -0.252 OA
BRANCH   3   5
ATOM      5  C   UNL A   1      32.005  25.723  23.742  1.00  0.00     0.123 C 
ATOM      6  C   UNL A   1      32.344  23.391  22.856  1.00  0.00     0.032 C 
ATOM      7  C   UNL A   1      31.706  24.231  23.973  1.00  0.00     0.098 C 
ATOM      8  N   UNL A   1      32.323  23.948  25.269  1.00  0.00    -0.321 N 
ATOM      9  C   UNL A   1      33.390  25.887  24.367  1.00  0.00     0.039 C 
ATOM     10  C   UNL A   1      33.366  24.928  25.551  1.00  0.00     0.122 C 
BRANCH   8  11
ATOM     11  C   UNL A   1      31.873  23.184  26.305  1.00  0.00     0.323 C 
ATOM     12  O   UNL A   1      31.370  23.727  27.300  1.00  0.00    -0.248 OA
ATOM     13  N   UNL A   1      31.822  21.841  26.308  1.00  0.00    -0.283 N 
ATOM     14  H   UNL A   1      31.130  21.482  26.911  1.00  0.00     0.174 HD
BRANCH  13  15
ATOM     15  C   UNL A   1      32.519  20.870  25.660  1.00  0.00     0.190 A 
ATOM     16  N   UNL A   1      32.128  19.866  24.921  1.00  0.00    -0.228 NA
ATOM     17  S   UNL A   1      34.217  21.072  25.798  1.00  0.00    -0.105 S 
ATOM     18  C   UNL A   1      33.227  19.208  24.404  1.00  0.00     0.125 A 
ATOM     19  C   UNL A   1      34.453  19.695  24.803  1.00  0.00     0.088 A 
ENDBRANCH  13  15
ENDBRANCH   8  11
ENDBRANCH   3   5
ENDBRANCH   2   3
ENDBRANCH   1   2
BRANCH   1  20
ATOM     20  C   UNL A   1      31.758  29.994  25.722  1.00  0.00     0.275 C 
BRANCH  20  21
ATOM     21  O   UNL A   1      33.120  30.432  25.898  1.00  0.00    -0.458 OA
BRANCH  21  22
ATOM     22  C   UNL A   1      33.304  31.368  26.856  1.00  0.00     0.338 C 
ATOM     23  O   UNL A   1      32.517  32.244  27.192  1.00  0.00    -0.246 OA
BRANCH  22  24
ATOM     24  C   UNL A   1      34.542  31.090  27.605  1.00  0.00     0.060 A 
ATOM     25  C   UNL A   1      34.745  29.771  28.008  1.00  0.00     0.016 A 
ATOM     26  C   UNL A   1      35.463  32.082  27.953  1.00  0.00     0.016 A 
ATOM     27  C   UNL A   1      35.877  29.427  28.736  1.00  0.00     0.010 A 
ATOM     28  C   UNL A   1      36.594  31.738  28.712  1.00  0.00     0.010 A 
ATOM     29  C   UNL A   1      36.805  30.406  29.104  1.00  0.00    -0.014 A 
BRANCH  29  30
ATOM     30  C   UNL A   1      37.944  29.998  29.963  1.00  0.00     0.031 A 
ATOM     31  C   UNL A   1      39.071  29.204  29.372  1.00  0.00     0.074 A 
ATOM     32  C   UNL A   1      38.036  30.460  31.224  1.00  0.00     0.049 A 
ATOM     33  N   UNL A   1      40.177  28.790  29.936  1.00  0.00    -0.248 NA
ATOM     34  C   UNL A   1      38.943  28.843  27.953  1.00  0.00     0.031 C 
ATOM     35  C   UNL A   1      37.055  31.326  31.874  1.00  0.00     0.029 A 
ATOM     36  N   UNL A   1      39.022  30.303  32.165  1.00  0.00    -0.354 N 
ATOM     37  C   UNL A   1      40.866  28.099  28.949  1.00  0.00     0.074 A 
ATOM     38  C   UNL A   1      40.062  28.163  27.746  1.00  0.00     0.031 C 
ATOM     39  C   UNL A   1      37.511  31.665  33.091  1.00  0.00     0.029 A 
ATOM     40  C   UNL A   1      38.794  31.005  33.325  1.00  0.00     0.049 A 
ATOM     41  H   UNL A   1      39.818  29.741  32.024  1.00  0.00     0.167 HD
ATOM     42  C   UNL A   1      42.051  27.451  29.045  1.00  0.00     0.037 A 
ATOM     43  C   UNL A   1      39.539  31.100  34.444  1.00  0.00     0.037 A 
ATOM     44  C   UNL A   1      42.845  27.376  30.243  1.00  0.00     0.049 A 
ATOM     45  C   UNL A   1      40.822  30.316  34.542  1.00  0.00     0.074 A 
ATOM     46  C   UNL A   1      44.019  26.676  30.460  1.00  0.00     0.029 A 
ATOM     47  N   UNL A   1      42.544  28.027  31.430  1.00  0.00    -0.354 N 
ATOM     48  N   UNL A   1      41.437  29.611  33.625  1.00  0.00    -0.248 NA
ATOM     49  C   UNL A   1      41.502  30.323  35.847  1.00  0.00     0.031 C 
ATOM     50  C   UNL A   1      44.409  26.874  31.789  1.00  0.00     0.029 A 
ATOM     51  C   UNL A   1      43.502  27.734  32.387  1.00  0.00     0.049 A 
ATOM     52  H   UNL A   1      41.765  28.613  31.571  1.00  0.00     0.167 HD
ATOM     53  C   UNL A   1      42.570  29.090  34.238  1.00  0.00     0.074 A 
ATOM     54  C   UNL A   1      42.582  29.598  35.594  1.00  0.00     0.031 C 
ATOM     55  C   UNL A   1      43.505  28.250  33.732  1.00  0.00     0.037 A 
BRANCH  42  56
ATOM     56  C   UNL A   1      42.527  26.708  27.834  1.00  0.00     0.064 A 
ATOM     57  C   UNL A   1      43.425  27.278  26.921  1.00  0.00     0.173 A 
ATOM     58  C   UNL A   1      42.092  25.395  27.601  1.00  0.00     0.173 A 
ATOM     59  F   UNL A   1      43.853  28.537  27.091  1.00  0.00    -0.203 F 
ATOM     60  C   UNL A   1      43.856  26.564  25.805  1.00  0.00     0.198 A 
ATOM     61  C   UNL A   1      42.543  24.677  26.498  1.00  0.00     0.198 A 
ATOM     62  F   UNL A   1      41.234  24.807  28.447  1.00  0.00    -0.203 F 
ATOM     63  F   UNL A   1      44.685  27.139  24.923  1.00  0.00    -0.200 F 
ATOM     64  C   UNL A   1      43.420  25.263  25.598  1.00  0.00     0.200 A 
ATOM     65  F   UNL A   1      42.126  23.418  26.304  1.00  0.00    -0.200 F 
ATOM     66  F   UNL A   1      43.839  24.577  24.526  1.00  0.00    -0.200 F 
ENDBRANCH  42  56
BRANCH  43  67
ATOM     67  C   UNL A   1      39.100  31.960  35.576  1.00  0.00     0.064 A 
ATOM     68  C   UNL A   1      39.534  33.291  35.672  1.00  0.00     0.173 A 
ATOM     69  C   UNL A   1      38.287  31.466  36.606  1.00  0.00     0.173 A 
ATOM     70  F   UNL A   1      40.338  33.802  34.727  1.00  0.00    -0.203 F 
ATOM     71  C   UNL A   1      39.189  34.084  36.764  1.00  0.00     0.198 A 
ATOM     72  C   UNL A   1      37.916  32.271  37.681  1.00  0.00     0.198 A 
ATOM     73  F   UNL A   1      37.854  30.197  36.570  1.00  0.00    -0.203 F 
ATOM     74  F   UNL A   1      39.667  35.333  36.859  1.00  0.00    -0.200 F 
ATOM     75  C   UNL A   1      38.377  33.576  37.765  1.00  0.00     0.200 A 
ATOM     76  F   UNL A   1      37.124  31.777  38.642  1.00  0.00    -0.200 F 
ATOM     77  F   UNL A   1      38.049  34.338  38.817  1.00  0.00    -0.200 F 
ENDBRANCH  43  67
BRANCH  55  78
ATOM     78  C   UNL A   1      44.618  27.824  34.643  1.00  0.00     0.064 A 
ATOM     79  C   UNL A   1      45.796  28.578  34.758  1.00  0.00     0.173 A 
ATOM     80  C   UNL A   1      44.489  26.682  35.447  1.00  0.00     0.173 A 
ATOM     81  F   UNL A   1      45.974  29.672  34.000  1.00  0.00    -0.203 F 
ATOM     82  C   UNL A   1      46.814  28.191  35.626  1.00  0.00     0.198 A 
ATOM     83  C   UNL A   1      45.497  26.313  36.334  1.00  0.00     0.198 A 
ATOM     84  F   UNL A   1      43.380  25.931  35.381  1.00  0.00    -0.203 F 
ATOM     85  F   UNL A   1      47.947  28.903  35.687  1.00  0.00    -0.200 F 
ATOM     86  C   UNL A   1      46.660  27.064  36.419  1.00  0.00     0.200 A 
ATOM     87  F   UNL A   1      45.343  25.230  37.109  1.00  0.00    -0.200 F 
ATOM     88  F   UNL A   1      47.637  26.697  37.261  1.00  0.00    -0.200 F 
ENDBRANCH  55  78
ENDBRANCH  29  30
ENDBRANCH  22  24
ENDBRANCH  21  22
ENDBRANCH  20  21
ENDBRANCH   1  20
TORSDOF 13
ENDMDL
MODEL 2
REMARK VINA RESULT:     -11.5      1.750      8.013
REMARK SMILES C[C@@H]1[C@@H](C(=O)OCCOC(=O)c2ccc(-c3c4nc(c(-c5c(F)c(F)c(F)c(F)c5F)c5ccc([nH]5)c(-c5c(F)c(F)c(F)c(F)c5F)c5nc(c(-c6c(F)c(F)c(F)c(F)c6F)c6ccc3[nH]6)C=C5)C=C4)cc2)CCN1C(=O)Nc1nccs1
REMARK SMILES IDX 7 1 6 2 4 3 5 4 3 5 1 6 2 7 77 8 75 9 76 10 78 11 79 12
REMARK SMILES IDX 80 13 81 15 82 16 85 17 83 18 84 19 8 20 9 21 10 22 11 23
REMARK SMILES IDX 12 24 13 25 74 26 14 27 73 28 15 29 16 30 17 31 67 32 18 33
REMARK SMILES IDX 72 34 66 35 68 36 19 37 71 38 65 39 64 40 20 42 52 43 32 44
REMARK SMILES IDX 51 45 33 46 36 47 50 48 69 49 34 50 35 51 49 53 70 54 37 55
REMARK SMILES IDX 21 56 22 57 30 58 23 59 24 60 28 61 31 62 25 63 26 64 29 65
REMARK SMILES IDX 27 66 53 67 54 68 62 69 55 70 56 71 60 72 63 73 57 74 58 75
REMARK SMILES IDX 61 76 59 77 38 78 39 79 47 80 40 81 41 82 45 83 48 84 42 85
REMARK SMILES IDX 43 86 46 87 44 88
REMARK H PARENT 80 14 68 41 36 52
REMARK Flexibility Score: inf
ROOT
ATOM      1  C   UNL A   1      31.853  28.415  27.239  1.00  0.00     0.274 C 
ENDROOT
BRANCH   1   2
ATOM      2  O   UNL A   1      32.218  27.609  26.101  1.00  0.00    -0.462 OA
BRANCH   2   3
ATOM      3  C   UNL A   1      31.508  26.458  25.919  1.00  0.00     0.311 C 
ATOM      4  O   UNL A   1      30.288  26.397  25.870  1.00  0.00    -0.252 OA
BRANCH   3   5
ATOM      5  C   UNL A   1      32.455  25.285  25.724  1.00  0.00     0.123 C 
ATOM      6  C   UNL A   1      34.741  24.697  24.849  1.00  0.00     0.032 C 
ATOM      7  C   UNL A   1      33.496  25.567  24.626  1.00  0.00     0.098 C 
ATOM      8  N   UNL A   1      32.806  25.201  23.389  1.00  0.00    -0.321 N 
ATOM      9  C   UNL A   1      31.729  24.052  25.187  1.00  0.00     0.039 C 
ATOM     10  C   UNL A   1      31.723  24.268  23.678  1.00  0.00     0.122 C 
BRANCH   8  11
ATOM     11  C   UNL A   1      32.808  25.814  22.171  1.00  0.00     0.323 C 
ATOM     12  O   UNL A   1      33.653  25.495  21.320  1.00  0.00    -0.248 OA
ATOM     13  N   UNL A   1      31.881  26.689  21.745  1.00  0.00    -0.283 N 
ATOM     14  H   UNL A   1      31.794  26.714  20.764  1.00  0.00     0.174 HD
BRANCH  13  15
ATOM     15  C   UNL A   1      31.039  27.550  22.377  1.00  0.00     0.190 A 
ATOM     16  N   UNL A   1      29.766  27.467  22.661  1.00  0.00    -0.228 NA
ATOM     17  S   UNL A   1      31.838  28.953  22.955  1.00  0.00    -0.105 S 
ATOM     18  C   UNL A   1      29.379  28.568  23.400  1.00  0.00     0.125 A 
ATOM     19  C   UNL A   1      30.361  29.507  23.626  1.00  0.00     0.088 A 
ENDBRANCH  13  15
ENDBRANCH   8  11
ENDBRANCH   3   5
ENDBRANCH   2   3
ENDBRANCH   1   2
BRANCH   1  20
ATOM     20  C   UNL A   1      31.778  29.906  26.889  1.00  0.00     0.275 C 
BRANCH  20  21
ATOM     21  O   UNL A   1      33.060  30.433  26.496  1.00  0.00    -0.458 OA
BRANCH  21  22
ATOM     22  C   UNL A   1      33.486  31.501  27.208  1.00  0.00     0.338 C 
ATOM     23  O   UNL A   1      32.847  32.510  27.476  1.00  0.00    -0.246 OA
BRANCH  22  24
ATOM     24  C   UNL A   1      34.804  31.221  27.801  1.00  0.00     0.060 A 
ATOM     25  C   UNL A   1      35.038  29.909  28.214  1.00  0.00     0.016 A 
ATOM     26  C   UNL A   1      35.777  32.205  28.001  1.00  0.00     0.016 A 
ATOM     27  C   UNL A   1      36.248  29.565  28.803  1.00  0.00     0.010 A 
ATOM     28  C   UNL A   1      36.990  31.861  28.620  1.00  0.00     0.010 A 
ATOM     29  C   UNL A   1      37.230  30.536  29.022  1.00  0.00    -0.014 A 
BRANCH  29  30
ATOM     30  C   UNL A   1      38.462  30.132  29.741  1.00  0.00     0.031 A 
ATOM     31  C   UNL A   1      38.663  30.558  31.165  1.00  0.00     0.074 A 
ATOM     32  C   UNL A   1      39.324  29.270  29.170  1.00  0.00     0.049 A 
ATOM     33  N   UNL A   1      39.643  30.274  31.985  1.00  0.00    -0.248 NA
ATOM     34  C   UNL A   1      37.611  31.403  31.750  1.00  0.00     0.031 C 
ATOM     35  C   UNL A   1      39.180  28.704  27.830  1.00  0.00     0.029 A 
ATOM     36  N   UNL A   1      40.464  28.686  29.661  1.00  0.00    -0.354 N 
ATOM     37  C   UNL A   1      39.340  30.923  33.173  1.00  0.00     0.074 A 
ATOM     38  C   UNL A   1      38.077  31.603  32.975  1.00  0.00     0.031 C 
ATOM     39  C   UNL A   1      40.168  27.816  27.624  1.00  0.00     0.029 A 
ATOM     40  C   UNL A   1      41.038  27.783  28.798  1.00  0.00     0.049 A 
ATOM     41  H   UNL A   1      40.837  28.893  30.549  1.00  0.00     0.167 HD
ATOM     42  C   UNL A   1      40.062  30.966  34.318  1.00  0.00     0.037 A 
ATOM     43  C   UNL A   1      42.139  27.020  28.943  1.00  0.00     0.037 A 
ATOM     44  C   UNL A   1      41.323  30.301  34.512  1.00  0.00     0.049 A 
ATOM     45  C   UNL A   1      42.955  27.139  30.205  1.00  0.00     0.074 A 
ATOM     46  C   UNL A   1      42.168  30.351  35.608  1.00  0.00     0.029 A 
ATOM     47  N   UNL A   1      41.922  29.461  33.586  1.00  0.00    -0.354 N 
ATOM     48  N   UNL A   1      42.696  27.806  31.302  1.00  0.00    -0.248 NA
ATOM     49  C   UNL A   1      44.234  26.413  30.235  1.00  0.00     0.031 C 
ATOM     50  C   UNL A   1      43.295  29.571  35.329  1.00  0.00     0.029 A 
ATOM     51  C   UNL A   1      43.132  28.998  34.078  1.00  0.00     0.049 A 
ATOM     52  H   UNL A   1      41.543  29.227  32.707  1.00  0.00     0.167 HD
ATOM     53  C   UNL A   1      43.775  27.585  32.149  1.00  0.00     0.074 A 
ATOM     54  C   UNL A   1      44.672  26.683  31.456  1.00  0.00     0.031 C 
ATOM     55  C   UNL A   1      44.013  28.098  33.380  1.00  0.00     0.037 A 
BRANCH  42  56
ATOM     56  C   UNL A   1      39.535  31.822  35.430  1.00  0.00     0.064 A 
ATOM     57  C   UNL A   1      38.620  31.332  36.371  1.00  0.00     0.173 A 
ATOM     58  C   UNL A   1      39.976  33.147  35.563  1.00  0.00     0.173 A 
ATOM     59  F   UNL A   1      38.155  30.078  36.273  1.00  0.00    -0.203 F 
ATOM     60  C   UNL A   1      38.149  32.147  37.399  1.00  0.00     0.198 A 
ATOM     61  C   UNL A   1      39.521  33.951  36.604  1.00  0.00     0.198 A 
ATOM     62  F   UNL A   1      40.852  33.659  34.687  1.00  0.00    -0.203 F 
ATOM     63  F   UNL A   1      37.245  31.673  38.267  1.00  0.00    -0.200 F 
ATOM     64  C   UNL A   1      38.605  33.452  37.518  1.00  0.00     0.200 A 
ATOM     65  F   UNL A   1      39.968  35.209  36.722  1.00  0.00    -0.200 F 
ATOM     66  F   UNL A   1      38.153  34.233  38.509  1.00  0.00    -0.200 F 
ENDBRANCH  42  56
BRANCH  43  67
ATOM     67  C   UNL A   1      42.555  26.077  27.870  1.00  0.00     0.064 A 
ATOM     68  C   UNL A   1      42.042  24.772  27.828  1.00  0.00     0.173 A 
ATOM     69  C   UNL A   1      43.503  26.434  26.901  1.00  0.00     0.173 A 
ATOM     70  F   UNL A   1      41.153  24.373  28.751  1.00  0.00    -0.203 F 
ATOM     71  C   UNL A   1      42.477  23.857  26.872  1.00  0.00     0.198 A 
ATOM     72  C   UNL A   1      43.914  25.527  25.926  1.00  0.00     0.198 A 
ATOM     73  F   UNL A   1      44.035  27.665  26.903  1.00  0.00    -0.203 F 
ATOM     74  F   UNL A   1      42.013  22.599  26.892  1.00  0.00    -0.200 F 
ATOM     75  C   UNL A   1      43.409  24.237  25.919  1.00  0.00     0.200 A 
ATOM     76  F   UNL A   1      44.809  25.902  25.002  1.00  0.00    -0.200 F 
ATOM     77  F   UNL A   1      43.830  23.355  25.003  1.00  0.00    -0.200 F 
ENDBRANCH  43  67
BRANCH  55  78
ATOM     78  C   UNL A   1      45.291  27.701  34.059  1.00  0.00     0.064 A 
ATOM     79  C   UNL A   1      46.462  28.460  33.912  1.00  0.00     0.173 A 
ATOM     80  C   UNL A   1      45.335  26.582  34.904  1.00  0.00     0.173 A 
ATOM     81  F   UNL A   1      46.474  29.532  33.104  1.00  0.00    -0.203 F 
ATOM     82  C   UNL A   1      47.637  28.100  34.567  1.00  0.00     0.198 A 
ATOM     83  C   UNL A   1      46.504  26.240  35.579  1.00  0.00     0.198 A 
ATOM     84  F   UNL A   1      44.241  25.828  35.084  1.00  0.00    -0.203 F 
ATOM     85  F   UNL A   1      48.753  28.815  34.378  1.00  0.00    -0.200 F 
ATOM     86  C   UNL A   1      47.655  26.995  35.406  1.00  0.00     0.200 A 
ATOM     87  F   UNL A   1      46.518  25.180  36.398  1.00  0.00    -0.200 F 
ATOM     88  F   UNL A   1      48.784  26.655  36.042  1.00  0.00    -0.200 F 
ENDBRANCH  55  78
ENDBRANCH  29  30
ENDBRANCH  22  24
ENDBRANCH  21  22
ENDBRANCH  20  21
ENDBRANCH   1  20
TORSDOF 13
ENDMDL
MODEL 3
REMARK VINA RESULT:     -11.5      4.359      9.525
REMARK SMILES C[C@@H]1[C@@H](C(=O)OCCOC(=O)c2ccc(-c3c4nc(c(-c5c(F)c(F)c(F)c(F)c5F)c5ccc([nH]5)c(-c5c(F)c(F)c(F)c(F)c5F)c5nc(c(-c6c(F)c(F)c(F)c(F)c6F)c6ccc3[nH]6)C=C5)C=C4)cc2)CCN1C(=O)Nc1nccs1
REMARK SMILES IDX 7 1 6 2 4 3 5 4 3 5 1 6 2 7 77 8 75 9 76 10 78 11 79 12
REMARK SMILES IDX 80 13 81 15 82 16 85 17 83 18 84 19 8 20 9 21 10 22 11 23
REMARK SMILES IDX 12 24 13 25 74 26 14 27 73 28 15 29 16 30 17 31 67 32 18 33
REMARK SMILES IDX 72 34 66 35 68 36 19 37 71 38 65 39 64 40 20 42 52 43 32 44
REMARK SMILES IDX 51 45 33 46 36 47 50 48 69 49 34 50 35 51 49 53 70 54 37 55
REMARK SMILES IDX 21 56 22 57 30 58 23 59 24 60 28 61 31 62 25 63 26 64 29 65
REMARK SMILES IDX 27 66 53 67 54 68 62 69 55 70 56 71 60 72 63 73 57 74 58 75
REMARK SMILES IDX 61 76 59 77 38 78 39 79 47 80 40 81 41 82 45 83 48 84 42 85
REMARK SMILES IDX 43 86 46 87 44 88
REMARK H PARENT 80 14 68 41 36 52
REMARK Flexibility Score: inf
ROOT
ATOM      1  C   UNL A   1      36.453  22.813  23.716  1.00  0.00     0.274 C 
ENDROOT
BRANCH   1   2
ATOM      2  O   UNL A   1      35.104  23.063  24.160  1.00  0.00    -0.462 OA
BRANCH   2   3
ATOM      3  C   UNL A   1      34.257  23.616  23.245  1.00  0.00     0.311 C 
ATOM      4  O   UNL A   1      33.876  23.057  22.226  1.00  0.00    -0.252 OA
BRANCH   3   5
ATOM      5  C   UNL A   1      33.809  24.993  23.711  1.00  0.00     0.123 C 
ATOM      6  C   UNL A   1      33.679  26.455  25.756  1.00  0.00     0.032 C 
ATOM      7  C   UNL A   1      33.535  25.021  25.226  1.00  0.00     0.098 C 
ATOM      8  N   UNL A   1      32.156  24.547  25.340  1.00  0.00    -0.321 N 
ATOM      9  C   UNL A   1      32.455  25.381  23.120  1.00  0.00     0.039 C 
ATOM     10  C   UNL A   1      31.451  24.754  24.080  1.00  0.00     0.122 C 
BRANCH   8  11
ATOM     11  C   UNL A   1      31.591  23.706  26.253  1.00  0.00     0.323 C 
ATOM     12  O   UNL A   1      31.020  24.171  27.251  1.00  0.00    -0.248 OA
ATOM     13  N   UNL A   1      31.496  22.372  26.118  1.00  0.00    -0.283 N 
ATOM     14  H   UNL A   1      30.742  21.986  26.621  1.00  0.00     0.174 HD
BRANCH  13  15
ATOM     15  C   UNL A   1      32.216  21.440  25.438  1.00  0.00     0.190 A 
ATOM     16  N   UNL A   1      32.080  20.945  24.237  1.00  0.00    -0.228 NA
ATOM     17  S   UNL A   1      33.585  20.893  26.316  1.00  0.00    -0.105 S 
ATOM     18  C   UNL A   1      33.126  20.084  23.964  1.00  0.00     0.125 A 
ATOM     19  C   UNL A   1      34.025  19.897  24.992  1.00  0.00     0.088 A 
ENDBRANCH  13  15
ENDBRANCH   8  11
ENDBRANCH   3   5
ENDBRANCH   2   3
ENDBRANCH   1   2
BRANCH   1  20
ATOM     20  C   UNL A   1      37.067  21.587  24.401  1.00  0.00     0.275 C 
BRANCH  20  21
ATOM     21  O   UNL A   1      37.433  21.859  25.768  1.00  0.00    -0.458 OA
BRANCH  21  22
ATOM     22  C   UNL A   1      38.710  21.557  26.092  1.00  0.00     0.338 C 
ATOM     23  O   UNL A   1      39.275  20.481  25.939  1.00  0.00    -0.246 OA
BRANCH  22  24
ATOM     24  C   UNL A   1      39.430  22.773  26.505  1.00  0.00     0.060 A 
ATOM     25  C   UNL A   1      39.030  23.969  25.910  1.00  0.00     0.016 A 
ATOM     26  C   UNL A   1      40.497  22.761  27.409  1.00  0.00     0.016 A 
ATOM     27  C   UNL A   1      39.670  25.159  26.228  1.00  0.00     0.010 A 
ATOM     28  C   UNL A   1      41.161  23.961  27.710  1.00  0.00     0.010 A 
ATOM     29  C   UNL A   1      40.746  25.167  27.120  1.00  0.00    -0.014 A 
BRANCH  29  30
ATOM     30  C   UNL A   1      41.453  26.451  27.349  1.00  0.00     0.031 A 
ATOM     31  C   UNL A   1      40.830  27.493  28.230  1.00  0.00     0.074 A 
ATOM     32  C   UNL A   1      42.706  26.621  26.889  1.00  0.00     0.049 A 
ATOM     33  N   UNL A   1      41.302  28.658  28.595  1.00  0.00    -0.248 NA
ATOM     34  C   UNL A   1      39.508  27.174  28.788  1.00  0.00     0.031 C 
ATOM     35  C   UNL A   1      43.455  25.637  26.111  1.00  0.00     0.029 A 
ATOM     36  N   UNL A   1      43.585  27.663  27.049  1.00  0.00    -0.354 N 
ATOM     37  C   UNL A   1      40.326  29.222  29.405  1.00  0.00     0.074 A 
ATOM     38  C   UNL A   1      39.243  28.265  29.492  1.00  0.00     0.031 C 
ATOM     39  C   UNL A   1      44.699  26.101  25.902  1.00  0.00     0.029 A 
ATOM     40  C   UNL A   1      44.820  27.432  26.492  1.00  0.00     0.049 A 
ATOM     41  H   UNL A   1      43.353  28.497  27.518  1.00  0.00     0.167 HD
ATOM     42  C   UNL A   1      40.325  30.437  30.003  1.00  0.00     0.037 A 
ATOM     43  C   UNL A   1      45.921  28.210  26.465  1.00  0.00     0.037 A 
ATOM     44  C   UNL A   1      41.396  31.394  29.906  1.00  0.00     0.049 A 
ATOM     45  C   UNL A   1      45.866  29.583  27.086  1.00  0.00     0.074 A 
ATOM     46  C   UNL A   1      41.453  32.682  30.410  1.00  0.00     0.029 A 
ATOM     47  N   UNL A   1      42.602  31.165  29.262  1.00  0.00    -0.354 N 
ATOM     48  N   UNL A   1      44.915  30.136  27.797  1.00  0.00    -0.248 NA
ATOM     49  C   UNL A   1      47.036  30.450  26.876  1.00  0.00     0.031 C 
ATOM     50  C   UNL A   1      42.678  33.245  30.039  1.00  0.00     0.029 A 
ATOM     51  C   UNL A   1      43.404  32.292  29.343  1.00  0.00     0.049 A 
ATOM     52  H   UNL A   1      42.853  30.324  28.815  1.00  0.00     0.167 HD
ATOM     53  C   UNL A   1      45.366  31.411  28.115  1.00  0.00     0.074 A 
ATOM     54  C   UNL A   1      46.698  31.534  27.559  1.00  0.00     0.031 C 
ATOM     55  C   UNL A   1      44.729  32.399  28.789  1.00  0.00     0.037 A 
BRANCH  42  56
ATOM     56  C   UNL A   1      39.092  30.829  30.758  1.00  0.00     0.064 A 
ATOM     57  C   UNL A   1      38.982  30.645  32.143  1.00  0.00     0.173 A 
ATOM     58  C   UNL A   1      38.014  31.421  30.082  1.00  0.00     0.173 A 
ATOM     59  F   UNL A   1      39.978  30.065  32.828  1.00  0.00    -0.203 F 
ATOM     60  C   UNL A   1      37.826  31.023  32.823  1.00  0.00     0.198 A 
ATOM     61  C   UNL A   1      36.871  31.818  30.768  1.00  0.00     0.198 A 
ATOM     62  F   UNL A   1      38.074  31.618  28.757  1.00  0.00    -0.203 F 
ATOM     63  F   UNL A   1      37.724  30.804  34.141  1.00  0.00    -0.200 F 
ATOM     64  C   UNL A   1      36.776  31.615  32.137  1.00  0.00     0.200 A 
ATOM     65  F   UNL A   1      35.860  32.397  30.105  1.00  0.00    -0.200 F 
ATOM     66  F   UNL A   1      35.667  31.981  32.793  1.00  0.00    -0.200 F 
ENDBRANCH  42  56
BRANCH  43  67
ATOM     67  C   UNL A   1      47.175  27.729  25.825  1.00  0.00     0.064 A 
ATOM     68  C   UNL A   1      47.349  27.823  24.436  1.00  0.00     0.173 A 
ATOM     69  C   UNL A   1      48.197  27.125  26.569  1.00  0.00     0.173 A 
ATOM     70  F   UNL A   1      46.386  28.367  23.677  1.00  0.00    -0.203 F 
ATOM     71  C   UNL A   1      48.487  27.311  23.816  1.00  0.00     0.198 A 
ATOM     72  C   UNL A   1      49.350  26.642  25.951  1.00  0.00     0.198 A 
ATOM     73  F   UNL A   1      48.077  26.999  27.899  1.00  0.00    -0.203 F 
ATOM     74  F   UNL A   1      48.600  27.362  22.482  1.00  0.00    -0.200 F 
ATOM     75  C   UNL A   1      49.488  26.726  24.575  1.00  0.00     0.200 A 
ATOM     76  F   UNL A   1      50.318  26.084  26.690  1.00  0.00    -0.200 F 
ATOM     77  F   UNL A   1      50.580  26.230  23.978  1.00  0.00    -0.200 F 
ENDBRANCH  43  67
BRANCH  55  78
ATOM     78  C   UNL A   1      45.458  33.699  28.963  1.00  0.00     0.064 A 
ATOM     79  C   UNL A   1      46.306  33.919  30.059  1.00  0.00     0.173 A 
ATOM     80  C   UNL A   1      45.350  34.715  28.002  1.00  0.00     0.173 A 
ATOM     81  F   UNL A   1      46.433  32.983  31.013  1.00  0.00    -0.203 F 
ATOM     82  C   UNL A   1      47.000  35.118  30.199  1.00  0.00     0.198 A 
ATOM     83  C   UNL A   1      46.066  35.902  28.131  1.00  0.00     0.198 A 
ATOM     84  F   UNL A   1      44.559  34.551  26.931  1.00  0.00    -0.203 F 
ATOM     85  F   UNL A   1      47.771  35.322  31.276  1.00  0.00    -0.200 F 
ATOM     86  C   UNL A   1      46.887  36.105  29.231  1.00  0.00     0.200 A 
ATOM     87  F   UNL A   1      45.965  36.850  27.189  1.00  0.00    -0.200 F 
ATOM     88  F   UNL A   1      47.562  37.255  29.363  1.00  0.00    -0.200 F 
ENDBRANCH  55  78
ENDBRANCH  29  30
ENDBRANCH  22  24
ENDBRANCH  21  22
ENDBRANCH  20  21
ENDBRANCH   1  20
TORSDOF 13
ENDMDL
