MODEL 1
REMARK VINA RESULT:     -13.2      0.000      0.000
REMARK SMILES O=C(COc1ccc(-c2cc3cc(Br)ccc3oc2=O)cc1)OCCOC(=O)c1ccc(-c2c3nc(c(-c4c(F)c(F)c(F)c(F)c4F)c4ccc([nH]4)c(-c4c(F)c(F)c(F)c(F)c4F)c4nc(c(-c5c(F)c(F)c(F)c(F)c5F)c5ccc2[nH]5)C=C4)C=C3)cc1
REMARK SMILES IDX 24 1 23 2 2 3 1 4 3 5 4 6 5 7 6 8 22 9 7 10 21 11 8 12 9 13
REMARK SMILES IDX 10 14 19 15 11 16 18 17 20 18 12 19 17 20 13 21 16 22 14 23
REMARK SMILES IDX 15 24 25 25 26 26 27 27 28 28 29 29 30 30 91 31 31 32 90 33
REMARK SMILES IDX 32 34 33 35 34 36 84 37 35 38 89 39 83 40 85 41 36 42 88 43
REMARK SMILES IDX 82 44 81 45 37 47 69 48 49 49 68 50 50 51 53 52 67 53 86 54
REMARK SMILES IDX 51 55 52 56 66 58 87 59 54 60 38 61 39 62 47 63 40 64 41 65
REMARK SMILES IDX 45 66 48 67 42 68 43 69 46 70 44 71 70 72 71 73 79 74 72 75
REMARK SMILES IDX 73 76 77 77 80 78 74 79 75 80 78 81 76 82 55 83 56 84 64 85
REMARK SMILES IDX 57 86 58 87 62 88 65 89 59 90 60 91 63 92 61 93
REMARK H PARENT 85 46 53 57
REMARK Flexibility Score: inf
ROOT
ATOM      1  C   UNL A   1      42.870  21.092  26.154  1.00  0.00     0.274 C 
ENDROOT
BRANCH   1   2
ATOM      2  O   UNL A   1      41.460  21.139  25.867  1.00  0.00    -0.460 OA
BRANCH   2   3
ATOM      3  C   UNL A   1      40.559  21.480  26.815  1.00  0.00     0.344 C 
ATOM      4  O   UNL A   1      40.771  21.200  27.994  1.00  0.00    -0.248 OA
BRANCH   3   5
ATOM      5  C   UNL A   1      39.301  22.250  26.390  1.00  0.00     0.351 C 
BRANCH   5   6
ATOM      6  O   UNL A   1      38.460  21.675  25.408  1.00  0.00    -0.482 OA
BRANCH   6   7
ATOM      7  C   UNL A   1      37.454  22.477  24.946  1.00  0.00     0.120 A 
ATOM      8  C   UNL A   1      36.874  23.327  25.885  1.00  0.00     0.047 A 
ATOM      9  C   UNL A   1      36.933  22.438  23.658  1.00  0.00     0.047 A 
ATOM     10  C   UNL A   1      35.698  24.016  25.577  1.00  0.00     0.013 A 
ATOM     11  C   UNL A   1      35.784  23.152  23.339  1.00  0.00     0.013 A 
ATOM     12  C   UNL A   1      35.085  23.850  24.325  1.00  0.00    -0.011 A 
BRANCH  12  13
ATOM     13  C   UNL A   1      33.629  24.175  24.199  1.00  0.00     0.068 A 
ATOM     14  C   UNL A   1      32.746  23.500  23.423  1.00  0.00     0.028 A 
ATOM     15  C   UNL A   1      32.983  24.312  25.561  1.00  0.00     0.344 A 
ATOM     16  C   UNL A   1      32.521  22.122  23.915  1.00  0.00     0.019 A 
ATOM     17  O   UNL A   1      32.668  23.072  26.146  1.00  0.00    -0.422 OA
ATOM     18  O   UNL A   1      32.859  25.384  26.136  1.00  0.00    -0.246 OA
ATOM     19  C   UNL A   1      32.409  21.021  23.068  1.00  0.00     0.027 A 
ATOM     20  C   UNL A   1      32.591  21.936  25.304  1.00  0.00     0.138 A 
ATOM     21  C   UNL A   1      32.448  19.742  23.627  1.00  0.00     0.018 A 
ATOM     22  C   UNL A   1      32.637  20.667  25.864  1.00  0.00     0.049 A 
ATOM     23  Br  UNL A   1      32.378  18.232  22.491  1.00  0.00    -0.051 Br
ATOM     24  C   UNL A   1      32.583  19.560  25.011  1.00  0.00     0.019 A 
ENDBRANCH  12  13
ENDBRANCH   6   7
ENDBRANCH   5   6
ENDBRANCH   3   5
ENDBRANCH   2   3
ENDBRANCH   1   2
BRANCH   1  25
ATOM     25  C   UNL A   1      43.679  21.858  25.099  1.00  0.00     0.275 C 
BRANCH  25  26
ATOM     26  O   UNL A   1      43.069  23.142  24.853  1.00  0.00    -0.458 OA
BRANCH  26  27
ATOM     27  C   UNL A   1      43.861  24.239  25.003  1.00  0.00     0.338 C 
ATOM     28  O   UNL A   1      44.836  24.532  24.344  1.00  0.00    -0.246 OA
BRANCH  27  29
ATOM     29  C   UNL A   1      43.215  25.143  25.989  1.00  0.00     0.060 A 
ATOM     30  C   UNL A   1      43.715  26.445  26.131  1.00  0.00     0.016 A 
ATOM     31  C   UNL A   1      42.102  24.738  26.731  1.00  0.00     0.016 A 
ATOM     32  C   UNL A   1      43.120  27.333  27.033  1.00  0.00     0.010 A 
ATOM     33  C   UNL A   1      41.517  25.621  27.644  1.00  0.00     0.010 A 
ATOM     34  C   UNL A   1      42.038  26.914  27.820  1.00  0.00    -0.014 A 
BRANCH  34  35
ATOM     35  C   UNL A   1      41.570  27.747  28.954  1.00  0.00     0.031 A 
ATOM     36  C   UNL A   1      42.290  27.628  30.270  1.00  0.00     0.074 A 
ATOM     37  C   UNL A   1      40.519  28.579  28.841  1.00  0.00     0.049 A 
ATOM     38  N   UNL A   1      42.044  28.218  31.412  1.00  0.00    -0.248 NA
ATOM     39  C   UNL A   1      43.442  26.713  30.300  1.00  0.00     0.031 C 
ATOM     40  C   UNL A   1      39.742  28.803  27.625  1.00  0.00     0.029 A 
ATOM     41  N   UNL A   1      39.917  29.381  29.780  1.00  0.00    -0.354 N 
ATOM     42  C   UNL A   1      43.011  27.751  32.291  1.00  0.00     0.074 A 
ATOM     43  C   UNL A   1      43.827  26.804  31.564  1.00  0.00     0.031 C 
ATOM     44  C   UNL A   1      38.751  29.672  27.897  1.00  0.00     0.029 A 
ATOM     45  C   UNL A   1      38.815  30.050  29.310  1.00  0.00     0.049 A 
ATOM     46  H   UNL A   1      40.245  29.469  30.705  1.00  0.00     0.167 HD
ATOM     47  C   UNL A   1      43.210  28.086  33.587  1.00  0.00     0.037 A 
ATOM     48  C   UNL A   1      37.949  30.861  29.951  1.00  0.00     0.037 A 
ATOM     49  C   UNL A   1      42.399  29.018  34.323  1.00  0.00     0.049 A 
ATOM     50  C   UNL A   1      38.154  31.170  31.413  1.00  0.00     0.074 A 
ATOM     51  C   UNL A   1      42.544  29.440  35.633  1.00  0.00     0.029 A 
ATOM     52  N   UNL A   1      41.283  29.663  33.816  1.00  0.00    -0.354 N 
ATOM     53  N   UNL A   1      39.101  30.766  32.223  1.00  0.00    -0.248 NA
ATOM     54  C   UNL A   1      37.164  32.055  32.049  1.00  0.00     0.031 C 
ATOM     55  C   UNL A   1      41.488  30.307  35.932  1.00  0.00     0.029 A 
ATOM     56  C   UNL A   1      40.713  30.460  34.794  1.00  0.00     0.049 A 
ATOM     57  H   UNL A   1      40.945  29.569  32.895  1.00  0.00     0.167 HD
ATOM     58  C   UNL A   1      38.843  31.368  33.448  1.00  0.00     0.074 A 
ATOM     59  C   UNL A   1      37.652  32.172  33.277  1.00  0.00     0.031 C 
ATOM     60  C   UNL A   1      39.534  31.266  34.610  1.00  0.00     0.037 A 
BRANCH  47  61
ATOM     61  C   UNL A   1      44.348  27.422  34.300  1.00  0.00     0.064 A 
ATOM     62  C   UNL A   1      44.167  26.225  35.008  1.00  0.00     0.173 A 
ATOM     63  C   UNL A   1      45.635  27.975  34.254  1.00  0.00     0.173 A 
ATOM     64  F   UNL A   1      42.951  25.667  35.095  1.00  0.00    -0.203 F 
ATOM     65  C   UNL A   1      45.235  25.616  35.663  1.00  0.00     0.198 A 
ATOM     66  C   UNL A   1      46.704  27.349  34.889  1.00  0.00     0.198 A 
ATOM     67  F   UNL A   1      45.855  29.119  33.590  1.00  0.00    -0.203 F 
ATOM     68  F   UNL A   1      45.033  24.493  36.368  1.00  0.00    -0.200 F 
ATOM     69  C   UNL A   1      46.503  26.175  35.597  1.00  0.00     0.200 A 
ATOM     70  F   UNL A   1      47.930  27.887  34.819  1.00  0.00    -0.200 F 
ATOM     71  F   UNL A   1      47.530  25.584  36.224  1.00  0.00    -0.200 F 
ENDBRANCH  47  61
BRANCH  48  72
ATOM     72  C   UNL A   1      36.794  31.443  29.219  1.00  0.00     0.064 A 
ATOM     73  C   UNL A   1      36.758  32.807  28.895  1.00  0.00     0.173 A 
ATOM     74  C   UNL A   1      35.687  30.659  28.866  1.00  0.00     0.173 A 
ATOM     75  F   UNL A   1      37.780  33.605  29.241  1.00  0.00    -0.203 F 
ATOM     76  C   UNL A   1      35.650  33.366  28.261  1.00  0.00     0.198 A 
ATOM     77  C   UNL A   1      34.590  31.214  28.212  1.00  0.00     0.198 A 
ATOM     78  F   UNL A   1      35.670  29.351  29.163  1.00  0.00    -0.203 F 
ATOM     79  F   UNL A   1      35.620  34.681  28.006  1.00  0.00    -0.200 F 
ATOM     80  C   UNL A   1      34.568  32.569  27.917  1.00  0.00     0.200 A 
ATOM     81  F   UNL A   1      33.549  30.439  27.877  1.00  0.00    -0.200 F 
ATOM     82  F   UNL A   1      33.501  33.108  27.312  1.00  0.00    -0.200 F 
ENDBRANCH  48  72
BRANCH  60  83
ATOM     83  C   UNL A   1      39.047  32.066  35.783  1.00  0.00     0.064 A 
ATOM     84  C   UNL A   1      38.244  31.496  36.782  1.00  0.00     0.173 A 
ATOM     85  C   UNL A   1      39.440  33.405  35.940  1.00  0.00     0.173 A 
ATOM     86  F   UNL A   1      37.833  30.224  36.672  1.00  0.00    -0.203 F 
ATOM     87  C   UNL A   1      37.836  32.242  37.885  1.00  0.00     0.198 A 
ATOM     88  C   UNL A   1      39.053  34.140  37.058  1.00  0.00     0.198 A 
ATOM     89  F   UNL A   1      40.214  33.995  35.018  1.00  0.00    -0.203 F 
ATOM     90  F   UNL A   1      37.039  31.689  38.808  1.00  0.00    -0.200 F 
ATOM     91  C   UNL A   1      38.247  33.560  38.026  1.00  0.00     0.200 A 
ATOM     92  F   UNL A   1      39.461  35.409  37.199  1.00  0.00    -0.200 F 
ATOM     93  F   UNL A   1      37.862  34.273  39.093  1.00  0.00    -0.200 F 
ENDBRANCH  60  83
ENDBRANCH  34  35
ENDBRANCH  27  29
ENDBRANCH  26  27
ENDBRANCH  25  26
ENDBRANCH   1  25
TORSDOF 14
ENDMDL
MODEL 2
REMARK VINA RESULT:     -13.1      5.377     10.661
REMARK SMILES O=C(COc1ccc(-c2cc3cc(Br)ccc3oc2=O)cc1)OCCOC(=O)c1ccc(-c2c3nc(c(-c4c(F)c(F)c(F)c(F)c4F)c4ccc([nH]4)c(-c4c(F)c(F)c(F)c(F)c4F)c4nc(c(-c5c(F)c(F)c(F)c(F)c5F)c5ccc2[nH]5)C=C4)C=C3)cc1
REMARK SMILES IDX 24 1 23 2 2 3 1 4 3 5 4 6 5 7 6 8 22 9 7 10 21 11 8 12 9 13
REMARK SMILES IDX 10 14 19 15 11 16 18 17 20 18 12 19 17 20 13 21 16 22 14 23
REMARK SMILES IDX 15 24 25 25 26 26 27 27 28 28 29 29 30 30 91 31 31 32 90 33
REMARK SMILES IDX 32 34 33 35 34 36 84 37 35 38 89 39 83 40 85 41 36 42 88 43
REMARK SMILES IDX 82 44 81 45 37 47 69 48 49 49 68 50 50 51 53 52 67 53 86 54
REMARK SMILES IDX 51 55 52 56 66 58 87 59 54 60 38 61 39 62 47 63 40 64 41 65
REMARK SMILES IDX 45 66 48 67 42 68 43 69 46 70 44 71 70 72 71 73 79 74 72 75
REMARK SMILES IDX 73 76 77 77 80 78 74 79 75 80 78 81 76 82 55 83 56 84 64 85
REMARK SMILES IDX 57 86 58 87 62 88 65 89 59 90 60 91 63 92 61 93
REMARK H PARENT 85 46 53 57
REMARK Flexibility Score: inf
ROOT
ATOM      1  C   UNL A   1      34.627  34.171  30.058  1.00  0.00     0.274 C 
ENDROOT
BRANCH   1   2
ATOM      2  O   UNL A   1      34.082  33.113  29.247  1.00  0.00    -0.460 OA
BRANCH   2   3
ATOM      3  C   UNL A   1      34.747  32.636  28.171  1.00  0.00     0.344 C 
ATOM      4  O   UNL A   1      35.579  33.339  27.600  1.00  0.00    -0.248 OA
BRANCH   3   5
ATOM      5  C   UNL A   1      34.468  31.196  27.716  1.00  0.00     0.351 C 
BRANCH   5   6
ATOM      6  O   UNL A   1      33.122  30.781  27.583  1.00  0.00    -0.482 OA
BRANCH   6   7
ATOM      7  C   UNL A   1      32.936  29.460  27.287  1.00  0.00     0.120 A 
ATOM      8  C   UNL A   1      34.001  28.823  26.655  1.00  0.00     0.047 A 
ATOM      9  C   UNL A   1      31.754  28.757  27.494  1.00  0.00     0.047 A 
ATOM     10  C   UNL A   1      33.831  27.548  26.107  1.00  0.00     0.013 A 
ATOM     11  C   UNL A   1      31.597  27.474  26.981  1.00  0.00     0.013 A 
ATOM     12  C   UNL A   1      32.587  26.904  26.179  1.00  0.00    -0.011 A 
BRANCH  12  13
ATOM     13  C   UNL A   1      32.292  25.817  25.192  1.00  0.00     0.068 A 
ATOM     14  C   UNL A   1      31.079  25.581  24.635  1.00  0.00     0.028 A 
ATOM     15  C   UNL A   1      33.289  25.832  24.054  1.00  0.00     0.344 A 
ATOM     16  C   UNL A   1      30.663  26.680  23.733  1.00  0.00     0.019 A 
ATOM     17  O   UNL A   1      33.000  26.809  23.083  1.00  0.00    -0.422 OA
ATOM     18  O   UNL A   1      34.301  25.145  24.044  1.00  0.00    -0.246 OA
ATOM     19  C   UNL A   1      29.358  27.165  23.678  1.00  0.00     0.027 A 
ATOM     20  C   UNL A   1      31.689  27.341  23.041  1.00  0.00     0.138 A 
ATOM     21  C   UNL A   1      29.117  28.356  22.989  1.00  0.00     0.018 A 
ATOM     22  C   UNL A   1      31.456  28.528  22.361  1.00  0.00     0.049 A 
ATOM     23  Br  UNL A   1      27.369  29.077  22.967  1.00  0.00    -0.051 Br
ATOM     24  C   UNL A   1      30.158  29.048  22.352  1.00  0.00     0.019 A 
ENDBRANCH  12  13
ENDBRANCH   6   7
ENDBRANCH   5   6
ENDBRANCH   3   5
ENDBRANCH   2   3
ENDBRANCH   1   2
BRANCH   1  25
ATOM     25  C   UNL A   1      34.476  33.861  31.553  1.00  0.00     0.275 C 
BRANCH  25  26
ATOM     26  O   UNL A   1      34.831  32.486  31.804  1.00  0.00    -0.458 OA
BRANCH  26  27
ATOM     27  C   UNL A   1      35.840  32.263  32.691  1.00  0.00     0.338 C 
ATOM     28  O   UNL A   1      35.813  32.444  33.890  1.00  0.00    -0.246 OA
BRANCH  27  29
ATOM     29  C   UNL A   1      36.935  31.557  31.976  1.00  0.00     0.060 A 
ATOM     30  C   UNL A   1      37.981  31.007  32.730  1.00  0.00     0.016 A 
ATOM     31  C   UNL A   1      36.914  31.394  30.588  1.00  0.00     0.016 A 
ATOM     32  C   UNL A   1      39.019  30.317  32.096  1.00  0.00     0.010 A 
ATOM     33  C   UNL A   1      37.959  30.717  29.953  1.00  0.00     0.010 A 
ATOM     34  C   UNL A   1      39.031  30.198  30.699  1.00  0.00    -0.014 A 
BRANCH  34  35
ATOM     35  C   UNL A   1      40.243  29.704  30.000  1.00  0.00     0.031 A 
ATOM     36  C   UNL A   1      41.373  30.670  29.765  1.00  0.00     0.074 A 
ATOM     37  C   UNL A   1      40.345  28.438  29.560  1.00  0.00     0.049 A 
ATOM     38  N   UNL A   1      42.511  30.488  29.145  1.00  0.00    -0.248 NA
ATOM     39  C   UNL A   1      41.187  32.029  30.300  1.00  0.00     0.031 C 
ATOM     40  C   UNL A   1      39.336  27.396  29.733  1.00  0.00     0.029 A 
ATOM     41  N   UNL A   1      41.352  27.821  28.859  1.00  0.00    -0.354 N 
ATOM     42  C   UNL A   1      43.176  31.704  29.219  1.00  0.00     0.074 A 
ATOM     43  C   UNL A   1      42.305  32.626  29.914  1.00  0.00     0.031 C 
ATOM     44  C   UNL A   1      39.768  26.270  29.135  1.00  0.00     0.029 A 
ATOM     45  C   UNL A   1      41.075  26.519  28.523  1.00  0.00     0.049 A 
ATOM     46  H   UNL A   1      42.196  28.269  28.619  1.00  0.00     0.167 HD
ATOM     47  C   UNL A   1      44.409  32.024  28.761  1.00  0.00     0.037 A 
ATOM     48  C   UNL A   1      41.787  25.636  27.794  1.00  0.00     0.037 A 
ATOM     49  C   UNL A   1      45.279  31.118  28.061  1.00  0.00     0.049 A 
ATOM     50  C   UNL A   1      43.131  26.037  27.236  1.00  0.00     0.074 A 
ATOM     51  C   UNL A   1      46.558  31.347  27.583  1.00  0.00     0.029 A 
ATOM     52  N   UNL A   1      44.956  29.813  27.728  1.00  0.00    -0.354 N 
ATOM     53  N   UNL A   1      43.776  27.170  27.357  1.00  0.00    -0.248 NA
ATOM     54  C   UNL A   1      43.847  25.025  26.441  1.00  0.00     0.031 C 
ATOM     55  C   UNL A   1      46.990  30.194  26.920  1.00  0.00     0.029 A 
ATOM     56  C   UNL A   1      45.999  29.232  27.026  1.00  0.00     0.049 A 
ATOM     57  H   UNL A   1      44.109  29.365  27.956  1.00  0.00     0.167 HD
ATOM     58  C   UNL A   1      44.980  27.001  26.685  1.00  0.00     0.074 A 
ATOM     59  C   UNL A   1      44.982  25.652  26.163  1.00  0.00     0.031 C 
ATOM     60  C   UNL A   1      45.996  27.884  26.520  1.00  0.00     0.037 A 
BRANCH  47  61
ATOM     61  C   UNL A   1      44.883  33.426  28.988  1.00  0.00     0.064 A 
ATOM     62  C   UNL A   1      44.607  34.449  28.069  1.00  0.00     0.173 A 
ATOM     63  C   UNL A   1      45.597  33.755  30.149  1.00  0.00     0.173 A 
ATOM     64  F   UNL A   1      43.942  34.180  26.937  1.00  0.00    -0.203 F 
ATOM     65  C   UNL A   1      45.050  35.750  28.296  1.00  0.00     0.198 A 
ATOM     66  C   UNL A   1      46.016  35.062  30.383  1.00  0.00     0.198 A 
ATOM     67  F   UNL A   1      45.885  32.810  31.056  1.00  0.00    -0.203 F 
ATOM     68  F   UNL A   1      44.812  36.705  27.386  1.00  0.00    -0.200 F 
ATOM     69  C   UNL A   1      45.748  36.056  29.455  1.00  0.00     0.200 A 
ATOM     70  F   UNL A   1      46.684  35.357  31.507  1.00  0.00    -0.200 F 
ATOM     71  F   UNL A   1      46.169  37.309  29.674  1.00  0.00    -0.200 F 
ENDBRANCH  47  61
BRANCH  48  72
ATOM     72  C   UNL A   1      41.246  24.277  27.535  1.00  0.00     0.064 A 
ATOM     73  C   UNL A   1      41.838  23.143  28.109  1.00  0.00     0.173 A 
ATOM     74  C   UNL A   1      40.154  24.081  26.677  1.00  0.00     0.173 A 
ATOM     75  F   UNL A   1      42.905  23.278  28.910  1.00  0.00    -0.203 F 
ATOM     76  C   UNL A   1      41.367  21.863  27.820  1.00  0.00     0.198 A 
ATOM     77  C   UNL A   1      39.671  22.802  26.408  1.00  0.00     0.198 A 
ATOM     78  F   UNL A   1      39.559  25.134  26.096  1.00  0.00    -0.203 F 
ATOM     79  F   UNL A   1      41.982  20.793  28.343  1.00  0.00    -0.200 F 
ATOM     80  C   UNL A   1      40.283  21.694  26.973  1.00  0.00     0.200 A 
ATOM     81  F   UNL A   1      38.618  22.644  25.593  1.00  0.00    -0.200 F 
ATOM     82  F   UNL A   1      39.834  20.463  26.692  1.00  0.00    -0.200 F 
ENDBRANCH  48  72
BRANCH  60  83
ATOM     83  C   UNL A   1      47.212  27.417  25.775  1.00  0.00     0.064 A 
ATOM     84  C   UNL A   1      47.335  27.586  24.387  1.00  0.00     0.173 A 
ATOM     85  C   UNL A   1      48.293  26.848  26.466  1.00  0.00     0.173 A 
ATOM     86  F   UNL A   1      46.325  28.113  23.680  1.00  0.00    -0.203 F 
ATOM     87  C   UNL A   1      48.489  27.184  23.718  1.00  0.00     0.198 A 
ATOM     88  C   UNL A   1      49.455  26.473  25.798  1.00  0.00     0.198 A 
ATOM     89  F   UNL A   1      48.229  26.674  27.794  1.00  0.00    -0.203 F 
ATOM     90  F   UNL A   1      48.570  27.320  22.388  1.00  0.00    -0.200 F 
ATOM     91  C   UNL A   1      49.550  26.636  24.424  1.00  0.00     0.200 A 
ATOM     92  F   UNL A   1      50.485  25.956  26.483  1.00  0.00    -0.200 F 
ATOM     93  F   UNL A   1      50.663  26.260  23.779  1.00  0.00    -0.200 F 
ENDBRANCH  60  83
ENDBRANCH  34  35
ENDBRANCH  27  29
ENDBRANCH  26  27
ENDBRANCH  25  26
ENDBRANCH   1  25
TORSDOF 14
ENDMDL
MODEL 3
REMARK VINA RESULT:     -13.0      0.171      1.583
REMARK SMILES O=C(COc1ccc(-c2cc3cc(Br)ccc3oc2=O)cc1)OCCOC(=O)c1ccc(-c2c3nc(c(-c4c(F)c(F)c(F)c(F)c4F)c4ccc([nH]4)c(-c4c(F)c(F)c(F)c(F)c4F)c4nc(c(-c5c(F)c(F)c(F)c(F)c5F)c5ccc2[nH]5)C=C4)C=C3)cc1
REMARK SMILES IDX 24 1 23 2 2 3 1 4 3 5 4 6 5 7 6 8 22 9 7 10 21 11 8 12 9 13
REMARK SMILES IDX 10 14 19 15 11 16 18 17 20 18 12 19 17 20 13 21 16 22 14 23
REMARK SMILES IDX 15 24 25 25 26 26 27 27 28 28 29 29 30 30 91 31 31 32 90 33
REMARK SMILES IDX 32 34 33 35 34 36 84 37 35 38 89 39 83 40 85 41 36 42 88 43
REMARK SMILES IDX 82 44 81 45 37 47 69 48 49 49 68 50 50 51 53 52 67 53 86 54
REMARK SMILES IDX 51 55 52 56 66 58 87 59 54 60 38 61 39 62 47 63 40 64 41 65
REMARK SMILES IDX 45 66 48 67 42 68 43 69 46 70 44 71 70 72 71 73 79 74 72 75
REMARK SMILES IDX 73 76 77 77 80 78 74 79 75 80 78 81 76 82 55 83 56 84 64 85
REMARK SMILES IDX 57 86 58 87 62 88 65 89 59 90 60 91 63 92 61 93
REMARK H PARENT 85 46 53 57
REMARK Flexibility Score: inf
ROOT
ATOM      1  C   UNL A   1      43.048  21.299  26.279  1.00  0.00     0.274 C 
ENDROOT
BRANCH   1   2
ATOM      2  O   UNL A   1      41.700  20.825  26.106  1.00  0.00    -0.460 OA
BRANCH   2   3
ATOM      3  C   UNL A   1      40.683  21.306  26.856  1.00  0.00     0.344 C 
ATOM      4  O   UNL A   1      40.639  21.066  28.061  1.00  0.00    -0.248 OA
BRANCH   3   5
ATOM      5  C   UNL A   1      39.621  22.182  26.175  1.00  0.00     0.351 C 
BRANCH   5   6
ATOM      6  O   UNL A   1      38.586  21.545  25.451  1.00  0.00    -0.482 OA
BRANCH   6   7
ATOM      7  C   UNL A   1      37.600  22.366  24.981  1.00  0.00     0.120 A 
ATOM      8  C   UNL A   1      37.073  23.271  25.899  1.00  0.00     0.047 A 
ATOM      9  C   UNL A   1      37.048  22.298  23.707  1.00  0.00     0.047 A 
ATOM     10  C   UNL A   1      35.915  23.992  25.591  1.00  0.00     0.013 A 
ATOM     11  C   UNL A   1      35.917  23.042  23.386  1.00  0.00     0.013 A 
ATOM     12  C   UNL A   1      35.268  23.802  24.360  1.00  0.00    -0.011 A 
BRANCH  12  13
ATOM     13  C   UNL A   1      33.822  24.176  24.254  1.00  0.00     0.068 A 
ATOM     14  C   UNL A   1      32.904  23.525  23.498  1.00  0.00     0.028 A 
ATOM     15  C   UNL A   1      33.204  24.348  25.625  1.00  0.00     0.344 A 
ATOM     16  C   UNL A   1      32.639  22.159  24.008  1.00  0.00     0.019 A 
ATOM     17  O   UNL A   1      32.855  23.124  26.227  1.00  0.00    -0.422 OA
ATOM     18  O   UNL A   1      33.125  25.429  26.191  1.00  0.00    -0.246 OA
ATOM     19  C   UNL A   1      32.476  21.055  23.174  1.00  0.00     0.027 A 
ATOM     20  C   UNL A   1      32.726  21.985  25.398  1.00  0.00     0.138 A 
ATOM     21  C   UNL A   1      32.480  19.781  23.745  1.00  0.00     0.018 A 
ATOM     22  C   UNL A   1      32.737  20.719  25.969  1.00  0.00     0.049 A 
ATOM     23  Br  UNL A   1      32.340  18.263  22.625  1.00  0.00    -0.051 Br
ATOM     24  C   UNL A   1      32.631  19.607  25.129  1.00  0.00     0.019 A 
ENDBRANCH  12  13
ENDBRANCH   6   7
ENDBRANCH   5   6
ENDBRANCH   3   5
ENDBRANCH   2   3
ENDBRANCH   1   2
BRANCH   1  25
ATOM     25  C   UNL A   1      43.594  21.909  24.981  1.00  0.00     0.275 C 
BRANCH  25  26
ATOM     26  O   UNL A   1      43.056  23.235  24.801  1.00  0.00    -0.458 OA
BRANCH  26  27
ATOM     27  C   UNL A   1      43.901  24.278  25.028  1.00  0.00     0.338 C 
ATOM     28  O   UNL A   1      44.918  24.541  24.422  1.00  0.00    -0.246 OA
BRANCH  27  29
ATOM     29  C   UNL A   1      43.264  25.179  26.024  1.00  0.00     0.060 A 
ATOM     30  C   UNL A   1      43.781  26.472  26.184  1.00  0.00     0.016 A 
ATOM     31  C   UNL A   1      42.143  24.780  26.757  1.00  0.00     0.016 A 
ATOM     32  C   UNL A   1      43.195  27.357  27.095  1.00  0.00     0.010 A 
ATOM     33  C   UNL A   1      41.567  25.659  27.679  1.00  0.00     0.010 A 
ATOM     34  C   UNL A   1      42.105  26.942  27.873  1.00  0.00    -0.014 A 
BRANCH  34  35
ATOM     35  C   UNL A   1      41.644  27.767  29.017  1.00  0.00     0.031 A 
ATOM     36  C   UNL A   1      42.367  27.632  30.330  1.00  0.00     0.074 A 
ATOM     37  C   UNL A   1      40.598  28.606  28.914  1.00  0.00     0.049 A 
ATOM     38  N   UNL A   1      42.128  28.212  31.478  1.00  0.00    -0.248 NA
ATOM     39  C   UNL A   1      43.515  26.710  30.347  1.00  0.00     0.031 C 
ATOM     40  C   UNL A   1      39.819  28.846  27.703  1.00  0.00     0.029 A 
ATOM     41  N   UNL A   1      40.003  29.402  29.862  1.00  0.00    -0.354 N 
ATOM     42  C   UNL A   1      43.094  27.731  32.350  1.00  0.00     0.074 A 
ATOM     43  C   UNL A   1      43.904  26.786  31.611  1.00  0.00     0.031 C 
ATOM     44  C   UNL A   1      38.834  29.718  27.985  1.00  0.00     0.029 A 
ATOM     45  C   UNL A   1      38.903  30.082  29.401  1.00  0.00     0.049 A 
ATOM     46  H   UNL A   1      40.334  29.479  30.787  1.00  0.00     0.167 HD
ATOM     47  C   UNL A   1      43.299  28.053  33.649  1.00  0.00     0.037 A 
ATOM     48  C   UNL A   1      38.044  30.892  30.053  1.00  0.00     0.037 A 
ATOM     49  C   UNL A   1      42.496  28.982  34.395  1.00  0.00     0.049 A 
ATOM     50  C   UNL A   1      38.255  31.186  31.518  1.00  0.00     0.074 A 
ATOM     51  C   UNL A   1      42.646  29.391  35.709  1.00  0.00     0.029 A 
ATOM     52  N   UNL A   1      41.382  29.638  33.897  1.00  0.00    -0.354 N 
ATOM     53  N   UNL A   1      39.202  30.769  32.320  1.00  0.00    -0.248 NA
ATOM     54  C   UNL A   1      37.272  32.070  32.165  1.00  0.00     0.031 C 
ATOM     55  C   UNL A   1      41.596  30.261  36.019  1.00  0.00     0.029 A 
ATOM     56  C   UNL A   1      40.818  30.429  34.885  1.00  0.00     0.049 A 
ATOM     57  H   UNL A   1      41.041  29.555  32.976  1.00  0.00     0.167 HD
ATOM     58  C   UNL A   1      38.950  31.361  33.552  1.00  0.00     0.074 A 
ATOM     59  C   UNL A   1      37.764  32.173  33.392  1.00  0.00     0.031 C 
ATOM     60  C   UNL A   1      39.644  31.243  34.712  1.00  0.00     0.037 A 
BRANCH  47  61
ATOM     61  C   UNL A   1      44.435  27.375  34.352  1.00  0.00     0.064 A 
ATOM     62  C   UNL A   1      45.709  27.959  34.414  1.00  0.00     0.173 A 
ATOM     63  C   UNL A   1      44.240  26.144  34.992  1.00  0.00     0.173 A 
ATOM     64  F   UNL A   1      45.947  29.129  33.803  1.00  0.00    -0.203 F 
ATOM     65  C   UNL A   1      46.754  27.320  35.076  1.00  0.00     0.198 A 
ATOM     66  C   UNL A   1      45.282  25.520  35.673  1.00  0.00     0.198 A 
ATOM     67  F   UNL A   1      43.039  25.547  34.959  1.00  0.00    -0.203 F 
ATOM     68  F   UNL A   1      47.974  27.874  35.089  1.00  0.00    -0.200 F 
ATOM     69  C   UNL A   1      46.538  26.105  35.710  1.00  0.00     0.200 A 
ATOM     70  F   UNL A   1      45.070  24.350  36.291  1.00  0.00    -0.200 F 
ATOM     71  F   UNL A   1      47.545  25.494  36.350  1.00  0.00    -0.200 F 
ENDBRANCH  47  61
BRANCH  48  72
ATOM     72  C   UNL A   1      36.891  31.488  29.330  1.00  0.00     0.064 A 
ATOM     73  C   UNL A   1      36.858  32.856  29.026  1.00  0.00     0.173 A 
ATOM     74  C   UNL A   1      35.782  30.711  28.965  1.00  0.00     0.173 A 
ATOM     75  F   UNL A   1      37.881  33.646  29.383  1.00  0.00    -0.203 F 
ATOM     76  C   UNL A   1      35.751  33.427  28.400  1.00  0.00     0.198 A 
ATOM     77  C   UNL A   1      34.686  31.279  28.319  1.00  0.00     0.198 A 
ATOM     78  F   UNL A   1      35.761  29.399  29.243  1.00  0.00    -0.203 F 
ATOM     79  F   UNL A   1      35.724  34.746  28.165  1.00  0.00    -0.200 F 
ATOM     80  C   UNL A   1      34.668  32.638  28.044  1.00  0.00     0.200 A 
ATOM     81  F   UNL A   1      33.643  30.511  27.973  1.00  0.00    -0.200 F 
ATOM     82  F   UNL A   1      33.602  33.188  27.447  1.00  0.00    -0.200 F 
ENDBRANCH  48  72
BRANCH  60  83
ATOM     83  C   UNL A   1      39.165  32.036  35.894  1.00  0.00     0.064 A 
ATOM     84  C   UNL A   1      39.552  33.370  36.092  1.00  0.00     0.173 A 
ATOM     85  C   UNL A   1      38.261  31.471  36.807  1.00  0.00     0.173 A 
ATOM     86  F   UNL A   1      40.423  33.950  35.254  1.00  0.00    -0.203 F 
ATOM     87  C   UNL A   1      39.064  34.102  37.172  1.00  0.00     0.198 A 
ATOM     88  C   UNL A   1      37.755  32.215  37.869  1.00  0.00     0.198 A 
ATOM     89  F   UNL A   1      37.853  30.202  36.657  1.00  0.00    -0.203 F 
ATOM     90  F   UNL A   1      39.475  35.363  37.362  1.00  0.00    -0.200 F 
ATOM     91  C   UNL A   1      38.161  33.528  38.054  1.00  0.00     0.200 A 
ATOM     92  F   UNL A   1      36.872  31.662  38.713  1.00  0.00    -0.200 F 
ATOM     93  F   UNL A   1      37.686  34.238  39.086  1.00  0.00    -0.200 F 
ENDBRANCH  60  83
ENDBRANCH  34  35
ENDBRANCH  27  29
ENDBRANCH  26  27
ENDBRANCH  25  26
ENDBRANCH   1  25
TORSDOF 14
ENDMDL
