MODEL 1
REMARK VINA RESULT:     -10.5      0.000      0.000
REMARK SMILES CN(C)C(=O)c1nnc(C(=O)OCCOC(=O)c2ccc(-c3c4nc(c(-c5c(F)c(F)c(F)c(F)c5F)c5ccc([nH]5)c(-c5c(F)c(F)c(F)c(F)c5F)c5nc(c(-c6c(F)c(F)c(F)c(F)c6F)c6ccc3[nH]6)C=C5)C=C4)cc2)s1
REMARK SMILES IDX 14 1 13 2 12 3 10 4 11 5 9 6 6 7 7 8 81 9 8 10 4 11 1 12
REMARK SMILES IDX 2 13 3 14 5 15 15 16 16 17 17 18 18 19 19 20 80 21 20 22
REMARK SMILES IDX 79 23 21 24 22 25 23 26 73 27 24 28 78 29 72 30 74 31 25 32
REMARK SMILES IDX 77 33 71 34 70 35 26 37 58 38 38 39 57 40 39 41 42 42 56 43
REMARK SMILES IDX 75 44 40 45 41 46 55 48 76 49 43 50 27 51 28 52 36 53 29 54
REMARK SMILES IDX 30 55 34 56 37 57 31 58 32 59 35 60 33 61 59 62 60 63 68 64
REMARK SMILES IDX 61 65 62 66 66 67 69 68 63 69 64 70 67 71 65 72 44 73 45 74
REMARK SMILES IDX 53 75 46 76 47 77 51 78 54 79 48 80 49 81 52 82 50 83
REMARK H PARENT 74 36 42 47
REMARK Flexibility Score: inf
ROOT
ATOM      1  C   UNL A   1      40.045  20.540  26.241  1.00  0.00     0.275 C 
ENDROOT
BRANCH   1   2
ATOM      2  C   UNL A   1      41.339  19.747  26.453  1.00  0.00     0.275 C 
BRANCH   2   3
ATOM      3  O   UNL A   1      42.112  19.662  25.242  1.00  0.00    -0.457 OA
BRANCH   3   4
ATOM      4  C   UNL A   1      43.411  19.257  25.393  1.00  0.00     0.369 C 
ATOM      5  O   UNL A   1      43.739  18.078  25.489  1.00  0.00    -0.243 OA
BRANCH   4   6
ATOM      6  C   UNL A   1      44.338  20.373  25.376  1.00  0.00     0.226 A 
ATOM      7  C   UNL A   1      45.554  22.399  25.271  1.00  0.00     0.206 A 
ATOM      8  N   UNL A   1      46.354  21.353  25.280  1.00  0.00    -0.132 NA
ATOM      9  S   UNL A   1      43.884  22.030  25.328  1.00  0.00    -0.080 S 
ATOM     10  N   UNL A   1      45.644  20.175  25.345  1.00  0.00    -0.130 NA
BRANCH   7  11
ATOM     11  C   UNL A   1      46.046  23.761  25.280  1.00  0.00     0.284 C 
ATOM     12  C   UNL A   1      46.737  25.708  26.612  1.00  0.00     0.146 C 
ATOM     13  N   UNL A   1      46.109  24.402  26.529  1.00  0.00    -0.343 N 
ATOM     14  C   UNL A   1      45.666  23.784  27.770  1.00  0.00     0.146 C 
ATOM     15  O   UNL A   1      46.421  24.328  24.251  1.00  0.00    -0.266 OA
ENDBRANCH   7  11
ENDBRANCH   4   6
ENDBRANCH   3   4
ENDBRANCH   2   3
ENDBRANCH   1   2
BRANCH   1  16
ATOM     16  O   UNL A   1      40.266  21.964  26.201  1.00  0.00    -0.458 OA
BRANCH  16  17
ATOM     17  C   UNL A   1      39.142  22.720  26.202  1.00  0.00     0.338 C 
ATOM     18  O   UNL A   1      38.019  22.359  25.890  1.00  0.00    -0.246 OA
BRANCH  17  19
ATOM     19  C   UNL A   1      39.412  24.046  26.782  1.00  0.00     0.060 A 
ATOM     20  C   UNL A   1      40.069  24.986  25.982  1.00  0.00     0.016 A 
ATOM     21  C   UNL A   1      39.111  24.339  28.114  1.00  0.00     0.016 A 
ATOM     22  C   UNL A   1      40.435  26.221  26.511  1.00  0.00     0.010 A 
ATOM     23  C   UNL A   1      39.480  25.582  28.644  1.00  0.00     0.010 A 
ATOM     24  C   UNL A   1      40.152  26.526  27.848  1.00  0.00    -0.014 A 
BRANCH  24  25
ATOM     25  C   UNL A   1      40.610  27.821  28.410  1.00  0.00     0.031 A 
ATOM     26  C   UNL A   1      42.070  28.049  28.682  1.00  0.00     0.074 A 
ATOM     27  C   UNL A   1      39.722  28.807  28.628  1.00  0.00     0.049 A 
ATOM     28  N   UNL A   1      42.663  29.087  29.217  1.00  0.00    -0.248 NA
ATOM     29  C   UNL A   1      42.986  26.963  28.301  1.00  0.00     0.031 C 
ATOM     30  C   UNL A   1      38.287  28.724  28.356  1.00  0.00     0.029 A 
ATOM     31  N   UNL A   1      39.896  30.075  29.126  1.00  0.00    -0.354 N 
ATOM     32  C   UNL A   1      44.017  28.780  29.238  1.00  0.00     0.074 A 
ATOM     33  C   UNL A   1      44.157  27.447  28.692  1.00  0.00     0.031 C 
ATOM     34  C   UNL A   1      37.710  29.890  28.689  1.00  0.00     0.029 A 
ATOM     35  C   UNL A   1      38.726  30.786  29.237  1.00  0.00     0.049 A 
ATOM     36  H   UNL A   1      40.775  30.440  29.377  1.00  0.00     0.167 HD
ATOM     37  C   UNL A   1      45.050  29.548  29.663  1.00  0.00     0.037 A 
ATOM     38  C   UNL A   1      38.496  32.010  29.749  1.00  0.00     0.037 A 
ATOM     39  C   UNL A   1      44.907  30.877  30.200  1.00  0.00     0.049 A 
ATOM     40  C   UNL A   1      39.653  32.814  30.279  1.00  0.00     0.074 A 
ATOM     41  C   UNL A   1      45.890  31.727  30.677  1.00  0.00     0.029 A 
ATOM     42  N   UNL A   1      43.701  31.552  30.325  1.00  0.00    -0.354 N 
ATOM     43  N   UNL A   1      40.928  32.509  30.312  1.00  0.00    -0.248 NA
ATOM     44  C   UNL A   1      39.339  34.132  30.847  1.00  0.00     0.031 C 
ATOM     45  C   UNL A   1      45.276  32.901  31.125  1.00  0.00     0.029 A 
ATOM     46  C   UNL A   1      43.915  32.803  30.884  1.00  0.00     0.049 A 
ATOM     47  H   UNL A   1      42.823  31.197  30.056  1.00  0.00     0.167 HD
ATOM     48  C   UNL A   1      41.568  33.602  30.877  1.00  0.00     0.074 A 
ATOM     49  C   UNL A   1      40.544  34.587  31.158  1.00  0.00     0.031 C 
ATOM     50  C   UNL A   1      42.886  33.775  31.146  1.00  0.00     0.037 A 
BRANCH  37  51
ATOM     51  C   UNL A   1      46.429  28.963  29.583  1.00  0.00     0.064 A 
ATOM     52  C   UNL A   1      47.206  29.070  28.419  1.00  0.00     0.173 A 
ATOM     53  C   UNL A   1      46.998  28.326  30.695  1.00  0.00     0.173 A 
ATOM     54  F   UNL A   1      46.702  29.660  27.324  1.00  0.00    -0.203 F 
ATOM     55  C   UNL A   1      48.493  28.544  28.367  1.00  0.00     0.198 A 
ATOM     56  C   UNL A   1      48.296  27.824  30.648  1.00  0.00     0.198 A 
ATOM     57  F   UNL A   1      46.300  28.202  31.834  1.00  0.00    -0.203 F 
ATOM     58  F   UNL A   1      49.203  28.624  27.233  1.00  0.00    -0.200 F 
ATOM     59  C   UNL A   1      49.040  27.928  29.483  1.00  0.00     0.200 A 
ATOM     60  F   UNL A   1      48.827  27.241  31.732  1.00  0.00    -0.200 F 
ATOM     61  F   UNL A   1      50.283  27.430  29.435  1.00  0.00    -0.200 F 
ENDBRANCH  37  51
BRANCH  38  62
ATOM     62  C   UNL A   1      37.109  32.540  29.814  1.00  0.00     0.064 A 
ATOM     63  C   UNL A   1      36.548  33.246  28.740  1.00  0.00     0.173 A 
ATOM     64  C   UNL A   1      36.325  32.377  30.967  1.00  0.00     0.173 A 
ATOM     65  F   UNL A   1      37.267  33.453  27.628  1.00  0.00    -0.203 F 
ATOM     66  C   UNL A   1      35.267  33.787  28.826  1.00  0.00     0.198 A 
ATOM     67  C   UNL A   1      35.034  32.891  31.039  1.00  0.00     0.198 A 
ATOM     68  F   UNL A   1      36.816  31.714  32.024  1.00  0.00    -0.203 F 
ATOM     69  F   UNL A   1      34.776  34.506  27.808  1.00  0.00    -0.200 F 
ATOM     70  C   UNL A   1      34.509  33.605  29.973  1.00  0.00     0.200 A 
ATOM     71  F   UNL A   1      34.301  32.703  32.145  1.00  0.00    -0.200 F 
ATOM     72  F   UNL A   1      33.278  34.128  30.056  1.00  0.00    -0.200 F 
ENDBRANCH  38  62
BRANCH  50  73
ATOM     73  C   UNL A   1      43.298  35.090  31.740  1.00  0.00     0.064 A 
ATOM     74  C   UNL A   1      43.723  36.159  30.937  1.00  0.00     0.173 A 
ATOM     75  C   UNL A   1      43.237  35.293  33.128  1.00  0.00     0.173 A 
ATOM     76  F   UNL A   1      43.813  36.010  29.607  1.00  0.00    -0.203 F 
ATOM     77  C   UNL A   1      44.095  37.374  31.504  1.00  0.00     0.198 A 
ATOM     78  C   UNL A   1      43.584  36.519  33.688  1.00  0.00     0.198 A 
ATOM     79  F   UNL A   1      42.832  34.304  33.938  1.00  0.00    -0.203 F 
ATOM     80  F   UNL A   1      44.543  38.367  30.722  1.00  0.00    -0.200 F 
ATOM     81  C   UNL A   1      44.019  37.556  32.877  1.00  0.00     0.200 A 
ATOM     82  F   UNL A   1      43.498  36.697  35.013  1.00  0.00    -0.200 F 
ATOM     83  F   UNL A   1      44.374  38.729  33.420  1.00  0.00    -0.200 F 
ENDBRANCH  50  73
ENDBRANCH  24  25
ENDBRANCH  17  19
ENDBRANCH  16  17
ENDBRANCH   1  16
TORSDOF 12
ENDMDL
MODEL 2
REMARK VINA RESULT:     -10.5      5.205     11.513
REMARK SMILES CN(C)C(=O)c1nnc(C(=O)OCCOC(=O)c2ccc(-c3c4nc(c(-c5c(F)c(F)c(F)c(F)c5F)c5ccc([nH]5)c(-c5c(F)c(F)c(F)c(F)c5F)c5nc(c(-c6c(F)c(F)c(F)c(F)c6F)c6ccc3[nH]6)C=C5)C=C4)cc2)s1
REMARK SMILES IDX 14 1 13 2 12 3 10 4 11 5 9 6 6 7 7 8 81 9 8 10 4 11 1 12
REMARK SMILES IDX 2 13 3 14 5 15 15 16 16 17 17 18 18 19 19 20 80 21 20 22
REMARK SMILES IDX 79 23 21 24 22 25 23 26 73 27 24 28 78 29 72 30 74 31 25 32
REMARK SMILES IDX 77 33 71 34 70 35 26 37 58 38 38 39 57 40 39 41 42 42 56 43
REMARK SMILES IDX 75 44 40 45 41 46 55 48 76 49 43 50 27 51 28 52 36 53 29 54
REMARK SMILES IDX 30 55 34 56 37 57 31 58 32 59 35 60 33 61 59 62 60 63 68 64
REMARK SMILES IDX 61 65 62 66 66 67 69 68 63 69 64 70 67 71 65 72 44 73 45 74
REMARK SMILES IDX 53 75 46 76 47 77 51 78 54 79 48 80 49 81 52 82 50 83
REMARK H PARENT 74 36 42 47
REMARK Flexibility Score: inf
ROOT
ATOM      1  C   UNL A   1      34.615  33.369  27.990  1.00  0.00     0.275 C 
ENDROOT
BRANCH   1   2
ATOM      2  C   UNL A   1      33.734  34.567  28.360  1.00  0.00     0.275 C 
BRANCH   2   3
ATOM      3  O   UNL A   1      33.135  34.403  29.658  1.00  0.00    -0.457 OA
BRANCH   3   4
ATOM      4  C   UNL A   1      33.167  35.504  30.471  1.00  0.00     0.369 C 
ATOM      5  O   UNL A   1      32.526  36.525  30.243  1.00  0.00    -0.243 OA
BRANCH   4   6
ATOM      6  C   UNL A   1      33.999  35.295  31.642  1.00  0.00     0.226 A 
ATOM      7  C   UNL A   1      35.365  34.604  33.444  1.00  0.00     0.206 A 
ATOM      8  N   UNL A   1      34.893  35.819  33.632  1.00  0.00    -0.132 NA
ATOM      9  S   UNL A   1      34.875  33.856  31.985  1.00  0.00    -0.080 S 
ATOM     10  N   UNL A   1      34.101  36.221  32.580  1.00  0.00    -0.130 NA
BRANCH   7  11
ATOM     11  C   UNL A   1      36.285  33.970  34.367  1.00  0.00     0.284 C 
ATOM     12  C   UNL A   1      38.621  33.513  34.981  1.00  0.00     0.146 C 
ATOM     13  N   UNL A   1      37.646  33.996  34.020  1.00  0.00    -0.343 N 
ATOM     14  C   UNL A   1      38.147  34.575  32.781  1.00  0.00     0.146 C 
ATOM     15  O   UNL A   1      35.904  33.458  35.422  1.00  0.00    -0.266 OA
ENDBRANCH   7  11
ENDBRANCH   4   6
ENDBRANCH   3   4
ENDBRANCH   2   3
ENDBRANCH   1   2
BRANCH   1  16
ATOM     16  O   UNL A   1      34.237  32.165  28.689  1.00  0.00    -0.458 OA
BRANCH  16  17
ATOM     17  C   UNL A   1      34.438  31.015  28.002  1.00  0.00     0.338 C 
ATOM     18  O   UNL A   1      33.730  30.559  27.120  1.00  0.00    -0.246 OA
BRANCH  17  19
ATOM     19  C   UNL A   1      35.739  30.423  28.355  1.00  0.00     0.060 A 
ATOM     20  C   UNL A   1      35.851  29.787  29.596  1.00  0.00     0.016 A 
ATOM     21  C   UNL A   1      36.857  30.565  27.532  1.00  0.00     0.016 A 
ATOM     22  C   UNL A   1      37.082  29.296  30.022  1.00  0.00     0.010 A 
ATOM     23  C   UNL A   1      38.095  30.069  27.962  1.00  0.00     0.010 A 
ATOM     24  C   UNL A   1      38.216  29.440  29.214  1.00  0.00    -0.014 A 
BRANCH  24  25
ATOM     25  C   UNL A   1      39.530  28.969  29.716  1.00  0.00     0.031 A 
ATOM     26  C   UNL A   1      40.228  29.718  30.815  1.00  0.00     0.074 A 
ATOM     27  C   UNL A   1      40.071  27.843  29.218  1.00  0.00     0.049 A 
ATOM     28  N   UNL A   1      41.401  29.498  31.355  1.00  0.00    -0.248 NA
ATOM     29  C   UNL A   1      39.509  30.867  31.385  1.00  0.00     0.031 C 
ATOM     30  C   UNL A   1      39.466  27.002  28.185  1.00  0.00     0.029 A 
ATOM     31  N   UNL A   1      41.252  27.208  29.517  1.00  0.00    -0.354 N 
ATOM     32  C   UNL A   1      41.561  30.480  32.324  1.00  0.00     0.074 A 
ATOM     33  C   UNL A   1      40.381  31.316  32.278  1.00  0.00     0.031 C 
ATOM     34  C   UNL A   1      40.278  25.962  27.936  1.00  0.00     0.029 A 
ATOM     35  C   UNL A   1      41.478  26.085  28.759  1.00  0.00     0.049 A 
ATOM     36  H   UNL A   1      41.875  27.527  30.209  1.00  0.00     0.167 HD
ATOM     37  C   UNL A   1      42.596  30.657  33.181  1.00  0.00     0.037 A 
ATOM     38  C   UNL A   1      42.546  25.265  28.715  1.00  0.00     0.037 A 
ATOM     39  C   UNL A   1      43.766  29.819  33.229  1.00  0.00     0.049 A 
ATOM     40  C   UNL A   1      43.712  25.528  29.631  1.00  0.00     0.074 A 
ATOM     41  C   UNL A   1      44.877  29.930  34.047  1.00  0.00     0.029 A 
ATOM     42  N   UNL A   1      43.973  28.708  32.424  1.00  0.00    -0.354 N 
ATOM     43  N   UNL A   1      43.863  26.468  30.531  1.00  0.00    -0.248 NA
ATOM     44  C   UNL A   1      44.858  24.614  29.521  1.00  0.00     0.031 C 
ATOM     45  C   UNL A   1      45.772  28.908  33.713  1.00  0.00     0.029 A 
ATOM     46  C   UNL A   1      45.200  28.133  32.718  1.00  0.00     0.049 A 
ATOM     47  H   UNL A   1      43.343  28.376  31.744  1.00  0.00     0.167 HD
ATOM     48  C   UNL A   1      45.104  26.247  31.111  1.00  0.00     0.074 A 
ATOM     49  C   UNL A   1      45.660  25.072  30.473  1.00  0.00     0.031 C 
ATOM     50  C   UNL A   1      45.732  26.956  32.081  1.00  0.00     0.037 A 
BRANCH  37  51
ATOM     51  C   UNL A   1      42.518  31.817  34.131  1.00  0.00     0.064 A 
ATOM     52  C   UNL A   1      41.986  31.674  35.421  1.00  0.00     0.173 A 
ATOM     53  C   UNL A   1      43.023  33.073  33.763  1.00  0.00     0.173 A 
ATOM     54  F   UNL A   1      41.481  30.496  35.817  1.00  0.00    -0.203 F 
ATOM     55  C   UNL A   1      41.943  32.753  36.301  1.00  0.00     0.198 A 
ATOM     56  C   UNL A   1      43.002  34.143  34.655  1.00  0.00     0.198 A 
ATOM     57  F   UNL A   1      43.547  33.261  32.544  1.00  0.00    -0.203 F 
ATOM     58  F   UNL A   1      41.395  32.605  37.515  1.00  0.00    -0.200 F 
ATOM     59  C   UNL A   1      42.458  33.984  35.920  1.00  0.00     0.200 A 
ATOM     60  F   UNL A   1      43.512  35.327  34.289  1.00  0.00    -0.200 F 
ATOM     61  F   UNL A   1      42.425  35.019  36.770  1.00  0.00    -0.200 F 
ENDBRANCH  37  51
BRANCH  38  62
ATOM     62  C   UNL A   1      42.577  24.136  27.750  1.00  0.00     0.064 A 
ATOM     63  C   UNL A   1      42.235  22.834  28.141  1.00  0.00     0.173 A 
ATOM     64  C   UNL A   1      42.978  24.333  26.419  1.00  0.00     0.173 A 
ATOM     65  F   UNL A   1      41.872  22.590  29.408  1.00  0.00    -0.203 F 
ATOM     66  C   UNL A   1      42.316  21.769  27.246  1.00  0.00     0.198 A 
ATOM     67  C   UNL A   1      43.029  23.273  25.518  1.00  0.00     0.198 A 
ATOM     68  F   UNL A   1      43.321  25.559  25.995  1.00  0.00    -0.203 F 
ATOM     69  F   UNL A   1      42.039  20.526  27.660  1.00  0.00    -0.200 F 
ATOM     70  C   UNL A   1      42.708  21.990  25.934  1.00  0.00     0.200 A 
ATOM     71  F   UNL A   1      43.398  23.494  24.248  1.00  0.00    -0.200 F 
ATOM     72  F   UNL A   1      42.789  20.966  25.074  1.00  0.00    -0.200 F 
ENDBRANCH  38  62
BRANCH  50  73
ATOM     73  C   UNL A   1      47.072  26.457  32.537  1.00  0.00     0.064 A 
ATOM     74  C   UNL A   1      48.265  26.940  31.980  1.00  0.00     0.173 A 
ATOM     75  C   UNL A   1      47.163  25.507  33.567  1.00  0.00     0.173 A 
ATOM     76  F   UNL A   1      48.230  27.837  30.984  1.00  0.00    -0.203 F 
ATOM     77  C   UNL A   1      49.500  26.472  32.420  1.00  0.00     0.198 A 
ATOM     78  C   UNL A   1      48.401  25.062  34.022  1.00  0.00     0.198 A 
ATOM     79  F   UNL A   1      46.052  25.018  34.136  1.00  0.00    -0.203 F 
ATOM     80  F   UNL A   1      50.626  26.913  31.841  1.00  0.00    -0.200 F 
ATOM     81  C   UNL A   1      49.568  25.539  33.444  1.00  0.00     0.200 A 
ATOM     82  F   UNL A   1      48.465  24.170  35.020  1.00  0.00    -0.200 F 
ATOM     83  F   UNL A   1      50.759  25.094  33.869  1.00  0.00    -0.200 F 
ENDBRANCH  50  73
ENDBRANCH  24  25
ENDBRANCH  17  19
ENDBRANCH  16  17
ENDBRANCH   1  16
TORSDOF 12
ENDMDL
MODEL 3
REMARK VINA RESULT:     -10.4      5.518      8.847
REMARK SMILES CN(C)C(=O)c1nnc(C(=O)OCCOC(=O)c2ccc(-c3c4nc(c(-c5c(F)c(F)c(F)c(F)c5F)c5ccc([nH]5)c(-c5c(F)c(F)c(F)c(F)c5F)c5nc(c(-c6c(F)c(F)c(F)c(F)c6F)c6ccc3[nH]6)C=C5)C=C4)cc2)s1
REMARK SMILES IDX 14 1 13 2 12 3 10 4 11 5 9 6 6 7 7 8 81 9 8 10 4 11 1 12
REMARK SMILES IDX 2 13 3 14 5 15 15 16 16 17 17 18 18 19 19 20 80 21 20 22
REMARK SMILES IDX 79 23 21 24 22 25 23 26 73 27 24 28 78 29 72 30 74 31 25 32
REMARK SMILES IDX 77 33 71 34 70 35 26 37 58 38 38 39 57 40 39 41 42 42 56 43
REMARK SMILES IDX 75 44 40 45 41 46 55 48 76 49 43 50 27 51 28 52 36 53 29 54
REMARK SMILES IDX 30 55 34 56 37 57 31 58 32 59 35 60 33 61 59 62 60 63 68 64
REMARK SMILES IDX 61 65 62 66 66 67 69 68 63 69 64 70 67 71 65 72 44 73 45 74
REMARK SMILES IDX 53 75 46 76 47 77 51 78 54 79 48 80 49 81 52 82 50 83
REMARK H PARENT 74 36 42 47
REMARK Flexibility Score: inf
ROOT
ATOM      1  C   UNL A   1      31.778  29.275  26.320  1.00  0.00     0.275 C 
ENDROOT
BRANCH   1   2
ATOM      2  C   UNL A   1      32.040  27.784  26.074  1.00  0.00     0.275 C 
BRANCH   2   3
ATOM      3  O   UNL A   1      31.024  26.962  26.677  1.00  0.00    -0.457 OA
BRANCH   3   4
ATOM      4  C   UNL A   1      30.430  26.049  25.847  1.00  0.00     0.369 C 
ATOM      5  O   UNL A   1      29.526  26.339  25.069  1.00  0.00    -0.243 OA
BRANCH   4   6
ATOM      6  C   UNL A   1      31.027  24.732  25.967  1.00  0.00     0.226 A 
ATOM      7  C   UNL A   1      31.911  22.545  25.807  1.00  0.00     0.206 A 
ATOM      8  N   UNL A   1      31.816  22.938  27.060  1.00  0.00    -0.132 NA
ATOM      9  S   UNL A   1      31.377  23.685  24.649  1.00  0.00    -0.080 S 
ATOM     10  N   UNL A   1      31.304  24.213  27.150  1.00  0.00    -0.130 NA
BRANCH   7  11
ATOM     11  C   UNL A   1      32.487  21.270  25.429  1.00  0.00     0.284 C 
ATOM     12  C   UNL A   1      34.522  19.959  25.001  1.00  0.00     0.146 C 
ATOM     13  N   UNL A   1      33.877  21.239  25.229  1.00  0.00    -0.343 N 
ATOM     14  C   UNL A   1      34.730  22.415  25.337  1.00  0.00     0.146 C 
ATOM     15  O   UNL A   1      31.802  20.251  25.314  1.00  0.00    -0.266 OA
ENDBRANCH   7  11
ENDBRANCH   4   6
ENDBRANCH   3   4
ENDBRANCH   2   3
ENDBRANCH   1   2
BRANCH   1  16
ATOM     16  O   UNL A   1      32.923  30.097  26.017  1.00  0.00    -0.458 OA
BRANCH  16  17
ATOM     17  C   UNL A   1      33.186  31.071  26.921  1.00  0.00     0.338 C 
ATOM     18  O   UNL A   1      32.443  31.981  27.250  1.00  0.00    -0.246 OA
BRANCH  17  19
ATOM     19  C   UNL A   1      34.469  30.816  27.596  1.00  0.00     0.060 A 
ATOM     20  C   UNL A   1      34.753  29.502  27.982  1.00  0.00     0.016 A 
ATOM     21  C   UNL A   1      35.341  31.854  27.930  1.00  0.00     0.016 A 
ATOM     22  C   UNL A   1      35.907  29.220  28.709  1.00  0.00     0.010 A 
ATOM     23  C   UNL A   1      36.502  31.568  28.661  1.00  0.00     0.010 A 
ATOM     24  C   UNL A   1      36.786  30.251  29.063  1.00  0.00    -0.014 A 
BRANCH  24  25
ATOM     25  C   UNL A   1      37.974  29.938  29.895  1.00  0.00     0.031 A 
ATOM     26  C   UNL A   1      39.051  29.038  29.359  1.00  0.00     0.074 A 
ATOM     27  C   UNL A   1      38.108  30.502  31.108  1.00  0.00     0.049 A 
ATOM     28  N   UNL A   1      40.139  28.604  29.946  1.00  0.00    -0.248 NA
ATOM     29  C   UNL A   1      38.884  28.564  27.977  1.00  0.00     0.031 C 
ATOM     30  C   UNL A   1      37.155  31.431  31.716  1.00  0.00     0.029 A 
ATOM     31  N   UNL A   1      39.101  30.379  32.049  1.00  0.00    -0.354 N 
ATOM     32  C   UNL A   1      40.782  27.806  29.009  1.00  0.00     0.074 A 
ATOM     33  C   UNL A   1      39.949  27.790  27.825  1.00  0.00     0.031 C 
ATOM     34  C   UNL A   1      37.609  31.795  32.926  1.00  0.00     0.029 A 
ATOM     35  C   UNL A   1      38.861  31.093  33.197  1.00  0.00     0.049 A 
ATOM     36  H   UNL A   1      39.908  29.832  31.912  1.00  0.00     0.167 HD
ATOM     37  C   UNL A   1      41.966  27.157  29.125  1.00  0.00     0.037 A 
ATOM     38  C   UNL A   1      39.559  31.151  34.348  1.00  0.00     0.037 A 
ATOM     39  C   UNL A   1      42.795  27.182  30.303  1.00  0.00     0.049 A 
ATOM     40  C   UNL A   1      40.836  30.364  34.474  1.00  0.00     0.074 A 
ATOM     41  C   UNL A   1      44.002  26.540  30.525  1.00  0.00     0.029 A 
ATOM     42  N   UNL A   1      42.503  27.893  31.458  1.00  0.00    -0.354 N 
ATOM     43  N   UNL A   1      41.428  29.598  33.590  1.00  0.00    -0.248 NA
ATOM     44  C   UNL A   1      41.541  30.448  35.760  1.00  0.00     0.031 C 
ATOM     45  C   UNL A   1      44.422  26.833  31.826  1.00  0.00     0.029 A 
ATOM     46  C   UNL A   1      43.501  27.694  32.400  1.00  0.00     0.049 A 
ATOM     47  H   UNL A   1      41.706  28.455  31.590  1.00  0.00     0.167 HD
ATOM     48  C   UNL A   1      42.582  29.131  34.201  1.00  0.00     0.074 A 
ATOM     49  C   UNL A   1      42.619  29.712  35.526  1.00  0.00     0.031 C 
ATOM     50  C   UNL A   1      43.527  28.290  33.711  1.00  0.00     0.037 A 
BRANCH  37  51
ATOM     51  C   UNL A   1      42.431  26.348  27.950  1.00  0.00     0.064 A 
ATOM     52  C   UNL A   1      41.962  25.045  27.724  1.00  0.00     0.173 A 
ATOM     53  C   UNL A   1      43.320  26.898  27.014  1.00  0.00     0.173 A 
ATOM     54  F   UNL A   1      41.120  24.471  28.596  1.00  0.00    -0.203 F 
ATOM     55  C   UNL A   1      42.383  24.315  26.616  1.00  0.00     0.198 A 
ATOM     56  C   UNL A   1      43.718  26.175  25.893  1.00  0.00     0.198 A 
ATOM     57  F   UNL A   1      43.793  28.142  27.181  1.00  0.00    -0.203 F 
ATOM     58  F   UNL A   1      41.953  23.058  26.440  1.00  0.00    -0.200 F 
ATOM     59  C   UNL A   1      43.255  24.883  25.697  1.00  0.00     0.200 A 
ATOM     60  F   UNL A   1      44.550  26.730  25.000  1.00  0.00    -0.200 F 
ATOM     61  F   UNL A   1      43.652  24.183  24.626  1.00  0.00    -0.200 F 
ENDBRANCH  37  51
BRANCH  38  62
ATOM     62  C   UNL A   1      39.050  31.961  35.485  1.00  0.00     0.064 A 
ATOM     63  C   UNL A   1      39.358  33.324  35.605  1.00  0.00     0.173 A 
ATOM     64  C   UNL A   1      38.266  31.379  36.494  1.00  0.00     0.173 A 
ATOM     65  F   UNL A   1      40.127  33.919  34.682  1.00  0.00    -0.203 F 
ATOM     66  C   UNL A   1      38.923  34.066  36.700  1.00  0.00     0.198 A 
ATOM     67  C   UNL A   1      37.806  32.130  37.572  1.00  0.00     0.198 A 
ATOM     68  F   UNL A   1      37.947  30.078  36.430  1.00  0.00    -0.203 F 
ATOM     69  F   UNL A   1      39.279  35.352  36.820  1.00  0.00    -0.200 F 
ATOM     70  C   UNL A   1      38.143  33.471  37.680  1.00  0.00     0.200 A 
ATOM     71  F   UNL A   1      37.044  31.552  38.511  1.00  0.00    -0.200 F 
ATOM     72  F   UNL A   1      37.727  34.184  38.735  1.00  0.00    -0.200 F 
ENDBRANCH  38  62
BRANCH  50  73
ATOM     73  C   UNL A   1      44.696  27.981  34.599  1.00  0.00     0.064 A 
ATOM     74  C   UNL A   1      45.834  28.801  34.630  1.00  0.00     0.173 A 
ATOM     75  C   UNL A   1      44.665  26.866  35.452  1.00  0.00     0.173 A 
ATOM     76  F   UNL A   1      45.918  29.869  33.823  1.00  0.00    -0.203 F 
ATOM     77  C   UNL A   1      46.907  28.504  35.465  1.00  0.00     0.198 A 
ATOM     78  C   UNL A   1      45.729  26.588  36.305  1.00  0.00     0.198 A 
ATOM     79  F   UNL A   1      43.598  26.054  35.464  1.00  0.00    -0.203 F 
ATOM     80  F   UNL A   1      48.003  29.275  35.445  1.00  0.00    -0.200 F 
ATOM     81  C   UNL A   1      46.851  27.402  36.307  1.00  0.00     0.200 A 
ATOM     82  F   UNL A   1      45.668  25.531  37.126  1.00  0.00    -0.200 F 
ATOM     83  F   UNL A   1      47.884  27.120  37.113  1.00  0.00    -0.200 F 
ENDBRANCH  50  73
ENDBRANCH  24  25
ENDBRANCH  17  19
ENDBRANCH  16  17
ENDBRANCH   1  16
TORSDOF 12
ENDMDL
