MODEL 1
REMARK VINA RESULT:     -12.1      0.000      0.000
REMARK SMILES CC(C)CSc1cc2c(cc1Cl)C=C(C(=O)OCCOC(=O)c1ccc(-c3c4nc(c(-c5c(F)c(F)c(F)c(F)c5F)c5ccc([nH]5)c(-c5c(F)c(F)c(F)c(F)c5F)c5nc(c(-c6c(F)c(F)c(F)c(F)c6F)c6ccc3[nH]6)C=C5)C=C4)cc1)[C@H](C(F)(F)F)O2
REMARK SMILES IDX 18 1 17 2 15 3 16 4 14 5 6 6 7 7 11 8 8 9 10 10 12 11 9 12
REMARK SMILES IDX 91 13 13 14 86 15 5 16 4 17 2 18 1 19 3 20 87 21 88 22 89 23
REMARK SMILES IDX 90 24 19 25 20 26 21 27 22 28 23 29 24 30 85 31 25 32 84 33
REMARK SMILES IDX 26 34 27 35 28 36 78 37 29 38 83 39 77 40 79 41 30 42 82 43
REMARK SMILES IDX 76 44 75 45 31 47 63 48 43 49 62 50 44 51 47 52 61 53 80 54
REMARK SMILES IDX 45 55 46 56 60 58 81 59 48 60 32 61 33 62 41 63 34 64 35 65
REMARK SMILES IDX 39 66 42 67 36 68 37 69 40 70 38 71 64 72 65 73 73 74 66 75
REMARK SMILES IDX 67 76 71 77 74 78 68 79 69 80 72 81 70 82 49 83 50 84 58 85
REMARK SMILES IDX 51 86 52 87 56 88 59 89 53 90 54 91 57 92 55 93
REMARK H PARENT 79 46 47 57
REMARK Flexibility Score: inf
ROOT
ATOM      1  C   UNL A   1      35.593  20.429  25.019  1.00  0.00     0.275 C 
ENDROOT
BRANCH   1   2
ATOM      2  O   UNL A   1      34.758  21.607  24.994  1.00  0.00    -0.459 OA
BRANCH   2   3
ATOM      3  C   UNL A   1      33.970  21.799  26.073  1.00  0.00     0.338 C 
ATOM      4  O   UNL A   1      33.855  21.042  27.025  1.00  0.00    -0.246 OA
BRANCH   3   5
ATOM      5  C   UNL A   1      33.306  23.117  26.009  1.00  0.00     0.087 C 
ATOM      6  C   UNL A   1      32.415  28.031  25.359  1.00  0.00     0.030 A 
ATOM      7  C   UNL A   1      31.808  27.016  26.119  1.00  0.00     0.063 A 
ATOM      8  C   UNL A   1      33.525  27.707  24.560  1.00  0.00     0.055 A 
ATOM      9  C   UNL A   1      32.291  25.706  26.079  1.00  0.00     0.129 A 
ATOM     10  C   UNL A   1      34.010  26.398  24.526  1.00  0.00     0.033 A 
ATOM     11  Cl  UNL A   1      34.345  28.871  23.575  1.00  0.00    -0.083 Cl
ATOM     12  C   UNL A   1      33.405  25.406  25.302  1.00  0.00     0.019 A 
ATOM     13  O   UNL A   1      31.660  24.786  26.868  1.00  0.00    -0.475 OA
ATOM     14  C   UNL A   1      33.979  24.079  25.366  1.00  0.00     0.027 C 
ATOM     15  C   UNL A   1      31.995  23.371  26.708  1.00  0.00     0.316 C 
BRANCH   6  16
ATOM     16  S   UNL A   1      31.806  29.707  25.496  1.00  0.00    -0.124 SA
BRANCH  16  17
ATOM     17  C   UNL A   1      32.467  30.215  27.122  1.00  0.00     0.078 C 
BRANCH  17  18
ATOM     18  C   UNL A   1      33.939  30.667  27.102  1.00  0.00    -0.007 C 
ATOM     19  C   UNL A   1      34.200  31.894  27.980  1.00  0.00     0.008 C 
ATOM     20  C   UNL A   1      34.824  29.514  27.586  1.00  0.00     0.008 C 
ENDBRANCH  17  18
ENDBRANCH  16  17
ENDBRANCH   6  16
BRANCH  15  21
ATOM     21  C   UNL A   1      30.787  22.614  26.119  1.00  0.00     0.430 C 
ATOM     22  F   UNL A   1      30.281  23.269  25.044  1.00  0.00    -0.167 F 
ATOM     23  F   UNL A   1      31.132  21.379  25.682  1.00  0.00    -0.167 F 
ATOM     24  F   UNL A   1      29.788  22.454  27.014  1.00  0.00    -0.167 F 
ENDBRANCH  15  21
ENDBRANCH   3   5
ENDBRANCH   2   3
ENDBRANCH   1   2
BRANCH   1  25
ATOM     25  C   UNL A   1      37.043  20.795  24.705  1.00  0.00     0.275 C 
BRANCH  25  26
ATOM     26  O   UNL A   1      37.571  21.605  25.772  1.00  0.00    -0.458 OA
BRANCH  26  27
ATOM     27  C   UNL A   1      38.866  21.399  26.095  1.00  0.00     0.338 C 
ATOM     28  O   UNL A   1      39.505  20.362  25.999  1.00  0.00    -0.246 OA
BRANCH  27  29
ATOM     29  C   UNL A   1      39.445  22.654  26.599  1.00  0.00     0.060 A 
ATOM     30  C   UNL A   1      40.560  22.628  27.433  1.00  0.00     0.016 A 
ATOM     31  C   UNL A   1      38.934  23.871  26.154  1.00  0.00     0.016 A 
ATOM     32  C   UNL A   1      41.146  23.835  27.831  1.00  0.00     0.010 A 
ATOM     33  C   UNL A   1      39.584  25.064  26.463  1.00  0.00     0.010 A 
ATOM     34  C   UNL A   1      40.688  25.066  27.324  1.00  0.00    -0.014 A 
BRANCH  34  35
ATOM     35  C   UNL A   1      41.359  26.351  27.675  1.00  0.00     0.031 A 
ATOM     36  C   UNL A   1      42.756  26.655  27.190  1.00  0.00     0.074 A 
ATOM     37  C   UNL A   1      40.735  27.233  28.483  1.00  0.00     0.049 A 
ATOM     38  N   UNL A   1      43.514  27.693  27.443  1.00  0.00    -0.248 NA
ATOM     39  C   UNL A   1      43.400  25.642  26.340  1.00  0.00     0.031 C 
ATOM     40  C   UNL A   1      39.419  27.038  29.091  1.00  0.00     0.029 A 
ATOM     41  N   UNL A   1      41.122  28.474  28.928  1.00  0.00    -0.354 N 
ATOM     42  C   UNL A   1      44.729  27.441  26.817  1.00  0.00     0.074 A 
ATOM     43  C   UNL A   1      44.626  26.129  26.214  1.00  0.00     0.031 C 
ATOM     44  C   UNL A   1      39.082  28.140  29.778  1.00  0.00     0.029 A 
ATOM     45  C   UNL A   1      40.173  29.105  29.693  1.00  0.00     0.049 A 
ATOM     46  H   UNL A   1      41.997  28.873  28.717  1.00  0.00     0.167 HD
ATOM     47  C   UNL A   1      45.822  28.238  26.725  1.00  0.00     0.037 A 
ATOM     48  C   UNL A   1      40.172  30.329  30.256  1.00  0.00     0.037 A 
ATOM     49  C   UNL A   1      45.907  29.567  27.271  1.00  0.00     0.049 A 
ATOM     50  C   UNL A   1      41.363  31.227  30.073  1.00  0.00     0.074 A 
ATOM     51  C   UNL A   1      46.949  30.473  27.182  1.00  0.00     0.029 A 
ATOM     52  N   UNL A   1      44.900  30.188  27.995  1.00  0.00    -0.354 N 
ATOM     53  N   UNL A   1      42.487  30.991  29.443  1.00  0.00    -0.248 NA
ATOM     54  C   UNL A   1      41.281  32.568  30.673  1.00  0.00     0.031 C 
ATOM     55  C   UNL A   1      46.581  31.636  27.867  1.00  0.00     0.029 A 
ATOM     56  C   UNL A   1      45.293  31.468  28.351  1.00  0.00     0.049 A 
ATOM     57  H   UNL A   1      44.033  29.780  28.223  1.00  0.00     0.167 HD
ATOM     58  C   UNL A   1      43.236  32.153  29.550  1.00  0.00     0.074 A 
ATOM     59  C   UNL A   1      42.432  33.103  30.292  1.00  0.00     0.031 C 
ATOM     60  C   UNL A   1      44.479  32.408  29.076  1.00  0.00     0.037 A 
BRANCH  47  61
ATOM     61  C   UNL A   1      47.012  27.705  25.979  1.00  0.00     0.064 A 
ATOM     62  C   UNL A   1      47.090  27.771  24.579  1.00  0.00     0.173 A 
ATOM     63  C   UNL A   1      48.110  27.169  26.670  1.00  0.00     0.173 A 
ATOM     64  F   UNL A   1      46.064  28.267  23.871  1.00  0.00    -0.203 F 
ATOM     65  C   UNL A   1      48.206  27.294  23.898  1.00  0.00     0.198 A 
ATOM     66  C   UNL A   1      49.238  26.721  25.988  1.00  0.00     0.198 A 
ATOM     67  F   UNL A   1      48.095  27.092  28.010  1.00  0.00    -0.203 F 
ATOM     68  F   UNL A   1      48.234  27.323  22.559  1.00  0.00    -0.200 F 
ATOM     69  C   UNL A   1      49.282  26.776  24.603  1.00  0.00     0.200 A 
ATOM     70  F   UNL A   1      50.285  26.235  26.670  1.00  0.00    -0.200 F 
ATOM     71  F   UNL A   1      50.360  26.327  23.945  1.00  0.00    -0.200 F 
ENDBRANCH  47  61
BRANCH  48  72
ATOM     72  C   UNL A   1      38.963  30.798  30.981  1.00  0.00     0.064 A 
ATOM     73  C   UNL A   1      38.839  30.590  32.362  1.00  0.00     0.173 A 
ATOM     74  C   UNL A   1      37.937  31.493  30.328  1.00  0.00     0.173 A 
ATOM     75  F   UNL A   1      39.788  29.914  33.026  1.00  0.00    -0.203 F 
ATOM     76  C   UNL A   1      37.729  31.056  33.063  1.00  0.00     0.198 A 
ATOM     77  C   UNL A   1      36.838  31.979  31.035  1.00  0.00     0.198 A 
ATOM     78  F   UNL A   1      38.014  31.723  29.010  1.00  0.00    -0.203 F 
ATOM     79  F   UNL A   1      37.623  30.821  34.378  1.00  0.00    -0.200 F 
ATOM     80  C   UNL A   1      36.734  31.758  32.400  1.00  0.00     0.200 A 
ATOM     81  F   UNL A   1      35.884  32.670  30.395  1.00  0.00    -0.200 F 
ATOM     82  F   UNL A   1      35.673  32.220  33.077  1.00  0.00    -0.200 F 
ENDBRANCH  48  72
BRANCH  60  83
ATOM     83  C   UNL A   1      45.041  33.779  29.310  1.00  0.00     0.064 A 
ATOM     84  C   UNL A   1      45.866  34.057  30.409  1.00  0.00     0.173 A 
ATOM     85  C   UNL A   1      44.791  34.811  28.394  1.00  0.00     0.173 A 
ATOM     86  F   UNL A   1      46.125  33.105  31.317  1.00  0.00    -0.203 F 
ATOM     87  C   UNL A   1      46.406  35.327  30.593  1.00  0.00     0.198 A 
ATOM     88  C   UNL A   1      45.351  36.073  28.569  1.00  0.00     0.198 A 
ATOM     89  F   UNL A   1      44.013  34.593  27.324  1.00  0.00    -0.203 F 
ATOM     90  F   UNL A   1      47.162  35.582  31.670  1.00  0.00    -0.200 F 
ATOM     91  C   UNL A   1      46.154  36.331  29.670  1.00  0.00     0.200 A 
ATOM     92  F   UNL A   1      45.116  37.040  27.670  1.00  0.00    -0.200 F 
ATOM     93  F   UNL A   1      46.680  37.552  29.845  1.00  0.00    -0.200 F 
ENDBRANCH  60  83
ENDBRANCH  34  35
ENDBRANCH  27  29
ENDBRANCH  26  27
ENDBRANCH  25  26
ENDBRANCH   1  25
TORSDOF 15
ENDMDL
MODEL 2
REMARK VINA RESULT:     -12.0      1.168      2.264
REMARK SMILES CC(C)CSc1cc2c(cc1Cl)C=C(C(=O)OCCOC(=O)c1ccc(-c3c4nc(c(-c5c(F)c(F)c(F)c(F)c5F)c5ccc([nH]5)c(-c5c(F)c(F)c(F)c(F)c5F)c5nc(c(-c6c(F)c(F)c(F)c(F)c6F)c6ccc3[nH]6)C=C5)C=C4)cc1)[C@H](C(F)(F)F)O2
REMARK SMILES IDX 18 1 17 2 15 3 16 4 14 5 6 6 7 7 11 8 8 9 10 10 12 11 9 12
REMARK SMILES IDX 91 13 13 14 86 15 5 16 4 17 2 18 1 19 3 20 87 21 88 22 89 23
REMARK SMILES IDX 90 24 19 25 20 26 21 27 22 28 23 29 24 30 85 31 25 32 84 33
REMARK SMILES IDX 26 34 27 35 28 36 78 37 29 38 83 39 77 40 79 41 30 42 82 43
REMARK SMILES IDX 76 44 75 45 31 47 63 48 43 49 62 50 44 51 47 52 61 53 80 54
REMARK SMILES IDX 45 55 46 56 60 58 81 59 48 60 32 61 33 62 41 63 34 64 35 65
REMARK SMILES IDX 39 66 42 67 36 68 37 69 40 70 38 71 64 72 65 73 73 74 66 75
REMARK SMILES IDX 67 76 71 77 74 78 68 79 69 80 72 81 70 82 49 83 50 84 58 85
REMARK SMILES IDX 51 86 52 87 56 88 59 89 53 90 54 91 57 92 55 93
REMARK H PARENT 79 46 47 57
REMARK Flexibility Score: inf
ROOT
ATOM      1  C   UNL A   1      35.526  20.802  25.162  1.00  0.00     0.275 C 
ENDROOT
BRANCH   1   2
ATOM      2  O   UNL A   1      35.303  22.183  25.523  1.00  0.00    -0.459 OA
BRANCH   2   3
ATOM      3  C   UNL A   1      34.369  22.406  26.471  1.00  0.00     0.338 C 
ATOM      4  O   UNL A   1      34.292  21.846  27.553  1.00  0.00    -0.246 OA
BRANCH   3   5
ATOM      5  C   UNL A   1      33.468  23.507  26.069  1.00  0.00     0.087 C 
ATOM      6  C   UNL A   1      31.710  27.954  24.490  1.00  0.00     0.030 A 
ATOM      7  C   UNL A   1      31.179  26.909  25.266  1.00  0.00     0.063 A 
ATOM      8  C   UNL A   1      33.017  27.828  23.987  1.00  0.00     0.055 A 
ATOM      9  C   UNL A   1      31.930  25.761  25.529  1.00  0.00     0.129 A 
ATOM     10  C   UNL A   1      33.768  26.682  24.256  1.00  0.00     0.033 A 
ATOM     11  Cl  UNL A   1      33.769  29.045  23.012  1.00  0.00    -0.083 Cl
ATOM     12  C   UNL A   1      33.230  25.661  25.044  1.00  0.00     0.019 A 
ATOM     13  O   UNL A   1      31.349  24.804  26.313  1.00  0.00    -0.475 OA
ATOM     14  C   UNL A   1      34.047  24.530  25.429  1.00  0.00     0.027 C 
ATOM     15  C   UNL A   1      32.009  23.505  26.448  1.00  0.00     0.316 C 
BRANCH   6  16
ATOM     16  S   UNL A   1      30.739  29.435  24.238  1.00  0.00    -0.124 SA
BRANCH  16  17
ATOM     17  C   UNL A   1      29.841  29.036  22.698  1.00  0.00     0.078 C 
BRANCH  17  18
ATOM     18  C   UNL A   1      28.474  29.730  22.555  1.00  0.00    -0.007 C 
ATOM     19  C   UNL A   1      27.316  28.890  23.099  1.00  0.00     0.008 C 
ATOM     20  C   UNL A   1      28.510  31.067  23.303  1.00  0.00     0.008 C 
ENDBRANCH  17  18
ENDBRANCH  16  17
ENDBRANCH   6  16
BRANCH  15  21
ATOM     21  C   UNL A   1      31.160  22.417  25.759  1.00  0.00     0.430 C 
ATOM     22  F   UNL A   1      30.915  22.740  24.465  1.00  0.00    -0.167 F 
ATOM     23  F   UNL A   1      31.798  21.221  25.736  1.00  0.00    -0.167 F 
ATOM     24  F   UNL A   1      29.972  22.221  26.369  1.00  0.00    -0.167 F 
ENDBRANCH  15  21
ENDBRANCH   3   5
ENDBRANCH   2   3
ENDBRANCH   1   2
BRANCH   1  25
ATOM     25  C   UNL A   1      37.023  20.507  25.075  1.00  0.00     0.275 C 
BRANCH  25  26
ATOM     26  O   UNL A   1      37.761  21.658  25.527  1.00  0.00    -0.458 OA
BRANCH  26  27
ATOM     27  C   UNL A   1      38.958  21.412  26.103  1.00  0.00     0.338 C 
ATOM     28  O   UNL A   1      39.537  20.341  26.198  1.00  0.00    -0.246 OA
BRANCH  27  29
ATOM     29  C   UNL A   1      39.512  22.672  26.624  1.00  0.00     0.060 A 
ATOM     30  C   UNL A   1      40.600  22.654  27.492  1.00  0.00     0.016 A 
ATOM     31  C   UNL A   1      39.007  23.885  26.163  1.00  0.00     0.016 A 
ATOM     32  C   UNL A   1      41.165  23.865  27.909  1.00  0.00     0.010 A 
ATOM     33  C   UNL A   1      39.638  25.082  26.491  1.00  0.00     0.010 A 
ATOM     34  C   UNL A   1      40.714  25.092  27.387  1.00  0.00    -0.014 A 
BRANCH  34  35
ATOM     35  C   UNL A   1      41.365  26.382  27.758  1.00  0.00     0.031 A 
ATOM     36  C   UNL A   1      42.792  26.674  27.362  1.00  0.00     0.074 A 
ATOM     37  C   UNL A   1      40.692  27.280  28.507  1.00  0.00     0.049 A 
ATOM     38  N   UNL A   1      43.536  27.715  27.646  1.00  0.00    -0.248 NA
ATOM     39  C   UNL A   1      43.488  25.645  26.575  1.00  0.00     0.031 C 
ATOM     40  C   UNL A   1      39.337  27.099  29.030  1.00  0.00     0.029 A 
ATOM     41  N   UNL A   1      41.053  28.528  28.954  1.00  0.00    -0.354 N 
ATOM     42  C   UNL A   1      44.788  27.448  27.107  1.00  0.00     0.074 A 
ATOM     43  C   UNL A   1      44.721  26.126  26.522  1.00  0.00     0.031 C 
ATOM     44  C   UNL A   1      38.959  28.214  29.672  1.00  0.00     0.029 A 
ATOM     45  C   UNL A   1      40.057  29.175  29.643  1.00  0.00     0.049 A 
ATOM     46  H   UNL A   1      41.941  28.921  28.795  1.00  0.00     0.167 HD
ATOM     47  C   UNL A   1      45.887  28.241  27.073  1.00  0.00     0.037 A 
ATOM     48  C   UNL A   1      40.022  30.409  30.182  1.00  0.00     0.037 A 
ATOM     49  C   UNL A   1      45.941  29.580  27.599  1.00  0.00     0.049 A 
ATOM     50  C   UNL A   1      41.226  31.301  30.063  1.00  0.00     0.074 A 
ATOM     51  C   UNL A   1      46.990  30.482  27.563  1.00  0.00     0.029 A 
ATOM     52  N   UNL A   1      44.890  30.216  28.243  1.00  0.00    -0.354 N 
ATOM     53  N   UNL A   1      42.389  31.051  29.513  1.00  0.00    -0.248 NA
ATOM     54  C   UNL A   1      41.109  32.653  30.631  1.00  0.00     0.031 C 
ATOM     55  C   UNL A   1      46.581  31.658  28.201  1.00  0.00     0.029 A 
ATOM     56  C   UNL A   1      45.263  31.502  28.601  1.00  0.00     0.049 A 
ATOM     57  H   UNL A   1      44.008  29.815  28.420  1.00  0.00     0.167 HD
ATOM     58  C   UNL A   1      43.133  32.213  29.648  1.00  0.00     0.074 A 
ATOM     59  C   UNL A   1      42.285  33.178  30.318  1.00  0.00     0.031 C 
ATOM     60  C   UNL A   1      44.406  32.457  29.254  1.00  0.00     0.037 A 
BRANCH  47  61
ATOM     61  C   UNL A   1      47.123  27.693  26.418  1.00  0.00     0.064 A 
ATOM     62  C   UNL A   1      48.101  27.007  27.156  1.00  0.00     0.173 A 
ATOM     63  C   UNL A   1      47.312  27.808  25.032  1.00  0.00     0.173 A 
ATOM     64  F   UNL A   1      47.973  26.877  28.485  1.00  0.00    -0.203 F 
ATOM     65  C   UNL A   1      49.233  26.485  26.537  1.00  0.00     0.198 A 
ATOM     66  C   UNL A   1      48.430  27.257  24.411  1.00  0.00     0.198 A 
ATOM     67  F   UNL A   1      46.403  28.444  24.276  1.00  0.00    -0.203 F 
ATOM     68  F   UNL A   1      50.175  25.878  27.271  1.00  0.00    -0.200 F 
ATOM     69  C   UNL A   1      49.393  26.603  25.165  1.00  0.00     0.200 A 
ATOM     70  F   UNL A   1      48.577  27.358  23.083  1.00  0.00    -0.200 F 
ATOM     71  F   UNL A   1      50.479  26.090  24.570  1.00  0.00    -0.200 F 
ENDBRANCH  47  61
BRANCH  48  72
ATOM     72  C   UNL A   1      38.770  30.894  30.816  1.00  0.00     0.064 A 
ATOM     73  C   UNL A   1      37.732  31.416  30.031  1.00  0.00     0.173 A 
ATOM     74  C   UNL A   1      38.566  30.811  32.200  1.00  0.00     0.173 A 
ATOM     75  F   UNL A   1      37.890  31.532  28.704  1.00  0.00    -0.203 F 
ATOM     76  C   UNL A   1      36.538  31.842  30.607  1.00  0.00     0.198 A 
ATOM     77  C   UNL A   1      37.361  31.216  32.773  1.00  0.00     0.198 A 
ATOM     78  F   UNL A   1      39.526  30.312  32.992  1.00  0.00    -0.203 F 
ATOM     79  F   UNL A   1      35.572  32.361  29.837  1.00  0.00    -0.200 F 
ATOM     80  C   UNL A   1      36.351  31.733  31.977  1.00  0.00     0.200 A 
ATOM     81  F   UNL A   1      37.176  31.095  34.094  1.00  0.00    -0.200 F 
ATOM     82  F   UNL A   1      35.195  32.128  32.530  1.00  0.00    -0.200 F 
ENDBRANCH  48  72
BRANCH  60  83
ATOM     83  C   UNL A   1      44.955  33.830  29.499  1.00  0.00     0.064 A 
ATOM     84  C   UNL A   1      45.660  34.141  30.671  1.00  0.00     0.173 A 
ATOM     85  C   UNL A   1      44.819  34.831  28.526  1.00  0.00     0.173 A 
ATOM     86  F   UNL A   1      45.807  33.220  31.635  1.00  0.00    -0.203 F 
ATOM     87  C   UNL A   1      46.192  35.412  30.869  1.00  0.00     0.198 A 
ATOM     88  C   UNL A   1      45.373  36.094  28.717  1.00  0.00     0.198 A 
ATOM     89  F   UNL A   1      44.159  34.581  27.386  1.00  0.00    -0.203 F 
ATOM     90  F   UNL A   1      46.830  35.699  32.012  1.00  0.00    -0.200 F 
ATOM     91  C   UNL A   1      46.054  36.385  29.889  1.00  0.00     0.200 A 
ATOM     92  F   UNL A   1      45.248  37.030  27.765  1.00  0.00    -0.200 F 
ATOM     93  F   UNL A   1      46.573  37.606  30.078  1.00  0.00    -0.200 F 
ENDBRANCH  60  83
ENDBRANCH  34  35
ENDBRANCH  27  29
ENDBRANCH  26  27
ENDBRANCH  25  26
ENDBRANCH   1  25
TORSDOF 15
ENDMDL
MODEL 3
REMARK VINA RESULT:     -11.9      4.474      9.887
REMARK SMILES CC(C)CSc1cc2c(cc1Cl)C=C(C(=O)OCCOC(=O)c1ccc(-c3c4nc(c(-c5c(F)c(F)c(F)c(F)c5F)c5ccc([nH]5)c(-c5c(F)c(F)c(F)c(F)c5F)c5nc(c(-c6c(F)c(F)c(F)c(F)c6F)c6ccc3[nH]6)C=C5)C=C4)cc1)[C@H](C(F)(F)F)O2
REMARK SMILES IDX 18 1 17 2 15 3 16 4 14 5 6 6 7 7 11 8 8 9 10 10 12 11 9 12
REMARK SMILES IDX 91 13 13 14 86 15 5 16 4 17 2 18 1 19 3 20 87 21 88 22 89 23
REMARK SMILES IDX 90 24 19 25 20 26 21 27 22 28 23 29 24 30 85 31 25 32 84 33
REMARK SMILES IDX 26 34 27 35 28 36 78 37 29 38 83 39 77 40 79 41 30 42 82 43
REMARK SMILES IDX 76 44 75 45 31 47 63 48 43 49 62 50 44 51 47 52 61 53 80 54
REMARK SMILES IDX 45 55 46 56 60 58 81 59 48 60 32 61 33 62 41 63 34 64 35 65
REMARK SMILES IDX 39 66 42 67 36 68 37 69 40 70 38 71 64 72 65 73 73 74 66 75
REMARK SMILES IDX 67 76 71 77 74 78 68 79 69 80 72 81 70 82 49 83 50 84 58 85
REMARK SMILES IDX 51 86 52 87 56 88 59 89 53 90 54 91 57 92 55 93
REMARK H PARENT 79 46 47 57
REMARK Flexibility Score: inf
ROOT
ATOM      1  C   UNL A   1      31.402  29.880  24.958  1.00  0.00     0.275 C 
ENDROOT
BRANCH   1   2
ATOM      2  O   UNL A   1      32.558  29.058  24.683  1.00  0.00    -0.459 OA
BRANCH   2   3
ATOM      3  C   UNL A   1      32.504  28.316  23.557  1.00  0.00     0.338 C 
ATOM      4  O   UNL A   1      32.494  28.744  22.413  1.00  0.00    -0.246 OA
BRANCH   3   5
ATOM      5  C   UNL A   1      32.549  26.875  23.877  1.00  0.00     0.087 C 
ATOM      6  C   UNL A   1      34.175  22.207  24.840  1.00  0.00     0.030 A 
ATOM      7  C   UNL A   1      32.967  22.746  24.365  1.00  0.00     0.063 A 
ATOM      8  C   UNL A   1      35.230  23.081  25.153  1.00  0.00     0.055 A 
ATOM      9  C   UNL A   1      32.811  24.125  24.212  1.00  0.00     0.129 A 
ATOM     10  C   UNL A   1      35.074  24.459  24.993  1.00  0.00     0.033 A 
ATOM     11  Cl  UNL A   1      36.758  22.531  25.755  1.00  0.00    -0.083 Cl
ATOM     12  C   UNL A   1      33.872  24.976  24.503  1.00  0.00     0.019 A 
ATOM     13  O   UNL A   1      31.614  24.565  23.719  1.00  0.00    -0.475 OA
ATOM     14  C   UNL A   1      33.749  26.390  24.217  1.00  0.00     0.027 C 
ATOM     15  C   UNL A   1      31.330  26.000  23.732  1.00  0.00     0.316 C 
BRANCH   6  16
ATOM     16  S   UNL A   1      34.353  20.430  24.955  1.00  0.00    -0.124 SA
BRANCH  16  17
ATOM     17  C   UNL A   1      32.778  19.849  24.234  1.00  0.00     0.078 C 
BRANCH  17  18
ATOM     18  C   UNL A   1      32.749  18.350  23.883  1.00  0.00    -0.007 C 
ATOM     19  C   UNL A   1      32.525  18.088  22.392  1.00  0.00     0.008 C 
ATOM     20  C   UNL A   1      34.077  17.711  24.303  1.00  0.00     0.008 C 
ENDBRANCH  17  18
ENDBRANCH  16  17
ENDBRANCH   6  16
BRANCH  15  21
ATOM     21  C   UNL A   1      30.195  26.296  24.735  1.00  0.00     0.430 C 
ATOM     22  F   UNL A   1      29.530  25.161  25.064  1.00  0.00    -0.167 F 
ATOM     23  F   UNL A   1      30.671  26.806  25.897  1.00  0.00    -0.167 F 
ATOM     24  F   UNL A   1      29.294  27.180  24.254  1.00  0.00    -0.167 F 
ENDBRANCH  15  21
ENDBRANCH   3   5
ENDBRANCH   2   3
ENDBRANCH   1   2
BRANCH   1  25
ATOM     25  C   UNL A   1      31.691  30.838  26.114  1.00  0.00     0.275 C 
BRANCH  25  26
ATOM     26  O   UNL A   1      33.061  30.683  26.528  1.00  0.00    -0.458 OA
BRANCH  26  27
ATOM     27  C   UNL A   1      33.584  31.695  27.255  1.00  0.00     0.338 C 
ATOM     28  O   UNL A   1      33.120  32.812  27.426  1.00  0.00    -0.246 OA
BRANCH  27  29
ATOM     29  C   UNL A   1      34.852  31.253  27.856  1.00  0.00     0.060 A 
ATOM     30  C   UNL A   1      35.864  32.175  28.118  1.00  0.00     0.016 A 
ATOM     31  C   UNL A   1      34.996  29.927  28.256  1.00  0.00     0.016 A 
ATOM     32  C   UNL A   1      37.028  31.749  28.767  1.00  0.00     0.010 A 
ATOM     33  C   UNL A   1      36.106  29.530  28.998  1.00  0.00     0.010 A 
ATOM     34  C   UNL A   1      37.150  30.430  29.247  1.00  0.00    -0.014 A 
BRANCH  34  35
ATOM     35  C   UNL A   1      38.350  29.989  30.016  1.00  0.00     0.031 A 
ATOM     36  C   UNL A   1      38.573  30.447  31.436  1.00  0.00     0.074 A 
ATOM     37  C   UNL A   1      39.279  29.215  29.418  1.00  0.00     0.049 A 
ATOM     38  N   UNL A   1      39.584  30.211  32.235  1.00  0.00    -0.248 NA
ATOM     39  C   UNL A   1      37.543  31.317  32.025  1.00  0.00     0.031 C 
ATOM     40  C   UNL A   1      39.236  28.763  28.027  1.00  0.00     0.029 A 
ATOM     41  N   UNL A   1      40.440  28.667  29.907  1.00  0.00    -0.354 N 
ATOM     42  C   UNL A   1      39.329  30.927  33.397  1.00  0.00     0.074 A 
ATOM     43  C   UNL A   1      38.093  31.649  33.183  1.00  0.00     0.031 C 
ATOM     44  C   UNL A   1      40.285  27.960  27.791  1.00  0.00     0.029 A 
ATOM     45  C   UNL A   1      41.096  27.871  29.000  1.00  0.00     0.049 A 
ATOM     46  H   UNL A   1      40.769  28.828  30.820  1.00  0.00     0.167 HD
ATOM     47  C   UNL A   1      40.041  30.961  34.551  1.00  0.00     0.037 A 
ATOM     48  C   UNL A   1      42.220  27.139  29.128  1.00  0.00     0.037 A 
ATOM     49  C   UNL A   1      41.238  30.198  34.790  1.00  0.00     0.049 A 
ATOM     50  C   UNL A   1      42.950  27.129  30.442  1.00  0.00     0.074 A 
ATOM     51  C   UNL A   1      41.998  30.122  35.945  1.00  0.00     0.029 A 
ATOM     52  N   UNL A   1      41.839  29.363  33.861  1.00  0.00    -0.354 N 
ATOM     53  N   UNL A   1      42.673  27.778  31.546  1.00  0.00    -0.248 NA
ATOM     54  C   UNL A   1      44.144  26.275  30.532  1.00  0.00     0.031 C 
ATOM     55  C   UNL A   1      43.070  29.255  35.708  1.00  0.00     0.029 A 
ATOM     56  C   UNL A   1      42.956  28.761  34.419  1.00  0.00     0.049 A 
ATOM     57  H   UNL A   1      41.520  29.218  32.940  1.00  0.00     0.167 HD
ATOM     58  C   UNL A   1      43.640  27.399  32.465  1.00  0.00     0.074 A 
ATOM     59  C   UNL A   1      44.504  26.447  31.796  1.00  0.00     0.031 C 
ATOM     60  C   UNL A   1      43.798  27.805  33.747  1.00  0.00     0.037 A 
BRANCH  47  61
ATOM     61  C   UNL A   1      39.528  31.834  35.661  1.00  0.00     0.064 A 
ATOM     62  C   UNL A   1      38.565  31.371  36.572  1.00  0.00     0.173 A 
ATOM     63  C   UNL A   1      40.038  33.128  35.850  1.00  0.00     0.173 A 
ATOM     64  F   UNL A   1      38.039  30.145  36.431  1.00  0.00    -0.203 F 
ATOM     65  C   UNL A   1      38.111  32.180  37.610  1.00  0.00     0.198 A 
ATOM     66  C   UNL A   1      39.605  33.923  36.908  1.00  0.00     0.198 A 
ATOM     67  F   UNL A   1      40.969  33.617  35.016  1.00  0.00    -0.203 F 
ATOM     68  F   UNL A   1      37.156  31.733  38.436  1.00  0.00    -0.200 F 
ATOM     69  C   UNL A   1      38.637  33.452  37.782  1.00  0.00     0.200 A 
ATOM     70  F   UNL A   1      40.124  35.146  37.083  1.00  0.00    -0.200 F 
ATOM     71  F   UNL A   1      38.206  34.225  38.789  1.00  0.00    -0.200 F 
ENDBRANCH  47  61
BRANCH  48  72
ATOM     72  C   UNL A   1      42.676  26.296  27.993  1.00  0.00     0.064 A 
ATOM     73  C   UNL A   1      42.187  24.992  27.837  1.00  0.00     0.173 A 
ATOM     74  C   UNL A   1      43.567  26.782  27.027  1.00  0.00     0.173 A 
ATOM     75  F   UNL A   1      41.347  24.478  28.747  1.00  0.00    -0.203 F 
ATOM     76  C   UNL A   1      42.577  24.201  26.759  1.00  0.00     0.198 A 
ATOM     77  C   UNL A   1      43.938  25.998  25.936  1.00  0.00     0.198 A 
ATOM     78  F   UNL A   1      44.056  28.026  27.129  1.00  0.00    -0.203 F 
ATOM     79  F   UNL A   1      42.115  22.948  26.647  1.00  0.00    -0.200 F 
ATOM     80  C   UNL A   1      43.445  24.709  25.804  1.00  0.00     0.200 A 
ATOM     81  F   UNL A   1      44.765  26.496  25.007  1.00  0.00    -0.200 F 
ATOM     82  F   UNL A   1      43.808  23.954  24.758  1.00  0.00    -0.200 F 
ENDBRANCH  48  72
BRANCH  60  83
ATOM     83  C   UNL A   1      44.923  27.199  34.531  1.00  0.00     0.064 A 
ATOM     84  C   UNL A   1      46.187  27.803  34.589  1.00  0.00     0.173 A 
ATOM     85  C   UNL A   1      44.717  26.027  35.275  1.00  0.00     0.173 A 
ATOM     86  F   UNL A   1      46.436  28.918  33.887  1.00  0.00    -0.203 F 
ATOM     87  C   UNL A   1      47.212  27.244  35.349  1.00  0.00     0.198 A 
ATOM     88  C   UNL A   1      45.736  25.484  36.052  1.00  0.00     0.198 A 
ATOM     89  F   UNL A   1      43.523  25.416  35.257  1.00  0.00    -0.203 F 
ATOM     90  F   UNL A   1      48.423  27.817  35.361  1.00  0.00    -0.200 F 
ATOM     91  C   UNL A   1      46.983  26.090  36.084  1.00  0.00     0.200 A 
ATOM     92  F   UNL A   1      45.511  24.376  36.771  1.00  0.00    -0.200 F 
ATOM     93  F   UNL A   1      47.969  25.557  36.820  1.00  0.00    -0.200 F 
ENDBRANCH  60  83
ENDBRANCH  34  35
ENDBRANCH  27  29
ENDBRANCH  26  27
ENDBRANCH  25  26
ENDBRANCH   1  25
TORSDOF 15
ENDMDL
