MODEL 1
REMARK VINA RESULT:     -11.5      0.000      0.000
REMARK SMILES C[C@@H](C(=O)OCCOC(=O)c1ccc(-c2c3nc(c(-c4c(F)c(F)c(F)c(F)c4F)c4ccc([nH]4)c(-c4c(F)c(F)c(F)c(F)c4F)c4nc(c(-c5c(F)c(F)c(F)c(F)c5F)c5ccc2[nH]5)C=C4)C=C3)cc1)c1ccc(Cc2ccoc2)cc1F
REMARK SMILES IDX 6 1 5 2 3 3 4 4 2 5 1 6 74 7 75 8 85 9 76 10 84 11 86 12
REMARK SMILES IDX 77 13 78 14 79 15 80 16 83 17 81 18 82 19 7 20 8 21 9 22
REMARK SMILES IDX 10 23 11 24 12 25 73 26 13 27 72 28 14 29 15 30 16 31 66 32
REMARK SMILES IDX 17 33 71 34 65 35 67 36 18 37 70 38 64 39 63 40 19 42 51 43
REMARK SMILES IDX 31 44 50 45 32 46 35 47 49 48 68 49 33 50 34 51 48 53 69 54
REMARK SMILES IDX 36 55 20 56 21 57 29 58 22 59 23 60 27 61 30 62 24 63 25 64
REMARK SMILES IDX 28 65 26 66 52 67 53 68 61 69 54 70 55 71 59 72 62 73 56 74
REMARK SMILES IDX 57 75 60 76 58 77 37 78 38 79 46 80 39 81 40 82 44 83 47 84
REMARK SMILES IDX 41 85 42 86 45 87 43 88
REMARK H PARENT 67 41 35 52
REMARK Flexibility Score: inf
ROOT
ATOM      1  C   UNL A   1      31.169  29.702  24.528  1.00  0.00     0.274 C 
ENDROOT
BRANCH   1   2
ATOM      2  O   UNL A   1      30.901  28.327  24.177  1.00  0.00    -0.462 OA
BRANCH   2   3
ATOM      3  C   UNL A   1      31.584  27.817  23.113  1.00  0.00     0.313 C 
ATOM      4  O   UNL A   1      31.050  27.430  22.079  1.00  0.00    -0.252 OA
BRANCH   3   5
ATOM      5  C   UNL A   1      33.092  27.710  23.374  1.00  0.00     0.129 C 
ATOM      6  C   UNL A   1      33.949  28.120  22.171  1.00  0.00     0.025 C 
BRANCH   5   7
ATOM      7  C   UNL A   1      33.459  26.352  23.971  1.00  0.00     0.002 A 
ATOM      8  C   UNL A   1      33.778  25.289  23.109  1.00  0.00     0.008 A 
ATOM      9  C   UNL A   1      33.569  26.120  25.346  1.00  0.00     0.127 A 
ATOM     10  C   UNL A   1      34.223  24.058  23.609  1.00  0.00     0.004 A 
ATOM     11  C   UNL A   1      33.991  24.887  25.854  1.00  0.00     0.043 A 
ATOM     12  F   UNL A   1      33.334  27.104  26.223  1.00  0.00    -0.207 F 
ATOM     13  C   UNL A   1      34.358  23.847  24.988  1.00  0.00    -0.041 A 
BRANCH  13  14
ATOM     14  C   UNL A   1      34.997  22.582  25.509  1.00  0.00     0.074 C 
BRANCH  14  15
ATOM     15  C   UNL A   1      36.449  22.828  25.692  1.00  0.00    -0.005 A 
ATOM     16  C   UNL A   1      37.090  23.960  26.274  1.00  0.00     0.046 A 
ATOM     17  C   UNL A   1      37.471  21.940  25.410  1.00  0.00     0.198 A 
ATOM     18  C   UNL A   1      38.437  23.683  26.291  1.00  0.00     0.195 A 
ATOM     19  O   UNL A   1      38.674  22.456  25.764  1.00  0.00    -0.472 OA
ENDBRANCH  14  15
ENDBRANCH  13  14
ENDBRANCH   5   7
ENDBRANCH   3   5
ENDBRANCH   2   3
ENDBRANCH   1   2
BRANCH   1  20
ATOM     20  C   UNL A   1      31.638  29.788  25.979  1.00  0.00     0.275 C 
BRANCH  20  21
ATOM     21  O   UNL A   1      32.989  30.275  25.990  1.00  0.00    -0.458 OA
BRANCH  21  22
ATOM     22  C   UNL A   1      33.296  31.187  26.938  1.00  0.00     0.338 C 
ATOM     23  O   UNL A   1      32.619  32.145  27.286  1.00  0.00    -0.246 OA
BRANCH  22  24
ATOM     24  C   UNL A   1      34.618  30.868  27.518  1.00  0.00     0.060 A 
ATOM     25  C   UNL A   1      34.973  29.551  27.802  1.00  0.00     0.016 A 
ATOM     26  C   UNL A   1      35.491  31.904  27.855  1.00  0.00     0.016 A 
ATOM     27  C   UNL A   1      36.155  29.279  28.490  1.00  0.00     0.010 A 
ATOM     28  C   UNL A   1      36.714  31.618  28.477  1.00  0.00     0.010 A 
ATOM     29  C   UNL A   1      37.045  30.304  28.845  1.00  0.00    -0.014 A 
BRANCH  29  30
ATOM     30  C   UNL A   1      38.264  30.012  29.659  1.00  0.00     0.031 A 
ATOM     31  C   UNL A   1      39.378  29.167  29.088  1.00  0.00     0.074 A 
ATOM     32  C   UNL A   1      38.429  30.539  30.891  1.00  0.00     0.049 A 
ATOM     33  N   UNL A   1      40.413  28.636  29.693  1.00  0.00    -0.248 NA
ATOM     34  C   UNL A   1      39.322  28.879  27.646  1.00  0.00     0.031 C 
ATOM     35  C   UNL A   1      37.491  31.437  31.564  1.00  0.00     0.029 A 
ATOM     36  N   UNL A   1      39.463  30.411  31.790  1.00  0.00    -0.354 N 
ATOM     37  C   UNL A   1      41.072  27.881  28.732  1.00  0.00     0.074 A 
ATOM     38  C   UNL A   1      40.343  28.047  27.493  1.00  0.00     0.031 C 
ATOM     39  C   UNL A   1      38.016  31.827  32.734  1.00  0.00     0.029 A 
ATOM     40  C   UNL A   1      39.275  31.121  32.949  1.00  0.00     0.049 A 
ATOM     41  H   UNL A   1      40.261  29.861  31.617  1.00  0.00     0.167 HD
ATOM     42  C   UNL A   1      42.178  27.110  28.873  1.00  0.00     0.037 A 
ATOM     43  C   UNL A   1      40.000  31.167  34.084  1.00  0.00     0.037 A 
ATOM     44  C   UNL A   1      42.956  27.005  30.080  1.00  0.00     0.049 A 
ATOM     45  C   UNL A   1      41.220  30.304  34.222  1.00  0.00     0.074 A 
ATOM     46  C   UNL A   1      44.090  26.245  30.315  1.00  0.00     0.029 A 
ATOM     47  N   UNL A   1      42.699  27.707  31.248  1.00  0.00    -0.354 N 
ATOM     48  N   UNL A   1      41.761  29.492  33.348  1.00  0.00    -0.248 NA
ATOM     49  C   UNL A   1      41.910  30.333  35.521  1.00  0.00     0.031 C 
ATOM     50  C   UNL A   1      44.508  26.471  31.631  1.00  0.00     0.029 A 
ATOM     51  C   UNL A   1      43.653  27.397  32.205  1.00  0.00     0.049 A 
ATOM     52  H   UNL A   1      41.950  28.332  31.378  1.00  0.00     0.167 HD
ATOM     53  C   UNL A   1      42.843  28.907  33.991  1.00  0.00     0.074 A 
ATOM     54  C   UNL A   1      42.905  29.482  35.318  1.00  0.00     0.031 C 
ATOM     55  C   UNL A   1      43.699  27.965  33.525  1.00  0.00     0.037 A 
BRANCH  42  56
ATOM     56  C   UNL A   1      42.601  26.276  27.699  1.00  0.00     0.064 A 
ATOM     57  C   UNL A   1      42.016  25.035  27.417  1.00  0.00     0.173 A 
ATOM     58  C   UNL A   1      43.572  26.765  26.809  1.00  0.00     0.173 A 
ATOM     59  F   UNL A   1      41.097  24.520  28.246  1.00  0.00    -0.203 F 
ATOM     60  C   UNL A   1      42.398  24.304  26.294  1.00  0.00     0.198 A 
ATOM     61  C   UNL A   1      43.933  26.042  25.675  1.00  0.00     0.198 A 
ATOM     62  F   UNL A   1      44.158  27.951  27.031  1.00  0.00    -0.203 F 
ATOM     63  F   UNL A   1      41.851  23.103  26.061  1.00  0.00    -0.200 F 
ATOM     64  C   UNL A   1      43.350  24.811  25.420  1.00  0.00     0.200 A 
ATOM     65  F   UNL A   1      44.843  26.541  24.826  1.00  0.00    -0.200 F 
ATOM     66  F   UNL A   1      43.707  24.112  24.335  1.00  0.00    -0.200 F 
ENDBRANCH  42  56
BRANCH  43  67
ATOM     67  C   UNL A   1      39.550  32.029  35.209  1.00  0.00     0.064 A 
ATOM     68  C   UNL A   1      39.979  33.358  35.313  1.00  0.00     0.173 A 
ATOM     69  C   UNL A   1      38.672  31.545  36.190  1.00  0.00     0.173 A 
ATOM     70  F   UNL A   1      40.843  33.855  34.417  1.00  0.00    -0.203 F 
ATOM     71  C   UNL A   1      39.544  34.172  36.358  1.00  0.00     0.198 A 
ATOM     72  C   UNL A   1      38.213  32.368  37.214  1.00  0.00     0.198 A 
ATOM     73  F   UNL A   1      38.237  30.277  36.135  1.00  0.00    -0.203 F 
ATOM     74  F   UNL A   1      39.993  35.431  36.454  1.00  0.00    -0.200 F 
ATOM     75  C   UNL A   1      38.653  33.681  37.300  1.00  0.00     0.200 A 
ATOM     76  F   UNL A   1      37.341  31.892  38.113  1.00  0.00    -0.200 F 
ATOM     77  F   UNL A   1      38.221  34.469  38.293  1.00  0.00    -0.200 F 
ENDBRANCH  43  67
BRANCH  55  78
ATOM     78  C   UNL A   1      44.775  27.498  34.458  1.00  0.00     0.064 A 
ATOM     79  C   UNL A   1      46.010  28.160  34.533  1.00  0.00     0.173 A 
ATOM     80  C   UNL A   1      44.563  26.398  35.302  1.00  0.00     0.173 A 
ATOM     81  F   UNL A   1      46.265  29.206  33.733  1.00  0.00    -0.203 F 
ATOM     82  C   UNL A   1      47.002  27.722  35.406  1.00  0.00     0.198 A 
ATOM     83  C   UNL A   1      45.550  25.977  36.188  1.00  0.00     0.198 A 
ATOM     84  F   UNL A   1      43.397  25.736  35.269  1.00  0.00    -0.203 F 
ATOM     85  F   UNL A   1      48.190  28.343  35.433  1.00  0.00    -0.200 F 
ATOM     86  C   UNL A   1      46.770  26.635  36.236  1.00  0.00     0.200 A 
ATOM     87  F   UNL A   1      45.323  24.930  36.994  1.00  0.00    -0.200 F 
ATOM     88  F   UNL A   1      47.727  26.215  37.075  1.00  0.00    -0.200 F 
ENDBRANCH  55  78
ENDBRANCH  29  30
ENDBRANCH  22  24
ENDBRANCH  21  22
ENDBRANCH  20  21
ENDBRANCH   1  20
TORSDOF 14
ENDMDL
MODEL 2
REMARK VINA RESULT:     -11.5      0.974      1.741
REMARK SMILES C[C@@H](C(=O)OCCOC(=O)c1ccc(-c2c3nc(c(-c4c(F)c(F)c(F)c(F)c4F)c4ccc([nH]4)c(-c4c(F)c(F)c(F)c(F)c4F)c4nc(c(-c5c(F)c(F)c(F)c(F)c5F)c5ccc2[nH]5)C=C4)C=C3)cc1)c1ccc(Cc2ccoc2)cc1F
REMARK SMILES IDX 6 1 5 2 3 3 4 4 2 5 1 6 74 7 75 8 85 9 76 10 84 11 86 12
REMARK SMILES IDX 77 13 78 14 79 15 80 16 83 17 81 18 82 19 7 20 8 21 9 22
REMARK SMILES IDX 10 23 11 24 12 25 73 26 13 27 72 28 14 29 15 30 16 31 66 32
REMARK SMILES IDX 17 33 71 34 65 35 67 36 18 37 70 38 64 39 63 40 19 42 51 43
REMARK SMILES IDX 31 44 50 45 32 46 35 47 49 48 68 49 33 50 34 51 48 53 69 54
REMARK SMILES IDX 36 55 20 56 21 57 29 58 22 59 23 60 27 61 30 62 24 63 25 64
REMARK SMILES IDX 28 65 26 66 52 67 53 68 61 69 54 70 55 71 59 72 62 73 56 74
REMARK SMILES IDX 57 75 60 76 58 77 37 78 38 79 46 80 39 81 40 82 44 83 47 84
REMARK SMILES IDX 41 85 42 86 45 87 43 88
REMARK H PARENT 67 41 35 52
REMARK Flexibility Score: inf
ROOT
ATOM      1  C   UNL A   1      31.404  28.555  25.426  1.00  0.00     0.274 C 
ENDROOT
BRANCH   1   2
ATOM      2  O   UNL A   1      30.736  28.136  24.216  1.00  0.00    -0.462 OA
BRANCH   2   3
ATOM      3  C   UNL A   1      31.520  27.643  23.216  1.00  0.00     0.313 C 
ATOM      4  O   UNL A   1      31.084  27.191  22.162  1.00  0.00    -0.252 OA
BRANCH   3   5
ATOM      5  C   UNL A   1      33.012  27.646  23.577  1.00  0.00     0.129 C 
ATOM      6  C   UNL A   1      33.876  28.436  22.589  1.00  0.00     0.025 C 
BRANCH   5   7
ATOM      7  C   UNL A   1      33.518  26.234  23.863  1.00  0.00     0.002 A 
ATOM      8  C   UNL A   1      33.631  25.319  22.802  1.00  0.00     0.008 A 
ATOM      9  C   UNL A   1      33.953  25.812  25.125  1.00  0.00     0.127 A 
ATOM     10  C   UNL A   1      34.190  24.049  22.996  1.00  0.00     0.004 A 
ATOM     11  C   UNL A   1      34.491  24.537  25.330  1.00  0.00     0.043 A 
ATOM     12  F   UNL A   1      33.925  26.649  26.169  1.00  0.00    -0.207 F 
ATOM     13  C   UNL A   1      34.649  23.648  24.258  1.00  0.00    -0.041 A 
BRANCH  13  14
ATOM     14  C   UNL A   1      35.402  22.349  24.421  1.00  0.00     0.074 C 
BRANCH  14  15
ATOM     15  C   UNL A   1      34.418  21.259  24.636  1.00  0.00    -0.005 A 
ATOM     16  C   UNL A   1      33.002  21.354  24.758  1.00  0.00     0.046 A 
ATOM     17  C   UNL A   1      34.693  19.904  24.663  1.00  0.00     0.198 A 
ATOM     18  C   UNL A   1      32.529  20.067  24.861  1.00  0.00     0.195 A 
ATOM     19  O   UNL A   1      33.554  19.181  24.806  1.00  0.00    -0.472 OA
ENDBRANCH  14  15
ENDBRANCH  13  14
ENDBRANCH   5   7
ENDBRANCH   3   5
ENDBRANCH   2   3
ENDBRANCH   1   2
BRANCH   1  20
ATOM     20  C   UNL A   1      31.499  30.078  25.467  1.00  0.00     0.275 C 
BRANCH  20  21
ATOM     21  O   UNL A   1      32.862  30.440  25.745  1.00  0.00    -0.458 OA
BRANCH  21  22
ATOM     22  C   UNL A   1      33.071  31.236  26.816  1.00  0.00     0.338 C 
ATOM     23  O   UNL A   1      32.319  32.096  27.253  1.00  0.00    -0.246 OA
BRANCH  22  24
ATOM     24  C   UNL A   1      34.388  30.924  27.410  1.00  0.00     0.060 A 
ATOM     25  C   UNL A   1      34.777  29.604  27.629  1.00  0.00     0.016 A 
ATOM     26  C   UNL A   1      35.221  31.965  27.826  1.00  0.00     0.016 A 
ATOM     27  C   UNL A   1      35.950  29.329  28.332  1.00  0.00     0.010 A 
ATOM     28  C   UNL A   1      36.437  31.680  28.461  1.00  0.00     0.010 A 
ATOM     29  C   UNL A   1      36.800  30.358  28.764  1.00  0.00    -0.014 A 
BRANCH  29  30
ATOM     30  C   UNL A   1      38.008  30.057  29.592  1.00  0.00     0.031 A 
ATOM     31  C   UNL A   1      39.141  29.239  29.018  1.00  0.00     0.074 A 
ATOM     32  C   UNL A   1      38.146  30.553  30.840  1.00  0.00     0.049 A 
ATOM     33  N   UNL A   1      40.170  28.703  29.627  1.00  0.00    -0.248 NA
ATOM     34  C   UNL A   1      39.112  28.990  27.568  1.00  0.00     0.031 C 
ATOM     35  C   UNL A   1      37.187  31.422  31.520  1.00  0.00     0.029 A 
ATOM     36  N   UNL A   1      39.165  30.411  31.753  1.00  0.00    -0.354 N 
ATOM     37  C   UNL A   1      40.854  27.981  28.657  1.00  0.00     0.074 A 
ATOM     38  C   UNL A   1      40.144  28.172  27.411  1.00  0.00     0.031 C 
ATOM     39  C   UNL A   1      37.687  31.787  32.709  1.00  0.00     0.029 A 
ATOM     40  C   UNL A   1      38.950  31.089  32.927  1.00  0.00     0.049 A 
ATOM     41  H   UNL A   1      39.973  29.874  31.580  1.00  0.00     0.167 HD
ATOM     42  C   UNL A   1      41.966  27.217  28.797  1.00  0.00     0.037 A 
ATOM     43  C   UNL A   1      39.655  31.112  34.076  1.00  0.00     0.037 A 
ATOM     44  C   UNL A   1      42.724  27.088  30.015  1.00  0.00     0.049 A 
ATOM     45  C   UNL A   1      40.882  30.257  34.212  1.00  0.00     0.074 A 
ATOM     46  C   UNL A   1      43.862  26.334  30.249  1.00  0.00     0.029 A 
ATOM     47  N   UNL A   1      42.439  27.756  31.196  1.00  0.00    -0.354 N 
ATOM     48  N   UNL A   1      41.446  29.475  33.326  1.00  0.00    -0.248 NA
ATOM     49  C   UNL A   1      41.549  30.259  35.522  1.00  0.00     0.031 C 
ATOM     50  C   UNL A   1      44.254  26.529  31.578  1.00  0.00     0.029 A 
ATOM     51  C   UNL A   1      43.380  27.431  32.161  1.00  0.00     0.049 A 
ATOM     52  H   UNL A   1      41.682  28.370  31.330  1.00  0.00     0.167 HD
ATOM     53  C   UNL A   1      42.524  28.884  33.972  1.00  0.00     0.074 A 
ATOM     54  C   UNL A   1      42.557  29.424  35.315  1.00  0.00     0.031 C 
ATOM     55  C   UNL A   1      43.397  27.964  33.497  1.00  0.00     0.037 A 
BRANCH  42  56
ATOM     56  C   UNL A   1      42.417  26.420  27.609  1.00  0.00     0.064 A 
ATOM     57  C   UNL A   1      43.417  26.877  26.741  1.00  0.00     0.173 A 
ATOM     58  C   UNL A   1      41.873  25.146  27.375  1.00  0.00     0.173 A 
ATOM     59  F   UNL A   1      43.955  28.093  26.915  1.00  0.00    -0.203 F 
ATOM     60  C   UNL A   1      43.848  26.094  25.672  1.00  0.00     0.198 A 
ATOM     61  C   UNL A   1      42.323  24.357  26.320  1.00  0.00     0.198 A 
ATOM     62  F   UNL A   1      40.917  24.660  28.180  1.00  0.00    -0.203 F 
ATOM     63  F   UNL A   1      44.781  26.564  24.833  1.00  0.00    -0.200 F 
ATOM     64  C   UNL A   1      43.306  24.833  25.467  1.00  0.00     0.200 A 
ATOM     65  F   UNL A   1      41.807  23.134  26.132  1.00  0.00    -0.200 F 
ATOM     66  F   UNL A   1      43.730  24.077  24.445  1.00  0.00    -0.200 F 
ENDBRANCH  42  56
BRANCH  43  67
ATOM     67  C   UNL A   1      39.177  31.938  35.215  1.00  0.00     0.064 A 
ATOM     68  C   UNL A   1      39.475  33.304  35.288  1.00  0.00     0.173 A 
ATOM     69  C   UNL A   1      38.400  31.381  36.241  1.00  0.00     0.173 A 
ATOM     70  F   UNL A   1      40.241  33.874  34.346  1.00  0.00    -0.203 F 
ATOM     71  C   UNL A   1      39.013  34.084  36.346  1.00  0.00     0.198 A 
ATOM     72  C   UNL A   1      37.912  32.168  37.281  1.00  0.00     0.198 A 
ATOM     73  F   UNL A   1      38.092  30.076  36.218  1.00  0.00    -0.203 F 
ATOM     74  F   UNL A   1      39.338  35.382  36.411  1.00  0.00    -0.200 F 
ATOM     75  C   UNL A   1      38.222  33.518  37.335  1.00  0.00     0.200 A 
ATOM     76  F   UNL A   1      37.137  31.619  38.226  1.00  0.00    -0.200 F 
ATOM     77  F   UNL A   1      37.762  34.273  38.343  1.00  0.00    -0.200 F 
ENDBRANCH  43  67
BRANCH  55  78
ATOM     78  C   UNL A   1      44.462  27.483  34.435  1.00  0.00     0.064 A 
ATOM     79  C   UNL A   1      45.676  28.173  34.573  1.00  0.00     0.173 A 
ATOM     80  C   UNL A   1      44.260  26.340  35.222  1.00  0.00     0.173 A 
ATOM     81  F   UNL A   1      45.922  29.261  33.828  1.00  0.00    -0.203 F 
ATOM     82  C   UNL A   1      46.658  27.722  35.451  1.00  0.00     0.198 A 
ATOM     83  C   UNL A   1      45.235  25.905  36.114  1.00  0.00     0.198 A 
ATOM     84  F   UNL A   1      43.114  25.649  35.129  1.00  0.00    -0.203 F 
ATOM     85  F   UNL A   1      47.827  28.373  35.537  1.00  0.00    -0.200 F 
ATOM     86  C   UNL A   1      46.435  26.592  36.224  1.00  0.00     0.200 A 
ATOM     87  F   UNL A   1      45.017  24.816  36.866  1.00  0.00    -0.200 F 
ATOM     88  F   UNL A   1      47.382  26.159  37.068  1.00  0.00    -0.200 F 
ENDBRANCH  55  78
ENDBRANCH  29  30
ENDBRANCH  22  24
ENDBRANCH  21  22
ENDBRANCH  20  21
ENDBRANCH   1  20
TORSDOF 14
ENDMDL
MODEL 3
REMARK VINA RESULT:     -11.5      1.480      2.810
REMARK SMILES C[C@@H](C(=O)OCCOC(=O)c1ccc(-c2c3nc(c(-c4c(F)c(F)c(F)c(F)c4F)c4ccc([nH]4)c(-c4c(F)c(F)c(F)c(F)c4F)c4nc(c(-c5c(F)c(F)c(F)c(F)c5F)c5ccc2[nH]5)C=C4)C=C3)cc1)c1ccc(Cc2ccoc2)cc1F
REMARK SMILES IDX 6 1 5 2 3 3 4 4 2 5 1 6 74 7 75 8 85 9 76 10 84 11 86 12
REMARK SMILES IDX 77 13 78 14 79 15 80 16 83 17 81 18 82 19 7 20 8 21 9 22
REMARK SMILES IDX 10 23 11 24 12 25 73 26 13 27 72 28 14 29 15 30 16 31 66 32
REMARK SMILES IDX 17 33 71 34 65 35 67 36 18 37 70 38 64 39 63 40 19 42 51 43
REMARK SMILES IDX 31 44 50 45 32 46 35 47 49 48 68 49 33 50 34 51 48 53 69 54
REMARK SMILES IDX 36 55 20 56 21 57 29 58 22 59 23 60 27 61 30 62 24 63 25 64
REMARK SMILES IDX 28 65 26 66 52 67 53 68 61 69 54 70 55 71 59 72 62 73 56 74
REMARK SMILES IDX 57 75 60 76 58 77 37 78 38 79 46 80 39 81 40 82 44 83 47 84
REMARK SMILES IDX 41 85 42 86 45 87 43 88
REMARK H PARENT 67 41 35 52
REMARK Flexibility Score: inf
ROOT
ATOM      1  C   UNL A   1      31.321  29.310  24.241  1.00  0.00     0.274 C 
ENDROOT
BRANCH   1   2
ATOM      2  O   UNL A   1      31.834  28.057  24.745  1.00  0.00    -0.462 OA
BRANCH   2   3
ATOM      3  C   UNL A   1      30.926  27.068  24.980  1.00  0.00     0.313 C 
ATOM      4  O   UNL A   1      30.066  26.722  24.176  1.00  0.00    -0.252 OA
BRANCH   3   5
ATOM      5  C   UNL A   1      31.046  26.477  26.391  1.00  0.00     0.129 C 
ATOM      6  C   UNL A   1      31.615  27.462  27.418  1.00  0.00     0.025 C 
BRANCH   5   7
ATOM      7  C   UNL A   1      31.747  25.120  26.368  1.00  0.00     0.002 A 
ATOM      8  C   UNL A   1      30.979  23.950  26.507  1.00  0.00     0.008 A 
ATOM      9  C   UNL A   1      33.119  24.965  26.140  1.00  0.00     0.127 A 
ATOM     10  C   UNL A   1      31.562  22.682  26.386  1.00  0.00     0.004 A 
ATOM     11  C   UNL A   1      33.711  23.701  26.040  1.00  0.00     0.043 A 
ATOM     12  F   UNL A   1      33.901  26.034  25.944  1.00  0.00    -0.207 F 
ATOM     13  C   UNL A   1      32.931  22.540  26.128  1.00  0.00    -0.041 A 
BRANCH  13  14
ATOM     14  C   UNL A   1      33.517  21.179  25.831  1.00  0.00     0.074 C 
BRANCH  14  15
ATOM     15  C   UNL A   1      32.933  20.682  24.560  1.00  0.00    -0.005 A 
ATOM     16  C   UNL A   1      32.562  21.428  23.403  1.00  0.00     0.046 A 
ATOM     17  C   UNL A   1      32.724  19.359  24.218  1.00  0.00     0.198 A 
ATOM     18  C   UNL A   1      32.150  20.514  22.462  1.00  0.00     0.195 A 
ATOM     19  O   UNL A   1      32.243  19.254  22.955  1.00  0.00    -0.472 OA
ENDBRANCH  14  15
ENDBRANCH  13  14
ENDBRANCH   5   7
ENDBRANCH   3   5
ENDBRANCH   2   3
ENDBRANCH   1   2
BRANCH   1  20
ATOM     20  C   UNL A   1      31.406  30.381  25.325  1.00  0.00     0.275 C 
BRANCH  20  21
ATOM     21  O   UNL A   1      32.757  30.429  25.811  1.00  0.00    -0.458 OA
BRANCH  21  22
ATOM     22  C   UNL A   1      32.999  31.259  26.849  1.00  0.00     0.338 C 
ATOM     23  O   UNL A   1      32.277  32.159  27.256  1.00  0.00    -0.246 OA
BRANCH  22  24
ATOM     24  C   UNL A   1      34.309  30.930  27.447  1.00  0.00     0.060 A 
ATOM     25  C   UNL A   1      34.649  29.611  27.740  1.00  0.00     0.016 A 
ATOM     26  C   UNL A   1      35.188  31.959  27.792  1.00  0.00     0.016 A 
ATOM     27  C   UNL A   1      35.819  29.331  28.445  1.00  0.00     0.010 A 
ATOM     28  C   UNL A   1      36.400  31.664  28.430  1.00  0.00     0.010 A 
ATOM     29  C   UNL A   1      36.714  30.348  28.808  1.00  0.00    -0.014 A 
BRANCH  29  30
ATOM     30  C   UNL A   1      37.920  30.049  29.639  1.00  0.00     0.031 A 
ATOM     31  C   UNL A   1      39.053  29.228  29.070  1.00  0.00     0.074 A 
ATOM     32  C   UNL A   1      38.055  30.548  30.886  1.00  0.00     0.049 A 
ATOM     33  N   UNL A   1      40.080  28.693  29.683  1.00  0.00    -0.248 NA
ATOM     34  C   UNL A   1      39.027  28.975  27.621  1.00  0.00     0.031 C 
ATOM     35  C   UNL A   1      37.095  31.420  31.562  1.00  0.00     0.029 A 
ATOM     36  N   UNL A   1      39.072  30.407  31.802  1.00  0.00    -0.354 N 
ATOM     37  C   UNL A   1      40.766  27.967  28.717  1.00  0.00     0.074 A 
ATOM     38  C   UNL A   1      40.059  28.156  27.468  1.00  0.00     0.031 C 
ATOM     39  C   UNL A   1      37.593  31.787  32.751  1.00  0.00     0.029 A 
ATOM     40  C   UNL A   1      38.854  31.088  32.974  1.00  0.00     0.049 A 
ATOM     41  H   UNL A   1      39.879  29.869  31.632  1.00  0.00     0.167 HD
ATOM     42  C   UNL A   1      41.876  27.203  28.862  1.00  0.00     0.037 A 
ATOM     43  C   UNL A   1      39.557  31.114  34.124  1.00  0.00     0.037 A 
ATOM     44  C   UNL A   1      42.631  27.076  30.082  1.00  0.00     0.049 A 
ATOM     45  C   UNL A   1      40.782  30.258  34.266  1.00  0.00     0.074 A 
ATOM     46  C   UNL A   1      43.768  26.321  30.321  1.00  0.00     0.029 A 
ATOM     47  N   UNL A   1      42.344  27.747  31.260  1.00  0.00    -0.354 N 
ATOM     48  N   UNL A   1      41.348  29.473  33.383  1.00  0.00    -0.248 NA
ATOM     49  C   UNL A   1      41.446  30.263  35.578  1.00  0.00     0.031 C 
ATOM     50  C   UNL A   1      44.157  26.520  31.650  1.00  0.00     0.029 A 
ATOM     51  C   UNL A   1      43.283  27.424  32.228  1.00  0.00     0.049 A 
ATOM     52  H   UNL A   1      41.587  28.362  31.390  1.00  0.00     0.167 HD
ATOM     53  C   UNL A   1      42.423  28.883  34.033  1.00  0.00     0.074 A 
ATOM     54  C   UNL A   1      42.453  29.427  35.375  1.00  0.00     0.031 C 
ATOM     55  C   UNL A   1      43.297  27.961  33.563  1.00  0.00     0.037 A 
BRANCH  42  56
ATOM     56  C   UNL A   1      42.330  26.402  27.677  1.00  0.00     0.064 A 
ATOM     57  C   UNL A   1      43.333  26.856  26.810  1.00  0.00     0.173 A 
ATOM     58  C   UNL A   1      41.785  25.128  27.444  1.00  0.00     0.173 A 
ATOM     59  F   UNL A   1      43.872  28.071  26.983  1.00  0.00    -0.203 F 
ATOM     60  C   UNL A   1      43.765  26.070  25.744  1.00  0.00     0.198 A 
ATOM     61  C   UNL A   1      42.237  24.336  26.393  1.00  0.00     0.198 A 
ATOM     62  F   UNL A   1      40.827  24.645  28.249  1.00  0.00    -0.203 F 
ATOM     63  F   UNL A   1      44.701  26.536  24.907  1.00  0.00    -0.200 F 
ATOM     64  C   UNL A   1      43.223  24.808  25.541  1.00  0.00     0.200 A 
ATOM     65  F   UNL A   1      41.720  23.113  26.207  1.00  0.00    -0.200 F 
ATOM     66  F   UNL A   1      43.648  24.050  24.522  1.00  0.00    -0.200 F 
ENDBRANCH  42  56
BRANCH  43  67
ATOM     67  C   UNL A   1      39.076  31.943  35.260  1.00  0.00     0.064 A 
ATOM     68  C   UNL A   1      38.325  31.377  36.297  1.00  0.00     0.173 A 
ATOM     69  C   UNL A   1      39.372  33.312  35.337  1.00  0.00     0.173 A 
ATOM     70  F   UNL A   1      37.991  30.079  36.251  1.00  0.00    -0.203 F 
ATOM     71  C   UNL A   1      37.888  32.150  37.372  1.00  0.00     0.198 A 
ATOM     72  C   UNL A   1      38.963  34.076  36.426  1.00  0.00     0.198 A 
ATOM     73  F   UNL A   1      40.084  33.901  34.365  1.00  0.00    -0.203 F 
ATOM     74  F   UNL A   1      37.144  31.592  38.336  1.00  0.00    -0.200 F 
ATOM     75  C   UNL A   1      38.217  33.496  37.441  1.00  0.00     0.200 A 
ATOM     76  F   UNL A   1      39.295  35.373  36.495  1.00  0.00    -0.200 F 
ATOM     77  F   UNL A   1      37.813  34.234  38.483  1.00  0.00    -0.200 F 
ENDBRANCH  43  67
BRANCH  55  78
ATOM     78  C   UNL A   1      44.359  27.481  34.506  1.00  0.00     0.064 A 
ATOM     79  C   UNL A   1      44.169  26.337  35.293  1.00  0.00     0.173 A 
ATOM     80  C   UNL A   1      45.585  28.155  34.604  1.00  0.00     0.173 A 
ATOM     81  F   UNL A   1      43.007  25.670  35.246  1.00  0.00    -0.203 F 
ATOM     82  C   UNL A   1      45.163  25.896  36.163  1.00  0.00     0.198 A 
ATOM     83  C   UNL A   1      46.584  27.699  35.459  1.00  0.00     0.198 A 
ATOM     84  F   UNL A   1      45.815  29.252  33.868  1.00  0.00    -0.203 F 
ATOM     85  F   UNL A   1      44.946  24.823  36.937  1.00  0.00    -0.200 F 
ATOM     86  C   UNL A   1      46.371  26.574  36.241  1.00  0.00     0.200 A 
ATOM     87  F   UNL A   1      47.753  28.351  35.530  1.00  0.00    -0.200 F 
ATOM     88  F   UNL A   1      47.326  26.148  37.080  1.00  0.00    -0.200 F 
ENDBRANCH  55  78
ENDBRANCH  29  30
ENDBRANCH  22  24
ENDBRANCH  21  22
ENDBRANCH  20  21
ENDBRANCH   1  20
TORSDOF 14
ENDMDL
