MODEL 1
REMARK VINA RESULT:     -10.5      0.000      0.000
REMARK SMILES COC[C@@H](C)CC(=O)Nc1cccc(/C=C/C(=O)OCCOC(=O)c2ccc(-c3c4nc(c(-c5c(F)c(F)c(F)c(F)c5F)c5ccc([nH]5)c(-c5c(F)c(F)c(F)c(F)c5F)c5nc(c(-c6c(F)c(F)c(F)c(F)c6F)c6ccc3[nH]6)C=C5)C=C4)cc2)c1
REMARK SMILES IDX 17 1 18 2 16 3 15 4 14 5 10 6 11 7 88 8 12 9 13 10 9 11 7 12
REMARK SMILES IDX 8 13 6 15 4 16 5 17 3 18 2 19 1 20 19 21 20 22 21 23 22 24
REMARK SMILES IDX 23 25 24 26 25 27 26 28 87 29 27 30 86 31 28 32 29 33 30 34
REMARK SMILES IDX 80 35 31 36 85 37 79 38 81 39 32 40 84 41 78 42 77 43 33 45
REMARK SMILES IDX 65 46 45 47 64 48 46 49 49 50 63 51 82 52 47 53 48 54 62 56
REMARK SMILES IDX 83 57 50 58 34 59 35 60 43 61 36 62 37 63 41 64 44 65 38 66
REMARK SMILES IDX 39 67 42 68 40 69 66 70 67 71 75 72 68 73 69 74 73 75 76 76
REMARK SMILES IDX 70 77 71 78 74 79 72 80 51 81 52 82 60 83 53 84 54 85 58 86
REMARK SMILES IDX 61 87 55 88 56 89 59 90 57 91
REMARK H PARENT 9 14 81 44 49 55
REMARK Flexibility Score: inf
ROOT
ATOM      1  C   UNL A   1      34.210  29.922  27.262  1.00  0.00     0.330 C 
ATOM      2  O   UNL A   1      35.115  29.379  27.878  1.00  0.00    -0.247 OA
ENDROOT
BRANCH   1   3
ATOM      3  C   UNL A   1      33.273  29.133  26.434  1.00  0.00     0.094 C 
ATOM      4  C   UNL A   1      32.860  27.883  26.696  1.00  0.00     0.015 C 
BRANCH   4   5
ATOM      5  C   UNL A   1      31.883  27.221  25.824  1.00  0.00    -0.023 A 
ATOM      6  C   UNL A   1      31.386  26.424  23.575  1.00  0.00     0.041 A 
ATOM      7  C   UNL A   1      30.220  25.824  24.037  1.00  0.00     0.026 A 
ATOM      8  C   UNL A   1      32.146  27.193  24.454  1.00  0.00     0.034 A 
ATOM      9  C   UNL A   1      29.898  25.898  25.398  1.00  0.00     0.003 A 
ATOM     10  C   UNL A   1      30.740  26.572  26.293  1.00  0.00     0.008 A 
BRANCH   6  11
ATOM     11  N   UNL A   1      31.773  26.291  22.233  1.00  0.00    -0.326 N 
ATOM     12  C   UNL A   1      32.766  25.481  21.721  1.00  0.00     0.224 C 
ATOM     13  O   UNL A   1      33.275  25.753  20.633  1.00  0.00    -0.275 OA
ATOM     14  H   UNL A   1      31.279  26.839  21.581  1.00  0.00     0.169 HD
BRANCH  12  15
ATOM     15  C   UNL A   1      33.030  24.140  22.407  1.00  0.00     0.106 C 
BRANCH  15  16
ATOM     16  C   UNL A   1      34.122  24.117  23.491  1.00  0.00     0.021 C 
ATOM     17  C   UNL A   1      35.168  23.055  23.116  1.00  0.00     0.010 C 
BRANCH  16  18
ATOM     18  C   UNL A   1      33.538  23.805  24.875  1.00  0.00     0.163 C 
BRANCH  18  19
ATOM     19  O   UNL A   1      33.032  22.473  24.933  1.00  0.00    -0.384 OA
ATOM     20  C   UNL A   1      33.457  21.798  26.113  1.00  0.00     0.194 C 
ENDBRANCH  18  19
ENDBRANCH  16  18
ENDBRANCH  15  16
ENDBRANCH  12  15
ENDBRANCH   6  11
ENDBRANCH   4   5
ENDBRANCH   1   3
BRANCH   1  21
ATOM     21  O   UNL A   1      33.959  31.250  27.209  1.00  0.00    -0.459 OA
BRANCH  21  22
ATOM     22  C   UNL A   1      32.571  31.642  27.256  1.00  0.00     0.275 C 
BRANCH  22  23
ATOM     23  C   UNL A   1      32.420  33.155  27.076  1.00  0.00     0.275 C 
BRANCH  23  24
ATOM     24  O   UNL A   1      32.148  33.793  28.335  1.00  0.00    -0.458 OA
BRANCH  24  25
ATOM     25  C   UNL A   1      33.030  34.759  28.680  1.00  0.00     0.338 C 
ATOM     26  O   UNL A   1      32.845  35.963  28.706  1.00  0.00    -0.246 OA
BRANCH  25  27
ATOM     27  C   UNL A   1      34.240  34.123  29.219  1.00  0.00     0.060 A 
ATOM     28  C   UNL A   1      34.070  33.144  30.201  1.00  0.00     0.016 A 
ATOM     29  C   UNL A   1      35.517  34.501  28.801  1.00  0.00     0.016 A 
ATOM     30  C   UNL A   1      35.176  32.526  30.769  1.00  0.00     0.010 A 
ATOM     31  C   UNL A   1      36.631  33.888  29.381  1.00  0.00     0.010 A 
ATOM     32  C   UNL A   1      36.463  32.905  30.371  1.00  0.00    -0.014 A 
BRANCH  32  33
ATOM     33  C   UNL A   1      37.631  32.306  31.052  1.00  0.00     0.031 A 
ATOM     34  C   UNL A   1      38.414  31.231  30.361  1.00  0.00     0.074 A 
ATOM     35  C   UNL A   1      37.997  32.753  32.266  1.00  0.00     0.049 A 
ATOM     36  N   UNL A   1      39.438  30.543  30.796  1.00  0.00    -0.248 NA
ATOM     37  C   UNL A   1      37.988  30.882  28.996  1.00  0.00     0.031 C 
ATOM     38  C   UNL A   1      37.328  33.823  33.006  1.00  0.00     0.029 A 
ATOM     39  N   UNL A   1      39.018  32.360  33.091  1.00  0.00    -0.354 N 
ATOM     40  C   UNL A   1      39.768  29.669  29.769  1.00  0.00     0.074 A 
ATOM     41  C   UNL A   1      38.828  29.903  28.693  1.00  0.00     0.031 C 
ATOM     42  C   UNL A   1      37.951  33.993  34.184  1.00  0.00     0.029 A 
ATOM     43  C   UNL A   1      39.033  33.020  34.294  1.00  0.00     0.049 A 
ATOM     44  H   UNL A   1      39.678  31.671  32.845  1.00  0.00     0.167 HD
ATOM     45  C   UNL A   1      40.768  28.758  29.733  1.00  0.00     0.037 A 
ATOM     46  C   UNL A   1      39.817  32.835  35.373  1.00  0.00     0.037 A 
ATOM     47  C   UNL A   1      41.703  28.545  30.805  1.00  0.00     0.049 A 
ATOM     48  C   UNL A   1      40.891  31.780  35.323  1.00  0.00     0.074 A 
ATOM     49  C   UNL A   1      42.772  27.668  30.857  1.00  0.00     0.029 A 
ATOM     50  N   UNL A   1      41.676  29.216  32.020  1.00  0.00    -0.354 N 
ATOM     51  N   UNL A   1      41.212  30.972  34.341  1.00  0.00    -0.248 NA
ATOM     52  C   UNL A   1      41.710  31.610  36.530  1.00  0.00     0.031 C 
ATOM     53  C   UNL A   1      43.363  27.773  32.121  1.00  0.00     0.029 A 
ATOM     54  C   UNL A   1      42.693  28.752  32.838  1.00  0.00     0.049 A 
ATOM     55  H   UNL A   1      41.031  29.917  32.264  1.00  0.00     0.167 HD
ATOM     56  C   UNL A   1      42.279  30.213  34.803  1.00  0.00     0.074 A 
ATOM     57  C   UNL A   1      42.563  30.671  36.147  1.00  0.00     0.031 C 
ATOM     58  C   UNL A   1      42.959  29.225  34.174  1.00  0.00     0.037 A 
BRANCH  45  59
ATOM     59  C   UNL A   1      40.882  27.898  28.510  1.00  0.00     0.064 A 
ATOM     60  C   UNL A   1      40.199  26.679  28.396  1.00  0.00     0.173 A 
ATOM     61  C   UNL A   1      41.657  28.322  27.420  1.00  0.00     0.173 A 
ATOM     62  F   UNL A   1      39.457  26.222  29.416  1.00  0.00    -0.203 F 
ATOM     63  C   UNL A   1      40.298  25.908  27.239  1.00  0.00     0.198 A 
ATOM     64  C   UNL A   1      41.735  27.562  26.256  1.00  0.00     0.198 A 
ATOM     65  F   UNL A   1      42.330  29.482  27.479  1.00  0.00    -0.203 F 
ATOM     66  F   UNL A   1      39.666  24.729  27.165  1.00  0.00    -0.200 F 
ATOM     67  C   UNL A   1      41.060  26.354  26.169  1.00  0.00     0.200 A 
ATOM     68  F   UNL A   1      42.463  27.999  25.219  1.00  0.00    -0.200 F 
ATOM     69  F   UNL A   1      41.147  25.616  25.054  1.00  0.00    -0.200 F 
ENDBRANCH  45  59
BRANCH  46  70
ATOM     70  C   UNL A   1      39.596  33.644  36.599  1.00  0.00     0.064 A 
ATOM     71  C   UNL A   1      40.284  34.846  36.811  1.00  0.00     0.173 A 
ATOM     72  C   UNL A   1      38.698  33.222  37.592  1.00  0.00     0.173 A 
ATOM     73  F   UNL A   1      41.171  35.279  35.903  1.00  0.00    -0.203 F 
ATOM     74  C   UNL A   1      40.097  35.586  37.977  1.00  0.00     0.198 A 
ATOM     75  C   UNL A   1      38.489  33.978  38.743  1.00  0.00     0.198 A 
ATOM     76  F   UNL A   1      38.016  32.078  37.439  1.00  0.00    -0.203 F 
ATOM     77  F   UNL A   1      40.802  36.708  38.176  1.00  0.00    -0.200 F 
ATOM     78  C   UNL A   1      39.194  35.155  38.939  1.00  0.00     0.200 A 
ATOM     79  F   UNL A   1      37.609  33.563  39.665  1.00  0.00    -0.200 F 
ATOM     80  F   UNL A   1      39.013  35.869  40.059  1.00  0.00    -0.200 F 
ENDBRANCH  46  70
BRANCH  58  81
ATOM     81  C   UNL A   1      44.094  28.590  34.923  1.00  0.00     0.064 A 
ATOM     82  C   UNL A   1      45.386  29.133  34.893  1.00  0.00     0.173 A 
ATOM     83  C   UNL A   1      43.876  27.450  35.711  1.00  0.00     0.173 A 
ATOM     84  F   UNL A   1      45.648  30.214  34.143  1.00  0.00    -0.203 F 
ATOM     85  C   UNL A   1      46.426  28.542  35.607  1.00  0.00     0.198 A 
ATOM     86  C   UNL A   1      44.910  26.880  36.446  1.00  0.00     0.198 A 
ATOM     87  F   UNL A   1      42.655  26.897  35.777  1.00  0.00    -0.203 F 
ATOM     88  F   UNL A   1      47.663  29.050  35.528  1.00  0.00    -0.200 F 
ATOM     89  C   UNL A   1      46.185  27.421  36.388  1.00  0.00     0.200 A 
ATOM     90  F   UNL A   1      44.673  25.804  37.210  1.00  0.00    -0.200 F 
ATOM     91  F   UNL A   1      47.185  26.858  37.080  1.00  0.00    -0.200 F 
ENDBRANCH  58  81
ENDBRANCH  32  33
ENDBRANCH  25  27
ENDBRANCH  24  25
ENDBRANCH  23  24
ENDBRANCH  22  23
ENDBRANCH  21  22
ENDBRANCH   1  21
TORSDOF 17
ENDMDL
MODEL 2
REMARK VINA RESULT:     -10.4      6.504     12.341
REMARK SMILES COC[C@@H](C)CC(=O)Nc1cccc(/C=C/C(=O)OCCOC(=O)c2ccc(-c3c4nc(c(-c5c(F)c(F)c(F)c(F)c5F)c5ccc([nH]5)c(-c5c(F)c(F)c(F)c(F)c5F)c5nc(c(-c6c(F)c(F)c(F)c(F)c6F)c6ccc3[nH]6)C=C5)C=C4)cc2)c1
REMARK SMILES IDX 17 1 18 2 16 3 15 4 14 5 10 6 11 7 88 8 12 9 13 10 9 11 7 12
REMARK SMILES IDX 8 13 6 15 4 16 5 17 3 18 2 19 1 20 19 21 20 22 21 23 22 24
REMARK SMILES IDX 23 25 24 26 25 27 26 28 87 29 27 30 86 31 28 32 29 33 30 34
REMARK SMILES IDX 80 35 31 36 85 37 79 38 81 39 32 40 84 41 78 42 77 43 33 45
REMARK SMILES IDX 65 46 45 47 64 48 46 49 49 50 63 51 82 52 47 53 48 54 62 56
REMARK SMILES IDX 83 57 50 58 34 59 35 60 43 61 36 62 37 63 41 64 44 65 38 66
REMARK SMILES IDX 39 67 42 68 40 69 66 70 67 71 75 72 68 73 69 74 73 75 76 76
REMARK SMILES IDX 70 77 71 78 74 79 72 80 51 81 52 82 60 83 53 84 54 85 58 86
REMARK SMILES IDX 61 87 55 88 56 89 59 90 57 91
REMARK H PARENT 9 14 81 44 49 55
REMARK Flexibility Score: inf
ROOT
ATOM      1  C   UNL A   1      46.143  20.593  24.809  1.00  0.00     0.330 C 
ATOM      2  O   UNL A   1      47.172  19.959  24.627  1.00  0.00    -0.247 OA
ENDROOT
BRANCH   1   3
ATOM      3  C   UNL A   1      46.186  22.035  25.129  1.00  0.00     0.094 C 
ATOM      4  C   UNL A   1      46.363  23.028  24.243  1.00  0.00     0.015 C 
BRANCH   4   5
ATOM      5  C   UNL A   1      46.334  24.431  24.677  1.00  0.00    -0.023 A 
ATOM      6  C   UNL A   1      47.599  26.496  24.948  1.00  0.00     0.041 A 
ATOM      7  C   UNL A   1      46.435  27.172  25.295  1.00  0.00     0.026 A 
ATOM      8  C   UNL A   1      47.545  25.119  24.740  1.00  0.00     0.034 A 
ATOM      9  C   UNL A   1      45.215  26.485  25.307  1.00  0.00     0.003 A 
ATOM     10  C   UNL A   1      45.160  25.125  24.973  1.00  0.00     0.008 A 
BRANCH   6  11
ATOM     11  N   UNL A   1      48.819  27.181  24.845  1.00  0.00    -0.326 N 
ATOM     12  C   UNL A   1      49.685  27.201  23.771  1.00  0.00     0.224 C 
ATOM     13  O   UNL A   1      50.871  27.481  23.948  1.00  0.00    -0.275 OA
ATOM     14  H   UNL A   1      49.089  27.710  25.631  1.00  0.00     0.169 HD
BRANCH  12  15
ATOM     15  C   UNL A   1      49.092  27.113  22.364  1.00  0.00     0.106 C 
BRANCH  15  16
ATOM     16  C   UNL A   1      50.025  27.469  21.193  1.00  0.00     0.021 C 
ATOM     17  C   UNL A   1      50.110  28.999  21.076  1.00  0.00     0.010 C 
BRANCH  16  18
ATOM     18  C   UNL A   1      49.525  26.874  19.870  1.00  0.00     0.163 C 
BRANCH  18  19
ATOM     19  O   UNL A   1      50.613  26.476  19.039  1.00  0.00    -0.384 OA
ATOM     20  C   UNL A   1      50.990  25.123  19.276  1.00  0.00     0.194 C 
ENDBRANCH  18  19
ENDBRANCH  16  18
ENDBRANCH  15  16
ENDBRANCH  12  15
ENDBRANCH   6  11
ENDBRANCH   4   5
ENDBRANCH   1   3
BRANCH   1  21
ATOM     21  O   UNL A   1      44.883  20.102  24.786  1.00  0.00    -0.459 OA
BRANCH  21  22
ATOM     22  C   UNL A   1      44.704  18.773  25.317  1.00  0.00     0.275 C 
BRANCH  22  23
ATOM     23  C   UNL A   1      43.256  18.546  25.759  1.00  0.00     0.275 C 
BRANCH  23  24
ATOM     24  O   UNL A   1      42.394  19.563  25.221  1.00  0.00    -0.458 OA
BRANCH  24  25
ATOM     25  C   UNL A   1      41.360  19.908  26.023  1.00  0.00     0.338 C 
ATOM     26  O   UNL A   1      40.405  19.224  26.344  1.00  0.00    -0.246 OA
BRANCH  25  27
ATOM     27  C   UNL A   1      41.650  21.214  26.631  1.00  0.00     0.060 A 
ATOM     28  C   UNL A   1      42.047  22.248  25.780  1.00  0.00     0.016 A 
ATOM     29  C   UNL A   1      41.572  21.416  28.010  1.00  0.00     0.016 A 
ATOM     30  C   UNL A   1      42.362  23.497  26.297  1.00  0.00     0.010 A 
ATOM     31  C   UNL A   1      41.900  22.669  28.534  1.00  0.00     0.010 A 
ATOM     32  C   UNL A   1      42.303  23.710  27.679  1.00  0.00    -0.014 A 
BRANCH  32  33
ATOM     33  C   UNL A   1      42.731  25.016  28.224  1.00  0.00     0.031 A 
ATOM     34  C   UNL A   1      41.707  26.083  28.469  1.00  0.00     0.074 A 
ATOM     35  C   UNL A   1      44.026  25.222  28.523  1.00  0.00     0.049 A 
ATOM     36  N   UNL A   1      41.874  27.309  28.895  1.00  0.00    -0.248 NA
ATOM     37  C   UNL A   1      40.306  25.723  28.199  1.00  0.00     0.031 C 
ATOM     38  C   UNL A   1      45.094  24.236  28.361  1.00  0.00     0.029 A 
ATOM     39  N   UNL A   1      44.662  26.330  29.021  1.00  0.00    -0.354 N 
ATOM     40  C   UNL A   1      40.606  27.871  28.928  1.00  0.00     0.074 A 
ATOM     41  C   UNL A   1      39.679  26.860  28.466  1.00  0.00     0.031 C 
ATOM     42  C   UNL A   1      46.258  24.788  28.742  1.00  0.00     0.029 A 
ATOM     43  C   UNL A   1      46.021  26.174  29.136  1.00  0.00     0.049 A 
ATOM     44  H   UNL A   1      44.190  27.157  29.272  1.00  0.00     0.167 HD
ATOM     45  C   UNL A   1      40.252  29.120  29.311  1.00  0.00     0.037 A 
ATOM     46  C   UNL A   1      46.966  27.063  29.491  1.00  0.00     0.037 A 
ATOM     47  C   UNL A   1      41.183  30.112  29.781  1.00  0.00     0.049 A 
ATOM     48  C   UNL A   1      46.550  28.461  29.866  1.00  0.00     0.074 A 
ATOM     49  C   UNL A   1      40.925  31.397  30.223  1.00  0.00     0.029 A 
ATOM     50  N   UNL A   1      42.556  29.929  29.864  1.00  0.00    -0.354 N 
ATOM     51  N   UNL A   1      45.347  28.981  29.915  1.00  0.00    -0.248 NA
ATOM     52  C   UNL A   1      47.621  29.396  30.234  1.00  0.00     0.031 C 
ATOM     53  C   UNL A   1      42.146  32.008  30.528  1.00  0.00     0.029 A 
ATOM     54  C   UNL A   1      43.161  31.087  30.324  1.00  0.00     0.049 A 
ATOM     55  H   UNL A   1      43.031  29.098  29.631  1.00  0.00     0.167 HD
ATOM     56  C   UNL A   1      45.514  30.293  30.337  1.00  0.00     0.074 A 
ATOM     57  C   UNL A   1      46.933  30.484  30.547  1.00  0.00     0.031 C 
ATOM     58  C   UNL A   1      44.578  31.254  30.528  1.00  0.00     0.037 A 
BRANCH  45  59
ATOM     59  C   UNL A   1      38.805  29.498  29.208  1.00  0.00     0.064 A 
ATOM     60  C   UNL A   1      38.184  29.716  27.970  1.00  0.00     0.173 A 
ATOM     61  C   UNL A   1      38.020  29.601  30.366  1.00  0.00     0.173 A 
ATOM     62  F   UNL A   1      38.896  29.643  26.835  1.00  0.00    -0.203 F 
ATOM     63  C   UNL A   1      36.831  30.040  27.896  1.00  0.00     0.198 A 
ATOM     64  C   UNL A   1      36.662  29.901  30.287  1.00  0.00     0.198 A 
ATOM     65  F   UNL A   1      38.566  29.401  31.575  1.00  0.00    -0.203 F 
ATOM     66  F   UNL A   1      36.266  30.280  26.705  1.00  0.00    -0.200 F 
ATOM     67  C   UNL A   1      36.070  30.124  29.053  1.00  0.00     0.200 A 
ATOM     68  F   UNL A   1      35.926  29.972  31.405  1.00  0.00    -0.200 F 
ATOM     69  F   UNL A   1      34.767  30.427  28.979  1.00  0.00    -0.200 F 
ENDBRANCH  45  59
BRANCH  46  70
ATOM     70  C   UNL A   1      48.399  26.669  29.478  1.00  0.00     0.064 A 
ATOM     71  C   UNL A   1      48.931  25.832  30.468  1.00  0.00     0.173 A 
ATOM     72  C   UNL A   1      49.269  27.134  28.481  1.00  0.00     0.173 A 
ATOM     73  F   UNL A   1      48.145  25.380  31.456  1.00  0.00    -0.203 F 
ATOM     74  C   UNL A   1      50.282  25.489  30.470  1.00  0.00     0.198 A 
ATOM     75  C   UNL A   1      50.612  26.767  28.467  1.00  0.00     0.198 A 
ATOM     76  F   UNL A   1      48.810  27.940  27.511  1.00  0.00    -0.203 F 
ATOM     77  F   UNL A   1      50.775  24.724  31.454  1.00  0.00    -0.200 F 
ATOM     78  C   UNL A   1      51.120  25.952  29.466  1.00  0.00     0.200 A 
ATOM     79  F   UNL A   1      51.416  27.208  27.488  1.00  0.00    -0.200 F 
ATOM     80  F   UNL A   1      52.419  25.620  29.468  1.00  0.00    -0.200 F 
ENDBRANCH  46  70
BRANCH  58  81
ATOM     81  C   UNL A   1      45.058  32.591  31.013  1.00  0.00     0.064 A 
ATOM     82  C   UNL A   1      45.396  33.616  30.119  1.00  0.00     0.173 A 
ATOM     83  C   UNL A   1      45.142  32.860  32.387  1.00  0.00     0.173 A 
ATOM     84  F   UNL A   1      45.346  33.403  28.795  1.00  0.00    -0.203 F 
ATOM     85  C   UNL A   1      45.825  34.857  30.584  1.00  0.00     0.198 A 
ATOM     86  C   UNL A   1      45.542  34.109  32.848  1.00  0.00     0.198 A 
ATOM     87  F   UNL A   1      44.823  31.912  33.282  1.00  0.00    -0.203 F 
ATOM     88  F   UNL A   1      46.187  35.808  29.712  1.00  0.00    -0.200 F 
ATOM     89  C   UNL A   1      45.890  35.105  31.947  1.00  0.00     0.200 A 
ATOM     90  F   UNL A   1      45.592  34.351  34.165  1.00  0.00    -0.200 F 
ATOM     91  F   UNL A   1      46.295  36.302  32.393  1.00  0.00    -0.200 F 
ENDBRANCH  58  81
ENDBRANCH  32  33
ENDBRANCH  25  27
ENDBRANCH  24  25
ENDBRANCH  23  24
ENDBRANCH  22  23
ENDBRANCH  21  22
ENDBRANCH   1  21
TORSDOF 17
ENDMDL
MODEL 3
REMARK VINA RESULT:     -10.4      1.271      7.459
REMARK SMILES COC[C@@H](C)CC(=O)Nc1cccc(/C=C/C(=O)OCCOC(=O)c2ccc(-c3c4nc(c(-c5c(F)c(F)c(F)c(F)c5F)c5ccc([nH]5)c(-c5c(F)c(F)c(F)c(F)c5F)c5nc(c(-c6c(F)c(F)c(F)c(F)c6F)c6ccc3[nH]6)C=C5)C=C4)cc2)c1
REMARK SMILES IDX 17 1 18 2 16 3 15 4 14 5 10 6 11 7 88 8 12 9 13 10 9 11 7 12
REMARK SMILES IDX 8 13 6 15 4 16 5 17 3 18 2 19 1 20 19 21 20 22 21 23 22 24
REMARK SMILES IDX 23 25 24 26 25 27 26 28 87 29 27 30 86 31 28 32 29 33 30 34
REMARK SMILES IDX 80 35 31 36 85 37 79 38 81 39 32 40 84 41 78 42 77 43 33 45
REMARK SMILES IDX 65 46 45 47 64 48 46 49 49 50 63 51 82 52 47 53 48 54 62 56
REMARK SMILES IDX 83 57 50 58 34 59 35 60 43 61 36 62 37 63 41 64 44 65 38 66
REMARK SMILES IDX 39 67 42 68 40 69 66 70 67 71 75 72 68 73 69 74 73 75 76 76
REMARK SMILES IDX 70 77 71 78 74 79 72 80 51 81 52 82 60 83 53 84 54 85 58 86
REMARK SMILES IDX 61 87 55 88 56 89 59 90 57 91
REMARK H PARENT 9 14 81 44 49 55
REMARK Flexibility Score: inf
ROOT
ATOM      1  C   UNL A   1      33.611  30.304  27.218  1.00  0.00     0.330 C 
ATOM      2  O   UNL A   1      34.797  30.181  26.951  1.00  0.00    -0.247 OA
ENDROOT
BRANCH   1   3
ATOM      3  C   UNL A   1      32.614  29.335  26.716  1.00  0.00     0.094 C 
ATOM      4  C   UNL A   1      32.428  29.000  25.430  1.00  0.00     0.015 C 
BRANCH   4   5
ATOM      5  C   UNL A   1      31.437  27.982  25.059  1.00  0.00    -0.023 A 
ATOM      6  C   UNL A   1      30.245  25.970  25.743  1.00  0.00     0.041 A 
ATOM      7  C   UNL A   1      29.451  26.044  24.604  1.00  0.00     0.026 A 
ATOM      8  C   UNL A   1      31.287  26.882  25.903  1.00  0.00     0.034 A 
ATOM      9  C   UNL A   1      29.631  27.102  23.705  1.00  0.00     0.003 A 
ATOM     10  C   UNL A   1      30.603  28.083  23.945  1.00  0.00     0.008 A 
BRANCH   6  11
ATOM     11  N   UNL A   1      30.027  24.968  26.701  1.00  0.00    -0.326 N 
ATOM     12  C   UNL A   1      30.337  23.628  26.602  1.00  0.00     0.224 C 
ATOM     13  O   UNL A   1      29.740  22.810  27.302  1.00  0.00    -0.275 OA
ATOM     14  H   UNL A   1      29.603  25.256  27.542  1.00  0.00     0.169 HD
BRANCH  12  15
ATOM     15  C   UNL A   1      31.580  23.232  25.803  1.00  0.00     0.106 C 
BRANCH  15  16
ATOM     16  C   UNL A   1      32.899  23.105  26.586  1.00  0.00     0.021 C 
ATOM     17  C   UNL A   1      33.835  24.249  26.166  1.00  0.00     0.010 C 
BRANCH  16  18
ATOM     18  C   UNL A   1      33.581  21.755  26.331  1.00  0.00     0.163 C 
BRANCH  18  19
ATOM     19  O   UNL A   1      34.300  21.765  25.099  1.00  0.00    -0.384 OA
ATOM     20  C   UNL A   1      35.201  20.666  25.006  1.00  0.00     0.194 C 
ENDBRANCH  18  19
ENDBRANCH  16  18
ENDBRANCH  15  16
ENDBRANCH  12  15
ENDBRANCH   6  11
ENDBRANCH   4   5
ENDBRANCH   1   3
BRANCH   1  21
ATOM     21  O   UNL A   1      33.050  31.303  27.937  1.00  0.00    -0.459 OA
BRANCH  21  22
ATOM     22  C   UNL A   1      32.181  32.201  27.217  1.00  0.00     0.275 C 
BRANCH  22  23
ATOM     23  C   UNL A   1      32.762  33.617  27.177  1.00  0.00     0.275 C 
BRANCH  23  24
ATOM     24  O   UNL A   1      32.302  34.388  28.300  1.00  0.00    -0.458 OA
BRANCH  24  25
ATOM     25  C   UNL A   1      33.188  35.304  28.756  1.00  0.00     0.338 C 
ATOM     26  O   UNL A   1      33.084  36.518  28.733  1.00  0.00    -0.246 OA
BRANCH  25  27
ATOM     27  C   UNL A   1      34.258  34.605  29.482  1.00  0.00     0.060 A 
ATOM     28  C   UNL A   1      35.555  34.712  28.978  1.00  0.00     0.016 A 
ATOM     29  C   UNL A   1      33.992  33.832  30.614  1.00  0.00     0.016 A 
ATOM     30  C   UNL A   1      36.604  34.052  29.604  1.00  0.00     0.010 A 
ATOM     31  C   UNL A   1      35.045  33.157  31.238  1.00  0.00     0.010 A 
ATOM     32  C   UNL A   1      36.352  33.260  30.730  1.00  0.00    -0.014 A 
BRANCH  32  33
ATOM     33  C   UNL A   1      37.462  32.489  31.329  1.00  0.00     0.031 A 
ATOM     34  C   UNL A   1      37.947  32.843  32.702  1.00  0.00     0.074 A 
ATOM     35  C   UNL A   1      38.001  31.460  30.652  1.00  0.00     0.049 A 
ATOM     36  N   UNL A   1      38.934  32.329  33.391  1.00  0.00    -0.248 NA
ATOM     37  C   UNL A   1      37.225  33.922  33.396  1.00  0.00     0.031 C 
ATOM     38  C   UNL A   1      37.575  31.008  29.328  1.00  0.00     0.029 A 
ATOM     39  N   UNL A   1      39.028  30.614  30.983  1.00  0.00    -0.354 N 
ATOM     40  C   UNL A   1      38.963  33.030  34.588  1.00  0.00     0.074 A 
ATOM     41  C   UNL A   1      37.906  34.017  34.529  1.00  0.00     0.031 C 
ATOM     42  C   UNL A   1      38.343  29.972  28.953  1.00  0.00     0.029 A 
ATOM     43  C   UNL A   1      39.336  29.716  29.992  1.00  0.00     0.049 A 
ATOM     44  H   UNL A   1      39.498  30.647  31.848  1.00  0.00     0.167 HD
ATOM     45  C   UNL A   1      39.799  32.860  35.638  1.00  0.00     0.037 A 
ATOM     46  C   UNL A   1      40.330  28.811  29.923  1.00  0.00     0.037 A 
ATOM     47  C   UNL A   1      40.839  31.866  35.688  1.00  0.00     0.049 A 
ATOM     48  C   UNL A   1      41.277  28.676  31.087  1.00  0.00     0.074 A 
ATOM     49  C   UNL A   1      41.721  31.591  36.718  1.00  0.00     0.029 A 
ATOM     50  N   UNL A   1      41.139  30.987  34.657  1.00  0.00    -0.354 N 
ATOM     51  N   UNL A   1      41.286  29.328  32.225  1.00  0.00    -0.248 NA
ATOM     52  C   UNL A   1      42.350  27.682  30.957  1.00  0.00     0.031 C 
ATOM     53  C   UNL A   1      42.586  30.577  36.292  1.00  0.00     0.029 A 
ATOM     54  C   UNL A   1      42.211  30.186  35.016  1.00  0.00     0.049 A 
ATOM     55  H   UNL A   1      40.661  30.939  33.798  1.00  0.00     0.167 HD
ATOM     56  C   UNL A   1      42.350  28.812  32.953  1.00  0.00     0.074 A 
ATOM     57  C   UNL A   1      42.951  27.779  32.135  1.00  0.00     0.031 C 
ATOM     58  C   UNL A   1      42.792  29.162  34.185  1.00  0.00     0.037 A 
BRANCH  45  59
ATOM     59  C   UNL A   1      39.649  33.789  36.806  1.00  0.00     0.064 A 
ATOM     60  C   UNL A   1      38.876  33.451  37.925  1.00  0.00     0.173 A 
ATOM     61  C   UNL A   1      40.324  35.019  36.819  1.00  0.00     0.173 A 
ATOM     62  F   UNL A   1      38.199  32.293  37.954  1.00  0.00    -0.203 F 
ATOM     63  C   UNL A   1      38.772  34.318  39.011  1.00  0.00     0.198 A 
ATOM     64  C   UNL A   1      40.239  35.872  37.916  1.00  0.00     0.198 A 
ATOM     65  F   UNL A   1      41.078  35.389  35.773  1.00  0.00    -0.203 F 
ATOM     66  F   UNL A   1      37.999  33.990  40.056  1.00  0.00    -0.200 F 
ATOM     67  C   UNL A   1      39.459  35.523  39.009  1.00  0.00     0.200 A 
ATOM     68  F   UNL A   1      40.911  37.031  37.917  1.00  0.00    -0.200 F 
ATOM     69  F   UNL A   1      39.365  36.351  40.058  1.00  0.00    -0.200 F 
ENDBRANCH  45  59
BRANCH  46  70
ATOM     70  C   UNL A   1      40.499  27.985  28.700  1.00  0.00     0.064 A 
ATOM     71  C   UNL A   1      41.275  28.431  27.622  1.00  0.00     0.173 A 
ATOM     72  C   UNL A   1      39.873  26.734  28.580  1.00  0.00     0.173 A 
ATOM     73  F   UNL A   1      41.873  29.630  27.679  1.00  0.00    -0.203 F 
ATOM     74  C   UNL A   1      41.405  27.667  26.464  1.00  0.00     0.198 A 
ATOM     75  C   UNL A   1      40.028  25.958  27.434  1.00  0.00     0.198 A 
ATOM     76  F   UNL A   1      39.117  26.261  29.582  1.00  0.00    -0.203 F 
ATOM     77  F   UNL A   1      42.115  28.137  25.430  1.00  0.00    -0.200 F 
ATOM     78  C   UNL A   1      40.787  26.427  26.374  1.00  0.00     0.200 A 
ATOM     79  F   UNL A   1      39.438  24.757  27.356  1.00  0.00    -0.200 F 
ATOM     80  F   UNL A   1      40.914  25.692  25.260  1.00  0.00    -0.200 F 
ENDBRANCH  46  70
BRANCH  58  81
ATOM     81  C   UNL A   1      43.967  28.406  34.732  1.00  0.00     0.064 A 
ATOM     82  C   UNL A   1      45.280  28.862  34.552  1.00  0.00     0.173 A 
ATOM     83  C   UNL A   1      43.772  27.234  35.478  1.00  0.00     0.173 A 
ATOM     84  F   UNL A   1      45.518  29.970  33.834  1.00  0.00    -0.203 F 
ATOM     85  C   UNL A   1      46.360  28.158  35.080  1.00  0.00     0.198 A 
ATOM     86  C   UNL A   1      44.851  26.549  36.028  1.00  0.00     0.198 A 
ATOM     87  F   UNL A   1      42.533  26.761  35.683  1.00  0.00    -0.203 F 
ATOM     88  F   UNL A   1      47.609  28.586  34.857  1.00  0.00    -0.200 F 
ATOM     89  C   UNL A   1      46.144  27.007  35.823  1.00  0.00     0.200 A 
ATOM     90  F   UNL A   1      44.640  25.444  36.757  1.00  0.00    -0.200 F 
ATOM     91  F   UNL A   1      47.183  26.334  36.336  1.00  0.00    -0.200 F 
ENDBRANCH  58  81
ENDBRANCH  32  33
ENDBRANCH  25  27
ENDBRANCH  24  25
ENDBRANCH  23  24
ENDBRANCH  22  23
ENDBRANCH  21  22
ENDBRANCH   1  21
TORSDOF 17
ENDMDL
