MODEL 1
REMARK VINA RESULT:     -11.9      0.000      0.000
REMARK SMILES COCCn1cc(NC(=O)N[C@H]2C=C[C@H](C(=O)OCCOC(=O)c3ccc(-c4c5nc(c(-c6c(F)c(F)c(F)c(F)c6F)c6ccc([nH]6)c(-c6c(F)c(F)c(F)c(F)c6F)c6nc(c(-c7c(F)c(F)c(F)c(F)c7F)c7ccc4[nH]7)C=C6)C=C5)cc3)C2)cn1
REMARK SMILES IDX 18 1 16 2 17 3 15 4 12 5 13 6 87 7 14 8 11 9 8 10 9 11 10 13
REMARK SMILES IDX 7 15 5 16 6 17 89 18 88 19 4 20 3 21 2 22 1 23 19 24 20 25
REMARK SMILES IDX 21 26 22 27 23 28 24 29 25 30 86 31 26 32 85 33 27 34 28 35
REMARK SMILES IDX 29 36 79 37 30 38 84 39 78 40 80 41 31 42 83 43 77 44 76 45
REMARK SMILES IDX 32 47 64 48 44 49 63 50 45 51 48 52 62 53 81 54 46 55 47 56
REMARK SMILES IDX 61 58 82 59 49 60 33 61 34 62 42 63 35 64 36 65 40 66 43 67
REMARK SMILES IDX 37 68 38 69 41 70 39 71 65 72 66 73 74 74 67 75 68 76 72 77
REMARK SMILES IDX 75 78 69 79 70 80 73 81 71 82 50 83 51 84 59 85 52 86 53 87
REMARK SMILES IDX 57 88 60 89 54 90 55 91 58 92 56 93
REMARK H PARENT 8 12 11 14 80 46 48 57
REMARK Flexibility Score: inf
ROOT
ATOM      1  O   UNL A   1      37.076  22.576  24.727  1.00  0.00    -0.462 OA
ENDROOT
BRANCH   1   2
ATOM      2  C   UNL A   1      35.853  22.722  24.131  1.00  0.00     0.312 C 
ATOM      3  O   UNL A   1      35.654  23.305  23.072  1.00  0.00    -0.252 OA
BRANCH   2   4
ATOM      4  C   UNL A   1      34.775  22.020  24.948  1.00  0.00     0.124 C 
ATOM      5  C   UNL A   1      32.604  23.112  25.361  1.00  0.00     0.107 C 
ATOM      6  C   UNL A   1      33.522  23.234  26.530  1.00  0.00    -0.006 C 
ATOM      7  C   UNL A   1      33.353  22.216  24.368  1.00  0.00     0.048 C 
ATOM      8  C   UNL A   1      34.702  22.647  26.305  1.00  0.00    -0.014 C 
BRANCH   5   9
ATOM      9  N   UNL A   1      31.242  22.820  25.803  1.00  0.00    -0.332 N 
ATOM     10  N   UNL A   1      30.206  24.721  26.781  1.00  0.00    -0.305 N 
ATOM     11  C   UNL A   1      30.274  23.397  26.542  1.00  0.00     0.319 C 
ATOM     12  H   UNL A   1      29.934  24.994  27.688  1.00  0.00     0.171 HD
ATOM     13  O   UNL A   1      29.443  22.650  27.068  1.00  0.00    -0.248 OA
ATOM     14  H   UNL A   1      30.944  21.946  25.460  1.00  0.00     0.165 HD
BRANCH  10  15
ATOM     15  C   UNL A   1      30.475  25.728  25.888  1.00  0.00     0.081 A 
ATOM     16  N   UNL A   1      30.390  27.044  24.147  1.00  0.00    -0.268 N 
ATOM     17  C   UNL A   1      30.044  25.789  24.582  1.00  0.00     0.135 A 
ATOM     18  N   UNL A   1      31.182  27.687  25.013  1.00  0.00    -0.179 NA
ATOM     19  C   UNL A   1      31.255  26.877  26.061  1.00  0.00     0.161 A 
BRANCH  16  20
ATOM     20  C   UNL A   1      29.969  27.697  22.919  1.00  0.00     0.172 C 
BRANCH  20  21
ATOM     21  C   UNL A   1      28.949  28.834  23.090  1.00  0.00     0.183 C 
BRANCH  21  22
ATOM     22  O   UNL A   1      29.523  30.132  23.299  1.00  0.00    -0.383 OA
ATOM     23  C   UNL A   1      28.573  31.195  23.305  1.00  0.00     0.194 C 
ENDBRANCH  21  22
ENDBRANCH  20  21
ENDBRANCH  16  20
ENDBRANCH  10  15
ENDBRANCH   5   9
ENDBRANCH   2   4
ENDBRANCH   1   2
BRANCH   1  24
ATOM     24  C   UNL A   1      37.608  21.239  24.796  1.00  0.00     0.274 C 
BRANCH  24  25
ATOM     25  C   UNL A   1      38.788  21.159  25.758  1.00  0.00     0.275 C 
BRANCH  25  26
ATOM     26  O   UNL A   1      39.208  22.462  26.149  1.00  0.00    -0.458 OA
BRANCH  26  27
ATOM     27  C   UNL A   1      40.185  22.507  27.082  1.00  0.00     0.338 C 
ATOM     28  O   UNL A   1      40.511  21.625  27.857  1.00  0.00    -0.246 OA
BRANCH  27  29
ATOM     29  C   UNL A   1      40.730  23.868  27.127  1.00  0.00     0.060 A 
ATOM     30  C   UNL A   1      41.821  24.084  27.975  1.00  0.00     0.016 A 
ATOM     31  C   UNL A   1      40.015  24.927  26.551  1.00  0.00     0.016 A 
ATOM     32  C   UNL A   1      42.055  25.361  28.427  1.00  0.00     0.010 A 
ATOM     33  C   UNL A   1      40.242  26.201  27.008  1.00  0.00     0.010 A 
ATOM     34  C   UNL A   1      41.188  26.375  28.014  1.00  0.00    -0.014 A 
BRANCH  34  35
ATOM     35  C   UNL A   1      41.257  27.638  28.712  1.00  0.00     0.031 A 
ATOM     36  C   UNL A   1      42.413  28.481  28.345  1.00  0.00     0.074 A 
ATOM     37  C   UNL A   1      40.273  28.004  29.553  1.00  0.00     0.049 A 
ATOM     38  N   UNL A   1      43.346  28.922  29.120  1.00  0.00    -0.248 NA
ATOM     39  C   UNL A   1      42.626  28.762  26.916  1.00  0.00     0.031 C 
ATOM     40  C   UNL A   1      38.982  27.351  29.793  1.00  0.00     0.029 A 
ATOM     41  N   UNL A   1      40.184  29.131  30.299  1.00  0.00    -0.354 N 
ATOM     42  C   UNL A   1      44.193  29.664  28.307  1.00  0.00     0.074 A 
ATOM     43  C   UNL A   1      43.781  29.426  26.947  1.00  0.00     0.031 C 
ATOM     44  C   UNL A   1      38.157  28.222  30.417  1.00  0.00     0.029 A 
ATOM     45  C   UNL A   1      38.900  29.433  30.717  1.00  0.00     0.049 A 
ATOM     46  H   UNL A   1      40.964  29.689  30.524  1.00  0.00     0.167 HD
ATOM     47  C   UNL A   1      45.054  30.580  28.823  1.00  0.00     0.037 A 
ATOM     48  C   UNL A   1      38.484  30.647  31.152  1.00  0.00     0.037 A 
ATOM     49  C   UNL A   1      45.259  30.392  30.231  1.00  0.00     0.049 A 
ATOM     50  C   UNL A   1      39.699  31.404  31.568  1.00  0.00     0.074 A 
ATOM     51  C   UNL A   1      45.794  29.371  30.992  1.00  0.00     0.029 A 
ATOM     52  N   UNL A   1      44.547  31.179  31.104  1.00  0.00    -0.354 N 
ATOM     53  N   UNL A   1      40.430  31.080  32.601  1.00  0.00    -0.248 NA
ATOM     54  C   UNL A   1      40.375  32.215  30.563  1.00  0.00     0.031 C 
ATOM     55  C   UNL A   1      44.988  29.324  32.166  1.00  0.00     0.029 A 
ATOM     56  C   UNL A   1      44.044  30.348  32.073  1.00  0.00     0.049 A 
ATOM     57  H   UNL A   1      44.421  32.153  31.045  1.00  0.00     0.167 HD
ATOM     58  C   UNL A   1      41.742  31.280  32.190  1.00  0.00     0.074 A 
ATOM     59  C   UNL A   1      41.643  32.055  30.956  1.00  0.00     0.031 C 
ATOM     60  C   UNL A   1      42.768  30.549  32.716  1.00  0.00     0.037 A 
BRANCH  47  61
ATOM     61  C   UNL A   1      45.448  31.839  28.110  1.00  0.00     0.064 A 
ATOM     62  C   UNL A   1      44.467  32.789  27.778  1.00  0.00     0.173 A 
ATOM     63  C   UNL A   1      46.705  31.999  27.488  1.00  0.00     0.173 A 
ATOM     64  F   UNL A   1      43.233  32.703  28.297  1.00  0.00    -0.203 F 
ATOM     65  C   UNL A   1      44.713  33.795  26.842  1.00  0.00     0.198 A 
ATOM     66  C   UNL A   1      46.962  33.036  26.597  1.00  0.00     0.198 A 
ATOM     67  F   UNL A   1      47.685  31.098  27.633  1.00  0.00    -0.203 F 
ATOM     68  F   UNL A   1      43.719  34.610  26.466  1.00  0.00    -0.200 F 
ATOM     69  C   UNL A   1      45.958  33.915  26.250  1.00  0.00     0.200 A 
ATOM     70  F   UNL A   1      48.169  33.121  26.017  1.00  0.00    -0.200 F 
ATOM     71  F   UNL A   1      46.178  34.842  25.309  1.00  0.00    -0.200 F 
ENDBRANCH  47  61
BRANCH  48  72
ATOM     72  C   UNL A   1      37.175  31.283  30.864  1.00  0.00     0.064 A 
ATOM     73  C   UNL A   1      36.282  31.608  31.896  1.00  0.00     0.173 A 
ATOM     74  C   UNL A   1      36.865  31.802  29.588  1.00  0.00     0.173 A 
ATOM     75  F   UNL A   1      36.526  31.201  33.150  1.00  0.00    -0.203 F 
ATOM     76  C   UNL A   1      35.155  32.408  31.667  1.00  0.00     0.198 A 
ATOM     77  C   UNL A   1      35.736  32.586  29.358  1.00  0.00     0.198 A 
ATOM     78  F   UNL A   1      37.698  31.637  28.551  1.00  0.00    -0.203 F 
ATOM     79  F   UNL A   1      34.354  32.742  32.688  1.00  0.00    -0.200 F 
ATOM     80  C   UNL A   1      34.886  32.900  30.400  1.00  0.00     0.200 A 
ATOM     81  F   UNL A   1      35.509  33.080  28.132  1.00  0.00    -0.200 F 
ATOM     82  F   UNL A   1      33.835  33.703  30.190  1.00  0.00    -0.200 F 
ENDBRANCH  48  72
BRANCH  60  83
ATOM     83  C   UNL A   1      42.470  29.676  33.902  1.00  0.00     0.064 A 
ATOM     84  C   UNL A   1      41.922  28.386  33.795  1.00  0.00     0.173 A 
ATOM     85  C   UNL A   1      42.912  30.084  35.166  1.00  0.00     0.173 A 
ATOM     86  F   UNL A   1      41.588  27.878  32.603  1.00  0.00    -0.203 F 
ATOM     87  C   UNL A   1      41.775  27.565  34.910  1.00  0.00     0.198 A 
ATOM     88  C   UNL A   1      42.798  29.247  36.274  1.00  0.00     0.198 A 
ATOM     89  F   UNL A   1      43.507  31.277  35.318  1.00  0.00    -0.203 F 
ATOM     90  F   UNL A   1      41.242  26.341  34.778  1.00  0.00    -0.200 F 
ATOM     91  C   UNL A   1      42.221  27.994  36.148  1.00  0.00     0.200 A 
ATOM     92  F   UNL A   1      43.281  29.643  37.460  1.00  0.00    -0.200 F 
ATOM     93  F   UNL A   1      42.123  27.187  37.213  1.00  0.00    -0.200 F 
ENDBRANCH  60  83
ENDBRANCH  34  35
ENDBRANCH  27  29
ENDBRANCH  26  27
ENDBRANCH  25  26
ENDBRANCH  24  25
ENDBRANCH   1  24
TORSDOF 16
ENDMDL
MODEL 2
REMARK VINA RESULT:     -11.8      1.577      2.215
REMARK SMILES COCCn1cc(NC(=O)N[C@H]2C=C[C@H](C(=O)OCCOC(=O)c3ccc(-c4c5nc(c(-c6c(F)c(F)c(F)c(F)c6F)c6ccc([nH]6)c(-c6c(F)c(F)c(F)c(F)c6F)c6nc(c(-c7c(F)c(F)c(F)c(F)c7F)c7ccc4[nH]7)C=C6)C=C5)cc3)C2)cn1
REMARK SMILES IDX 18 1 16 2 17 3 15 4 12 5 13 6 87 7 14 8 11 9 8 10 9 11 10 13
REMARK SMILES IDX 7 15 5 16 6 17 89 18 88 19 4 20 3 21 2 22 1 23 19 24 20 25
REMARK SMILES IDX 21 26 22 27 23 28 24 29 25 30 86 31 26 32 85 33 27 34 28 35
REMARK SMILES IDX 29 36 79 37 30 38 84 39 78 40 80 41 31 42 83 43 77 44 76 45
REMARK SMILES IDX 32 47 64 48 44 49 63 50 45 51 48 52 62 53 81 54 46 55 47 56
REMARK SMILES IDX 61 58 82 59 49 60 33 61 34 62 42 63 35 64 36 65 40 66 43 67
REMARK SMILES IDX 37 68 38 69 41 70 39 71 65 72 66 73 74 74 67 75 68 76 72 77
REMARK SMILES IDX 75 78 69 79 70 80 73 81 71 82 50 83 51 84 59 85 52 86 53 87
REMARK SMILES IDX 57 88 60 89 54 90 55 91 58 92 56 93
REMARK H PARENT 8 12 11 14 80 46 48 57
REMARK Flexibility Score: inf
ROOT
ATOM      1  O   UNL A   1      35.858  22.419  26.098  1.00  0.00    -0.462 OA
ENDROOT
BRANCH   1   2
ATOM      2  C   UNL A   1      34.579  22.366  25.611  1.00  0.00     0.312 C 
ATOM      3  O   UNL A   1      33.568  22.331  26.302  1.00  0.00    -0.252 OA
BRANCH   2   4
ATOM      4  C   UNL A   1      34.587  22.399  24.088  1.00  0.00     0.124 C 
ATOM      5  C   UNL A   1      33.289  24.102  22.865  1.00  0.00     0.107 C 
ATOM      6  C   UNL A   1      32.584  22.789  22.911  1.00  0.00    -0.006 C 
ATOM      7  C   UNL A   1      34.652  23.837  23.516  1.00  0.00     0.048 C 
ATOM      8  C   UNL A   1      33.285  21.866  23.579  1.00  0.00    -0.014 C 
BRANCH   5   9
ATOM      9  N   UNL A   1      33.160  24.711  21.543  1.00  0.00    -0.332 N 
ATOM     10  N   UNL A   1      31.914  26.733  21.622  1.00  0.00    -0.305 N 
ATOM     11  C   UNL A   1      32.465  25.702  20.951  1.00  0.00     0.319 C 
ATOM     12  H   UNL A   1      31.024  27.030  21.323  1.00  0.00     0.171 HD
ATOM     13  O   UNL A   1      32.285  25.617  19.733  1.00  0.00    -0.248 OA
ATOM     14  H   UNL A   1      33.755  24.268  20.896  1.00  0.00     0.165 HD
BRANCH  10  15
ATOM     15  C   UNL A   1      32.470  27.410  22.678  1.00  0.00     0.081 A 
ATOM     16  N   UNL A   1      32.949  28.077  24.702  1.00  0.00    -0.268 N 
ATOM     17  C   UNL A   1      31.978  27.449  23.964  1.00  0.00     0.135 A 
ATOM     18  N   UNL A   1      33.910  28.611  23.938  1.00  0.00    -0.179 NA
ATOM     19  C   UNL A   1      33.605  28.228  22.706  1.00  0.00     0.161 A 
BRANCH  16  20
ATOM     20  C   UNL A   1      33.029  28.176  26.149  1.00  0.00     0.172 C 
BRANCH  20  21
ATOM     21  C   UNL A   1      32.672  29.549  26.741  1.00  0.00     0.183 C 
BRANCH  21  22
ATOM     22  O   UNL A   1      33.782  30.444  26.897  1.00  0.00    -0.383 OA
ATOM     23  C   UNL A   1      34.961  29.827  27.406  1.00  0.00     0.194 C 
ENDBRANCH  21  22
ENDBRANCH  20  21
ENDBRANCH  16  20
ENDBRANCH  10  15
ENDBRANCH   5   9
ENDBRANCH   2   4
ENDBRANCH   1   2
BRANCH   1  24
ATOM     24  C   UNL A   1      36.748  21.359  25.698  1.00  0.00     0.274 C 
BRANCH  24  25
ATOM     25  C   UNL A   1      38.141  21.893  25.383  1.00  0.00     0.275 C 
BRANCH  25  26
ATOM     26  O   UNL A   1      38.554  22.836  26.367  1.00  0.00    -0.458 OA
BRANCH  26  27
ATOM     27  C   UNL A   1      39.775  22.625  26.904  1.00  0.00     0.338 C 
ATOM     28  O   UNL A   1      40.227  21.575  27.328  1.00  0.00    -0.246 OA
BRANCH  27  29
ATOM     29  C   UNL A   1      40.461  23.914  27.037  1.00  0.00     0.060 A 
ATOM     30  C   UNL A   1      41.444  24.008  28.026  1.00  0.00     0.016 A 
ATOM     31  C   UNL A   1      39.955  25.045  26.380  1.00  0.00     0.016 A 
ATOM     32  C   UNL A   1      41.758  25.253  28.519  1.00  0.00     0.010 A 
ATOM     33  C   UNL A   1      40.262  26.287  26.877  1.00  0.00     0.010 A 
ATOM     34  C   UNL A   1      41.076  26.357  28.003  1.00  0.00    -0.014 A 
BRANCH  34  35
ATOM     35  C   UNL A   1      41.193  27.608  28.717  1.00  0.00     0.031 A 
ATOM     36  C   UNL A   1      42.367  28.423  28.342  1.00  0.00     0.074 A 
ATOM     37  C   UNL A   1      40.235  27.990  29.580  1.00  0.00     0.049 A 
ATOM     38  N   UNL A   1      43.326  28.825  29.106  1.00  0.00    -0.248 NA
ATOM     39  C   UNL A   1      42.564  28.718  26.913  1.00  0.00     0.031 C 
ATOM     40  C   UNL A   1      38.929  27.371  29.833  1.00  0.00     0.029 A 
ATOM     41  N   UNL A   1      40.192  29.109  30.343  1.00  0.00    -0.354 N 
ATOM     42  C   UNL A   1      44.180  29.554  28.289  1.00  0.00     0.074 A 
ATOM     43  C   UNL A   1      43.738  29.347  26.933  1.00  0.00     0.031 C 
ATOM     44  C   UNL A   1      38.141  28.256  30.483  1.00  0.00     0.029 A 
ATOM     45  C   UNL A   1      38.924  29.441  30.787  1.00  0.00     0.049 A 
ATOM     46  H   UNL A   1      40.991  29.640  30.561  1.00  0.00     0.167 HD
ATOM     47  C   UNL A   1      45.076  30.438  28.802  1.00  0.00     0.037 A 
ATOM     48  C   UNL A   1      38.550  30.660  31.245  1.00  0.00     0.037 A 
ATOM     49  C   UNL A   1      45.298  30.224  30.204  1.00  0.00     0.049 A 
ATOM     50  C   UNL A   1      39.794  31.376  31.651  1.00  0.00     0.074 A 
ATOM     51  C   UNL A   1      45.816  29.177  30.942  1.00  0.00     0.029 A 
ATOM     52  N   UNL A   1      44.624  31.019  31.100  1.00  0.00    -0.354 N 
ATOM     53  N   UNL A   1      40.532  31.017  32.666  1.00  0.00    -0.248 NA
ATOM     54  C   UNL A   1      40.476  32.182  30.645  1.00  0.00     0.031 C 
ATOM     55  C   UNL A   1      45.029  29.137  32.129  1.00  0.00     0.029 A 
ATOM     56  C   UNL A   1      44.114  30.189  32.066  1.00  0.00     0.049 A 
ATOM     57  H   UNL A   1      44.525  31.997  31.056  1.00  0.00     0.167 HD
ATOM     58  C   UNL A   1      41.842  31.185  32.235  1.00  0.00     0.074 A 
ATOM     59  C   UNL A   1      41.745  31.980  31.014  1.00  0.00     0.031 C 
ATOM     60  C   UNL A   1      42.856  30.418  32.734  1.00  0.00     0.037 A 
BRANCH  47  61
ATOM     61  C   UNL A   1      45.494  31.695  28.100  1.00  0.00     0.064 A 
ATOM     62  C   UNL A   1      44.522  32.632  27.710  1.00  0.00     0.173 A 
ATOM     63  C   UNL A   1      46.780  31.862  27.542  1.00  0.00     0.173 A 
ATOM     64  F   UNL A   1      43.264  32.538  28.166  1.00  0.00    -0.203 F 
ATOM     65  C   UNL A   1      44.806  33.634  26.780  1.00  0.00     0.198 A 
ATOM     66  C   UNL A   1      47.072  32.895  26.657  1.00  0.00     0.198 A 
ATOM     67  F   UNL A   1      47.760  30.972  27.744  1.00  0.00    -0.203 F 
ATOM     68  F   UNL A   1      43.825  34.436  26.346  1.00  0.00    -0.200 F 
ATOM     69  C   UNL A   1      46.079  33.761  26.251  1.00  0.00     0.200 A 
ATOM     70  F   UNL A   1      48.306  32.987  26.139  1.00  0.00    -0.200 F 
ATOM     71  F   UNL A   1      46.338  34.683  25.315  1.00  0.00    -0.200 F 
ENDBRANCH  47  61
BRANCH  48  72
ATOM     72  C   UNL A   1      37.255  31.338  30.989  1.00  0.00     0.064 A 
ATOM     73  C   UNL A   1      36.358  31.610  32.032  1.00  0.00     0.173 A 
ATOM     74  C   UNL A   1      36.968  31.946  29.747  1.00  0.00     0.173 A 
ATOM     75  F   UNL A   1      36.582  31.116  33.258  1.00  0.00    -0.203 F 
ATOM     76  C   UNL A   1      35.247  32.444  31.846  1.00  0.00     0.198 A 
ATOM     77  C   UNL A   1      35.855  32.763  29.559  1.00  0.00     0.198 A 
ATOM     78  F   UNL A   1      37.808  31.835  28.709  1.00  0.00    -0.203 F 
ATOM     79  F   UNL A   1      34.443  32.724  32.881  1.00  0.00    -0.200 F 
ATOM     80  C   UNL A   1      35.000  33.023  30.612  1.00  0.00     0.200 A 
ATOM     81  F   UNL A   1      35.649  33.342  28.367  1.00  0.00    -0.200 F 
ATOM     82  F   UNL A   1      33.966  33.857  30.447  1.00  0.00    -0.200 F 
ENDBRANCH  48  72
BRANCH  60  83
ATOM     83  C   UNL A   1      42.553  29.537  33.913  1.00  0.00     0.064 A 
ATOM     84  C   UNL A   1      41.932  28.281  33.800  1.00  0.00     0.173 A 
ATOM     85  C   UNL A   1      43.059  29.894  35.168  1.00  0.00     0.173 A 
ATOM     86  F   UNL A   1      41.530  27.816  32.612  1.00  0.00    -0.203 F 
ATOM     87  C   UNL A   1      41.780  27.445  34.904  1.00  0.00     0.198 A 
ATOM     88  C   UNL A   1      42.939  29.041  36.263  1.00  0.00     0.198 A 
ATOM     89  F   UNL A   1      43.723  31.050  35.320  1.00  0.00    -0.203 F 
ATOM     90  F   UNL A   1      41.177  26.254  34.768  1.00  0.00    -0.200 F 
ATOM     91  C   UNL A   1      42.291  27.823  36.133  1.00  0.00     0.200 A 
ATOM     92  F   UNL A   1      43.484  29.386  37.438  1.00  0.00    -0.200 F 
ATOM     93  F   UNL A   1      42.187  27.000  37.186  1.00  0.00    -0.200 F 
ENDBRANCH  60  83
ENDBRANCH  34  35
ENDBRANCH  27  29
ENDBRANCH  26  27
ENDBRANCH  25  26
ENDBRANCH  24  25
ENDBRANCH   1  24
TORSDOF 16
ENDMDL
MODEL 3
REMARK VINA RESULT:     -11.5      2.871      8.534
REMARK SMILES COCCn1cc(NC(=O)N[C@H]2C=C[C@H](C(=O)OCCOC(=O)c3ccc(-c4c5nc(c(-c6c(F)c(F)c(F)c(F)c6F)c6ccc([nH]6)c(-c6c(F)c(F)c(F)c(F)c6F)c6nc(c(-c7c(F)c(F)c(F)c(F)c7F)c7ccc4[nH]7)C=C6)C=C5)cc3)C2)cn1
REMARK SMILES IDX 18 1 16 2 17 3 15 4 12 5 13 6 87 7 14 8 11 9 8 10 9 11 10 13
REMARK SMILES IDX 7 15 5 16 6 17 89 18 88 19 4 20 3 21 2 22 1 23 19 24 20 25
REMARK SMILES IDX 21 26 22 27 23 28 24 29 25 30 86 31 26 32 85 33 27 34 28 35
REMARK SMILES IDX 29 36 79 37 30 38 84 39 78 40 80 41 31 42 83 43 77 44 76 45
REMARK SMILES IDX 32 47 64 48 44 49 63 50 45 51 48 52 62 53 81 54 46 55 47 56
REMARK SMILES IDX 61 58 82 59 49 60 33 61 34 62 42 63 35 64 36 65 40 66 43 67
REMARK SMILES IDX 37 68 38 69 41 70 39 71 65 72 66 73 74 74 67 75 68 76 72 77
REMARK SMILES IDX 75 78 69 79 70 80 73 81 71 82 50 83 51 84 59 85 52 86 53 87
REMARK SMILES IDX 57 88 60 89 54 90 55 91 58 92 56 93
REMARK H PARENT 8 12 11 14 80 46 48 57
REMARK Flexibility Score: inf
ROOT
ATOM      1  O   UNL A   1      33.659  28.795  25.490  1.00  0.00    -0.462 OA
ENDROOT
BRANCH   1   2
ATOM      2  C   UNL A   1      32.563  28.421  24.759  1.00  0.00     0.312 C 
ATOM      3  O   UNL A   1      32.477  28.492  23.539  1.00  0.00    -0.252 OA
BRANCH   2   4
ATOM      4  C   UNL A   1      31.479  27.863  25.673  1.00  0.00     0.124 C 
ATOM      5  C   UNL A   1      31.259  25.431  26.015  1.00  0.00     0.107 C 
ATOM      6  C   UNL A   1      30.269  25.948  25.026  1.00  0.00    -0.006 C 
ATOM      7  C   UNL A   1      31.972  26.681  26.543  1.00  0.00     0.048 C 
ATOM      8  C   UNL A   1      30.392  27.266  24.835  1.00  0.00    -0.014 C 
BRANCH   5   9
ATOM      9  N   UNL A   1      30.636  24.452  26.904  1.00  0.00    -0.332 N 
ATOM     10  N   UNL A   1      30.790  22.247  26.034  1.00  0.00    -0.305 N 
ATOM     11  C   UNL A   1      30.269  23.156  26.881  1.00  0.00     0.319 C 
ATOM     12  H   UNL A   1      30.164  21.590  25.650  1.00  0.00     0.171 HD
ATOM     13  O   UNL A   1      29.365  22.811  27.647  1.00  0.00    -0.248 OA
ATOM     14  H   UNL A   1      30.424  24.859  27.775  1.00  0.00     0.165 HD
BRANCH  10  15
ATOM     15  C   UNL A   1      32.104  22.144  25.653  1.00  0.00     0.081 A 
ATOM     16  N   UNL A   1      34.258  21.779  25.683  1.00  0.00    -0.268 N 
ATOM     17  C   UNL A   1      33.188  22.054  26.497  1.00  0.00     0.135 A 
ATOM     18  N   UNL A   1      33.957  21.896  24.383  1.00  0.00    -0.179 NA
ATOM     19  C   UNL A   1      32.654  22.143  24.366  1.00  0.00     0.161 A 
BRANCH  16  20
ATOM     20  C   UNL A   1      35.592  21.371  26.089  1.00  0.00     0.172 C 
BRANCH  20  21
ATOM     21  C   UNL A   1      36.549  21.005  24.944  1.00  0.00     0.183 C 
BRANCH  21  22
ATOM     22  O   UNL A   1      37.914  21.395  25.152  1.00  0.00    -0.383 OA
ATOM     23  C   UNL A   1      38.068  22.692  25.724  1.00  0.00     0.194 C 
ENDBRANCH  21  22
ENDBRANCH  20  21
ENDBRANCH  16  20
ENDBRANCH  10  15
ENDBRANCH   5   9
ENDBRANCH   2   4
ENDBRANCH   1   2
BRANCH   1  24
ATOM     24  C   UNL A   1      33.412  29.290  26.820  1.00  0.00     0.274 C 
BRANCH  24  25
ATOM     25  C   UNL A   1      33.718  30.781  26.923  1.00  0.00     0.275 C 
BRANCH  25  26
ATOM     26  O   UNL A   1      34.229  31.102  28.213  1.00  0.00    -0.458 OA
BRANCH  26  27
ATOM     27  C   UNL A   1      35.333  31.880  28.227  1.00  0.00     0.338 C 
ATOM     28  O   UNL A   1      35.539  32.888  27.573  1.00  0.00    -0.246 OA
BRANCH  27  29
ATOM     29  C   UNL A   1      36.346  31.244  29.075  1.00  0.00     0.060 A 
ATOM     30  C   UNL A   1      37.435  32.033  29.460  1.00  0.00     0.016 A 
ATOM     31  C   UNL A   1      36.337  29.854  29.251  1.00  0.00     0.016 A 
ATOM     32  C   UNL A   1      38.606  31.405  29.812  1.00  0.00     0.010 A 
ATOM     33  C   UNL A   1      37.507  29.225  29.595  1.00  0.00     0.010 A 
ATOM     34  C   UNL A   1      38.644  30.009  29.766  1.00  0.00    -0.014 A 
BRANCH  34  35
ATOM     35  C   UNL A   1      39.938  29.373  29.850  1.00  0.00     0.031 A 
ATOM     36  C   UNL A   1      40.494  29.286  31.216  1.00  0.00     0.074 A 
ATOM     37  C   UNL A   1      40.507  28.842  28.753  1.00  0.00     0.049 A 
ATOM     38  N   UNL A   1      41.606  29.779  31.649  1.00  0.00    -0.248 NA
ATOM     39  C   UNL A   1      39.648  28.687  32.260  1.00  0.00     0.031 C 
ATOM     40  C   UNL A   1      39.930  28.665  27.416  1.00  0.00     0.029 A 
ATOM     41  N   UNL A   1      41.712  28.233  28.644  1.00  0.00    -0.354 N 
ATOM     42  C   UNL A   1      41.677  29.428  32.991  1.00  0.00     0.074 A 
ATOM     43  C   UNL A   1      40.395  28.875  33.347  1.00  0.00     0.031 C 
ATOM     44  C   UNL A   1      40.680  27.777  26.726  1.00  0.00     0.029 A 
ATOM     45  C   UNL A   1      41.837  27.424  27.529  1.00  0.00     0.049 A 
ATOM     46  H   UNL A   1      42.435  28.353  29.302  1.00  0.00     0.167 HD
ATOM     47  C   UNL A   1      42.856  29.436  33.668  1.00  0.00     0.037 A 
ATOM     48  C   UNL A   1      42.766  26.450  27.369  1.00  0.00     0.037 A 
ATOM     49  C   UNL A   1      43.862  30.201  32.986  1.00  0.00     0.049 A 
ATOM     50  C   UNL A   1      43.877  26.743  28.321  1.00  0.00     0.074 A 
ATOM     51  C   UNL A   1      43.981  31.532  32.640  1.00  0.00     0.029 A 
ATOM     52  N   UNL A   1      44.782  29.528  32.218  1.00  0.00    -0.354 N 
ATOM     53  N   UNL A   1      44.670  27.774  28.204  1.00  0.00    -0.248 NA
ATOM     54  C   UNL A   1      43.796  26.173  29.660  1.00  0.00     0.031 C 
ATOM     55  C   UNL A   1      44.605  31.527  31.359  1.00  0.00     0.029 A 
ATOM     56  C   UNL A   1      44.873  30.199  31.024  1.00  0.00     0.049 A 
ATOM     57  H   UNL A   1      45.280  28.719  32.474  1.00  0.00     0.167 HD
ATOM     58  C   UNL A   1      44.855  28.233  29.502  1.00  0.00     0.074 A 
ATOM     59  C   UNL A   1      44.360  27.161  30.362  1.00  0.00     0.031 C 
ATOM     60  C   UNL A   1      45.111  29.549  29.758  1.00  0.00     0.037 A 
BRANCH  47  61
ATOM     61  C   UNL A   1      43.180  28.482  34.777  1.00  0.00     0.064 A 
ATOM     62  C   UNL A   1      43.616  28.977  36.018  1.00  0.00     0.173 A 
ATOM     63  C   UNL A   1      43.355  27.098  34.563  1.00  0.00     0.173 A 
ATOM     64  F   UNL A   1      43.516  30.284  36.303  1.00  0.00    -0.203 F 
ATOM     65  C   UNL A   1      44.239  28.151  36.956  1.00  0.00     0.198 A 
ATOM     66  C   UNL A   1      43.928  26.268  35.522  1.00  0.00     0.198 A 
ATOM     67  F   UNL A   1      43.087  26.526  33.382  1.00  0.00    -0.203 F 
ATOM     68  F   UNL A   1      44.744  28.681  38.077  1.00  0.00    -0.200 F 
ATOM     69  C   UNL A   1      44.397  26.799  36.705  1.00  0.00     0.200 A 
ATOM     70  F   UNL A   1      44.092  24.965  35.251  1.00  0.00    -0.200 F 
ATOM     71  F   UNL A   1      45.047  26.017  37.576  1.00  0.00    -0.200 F 
ENDBRANCH  47  61
BRANCH  48  72
ATOM     72  C   UNL A   1      42.553  25.126  26.734  1.00  0.00     0.064 A 
ATOM     73  C   UNL A   1      43.232  24.764  25.562  1.00  0.00     0.173 A 
ATOM     74  C   UNL A   1      41.852  24.091  27.391  1.00  0.00     0.173 A 
ATOM     75  F   UNL A   1      43.966  25.672  24.902  1.00  0.00    -0.203 F 
ATOM     76  C   UNL A   1      43.217  23.448  25.081  1.00  0.00     0.198 A 
ATOM     77  C   UNL A   1      41.826  22.785  26.905  1.00  0.00     0.198 A 
ATOM     78  F   UNL A   1      41.249  24.300  28.570  1.00  0.00    -0.203 F 
ATOM     79  F   UNL A   1      43.923  23.129  23.987  1.00  0.00    -0.200 F 
ATOM     80  C   UNL A   1      42.518  22.460  25.755  1.00  0.00     0.200 A 
ATOM     81  F   UNL A   1      41.171  21.835  27.588  1.00  0.00    -0.200 F 
ATOM     82  F   UNL A   1      42.543  21.192  25.323  1.00  0.00    -0.200 F 
ENDBRANCH  48  72
BRANCH  60  83
ATOM     83  C   UNL A   1      45.399  30.447  28.588  1.00  0.00     0.064 A 
ATOM     84  C   UNL A   1      44.398  31.104  27.852  1.00  0.00     0.173 A 
ATOM     85  C   UNL A   1      46.729  30.789  28.313  1.00  0.00     0.173 A 
ATOM     86  F   UNL A   1      43.104  30.921  28.136  1.00  0.00    -0.203 F 
ATOM     87  C   UNL A   1      44.715  32.021  26.853  1.00  0.00     0.198 A 
ATOM     88  C   UNL A   1      47.042  31.735  27.340  1.00  0.00     0.198 A 
ATOM     89  F   UNL A   1      47.724  30.248  29.031  1.00  0.00    -0.203 F 
ATOM     90  F   UNL A   1      43.738  32.627  26.162  1.00  0.00    -0.200 F 
ATOM     91  C   UNL A   1      46.038  32.342  26.603  1.00  0.00     0.200 A 
ATOM     92  F   UNL A   1      48.321  32.084  27.139  1.00  0.00    -0.200 F 
ATOM     93  F   UNL A   1      46.343  33.258  25.675  1.00  0.00    -0.200 F 
ENDBRANCH  60  83
ENDBRANCH  34  35
ENDBRANCH  27  29
ENDBRANCH  26  27
ENDBRANCH  25  26
ENDBRANCH  24  25
ENDBRANCH   1  24
TORSDOF 16
ENDMDL
