MODEL 1
REMARK VINA RESULT:     -12.1      0.000      0.000
REMARK SMILES Nc1ccc(-c2cc(O)ccc2Cl)c(C(=O)OCCOC(=O)c2ccc(-c3c4nc(c(-c5c(F)c(F)c(F)c(F)c5F)c5ccc([nH]5)c(-c5c(F)c(F)c(F)c(F)c5F)c5nc(c(-c6c(F)c(F)c(F)c(F)c6F)c6ccc3[nH]6)C=C5)C=C4)cc2)n1
REMARK SMILES IDX 18 1 17 2 15 3 16 4 14 5 2 6 3 7 86 8 4 9 5 10 1 11 6 14
REMARK SMILES IDX 7 15 12 16 8 17 11 18 13 19 10 20 9 21 19 23 20 24 21 25
REMARK SMILES IDX 22 26 23 27 24 28 85 29 25 30 84 31 26 32 27 33 28 34 78 35
REMARK SMILES IDX 29 36 83 37 77 38 79 39 30 40 82 41 76 42 75 43 31 45 63 46
REMARK SMILES IDX 43 47 62 48 44 49 47 50 61 51 80 52 45 53 46 54 60 56 81 57
REMARK SMILES IDX 48 58 32 59 33 60 41 61 34 62 35 63 39 64 42 65 36 66 37 67
REMARK SMILES IDX 40 68 38 69 64 70 65 71 73 72 66 73 67 74 71 75 74 76 68 77
REMARK SMILES IDX 69 78 72 79 70 80 49 81 50 82 58 83 51 84 52 85 56 86 59 87
REMARK SMILES IDX 53 88 54 89 57 90 55 91
REMARK H PARENT 1 12 1 13 9 22 79 44 47 55
REMARK Flexibility Score: inf
ROOT
ATOM      1  C   UNL A   1      36.128  20.498  24.961  1.00  0.00     0.275 C 
ENDROOT
BRANCH   1   2
ATOM      2  O   UNL A   1      35.462  21.660  25.493  1.00  0.00    -0.457 OA
BRANCH   2   3
ATOM      3  C   UNL A   1      34.677  22.361  24.631  1.00  0.00     0.357 C 
ATOM      4  O   UNL A   1      34.995  22.703  23.503  1.00  0.00    -0.244 OA
BRANCH   3   5
ATOM      5  C   UNL A   1      33.307  22.573  25.213  1.00  0.00     0.158 A 
ATOM      6  C   UNL A   1      31.930  24.181  26.180  1.00  0.00     0.124 A 
ATOM      7  C   UNL A   1      30.863  23.305  26.179  1.00  0.00     0.047 A 
ATOM      8  N   UNL A   1      33.135  23.831  25.720  1.00  0.00    -0.224 NA
ATOM      9  C   UNL A   1      31.055  22.005  25.712  1.00  0.00     0.015 A 
ATOM     10  C   UNL A   1      32.301  21.598  25.211  1.00  0.00     0.017 A 
BRANCH   6  11
ATOM     11  N   UNL A   1      31.779  25.496  26.564  1.00  0.00    -0.384 N 
ATOM     12  H   UNL A   1      32.450  25.919  27.147  1.00  0.00     0.158 HD
ATOM     13  H   UNL A   1      30.999  26.012  26.257  1.00  0.00     0.158 HD
ENDBRANCH   6  11
BRANCH  10  14
ATOM     14  C   UNL A   1      32.474  20.219  24.721  1.00  0.00     0.006 A 
ATOM     15  C   UNL A   1      32.823  19.209  25.642  1.00  0.00     0.056 A 
ATOM     16  C   UNL A   1      32.290  19.849  23.372  1.00  0.00     0.049 A 
ATOM     17  C   UNL A   1      32.956  17.888  25.225  1.00  0.00     0.116 A 
ATOM     18  C   UNL A   1      32.410  18.514  22.972  1.00  0.00     0.025 A 
ATOM     19  Cl  UNL A   1      31.929  21.014  22.145  1.00  0.00    -0.084 Cl
ATOM     20  C   UNL A   1      32.741  17.532  23.902  1.00  0.00     0.048 A 
BRANCH  17  21
ATOM     21  O   UNL A   1      33.297  16.900  26.099  1.00  0.00    -0.508 OA
ATOM     22  H   UNL A   1      33.928  17.066  26.773  1.00  0.00     0.293 HD
ENDBRANCH  17  21
ENDBRANCH  10  14
ENDBRANCH   3   5
ENDBRANCH   2   3
ENDBRANCH   1   2
BRANCH   1  23
ATOM     23  C   UNL A   1      37.642  20.714  24.885  1.00  0.00     0.275 C 
BRANCH  23  24
ATOM     24  O   UNL A   1      38.105  21.519  25.985  1.00  0.00    -0.458 OA
BRANCH  24  25
ATOM     25  C   UNL A   1      39.378  21.288  26.369  1.00  0.00     0.338 C 
ATOM     26  O   UNL A   1      40.011  20.244  26.267  1.00  0.00    -0.246 OA
BRANCH  25  27
ATOM     27  C   UNL A   1      39.983  22.546  26.826  1.00  0.00     0.060 A 
ATOM     28  C   UNL A   1      39.556  23.719  26.210  1.00  0.00     0.016 A 
ATOM     29  C   UNL A   1      41.000  22.580  27.780  1.00  0.00     0.016 A 
ATOM     30  C   UNL A   1      40.145  24.937  26.521  1.00  0.00     0.010 A 
ATOM     31  C   UNL A   1      41.590  23.809  28.103  1.00  0.00     0.010 A 
ATOM     32  C   UNL A   1      41.174  24.993  27.464  1.00  0.00    -0.014 A 
BRANCH  32  33
ATOM     33  C   UNL A   1      41.853  26.287  27.709  1.00  0.00     0.031 A 
ATOM     34  C   UNL A   1      41.172  27.338  28.536  1.00  0.00     0.074 A 
ATOM     35  C   UNL A   1      43.101  26.492  27.250  1.00  0.00     0.049 A 
ATOM     36  N   UNL A   1      41.558  28.558  28.810  1.00  0.00    -0.248 NA
ATOM     37  C   UNL A   1      39.884  26.964  29.140  1.00  0.00     0.031 C 
ATOM     38  C   UNL A   1      43.895  25.517  26.502  1.00  0.00     0.029 A 
ATOM     39  N   UNL A   1      43.925  27.583  27.360  1.00  0.00    -0.354 N 
ATOM     40  C   UNL A   1      40.546  29.109  29.584  1.00  0.00     0.074 A 
ATOM     41  C   UNL A   1      39.527  28.092  29.737  1.00  0.00     0.031 C 
ATOM     42  C   UNL A   1      45.098  26.048  26.234  1.00  0.00     0.029 A 
ATOM     43  C   UNL A   1      45.140  27.417  26.743  1.00  0.00     0.049 A 
ATOM     44  H   UNL A   1      43.670  28.407  27.836  1.00  0.00     0.167 HD
ATOM     45  C   UNL A   1      40.476  30.352  30.115  1.00  0.00     0.037 A 
ATOM     46  C   UNL A   1      46.161  28.281  26.585  1.00  0.00     0.037 A 
ATOM     47  C   UNL A   1      41.508  31.347  29.991  1.00  0.00     0.049 A 
ATOM     48  C   UNL A   1      46.036  29.673  27.142  1.00  0.00     0.074 A 
ATOM     49  C   UNL A   1      41.535  32.634  30.500  1.00  0.00     0.029 A 
ATOM     50  N   UNL A   1      42.703  31.161  29.311  1.00  0.00    -0.354 N 
ATOM     51  N   UNL A   1      45.060  30.201  27.838  1.00  0.00    -0.248 NA
ATOM     52  C   UNL A   1      47.150  30.594  26.876  1.00  0.00     0.031 C 
ATOM     53  C   UNL A   1      42.734  33.237  30.100  1.00  0.00     0.029 A 
ATOM     54  C   UNL A   1      43.468  32.314  29.373  1.00  0.00     0.049 A 
ATOM     55  H   UNL A   1      42.968  30.331  28.852  1.00  0.00     0.167 HD
ATOM     56  C   UNL A   1      45.442  31.507  28.103  1.00  0.00     0.074 A 
ATOM     57  C   UNL A   1      46.750  31.688  27.508  1.00  0.00     0.031 C 
ATOM     58  C   UNL A   1      44.768  32.473  28.774  1.00  0.00     0.037 A 
BRANCH  45  59
ATOM     59  C   UNL A   1      39.219  30.719  30.844  1.00  0.00     0.064 A 
ATOM     60  C   UNL A   1      39.076  30.522  32.224  1.00  0.00     0.173 A 
ATOM     61  C   UNL A   1      38.145  31.293  30.146  1.00  0.00     0.173 A 
ATOM     62  F   UNL A   1      40.068  29.961  32.931  1.00  0.00    -0.203 F 
ATOM     63  C   UNL A   1      37.894  30.865  32.876  1.00  0.00     0.198 A 
ATOM     64  C   UNL A   1      36.974  31.657  30.806  1.00  0.00     0.198 A 
ATOM     65  F   UNL A   1      38.233  31.505  28.824  1.00  0.00    -0.203 F 
ATOM     66  F   UNL A   1      37.762  30.629  34.189  1.00  0.00    -0.200 F 
ATOM     67  C   UNL A   1      36.847  31.437  32.168  1.00  0.00     0.200 A 
ATOM     68  F   UNL A   1      35.967  32.217  30.120  1.00  0.00    -0.200 F 
ATOM     69  F   UNL A   1      35.711  31.768  32.798  1.00  0.00    -0.200 F 
ENDBRANCH  45  59
BRANCH  46  70
ATOM     70  C   UNL A   1      47.378  27.859  25.846  1.00  0.00     0.064 A 
ATOM     71  C   UNL A   1      48.541  27.480  26.529  1.00  0.00     0.173 A 
ATOM     72  C   UNL A   1      47.400  27.824  24.444  1.00  0.00     0.173 A 
ATOM     73  F   UNL A   1      48.576  27.526  27.869  1.00  0.00    -0.203 F 
ATOM     74  C   UNL A   1      49.684  27.086  25.836  1.00  0.00     0.198 A 
ATOM     75  C   UNL A   1      48.536  27.406  23.754  1.00  0.00     0.198 A 
ATOM     76  F   UNL A   1      46.314  28.185  23.745  1.00  0.00    -0.203 F 
ATOM     77  F   UNL A   1      50.795  26.763  26.512  1.00  0.00    -0.200 F 
ATOM     78  C   UNL A   1      49.678  27.042  24.450  1.00  0.00     0.200 A 
ATOM     79  F   UNL A   1      48.523  27.358  22.414  1.00  0.00    -0.200 F 
ATOM     80  F   UNL A   1      50.776  26.658  23.785  1.00  0.00    -0.200 F 
ENDBRANCH  46  70
BRANCH  58  81
ATOM     81  C   UNL A   1      45.444  33.804  28.917  1.00  0.00     0.064 A 
ATOM     82  C   UNL A   1      45.241  34.830  27.985  1.00  0.00     0.173 A 
ATOM     83  C   UNL A   1      46.273  34.065  30.018  1.00  0.00     0.173 A 
ATOM     84  F   UNL A   1      44.470  34.620  26.907  1.00  0.00    -0.203 F 
ATOM     85  C   UNL A   1      45.860  36.067  28.139  1.00  0.00     0.198 A 
ATOM     86  C   UNL A   1      46.873  35.311  30.180  1.00  0.00     0.198 A 
ATOM     87  F   UNL A   1      46.495  33.116  30.939  1.00  0.00    -0.203 F 
ATOM     88  F   UNL A   1      45.684  37.023  27.215  1.00  0.00    -0.200 F 
ATOM     89  C   UNL A   1      46.670  36.309  29.238  1.00  0.00     0.200 A 
ATOM     90  F   UNL A   1      47.648  35.546  31.249  1.00  0.00    -0.200 F 
ATOM     91  F   UNL A   1      47.262  37.502  29.387  1.00  0.00    -0.200 F 
ENDBRANCH  58  81
ENDBRANCH  32  33
ENDBRANCH  25  27
ENDBRANCH  24  25
ENDBRANCH  23  24
ENDBRANCH   1  23
TORSDOF 14
ENDMDL
MODEL 2
REMARK VINA RESULT:     -12.1      0.133      1.625
REMARK SMILES Nc1ccc(-c2cc(O)ccc2Cl)c(C(=O)OCCOC(=O)c2ccc(-c3c4nc(c(-c5c(F)c(F)c(F)c(F)c5F)c5ccc([nH]5)c(-c5c(F)c(F)c(F)c(F)c5F)c5nc(c(-c6c(F)c(F)c(F)c(F)c6F)c6ccc3[nH]6)C=C5)C=C4)cc2)n1
REMARK SMILES IDX 18 1 17 2 15 3 16 4 14 5 2 6 3 7 86 8 4 9 5 10 1 11 6 14
REMARK SMILES IDX 7 15 12 16 8 17 11 18 13 19 10 20 9 21 19 23 20 24 21 25
REMARK SMILES IDX 22 26 23 27 24 28 85 29 25 30 84 31 26 32 27 33 28 34 78 35
REMARK SMILES IDX 29 36 83 37 77 38 79 39 30 40 82 41 76 42 75 43 31 45 63 46
REMARK SMILES IDX 43 47 62 48 44 49 47 50 61 51 80 52 45 53 46 54 60 56 81 57
REMARK SMILES IDX 48 58 32 59 33 60 41 61 34 62 35 63 39 64 42 65 36 66 37 67
REMARK SMILES IDX 40 68 38 69 64 70 65 71 73 72 66 73 67 74 71 75 74 76 68 77
REMARK SMILES IDX 69 78 72 79 70 80 49 81 50 82 58 83 51 84 52 85 56 86 59 87
REMARK SMILES IDX 53 88 54 89 57 90 55 91
REMARK H PARENT 1 12 1 13 9 22 79 44 47 55
REMARK Flexibility Score: inf
ROOT
ATOM      1  C   UNL A   1      36.017  20.469  24.994  1.00  0.00     0.275 C 
ENDROOT
BRANCH   1   2
ATOM      2  O   UNL A   1      35.537  21.748  25.449  1.00  0.00    -0.457 OA
BRANCH   2   3
ATOM      3  C   UNL A   1      34.699  22.419  24.613  1.00  0.00     0.357 C 
ATOM      4  O   UNL A   1      34.954  22.736  23.461  1.00  0.00    -0.244 OA
BRANCH   3   5
ATOM      5  C   UNL A   1      33.358  22.627  25.259  1.00  0.00     0.158 A 
ATOM      6  C   UNL A   1      32.034  24.226  26.311  1.00  0.00     0.124 A 
ATOM      7  C   UNL A   1      30.963  23.355  26.346  1.00  0.00     0.047 A 
ATOM      8  N   UNL A   1      33.215  23.878  25.792  1.00  0.00    -0.224 NA
ATOM      9  C   UNL A   1      31.128  22.061  25.852  1.00  0.00     0.015 A 
ATOM     10  C   UNL A   1      32.348  21.656  25.289  1.00  0.00     0.017 A 
BRANCH   6  11
ATOM     11  N   UNL A   1      31.906  25.536  26.721  1.00  0.00    -0.384 N 
ATOM     12  H   UNL A   1      31.071  26.027  26.544  1.00  0.00     0.158 HD
ATOM     13  H   UNL A   1      32.649  25.980  27.189  1.00  0.00     0.158 HD
ENDBRANCH   6  11
BRANCH  10  14
ATOM     14  C   UNL A   1      32.492  20.284  24.772  1.00  0.00     0.006 A 
ATOM     15  C   UNL A   1      32.820  19.249  25.672  1.00  0.00     0.056 A 
ATOM     16  C   UNL A   1      32.300  19.944  23.416  1.00  0.00     0.049 A 
ATOM     17  C   UNL A   1      32.926  17.934  25.229  1.00  0.00     0.116 A 
ATOM     18  C   UNL A   1      32.392  18.616  22.989  1.00  0.00     0.025 A 
ATOM     19  Cl  UNL A   1      31.962  21.140  22.212  1.00  0.00    -0.084 Cl
ATOM     20  C   UNL A   1      32.703  17.609  23.899  1.00  0.00     0.048 A 
BRANCH  17  21
ATOM     21  O   UNL A   1      33.247  16.922  26.083  1.00  0.00    -0.508 OA
ATOM     22  H   UNL A   1      34.144  16.756  26.299  1.00  0.00     0.293 HD
ENDBRANCH  17  21
ENDBRANCH  10  14
ENDBRANCH   3   5
ENDBRANCH   2   3
ENDBRANCH   1   2
BRANCH   1  23
ATOM     23  C   UNL A   1      37.548  20.432  24.963  1.00  0.00     0.275 C 
BRANCH  23  24
ATOM     24  O   UNL A   1      38.107  21.488  25.766  1.00  0.00    -0.458 OA
BRANCH  24  25
ATOM     25  C   UNL A   1      39.305  21.212  26.323  1.00  0.00     0.338 C 
ATOM     26  O   UNL A   1      39.880  20.132  26.362  1.00  0.00    -0.246 OA
BRANCH  25  27
ATOM     27  C   UNL A   1      39.924  22.462  26.783  1.00  0.00     0.060 A 
ATOM     28  C   UNL A   1      39.462  23.649  26.220  1.00  0.00     0.016 A 
ATOM     29  C   UNL A   1      40.986  22.478  27.688  1.00  0.00     0.016 A 
ATOM     30  C   UNL A   1      40.058  24.861  26.534  1.00  0.00     0.010 A 
ATOM     31  C   UNL A   1      41.584  23.702  28.015  1.00  0.00     0.010 A 
ATOM     32  C   UNL A   1      41.132  24.899  27.428  1.00  0.00    -0.014 A 
BRANCH  32  33
ATOM     33  C   UNL A   1      41.815  26.191  27.674  1.00  0.00     0.031 A 
ATOM     34  C   UNL A   1      41.139  27.241  28.507  1.00  0.00     0.074 A 
ATOM     35  C   UNL A   1      43.061  26.395  27.211  1.00  0.00     0.049 A 
ATOM     36  N   UNL A   1      41.530  28.459  28.784  1.00  0.00    -0.248 NA
ATOM     37  C   UNL A   1      39.853  26.868  29.116  1.00  0.00     0.031 C 
ATOM     38  C   UNL A   1      43.850  25.421  26.457  1.00  0.00     0.029 A 
ATOM     39  N   UNL A   1      43.889  27.483  27.322  1.00  0.00    -0.354 N 
ATOM     40  C   UNL A   1      40.522  29.010  29.564  1.00  0.00     0.074 A 
ATOM     41  C   UNL A   1      39.501  27.995  29.718  1.00  0.00     0.031 C 
ATOM     42  C   UNL A   1      45.053  25.950  26.186  1.00  0.00     0.029 A 
ATOM     43  C   UNL A   1      45.100  27.316  26.699  1.00  0.00     0.049 A 
ATOM     44  H   UNL A   1      43.637  28.306  27.801  1.00  0.00     0.167 HD
ATOM     45  C   UNL A   1      40.457  30.252  30.099  1.00  0.00     0.037 A 
ATOM     46  C   UNL A   1      46.123  28.179  26.540  1.00  0.00     0.037 A 
ATOM     47  C   UNL A   1      41.491  31.245  29.974  1.00  0.00     0.049 A 
ATOM     48  C   UNL A   1      46.004  29.569  27.101  1.00  0.00     0.074 A 
ATOM     49  C   UNL A   1      41.523  32.530  30.487  1.00  0.00     0.029 A 
ATOM     50  N   UNL A   1      42.683  31.057  29.289  1.00  0.00    -0.354 N 
ATOM     51  N   UNL A   1      45.031  30.097  27.803  1.00  0.00    -0.248 NA
ATOM     52  C   UNL A   1      47.119  30.488  26.834  1.00  0.00     0.031 C 
ATOM     53  C   UNL A   1      42.721  33.132  30.084  1.00  0.00     0.029 A 
ATOM     54  C   UNL A   1      43.450  32.209  29.352  1.00  0.00     0.049 A 
ATOM     55  H   UNL A   1      42.944  30.229  28.826  1.00  0.00     0.167 HD
ATOM     56  C   UNL A   1      45.417  31.402  28.071  1.00  0.00     0.074 A 
ATOM     57  C   UNL A   1      46.724  31.582  27.471  1.00  0.00     0.031 C 
ATOM     58  C   UNL A   1      44.748  32.367  28.748  1.00  0.00     0.037 A 
BRANCH  45  59
ATOM     59  C   UNL A   1      39.203  30.619  30.834  1.00  0.00     0.064 A 
ATOM     60  C   UNL A   1      38.107  31.204  30.186  1.00  0.00     0.173 A 
ATOM     61  C   UNL A   1      39.096  30.364  32.210  1.00  0.00     0.173 A 
ATOM     62  F   UNL A   1      38.168  31.482  28.875  1.00  0.00    -0.203 F 
ATOM     63  C   UNL A   1      36.955  31.542  30.894  1.00  0.00     0.198 A 
ATOM     64  C   UNL A   1      37.934  30.681  32.909  1.00  0.00     0.198 A 
ATOM     65  F   UNL A   1      40.117  29.803  32.876  1.00  0.00    -0.203 F 
ATOM     66  F   UNL A   1      35.935  32.139  30.263  1.00  0.00    -0.200 F 
ATOM     67  C   UNL A   1      36.868  31.276  32.252  1.00  0.00     0.200 A 
ATOM     68  F   UNL A   1      37.849  30.415  34.220  1.00  0.00    -0.200 F 
ATOM     69  F   UNL A   1      35.759  31.600  32.931  1.00  0.00    -0.200 F 
ENDBRANCH  45  59
BRANCH  46  70
ATOM     70  C   UNL A   1      47.336  27.756  25.795  1.00  0.00     0.064 A 
ATOM     71  C   UNL A   1      47.364  27.774  24.395  1.00  0.00     0.173 A 
ATOM     72  C   UNL A   1      48.490  27.329  26.468  1.00  0.00     0.173 A 
ATOM     73  F   UNL A   1      46.274  28.146  23.707  1.00  0.00    -0.203 F 
ATOM     74  C   UNL A   1      48.500  27.375  23.695  1.00  0.00     0.198 A 
ATOM     75  C   UNL A   1      49.634  26.955  25.767  1.00  0.00     0.198 A 
ATOM     76  F   UNL A   1      48.510  27.288  27.809  1.00  0.00    -0.203 F 
ATOM     77  F   UNL A   1      48.490  27.366  22.354  1.00  0.00    -0.200 F 
ATOM     78  C   UNL A   1      49.638  26.974  24.381  1.00  0.00     0.200 A 
ATOM     79  F   UNL A   1      50.732  26.576  26.435  1.00  0.00    -0.200 F 
ATOM     80  F   UNL A   1      50.732  26.596  23.707  1.00  0.00    -0.200 F 
ENDBRANCH  46  70
BRANCH  58  81
ATOM     81  C   UNL A   1      45.429  33.695  28.892  1.00  0.00     0.064 A 
ATOM     82  C   UNL A   1      45.224  34.725  27.964  1.00  0.00     0.173 A 
ATOM     83  C   UNL A   1      46.263  33.952  29.991  1.00  0.00     0.173 A 
ATOM     84  F   UNL A   1      44.448  34.521  26.889  1.00  0.00    -0.203 F 
ATOM     85  C   UNL A   1      45.846  35.960  28.119  1.00  0.00     0.198 A 
ATOM     86  C   UNL A   1      46.865  35.195  30.155  1.00  0.00     0.198 A 
ATOM     87  F   UNL A   1      46.486  32.999  30.908  1.00  0.00    -0.203 F 
ATOM     88  F   UNL A   1      45.669  36.920  27.199  1.00  0.00    -0.200 F 
ATOM     89  C   UNL A   1      46.662  36.197  29.217  1.00  0.00     0.200 A 
ATOM     90  F   UNL A   1      47.645  35.425  31.221  1.00  0.00    -0.200 F 
ATOM     91  F   UNL A   1      47.256  37.388  29.367  1.00  0.00    -0.200 F 
ENDBRANCH  58  81
ENDBRANCH  32  33
ENDBRANCH  25  27
ENDBRANCH  24  25
ENDBRANCH  23  24
ENDBRANCH   1  23
TORSDOF 14
ENDMDL
MODEL 3
REMARK VINA RESULT:     -12.0      0.652      7.538
REMARK SMILES Nc1ccc(-c2cc(O)ccc2Cl)c(C(=O)OCCOC(=O)c2ccc(-c3c4nc(c(-c5c(F)c(F)c(F)c(F)c5F)c5ccc([nH]5)c(-c5c(F)c(F)c(F)c(F)c5F)c5nc(c(-c6c(F)c(F)c(F)c(F)c6F)c6ccc3[nH]6)C=C5)C=C4)cc2)n1
REMARK SMILES IDX 18 1 17 2 15 3 16 4 14 5 2 6 3 7 86 8 4 9 5 10 1 11 6 14
REMARK SMILES IDX 7 15 12 16 8 17 11 18 13 19 10 20 9 21 19 23 20 24 21 25
REMARK SMILES IDX 22 26 23 27 24 28 85 29 25 30 84 31 26 32 27 33 28 34 78 35
REMARK SMILES IDX 29 36 83 37 77 38 79 39 30 40 82 41 76 42 75 43 31 45 63 46
REMARK SMILES IDX 43 47 62 48 44 49 47 50 61 51 80 52 45 53 46 54 60 56 81 57
REMARK SMILES IDX 48 58 32 59 33 60 41 61 34 62 35 63 39 64 42 65 36 66 37 67
REMARK SMILES IDX 40 68 38 69 64 70 65 71 73 72 66 73 67 74 71 75 74 76 68 77
REMARK SMILES IDX 69 78 72 79 70 80 49 81 50 82 58 83 51 84 52 85 56 86 59 87
REMARK SMILES IDX 53 88 54 89 57 90 55 91
REMARK H PARENT 1 12 1 13 9 22 79 44 47 55
REMARK Flexibility Score: inf
ROOT
ATOM      1  C   UNL A   1      36.074  20.431  24.993  1.00  0.00     0.275 C 
ENDROOT
BRANCH   1   2
ATOM      2  O   UNL A   1      35.512  21.656  25.503  1.00  0.00    -0.457 OA
BRANCH   2   3
ATOM      3  C   UNL A   1      34.729  22.371  24.652  1.00  0.00     0.357 C 
ATOM      4  O   UNL A   1      35.043  22.714  23.522  1.00  0.00    -0.244 OA
BRANCH   3   5
ATOM      5  C   UNL A   1      33.367  22.597  25.244  1.00  0.00     0.158 A 
ATOM      6  C   UNL A   1      32.019  24.217  26.233  1.00  0.00     0.124 A 
ATOM      7  C   UNL A   1      30.940  23.356  26.234  1.00  0.00     0.047 A 
ATOM      8  N   UNL A   1      33.216  23.854  25.762  1.00  0.00    -0.224 NA
ATOM      9  C   UNL A   1      31.111  22.057  25.757  1.00  0.00     0.015 A 
ATOM     10  C   UNL A   1      32.348  21.636  25.244  1.00  0.00     0.017 A 
BRANCH   6  11
ATOM     11  N   UNL A   1      31.888  25.532  26.627  1.00  0.00    -0.384 N 
ATOM     12  H   UNL A   1      31.455  26.183  26.029  1.00  0.00     0.158 HD
ATOM     13  H   UNL A   1      32.229  25.819  27.504  1.00  0.00     0.158 HD
ENDBRANCH   6  11
BRANCH  10  14
ATOM     14  C   UNL A   1      32.498  20.258  24.744  1.00  0.00     0.006 A 
ATOM     15  C   UNL A   1      32.857  19.240  25.652  1.00  0.00     0.056 A 
ATOM     16  C   UNL A   1      32.283  19.896  23.397  1.00  0.00     0.049 A 
ATOM     17  C   UNL A   1      32.969  17.920  25.226  1.00  0.00     0.116 A 
ATOM     18  C   UNL A   1      32.383  18.563  22.987  1.00  0.00     0.025 A 
ATOM     19  Cl  UNL A   1      31.908  21.071  22.183  1.00  0.00    -0.084 Cl
ATOM     20  C   UNL A   1      32.724  17.573  23.906  1.00  0.00     0.048 A 
BRANCH  17  21
ATOM     21  O   UNL A   1      33.319  16.925  26.088  1.00  0.00    -0.508 OA
ATOM     22  H   UNL A   1      34.200  16.865  26.404  1.00  0.00     0.293 HD
ENDBRANCH  17  21
ENDBRANCH  10  14
ENDBRANCH   3   5
ENDBRANCH   2   3
ENDBRANCH   1   2
BRANCH   1  23
ATOM     23  C   UNL A   1      37.601  20.511  24.921  1.00  0.00     0.275 C 
BRANCH  23  24
ATOM     24  O   UNL A   1      38.102  21.589  25.735  1.00  0.00    -0.458 OA
BRANCH  24  25
ATOM     25  C   UNL A   1      39.319  21.379  26.279  1.00  0.00     0.338 C 
ATOM     26  O   UNL A   1      39.977  20.346  26.264  1.00  0.00    -0.246 OA
BRANCH  25  27
ATOM     27  C   UNL A   1      39.840  22.648  26.802  1.00  0.00     0.060 A 
ATOM     28  C   UNL A   1      39.370  23.821  26.217  1.00  0.00     0.016 A 
ATOM     29  C   UNL A   1      40.823  22.699  27.791  1.00  0.00     0.016 A 
ATOM     30  C   UNL A   1      39.883  25.055  26.592  1.00  0.00     0.010 A 
ATOM     31  C   UNL A   1      41.336  23.944  28.180  1.00  0.00     0.010 A 
ATOM     32  C   UNL A   1      40.877  25.128  27.572  1.00  0.00    -0.014 A 
BRANCH  32  33
ATOM     33  C   UNL A   1      41.477  26.446  27.887  1.00  0.00     0.031 A 
ATOM     34  C   UNL A   1      42.879  26.748  27.447  1.00  0.00     0.074 A 
ATOM     35  C   UNL A   1      40.744  27.390  28.504  1.00  0.00     0.049 A 
ATOM     36  N   UNL A   1      43.613  27.806  27.680  1.00  0.00    -0.248 NA
ATOM     37  C   UNL A   1      43.545  25.722  26.629  1.00  0.00     0.031 C 
ATOM     38  C   UNL A   1      39.347  27.242  28.910  1.00  0.00     0.029 A 
ATOM     39  N   UNL A   1      41.070  28.668  28.883  1.00  0.00    -0.354 N 
ATOM     40  C   UNL A   1      44.836  27.559  27.073  1.00  0.00     0.074 A 
ATOM     41  C   UNL A   1      44.749  26.250  26.460  1.00  0.00     0.031 C 
ATOM     42  C   UNL A   1      38.930  28.390  29.467  1.00  0.00     0.029 A 
ATOM     43  C   UNL A   1      40.044  29.334  29.506  1.00  0.00     0.049 A 
ATOM     44  H   UNL A   1      41.955  29.069  28.723  1.00  0.00     0.167 HD
ATOM     45  C   UNL A   1      45.932  28.353  27.035  1.00  0.00     0.037 A 
ATOM     46  C   UNL A   1      40.015  30.558  30.066  1.00  0.00     0.037 A 
ATOM     47  C   UNL A   1      46.002  29.668  27.613  1.00  0.00     0.049 A 
ATOM     48  C   UNL A   1      41.261  31.400  30.054  1.00  0.00     0.074 A 
ATOM     49  C   UNL A   1      47.064  30.555  27.620  1.00  0.00     0.029 A 
ATOM     50  N   UNL A   1      44.958  30.288  28.285  1.00  0.00    -0.354 N 
ATOM     51  N   UNL A   1      42.427  31.143  29.514  1.00  0.00    -0.248 NA
ATOM     52  C   UNL A   1      41.192  32.695  30.745  1.00  0.00     0.031 C 
ATOM     53  C   UNL A   1      46.673  31.700  28.326  1.00  0.00     0.029 A 
ATOM     54  C   UNL A   1      45.356  31.540  28.725  1.00  0.00     0.049 A 
ATOM     55  H   UNL A   1      44.066  29.896  28.428  1.00  0.00     0.167 HD
ATOM     56  C   UNL A   1      43.226  32.244  29.788  1.00  0.00     0.074 A 
ATOM     57  C   UNL A   1      42.406  33.181  30.527  1.00  0.00     0.031 C 
ATOM     58  C   UNL A   1      44.524  32.457  29.460  1.00  0.00     0.037 A 
BRANCH  45  59
ATOM     59  C   UNL A   1      47.160  27.798  26.378  1.00  0.00     0.064 A 
ATOM     60  C   UNL A   1      48.172  27.164  27.111  1.00  0.00     0.173 A 
ATOM     61  C   UNL A   1      47.315  27.891  24.986  1.00  0.00     0.173 A 
ATOM     62  F   UNL A   1      48.077  27.065  28.445  1.00  0.00    -0.203 F 
ATOM     63  C   UNL A   1      49.308  26.664  26.478  1.00  0.00     0.198 A 
ATOM     64  C   UNL A   1      48.440  27.369  24.354  1.00  0.00     0.198 A 
ATOM     65  F   UNL A   1      46.373  28.487  24.239  1.00  0.00    -0.203 F 
ATOM     66  F   UNL A   1      50.283  26.099  27.202  1.00  0.00    -0.200 F 
ATOM     67  C   UNL A   1      49.438  26.762  25.100  1.00  0.00     0.200 A 
ATOM     68  F   UNL A   1      48.559  27.457  23.021  1.00  0.00    -0.200 F 
ATOM     69  F   UNL A   1      50.529  26.278  24.492  1.00  0.00    -0.200 F 
ENDBRANCH  45  59
BRANCH  46  70
ATOM     70  C   UNL A   1      38.768  31.047  30.708  1.00  0.00     0.064 A 
ATOM     71  C   UNL A   1      37.765  31.667  29.953  1.00  0.00     0.173 A 
ATOM     72  C   UNL A   1      38.556  30.900  32.087  1.00  0.00     0.173 A 
ATOM     73  F   UNL A   1      37.936  31.856  28.637  1.00  0.00    -0.203 F 
ATOM     74  C   UNL A   1      36.596  32.128  30.555  1.00  0.00     0.198 A 
ATOM     75  C   UNL A   1      37.376  31.339  32.683  1.00  0.00     0.198 A 
ATOM     76  F   UNL A   1      39.490  30.320  32.854  1.00  0.00    -0.203 F 
ATOM     77  F   UNL A   1      35.666  32.751  29.817  1.00  0.00    -0.200 F 
ATOM     78  C   UNL A   1      36.398  31.957  31.918  1.00  0.00     0.200 A 
ATOM     79  F   UNL A   1      37.186  31.165  33.998  1.00  0.00    -0.200 F 
ATOM     80  F   UNL A   1      35.271  32.396  32.494  1.00  0.00    -0.200 F 
ENDBRANCH  46  70
BRANCH  58  81
ATOM     81  C   UNL A   1      45.128  33.763  29.883  1.00  0.00     0.064 A 
ATOM     82  C   UNL A   1      45.800  33.894  31.106  1.00  0.00     0.173 A 
ATOM     83  C   UNL A   1      45.066  34.882  29.039  1.00  0.00     0.173 A 
ATOM     84  F   UNL A   1      45.871  32.856  31.953  1.00  0.00    -0.203 F 
ATOM     85  C   UNL A   1      46.374  35.107  31.478  1.00  0.00     0.198 A 
ATOM     86  C   UNL A   1      45.660  36.086  29.405  1.00  0.00     0.198 A 
ATOM     87  F   UNL A   1      44.437  34.804  27.857  1.00  0.00    -0.203 F 
ATOM     88  F   UNL A   1      46.978  35.223  32.669  1.00  0.00    -0.200 F 
ATOM     89  C   UNL A   1      46.308  36.200  30.626  1.00  0.00     0.200 A 
ATOM     90  F   UNL A   1      45.604  37.138  28.576  1.00  0.00    -0.200 F 
ATOM     91  F   UNL A   1      46.864  37.364  30.984  1.00  0.00    -0.200 F 
ENDBRANCH  58  81
ENDBRANCH  32  33
ENDBRANCH  25  27
ENDBRANCH  24  25
ENDBRANCH  23  24
ENDBRANCH   1  23
TORSDOF 14
ENDMDL
