MODEL 1
REMARK VINA RESULT:     -12.9      0.000      0.000
REMARK SMILES Cc1cc(C)c2c(c1)C=C(C(=O)OCCOC(=O)c1ccc(-c3c4nc(c(-c5c(F)c(F)c(F)c(F)c5F)c5ccc([nH]5)c(-c5c(F)c(F)c(F)c(F)c5F)c5nc(c(-c6c(F)c(F)c(F)c(F)c6F)c6ccc3[nH]6)C=C5)C=C4)cc1)[C@@H](C(F)(F)F)O2
REMARK SMILES IDX 15 1 14 2 13 3 11 4 12 5 10 6 1 7 2 8 3 9 8 10 4 11 7 12
REMARK SMILES IDX 5 13 6 14 9 15 87 16 82 17 83 18 84 19 85 20 86 21 16 22
REMARK SMILES IDX 17 23 18 24 19 25 20 26 81 27 21 28 80 29 22 30 23 31 24 32
REMARK SMILES IDX 74 33 25 34 79 35 73 36 75 37 26 38 78 39 72 40 71 41 27 43
REMARK SMILES IDX 59 44 39 45 58 46 40 47 43 48 57 49 76 50 41 51 42 52 56 54
REMARK SMILES IDX 77 55 44 56 28 57 29 58 37 59 30 60 31 61 35 62 38 63 32 64
REMARK SMILES IDX 33 65 36 66 34 67 60 68 61 69 69 70 62 71 63 72 67 73 70 74
REMARK SMILES IDX 64 75 65 76 68 77 66 78 45 79 46 80 54 81 47 82 48 83 52 84
REMARK SMILES IDX 55 85 49 86 50 87 53 88 51 89
REMARK H PARENT 75 42 43 53
REMARK Flexibility Score: inf
ROOT
ATOM      1  C   UNL A   1      31.669  30.396  25.651  1.00  0.00     0.275 C 
ENDROOT
BRANCH   1   2
ATOM      2  C   UNL A   1      31.451  28.998  25.072  1.00  0.00     0.275 C 
BRANCH   2   3
ATOM      3  O   UNL A   1      32.323  28.025  25.687  1.00  0.00    -0.459 OA
BRANCH   3   4
ATOM      4  C   UNL A   1      31.701  27.061  26.404  1.00  0.00     0.338 C 
ATOM      5  O   UNL A   1      30.835  27.228  27.249  1.00  0.00    -0.246 OA
BRANCH   4   6
ATOM      6  C   UNL A   1      32.175  25.723  26.002  1.00  0.00     0.087 C 
ATOM      7  C   UNL A   1      37.417  22.629  25.113  1.00  0.00     0.044 C 
ATOM      8  C   UNL A   1      35.931  22.833  25.113  1.00  0.00    -0.050 A 
ATOM      9  C   UNL A   1      35.067  21.903  24.524  1.00  0.00     0.010 A 
ATOM     10  C   UNL A   1      35.392  24.006  25.645  1.00  0.00     0.015 A 
ATOM     11  C   UNL A   1      33.677  22.119  24.492  1.00  0.00    -0.008 A 
ATOM     12  C   UNL A   1      34.012  24.237  25.601  1.00  0.00     0.018 A 
ATOM     13  C   UNL A   1      32.778  21.103  23.849  1.00  0.00     0.048 C 
ATOM     14  C   UNL A   1      33.150  23.295  25.043  1.00  0.00     0.130 A 
ATOM     15  C   UNL A   1      33.486  25.488  26.100  1.00  0.00     0.027 C 
ATOM     16  O   UNL A   1      31.790  23.461  25.015  1.00  0.00    -0.475 OA
ATOM     17  C   UNL A   1      31.218  24.750  25.377  1.00  0.00     0.316 C 
BRANCH  17  18
ATOM     18  C   UNL A   1      30.547  25.358  24.135  1.00  0.00     0.430 C 
ATOM     19  F   UNL A   1      30.046  24.399  23.322  1.00  0.00    -0.167 F 
ATOM     20  F   UNL A   1      29.507  26.160  24.473  1.00  0.00    -0.167 F 
ATOM     21  F   UNL A   1      31.406  26.104  23.403  1.00  0.00    -0.167 F 
ENDBRANCH  17  18
ENDBRANCH   4   6
ENDBRANCH   3   4
ENDBRANCH   2   3
ENDBRANCH   1   2
BRANCH   1  22
ATOM     22  O   UNL A   1      32.422  30.326  26.877  1.00  0.00    -0.458 OA
BRANCH  22  23
ATOM     23  C   UNL A   1      33.067  31.462  27.222  1.00  0.00     0.338 C 
ATOM     24  O   UNL A   1      32.616  32.595  27.250  1.00  0.00    -0.246 OA
BRANCH  23  25
ATOM     25  C   UNL A   1      34.439  31.160  27.659  1.00  0.00     0.060 A 
ATOM     26  C   UNL A   1      34.771  29.840  27.929  1.00  0.00     0.016 A 
ATOM     27  C   UNL A   1      35.316  32.184  28.007  1.00  0.00     0.016 A 
ATOM     28  C   UNL A   1      35.891  29.545  28.700  1.00  0.00     0.010 A 
ATOM     29  C   UNL A   1      36.524  31.868  28.642  1.00  0.00     0.010 A 
ATOM     30  C   UNL A   1      36.806  30.550  29.047  1.00  0.00    -0.014 A 
BRANCH  30  31
ATOM     31  C   UNL A   1      38.032  30.222  29.836  1.00  0.00     0.031 A 
ATOM     32  C   UNL A   1      39.114  29.353  29.244  1.00  0.00     0.074 A 
ATOM     33  C   UNL A   1      38.194  30.713  31.084  1.00  0.00     0.049 A 
ATOM     34  N   UNL A   1      40.137  28.784  29.833  1.00  0.00    -0.248 NA
ATOM     35  C   UNL A   1      39.034  29.078  27.800  1.00  0.00     0.031 C 
ATOM     36  C   UNL A   1      37.267  31.615  31.769  1.00  0.00     0.029 A 
ATOM     37  N   UNL A   1      39.205  30.532  31.998  1.00  0.00    -0.354 N 
ATOM     38  C   UNL A   1      40.780  28.039  28.851  1.00  0.00     0.074 A 
ATOM     39  C   UNL A   1      40.035  28.226  27.625  1.00  0.00     0.031 C 
ATOM     40  C   UNL A   1      37.774  31.954  32.961  1.00  0.00     0.029 A 
ATOM     41  C   UNL A   1      39.000  31.199  33.182  1.00  0.00     0.049 A 
ATOM     42  H   UNL A   1      39.999  29.978  31.821  1.00  0.00     0.167 HD
ATOM     43  C   UNL A   1      41.890  27.270  28.968  1.00  0.00     0.037 A 
ATOM     44  C   UNL A   1      39.684  31.171  34.343  1.00  0.00     0.037 A 
ATOM     45  C   UNL A   1      42.659  27.136  30.178  1.00  0.00     0.049 A 
ATOM     46  C   UNL A   1      40.880  30.271  34.461  1.00  0.00     0.074 A 
ATOM     47  C   UNL A   1      43.794  26.372  30.400  1.00  0.00     0.029 A 
ATOM     48  N   UNL A   1      42.388  27.800  31.366  1.00  0.00    -0.354 N 
ATOM     49  N   UNL A   1      41.424  29.499  33.554  1.00  0.00    -0.248 NA
ATOM     50  C   UNL A   1      41.541  30.219  35.772  1.00  0.00     0.031 C 
ATOM     51  C   UNL A   1      44.187  26.547  31.730  1.00  0.00     0.029 A 
ATOM     52  C   UNL A   1      43.331  27.460  32.323  1.00  0.00     0.049 A 
ATOM     53  H   UNL A   1      41.638  28.421  31.507  1.00  0.00     0.167 HD
ATOM     54  C   UNL A   1      42.501  28.884  34.175  1.00  0.00     0.074 A 
ATOM     55  C   UNL A   1      42.544  29.385  35.533  1.00  0.00     0.031 C 
ATOM     56  C   UNL A   1      43.371  27.980  33.666  1.00  0.00     0.037 A 
BRANCH  43  57
ATOM     57  C   UNL A   1      42.342  26.487  27.766  1.00  0.00     0.064 A 
ATOM     58  C   UNL A   1      43.331  26.967  26.897  1.00  0.00     0.173 A 
ATOM     59  C   UNL A   1      41.838  25.196  27.535  1.00  0.00     0.173 A 
ATOM     60  F   UNL A   1      43.838  28.198  27.066  1.00  0.00    -0.203 F 
ATOM     61  C   UNL A   1      43.791  26.191  25.836  1.00  0.00     0.198 A 
ATOM     62  C   UNL A   1      42.321  24.411  26.492  1.00  0.00     0.198 A 
ATOM     63  F   UNL A   1      40.896  24.684  28.342  1.00  0.00    -0.203 F 
ATOM     64  F   UNL A   1      44.718  26.681  25.001  1.00  0.00    -0.200 F 
ATOM     65  C   UNL A   1      43.295  24.910  25.641  1.00  0.00     0.200 A 
ATOM     66  F   UNL A   1      41.852  23.168  26.318  1.00  0.00    -0.200 F 
ATOM     67  F   UNL A   1      43.757  24.155  24.634  1.00  0.00    -0.200 F 
ENDBRANCH  43  57
BRANCH  44  68
ATOM     68  C   UNL A   1      39.220  31.993  35.492  1.00  0.00     0.064 A 
ATOM     69  C   UNL A   1      38.368  31.455  36.465  1.00  0.00     0.173 A 
ATOM     70  C   UNL A   1      39.642  33.322  35.659  1.00  0.00     0.173 A 
ATOM     71  F   UNL A   1      37.916  30.198  36.336  1.00  0.00    -0.203 F 
ATOM     72  C   UNL A   1      37.956  32.212  37.560  1.00  0.00     0.198 A 
ATOM     73  C   UNL A   1      39.258  34.067  36.772  1.00  0.00     0.198 A 
ATOM     74  F   UNL A   1      40.457  33.888  34.757  1.00  0.00    -0.203 F 
ATOM     75  F   UNL A   1      37.112  31.683  38.457  1.00  0.00    -0.200 F 
ATOM     76  C   UNL A   1      38.410  33.512  37.719  1.00  0.00     0.200 A 
ATOM     77  F   UNL A   1      39.716  35.316  36.931  1.00  0.00    -0.200 F 
ATOM     78  F   UNL A   1      38.029  34.233  38.782  1.00  0.00    -0.200 F 
ENDBRANCH  44  68
BRANCH  56  79
ATOM     79  C   UNL A   1      44.476  27.506  34.561  1.00  0.00     0.064 A 
ATOM     80  C   UNL A   1      45.688  28.204  34.668  1.00  0.00     0.173 A 
ATOM     81  C   UNL A   1      44.298  26.367  35.362  1.00  0.00     0.173 A 
ATOM     82  F   UNL A   1      45.911  29.289  33.911  1.00  0.00    -0.203 F 
ATOM     83  C   UNL A   1      46.689  27.768  35.530  1.00  0.00     0.198 A 
ATOM     84  C   UNL A   1      45.290  25.951  36.244  1.00  0.00     0.198 A 
ATOM     85  F   UNL A   1      43.154  25.670  35.300  1.00  0.00    -0.203 F 
ATOM     86  F   UNL A   1      47.855  28.426  35.587  1.00  0.00    -0.200 F 
ATOM     87  C   UNL A   1      46.486  26.648  36.324  1.00  0.00     0.200 A 
ATOM     88  F   UNL A   1      45.087  24.878  37.021  1.00  0.00    -0.200 F 
ATOM     89  F   UNL A   1      47.447  26.237  37.163  1.00  0.00    -0.200 F 
ENDBRANCH  56  79
ENDBRANCH  30  31
ENDBRANCH  23  25
ENDBRANCH  22  23
ENDBRANCH   1  22
TORSDOF 12
ENDMDL
MODEL 2
REMARK VINA RESULT:     -12.8      0.175      1.223
REMARK SMILES Cc1cc(C)c2c(c1)C=C(C(=O)OCCOC(=O)c1ccc(-c3c4nc(c(-c5c(F)c(F)c(F)c(F)c5F)c5ccc([nH]5)c(-c5c(F)c(F)c(F)c(F)c5F)c5nc(c(-c6c(F)c(F)c(F)c(F)c6F)c6ccc3[nH]6)C=C5)C=C4)cc1)[C@@H](C(F)(F)F)O2
REMARK SMILES IDX 15 1 14 2 13 3 11 4 12 5 10 6 1 7 2 8 3 9 8 10 4 11 7 12
REMARK SMILES IDX 5 13 6 14 9 15 87 16 82 17 83 18 84 19 85 20 86 21 16 22
REMARK SMILES IDX 17 23 18 24 19 25 20 26 81 27 21 28 80 29 22 30 23 31 24 32
REMARK SMILES IDX 74 33 25 34 79 35 73 36 75 37 26 38 78 39 72 40 71 41 27 43
REMARK SMILES IDX 59 44 39 45 58 46 40 47 43 48 57 49 76 50 41 51 42 52 56 54
REMARK SMILES IDX 77 55 44 56 28 57 29 58 37 59 30 60 31 61 35 62 38 63 32 64
REMARK SMILES IDX 33 65 36 66 34 67 60 68 61 69 69 70 62 71 63 72 67 73 70 74
REMARK SMILES IDX 64 75 65 76 68 77 66 78 45 79 46 80 54 81 47 82 48 83 52 84
REMARK SMILES IDX 55 85 49 86 50 87 53 88 51 89
REMARK H PARENT 75 42 43 53
REMARK Flexibility Score: inf
ROOT
ATOM      1  C   UNL A   1      31.595  30.490  25.809  1.00  0.00     0.275 C 
ENDROOT
BRANCH   1   2
ATOM      2  C   UNL A   1      31.687  29.164  25.052  1.00  0.00     0.275 C 
BRANCH   2   3
ATOM      3  O   UNL A   1      32.517  28.210  25.750  1.00  0.00    -0.459 OA
BRANCH   3   4
ATOM      4  C   UNL A   1      31.850  27.258  26.442  1.00  0.00     0.338 C 
ATOM      5  O   UNL A   1      31.001  27.445  27.300  1.00  0.00    -0.246 OA
BRANCH   4   6
ATOM      6  C   UNL A   1      32.246  25.911  25.992  1.00  0.00     0.087 C 
ATOM      7  C   UNL A   1      37.297  22.661  24.660  1.00  0.00     0.044 C 
ATOM      8  C   UNL A   1      35.823  22.913  24.781  1.00  0.00    -0.050 A 
ATOM      9  C   UNL A   1      34.885  22.017  24.255  1.00  0.00     0.010 A 
ATOM     10  C   UNL A   1      35.366  24.095  25.363  1.00  0.00     0.015 A 
ATOM     11  C   UNL A   1      33.504  22.277  24.335  1.00  0.00    -0.008 A 
ATOM     12  C   UNL A   1      33.996  24.371  25.432  1.00  0.00     0.018 A 
ATOM     13  C   UNL A   1      32.524  21.297  23.758  1.00  0.00     0.048 C 
ATOM     14  C   UNL A   1      33.062  23.464  24.936  1.00  0.00     0.130 A 
ATOM     15  C   UNL A   1      33.553  25.633  25.982  1.00  0.00     0.027 C 
ATOM     16  O   UNL A   1      31.710  23.673  25.019  1.00  0.00    -0.475 OA
ATOM     17  C   UNL A   1      31.211  24.976  25.437  1.00  0.00     0.316 C 
BRANCH  17  18
ATOM     18  C   UNL A   1      30.463  25.619  24.258  1.00  0.00     0.430 C 
ATOM     19  F   UNL A   1      29.471  26.435  24.685  1.00  0.00    -0.167 F 
ATOM     20  F   UNL A   1      31.290  26.379  23.499  1.00  0.00    -0.167 F 
ATOM     21  F   UNL A   1      29.905  24.695  23.442  1.00  0.00    -0.167 F 
ENDBRANCH  17  18
ENDBRANCH   4   6
ENDBRANCH   3   4
ENDBRANCH   2   3
ENDBRANCH   1   2
BRANCH   1  22
ATOM     22  O   UNL A   1      32.409  30.454  26.996  1.00  0.00    -0.458 OA
BRANCH  22  23
ATOM     23  C   UNL A   1      33.103  31.586  27.253  1.00  0.00     0.338 C 
ATOM     24  O   UNL A   1      32.694  32.734  27.214  1.00  0.00    -0.246 OA
BRANCH  23  25
ATOM     25  C   UNL A   1      34.472  31.263  27.682  1.00  0.00     0.060 A 
ATOM     26  C   UNL A   1      34.779  29.940  27.971  1.00  0.00     0.016 A 
ATOM     27  C   UNL A   1      35.373  32.273  28.005  1.00  0.00     0.016 A 
ATOM     28  C   UNL A   1      35.899  29.634  28.736  1.00  0.00     0.010 A 
ATOM     29  C   UNL A   1      36.581  31.942  28.634  1.00  0.00     0.010 A 
ATOM     30  C   UNL A   1      36.838  30.625  29.059  1.00  0.00    -0.014 A 
BRANCH  30  31
ATOM     31  C   UNL A   1      38.065  30.285  29.841  1.00  0.00     0.031 A 
ATOM     32  C   UNL A   1      39.134  29.403  29.244  1.00  0.00     0.074 A 
ATOM     33  C   UNL A   1      38.239  30.775  31.087  1.00  0.00     0.049 A 
ATOM     34  N   UNL A   1      40.153  28.823  29.830  1.00  0.00    -0.248 NA
ATOM     35  C   UNL A   1      39.044  29.127  27.801  1.00  0.00     0.031 C 
ATOM     36  C   UNL A   1      37.325  31.688  31.777  1.00  0.00     0.029 A 
ATOM     37  N   UNL A   1      39.252  30.583  31.997  1.00  0.00    -0.354 N 
ATOM     38  C   UNL A   1      40.783  28.070  28.845  1.00  0.00     0.074 A 
ATOM     39  C   UNL A   1      40.034  28.264  27.623  1.00  0.00     0.031 C 
ATOM     40  C   UNL A   1      37.842  32.023  32.965  1.00  0.00     0.029 A 
ATOM     41  C   UNL A   1      39.061  31.255  33.181  1.00  0.00     0.049 A 
ATOM     42  H   UNL A   1      40.039  30.020  31.817  1.00  0.00     0.167 HD
ATOM     43  C   UNL A   1      41.885  27.289  28.957  1.00  0.00     0.037 A 
ATOM     44  C   UNL A   1      39.750  31.220  34.339  1.00  0.00     0.037 A 
ATOM     45  C   UNL A   1      42.659  27.147  30.164  1.00  0.00     0.049 A 
ATOM     46  C   UNL A   1      40.937  30.307  34.452  1.00  0.00     0.074 A 
ATOM     47  C   UNL A   1      43.786  26.371  30.380  1.00  0.00     0.029 A 
ATOM     48  N   UNL A   1      42.402  27.816  31.351  1.00  0.00    -0.354 N 
ATOM     49  N   UNL A   1      41.467  29.528  33.543  1.00  0.00    -0.248 NA
ATOM     50  C   UNL A   1      41.604  30.249  35.759  1.00  0.00     0.031 C 
ATOM     51  C   UNL A   1      44.188  26.543  31.708  1.00  0.00     0.029 A 
ATOM     52  C   UNL A   1      43.345  27.466  32.304  1.00  0.00     0.049 A 
ATOM     53  H   UNL A   1      41.659  28.445  31.496  1.00  0.00     0.167 HD
ATOM     54  C   UNL A   1      42.541  28.901  34.159  1.00  0.00     0.074 A 
ATOM     55  C   UNL A   1      42.596  29.403  35.516  1.00  0.00     0.031 C 
ATOM     56  C   UNL A   1      43.398  27.987  33.646  1.00  0.00     0.037 A 
BRANCH  43  57
ATOM     57  C   UNL A   1      42.322  26.500  27.754  1.00  0.00     0.064 A 
ATOM     58  C   UNL A   1      43.322  26.961  26.887  1.00  0.00     0.173 A 
ATOM     59  C   UNL A   1      41.791  25.220  27.519  1.00  0.00     0.173 A 
ATOM     60  F   UNL A   1      43.855  28.181  27.060  1.00  0.00    -0.203 F 
ATOM     61  C   UNL A   1      43.767  26.178  25.825  1.00  0.00     0.198 A 
ATOM     62  C   UNL A   1      42.260  24.428  26.475  1.00  0.00     0.198 A 
ATOM     63  F   UNL A   1      40.839  24.726  28.323  1.00  0.00    -0.203 F 
ATOM     64  F   UNL A   1      44.705  26.650  24.992  1.00  0.00    -0.200 F 
ATOM     65  C   UNL A   1      43.245  24.908  25.626  1.00  0.00     0.200 A 
ATOM     66  F   UNL A   1      41.765  23.195  26.296  1.00  0.00    -0.200 F 
ATOM     67  F   UNL A   1      43.692  24.146  24.617  1.00  0.00    -0.200 F 
ENDBRANCH  43  57
BRANCH  44  68
ATOM     68  C   UNL A   1      39.302  32.049  35.489  1.00  0.00     0.064 A 
ATOM     69  C   UNL A   1      38.440  31.524  36.461  1.00  0.00     0.173 A 
ATOM     70  C   UNL A   1      39.747  33.370  35.659  1.00  0.00     0.173 A 
ATOM     71  F   UNL A   1      37.965  30.277  36.330  1.00  0.00    -0.203 F 
ATOM     72  C   UNL A   1      38.041  32.287  37.557  1.00  0.00     0.198 A 
ATOM     73  C   UNL A   1      39.377  34.119  36.773  1.00  0.00     0.198 A 
ATOM     74  F   UNL A   1      40.573  33.922  34.757  1.00  0.00    -0.203 F 
ATOM     75  F   UNL A   1      37.188  31.772  38.454  1.00  0.00    -0.200 F 
ATOM     76  C   UNL A   1      38.520  33.579  37.719  1.00  0.00     0.200 A 
ATOM     77  F   UNL A   1      39.858  35.359  36.934  1.00  0.00    -0.200 F 
ATOM     78  F   UNL A   1      38.152  34.304  38.783  1.00  0.00    -0.200 F 
ENDBRANCH  44  68
BRANCH  56  79
ATOM     79  C   UNL A   1      44.502  27.502  34.536  1.00  0.00     0.064 A 
ATOM     80  C   UNL A   1      44.365  26.343  35.314  1.00  0.00     0.173 A 
ATOM     81  C   UNL A   1      45.732  28.176  34.569  1.00  0.00     0.173 A 
ATOM     82  F   UNL A   1      43.203  25.672  35.329  1.00  0.00    -0.203 F 
ATOM     83  C   UNL A   1      45.414  25.888  36.108  1.00  0.00     0.198 A 
ATOM     84  C   UNL A   1      46.788  27.702  35.341  1.00  0.00     0.198 A 
ATOM     85  F   UNL A   1      45.914  29.285  33.837  1.00  0.00    -0.203 F 
ATOM     86  F   UNL A   1      45.248  24.802  36.876  1.00  0.00    -0.200 F 
ATOM     87  C   UNL A   1      46.626  26.563  36.114  1.00  0.00     0.200 A 
ATOM     88  F   UNL A   1      47.963  28.347  35.335  1.00  0.00    -0.200 F 
ATOM     89  F   UNL A   1      47.639  26.116  36.870  1.00  0.00    -0.200 F 
ENDBRANCH  56  79
ENDBRANCH  30  31
ENDBRANCH  23  25
ENDBRANCH  22  23
ENDBRANCH   1  22
TORSDOF 12
ENDMDL
MODEL 3
REMARK VINA RESULT:     -12.7      4.236      9.692
REMARK SMILES Cc1cc(C)c2c(c1)C=C(C(=O)OCCOC(=O)c1ccc(-c3c4nc(c(-c5c(F)c(F)c(F)c(F)c5F)c5ccc([nH]5)c(-c5c(F)c(F)c(F)c(F)c5F)c5nc(c(-c6c(F)c(F)c(F)c(F)c6F)c6ccc3[nH]6)C=C5)C=C4)cc1)[C@@H](C(F)(F)F)O2
REMARK SMILES IDX 15 1 14 2 13 3 11 4 12 5 10 6 1 7 2 8 3 9 8 10 4 11 7 12
REMARK SMILES IDX 5 13 6 14 9 15 87 16 82 17 83 18 84 19 85 20 86 21 16 22
REMARK SMILES IDX 17 23 18 24 19 25 20 26 81 27 21 28 80 29 22 30 23 31 24 32
REMARK SMILES IDX 74 33 25 34 79 35 73 36 75 37 26 38 78 39 72 40 71 41 27 43
REMARK SMILES IDX 59 44 39 45 58 46 40 47 43 48 57 49 76 50 41 51 42 52 56 54
REMARK SMILES IDX 77 55 44 56 28 57 29 58 37 59 30 60 31 61 35 62 38 63 32 64
REMARK SMILES IDX 33 65 36 66 34 67 60 68 61 69 69 70 62 71 63 72 67 73 70 74
REMARK SMILES IDX 64 75 65 76 68 77 66 78 45 79 46 80 54 81 47 82 48 83 52 84
REMARK SMILES IDX 55 85 49 86 50 87 53 88 51 89
REMARK H PARENT 75 42 43 53
REMARK Flexibility Score: inf
ROOT
ATOM      1  C   UNL A   1      36.673  20.573  25.002  1.00  0.00     0.275 C 
ENDROOT
BRANCH   1   2
ATOM      2  C   UNL A   1      35.292  21.227  24.946  1.00  0.00     0.275 C 
BRANCH   2   3
ATOM      3  O   UNL A   1      35.385  22.668  24.930  1.00  0.00    -0.459 OA
BRANCH   3   4
ATOM      4  C   UNL A   1      35.180  23.249  23.726  1.00  0.00     0.338 C 
ATOM      5  O   UNL A   1      35.708  22.936  22.670  1.00  0.00    -0.246 OA
BRANCH   4   6
ATOM      6  C   UNL A   1      34.172  24.321  23.827  1.00  0.00     0.087 C 
ATOM      7  C   UNL A   1      32.829  29.246  27.260  1.00  0.00     0.044 C 
ATOM      8  C   UNL A   1      32.610  28.229  26.178  1.00  0.00    -0.050 A 
ATOM      9  C   UNL A   1      31.397  28.155  25.483  1.00  0.00     0.010 A 
ATOM     10  C   UNL A   1      33.601  27.288  25.900  1.00  0.00     0.015 A 
ATOM     11  C   UNL A   1      31.182  27.173  24.497  1.00  0.00    -0.008 A 
ATOM     12  C   UNL A   1      33.389  26.297  24.935  1.00  0.00     0.018 A 
ATOM     13  C   UNL A   1      29.869  27.118  23.772  1.00  0.00     0.048 C 
ATOM     14  C   UNL A   1      32.194  26.243  24.220  1.00  0.00     0.130 A 
ATOM     15  C   UNL A   1      34.407  25.294  24.711  1.00  0.00     0.027 C 
ATOM     16  O   UNL A   1      31.959  25.318  23.237  1.00  0.00    -0.475 OA
ATOM     17  C   UNL A   1      32.885  24.207  23.063  1.00  0.00     0.316 C 
BRANCH  17  18
ATOM     18  C   UNL A   1      32.155  22.898  23.404  1.00  0.00     0.430 C 
ATOM     19  F   UNL A   1      32.674  21.849  22.724  1.00  0.00    -0.167 F 
ATOM     20  F   UNL A   1      32.263  22.597  24.721  1.00  0.00    -0.167 F 
ATOM     21  F   UNL A   1      30.835  22.958  23.113  1.00  0.00    -0.167 F 
ENDBRANCH  17  18
ENDBRANCH   4   6
ENDBRANCH   3   4
ENDBRANCH   2   3
ENDBRANCH   1   2
BRANCH   1  22
ATOM     22  O   UNL A   1      37.706  21.575  25.070  1.00  0.00    -0.458 OA
BRANCH  22  23
ATOM     23  C   UNL A   1      38.785  21.240  25.812  1.00  0.00     0.338 C 
ATOM     24  O   UNL A   1      39.321  20.148  25.894  1.00  0.00    -0.246 OA
BRANCH  23  25
ATOM     25  C   UNL A   1      39.322  22.424  26.499  1.00  0.00     0.060 A 
ATOM     26  C   UNL A   1      38.808  23.671  26.169  1.00  0.00     0.016 A 
ATOM     27  C   UNL A   1      40.463  22.330  27.291  1.00  0.00     0.016 A 
ATOM     28  C   UNL A   1      39.520  24.825  26.477  1.00  0.00     0.010 A 
ATOM     29  C   UNL A   1      41.089  23.502  27.738  1.00  0.00     0.010 A 
ATOM     30  C   UNL A   1      40.660  24.766  27.292  1.00  0.00    -0.014 A 
BRANCH  30  31
ATOM     31  C   UNL A   1      41.397  26.013  27.660  1.00  0.00     0.031 A 
ATOM     32  C   UNL A   1      40.739  27.068  28.515  1.00  0.00     0.074 A 
ATOM     33  C   UNL A   1      42.668  26.204  27.245  1.00  0.00     0.049 A 
ATOM     34  N   UNL A   1      41.123  28.297  28.759  1.00  0.00    -0.248 NA
ATOM     35  C   UNL A   1      39.476  26.700  29.175  1.00  0.00     0.031 C 
ATOM     36  C   UNL A   1      43.459  25.251  26.465  1.00  0.00     0.029 A 
ATOM     37  N   UNL A   1      43.525  27.263  27.429  1.00  0.00    -0.354 N 
ATOM     38  C   UNL A   1      40.125  28.862  29.545  1.00  0.00     0.074 A 
ATOM     39  C   UNL A   1      39.115  27.845  29.739  1.00  0.00     0.031 C 
ATOM     40  C   UNL A   1      44.695  25.736  26.290  1.00  0.00     0.029 A 
ATOM     41  C   UNL A   1      44.752  27.086  26.833  1.00  0.00     0.049 A 
ATOM     42  H   UNL A   1      43.285  28.070  27.939  1.00  0.00     0.167 HD
ATOM     43  C   UNL A   1      40.062  30.116  30.054  1.00  0.00     0.037 A 
ATOM     44  C   UNL A   1      45.792  27.929  26.684  1.00  0.00     0.037 A 
ATOM     45  C   UNL A   1      41.100  31.105  29.906  1.00  0.00     0.049 A 
ATOM     46  C   UNL A   1      45.676  29.329  27.212  1.00  0.00     0.074 A 
ATOM     47  C   UNL A   1      41.126  32.408  30.376  1.00  0.00     0.029 A 
ATOM     48  N   UNL A   1      42.308  30.892  29.257  1.00  0.00    -0.354 N 
ATOM     49  N   UNL A   1      44.689  29.882  27.872  1.00  0.00    -0.248 NA
ATOM     50  C   UNL A   1      46.807  30.230  26.954  1.00  0.00     0.031 C 
ATOM     51  C   UNL A   1      42.332  32.993  29.981  1.00  0.00     0.029 A 
ATOM     52  C   UNL A   1      43.082  32.040  29.312  1.00  0.00     0.049 A 
ATOM     53  H   UNL A   1      42.575  30.051  28.823  1.00  0.00     0.167 HD
ATOM     54  C   UNL A   1      45.085  31.188  28.124  1.00  0.00     0.074 A 
ATOM     55  C   UNL A   1      46.410  31.340  27.561  1.00  0.00     0.031 C 
ATOM     56  C   UNL A   1      44.406  32.172  28.761  1.00  0.00     0.037 A 
BRANCH  43  57
ATOM     57  C   UNL A   1      38.824  30.517  30.807  1.00  0.00     0.064 A 
ATOM     58  C   UNL A   1      38.751  30.449  32.205  1.00  0.00     0.173 A 
ATOM     59  C   UNL A   1      37.726  31.060  30.120  1.00  0.00     0.173 A 
ATOM     60  F   UNL A   1      39.768  29.928  32.909  1.00  0.00    -0.203 F 
ATOM     61  C   UNL A   1      37.623  30.901  32.887  1.00  0.00     0.198 A 
ATOM     62  C   UNL A   1      36.613  31.538  30.806  1.00  0.00     0.198 A 
ATOM     63  F   UNL A   1      37.746  31.157  28.782  1.00  0.00    -0.203 F 
ATOM     64  F   UNL A   1      37.564  30.802  34.222  1.00  0.00    -0.200 F 
ATOM     65  C   UNL A   1      36.560  31.455  32.189  1.00  0.00     0.200 A 
ATOM     66  F   UNL A   1      35.595  32.089  30.129  1.00  0.00    -0.200 F 
ATOM     67  F   UNL A   1      35.485  31.911  32.848  1.00  0.00    -0.200 F 
ENDBRANCH  43  57
BRANCH  44  68
ATOM     68  C   UNL A   1      47.013  27.475  25.965  1.00  0.00     0.064 A 
ATOM     69  C   UNL A   1      47.135  27.640  24.580  1.00  0.00     0.173 A 
ATOM     70  C   UNL A   1      48.093  26.894  26.650  1.00  0.00     0.173 A 
ATOM     71  F   UNL A   1      46.120  28.164  23.876  1.00  0.00    -0.203 F 
ATOM     72  C   UNL A   1      48.289  27.243  23.906  1.00  0.00     0.198 A 
ATOM     73  C   UNL A   1      49.259  26.531  25.982  1.00  0.00     0.198 A 
ATOM     74  F   UNL A   1      48.028  26.712  27.977  1.00  0.00    -0.203 F 
ATOM     75  F   UNL A   1      48.366  27.381  22.575  1.00  0.00    -0.200 F 
ATOM     76  C   UNL A   1      49.355  26.701  24.609  1.00  0.00     0.200 A 
ATOM     77  F   UNL A   1      50.293  26.026  26.668  1.00  0.00    -0.200 F 
ATOM     78  F   UNL A   1      50.471  26.338  23.964  1.00  0.00    -0.200 F 
ENDBRANCH  44  68
BRANCH  56  79
ATOM     79  C   UNL A   1      45.099  33.491  28.927  1.00  0.00     0.064 A 
ATOM     80  C   UNL A   1      45.943  33.746  30.018  1.00  0.00     0.173 A 
ATOM     81  C   UNL A   1      44.959  34.492  27.954  1.00  0.00     0.173 A 
ATOM     82  F   UNL A   1      46.097  32.827  30.983  1.00  0.00    -0.203 F 
ATOM     83  C   UNL A   1      46.606  34.964  30.138  1.00  0.00     0.198 A 
ATOM     84  C   UNL A   1      45.646  35.697  28.062  1.00  0.00     0.198 A 
ATOM     85  F   UNL A   1      44.169  34.292  26.889  1.00  0.00    -0.203 F 
ATOM     86  F   UNL A   1      47.375  35.204  31.210  1.00  0.00    -0.200 F 
ATOM     87  C   UNL A   1      46.463  35.934  29.156  1.00  0.00     0.200 A 
ATOM     88  F   UNL A   1      45.518  36.627  27.106  1.00  0.00    -0.200 F 
ATOM     89  F   UNL A   1      47.112  37.102  29.268  1.00  0.00    -0.200 F 
ENDBRANCH  56  79
ENDBRANCH  30  31
ENDBRANCH  23  25
ENDBRANCH  22  23
ENDBRANCH   1  22
TORSDOF 12
ENDMDL
