MODEL 1
REMARK VINA RESULT:     -11.2      0.000      0.000
REMARK SMILES CC1(C)S[C@@H](c2ccsc2)[NH2+][C@@H]1C(=O)OCCOC(=O)c1ccc(-c2c3nc(c(-c4c(F)c(F)c(F)c(F)c4F)c4ccc([nH]4)c(-c4c(F)c(F)c(F)c(F)c4F)c4nc(c(-c5c(F)c(F)c(F)c(F)c5F)c5ccc2[nH]5)C=C4)C=C3)cc1
REMARK SMILES IDX 17 1 16 2 15 3 13 4 14 5 12 6 1 7 2 8 3 9 4 10 5 11 11 12
REMARK SMILES IDX 6 15 7 16 10 17 8 18 9 19 18 20 19 21 20 22 21 23 22 24
REMARK SMILES IDX 83 25 23 26 82 27 24 28 25 29 26 30 76 31 27 32 81 33 75 34
REMARK SMILES IDX 77 35 28 36 80 37 74 38 73 39 29 41 61 42 41 43 60 44 42 45
REMARK SMILES IDX 45 46 59 47 78 48 43 49 44 50 58 52 79 53 46 54 30 55 31 56
REMARK SMILES IDX 39 57 32 58 33 59 37 60 40 61 34 62 35 63 38 64 36 65 62 66
REMARK SMILES IDX 63 67 71 68 64 69 65 70 69 71 72 72 66 73 67 74 70 75 68 76
REMARK SMILES IDX 47 77 48 78 56 79 49 80 50 81 54 82 57 83 51 84 52 85 55 86
REMARK SMILES IDX 53 87
REMARK H PARENT 11 13 11 14 77 40 45 51
REMARK Flexibility Score: inf
ROOT
ATOM      1  C   UNL A   1      31.864  30.062  25.533  1.00  0.00     0.275 C 
ENDROOT
BRANCH   1   2
ATOM      2  C   UNL A   1      31.454  28.620  25.210  1.00  0.00     0.274 C 
BRANCH   2   3
ATOM      3  O   UNL A   1      31.436  27.795  26.390  1.00  0.00    -0.458 OA
BRANCH   3   4
ATOM      4  C   UNL A   1      31.695  26.465  26.199  1.00  0.00     0.366 C 
ATOM      5  O   UNL A   1      31.277  25.584  26.936  1.00  0.00    -0.245 OA
BRANCH   4   6
ATOM      6  C   UNL A   1      32.498  26.245  24.892  1.00  0.00     0.310 C 
ATOM      7  C   UNL A   1      32.538  25.528  22.457  1.00  0.00     0.030 C 
ATOM      8  C   UNL A   1      31.919  25.251  23.846  1.00  0.00     0.079 C 
ATOM      9  C   UNL A   1      30.406  25.147  23.648  1.00  0.00     0.030 C 
ATOM     10  S   UNL A   1      32.515  23.641  24.449  1.00  0.00    -0.081 SA
ATOM     11  C   UNL A   1      33.845  24.358  25.445  1.00  0.00     0.275 C 
ATOM     12  N   UNL A   1      33.895  25.803  25.207  1.00  0.00    -0.319 N 
ATOM     13  H   UNL A   1      34.512  26.008  24.421  1.00  0.00     0.348 HD
ATOM     14  H   UNL A   1      34.256  26.293  26.026  1.00  0.00     0.348 HD
BRANCH  11  15
ATOM     15  C   UNL A   1      35.163  23.721  25.092  1.00  0.00     0.031 A 
ATOM     16  C   UNL A   1      35.571  23.272  23.782  1.00  0.00     0.022 A 
ATOM     17  C   UNL A   1      36.150  23.423  26.017  1.00  0.00     0.075 A 
ATOM     18  C   UNL A   1      36.790  22.632  23.784  1.00  0.00     0.065 A 
ATOM     19  S   UNL A   1      37.487  22.600  25.340  1.00  0.00    -0.152 S 
ENDBRANCH  11  15
ENDBRANCH   4   6
ENDBRANCH   3   4
ENDBRANCH   2   3
ENDBRANCH   1   2
BRANCH   1  20
ATOM     20  O   UNL A   1      33.204  30.142  26.059  1.00  0.00    -0.458 OA
BRANCH  20  21
ATOM     21  C   UNL A   1      33.422  31.177  26.906  1.00  0.00     0.338 C 
ATOM     22  O   UNL A   1      32.658  32.091  27.162  1.00  0.00    -0.246 OA
BRANCH  21  23
ATOM     23  C   UNL A   1      34.673  30.965  27.663  1.00  0.00     0.060 A 
ATOM     24  C   UNL A   1      34.880  29.687  28.189  1.00  0.00     0.016 A 
ATOM     25  C   UNL A   1      35.612  31.973  27.890  1.00  0.00     0.016 A 
ATOM     26  C   UNL A   1      36.049  29.389  28.883  1.00  0.00     0.010 A 
ATOM     27  C   UNL A   1      36.776  31.682  28.617  1.00  0.00     0.010 A 
ATOM     28  C   UNL A   1      37.008  30.381  29.098  1.00  0.00    -0.014 A 
BRANCH  28  29
ATOM     29  C   UNL A   1      38.194  30.046  29.918  1.00  0.00     0.031 A 
ATOM     30  C   UNL A   1      39.233  29.129  29.349  1.00  0.00     0.074 A 
ATOM     31  C   UNL A   1      38.392  30.633  31.113  1.00  0.00     0.049 A 
ATOM     32  N   UNL A   1      40.333  28.679  29.895  1.00  0.00    -0.248 NA
ATOM     33  C   UNL A   1      39.011  28.674  27.968  1.00  0.00     0.031 C 
ATOM     34  C   UNL A   1      37.517  31.635  31.718  1.00  0.00     0.029 A 
ATOM     35  N   UNL A   1      39.403  30.470  32.029  1.00  0.00    -0.354 N 
ATOM     36  C   UNL A   1      40.932  27.885  28.929  1.00  0.00     0.074 A 
ATOM     37  C   UNL A   1      40.072  27.908  27.765  1.00  0.00     0.031 C 
ATOM     38  C   UNL A   1      38.020  31.986  32.915  1.00  0.00     0.029 A 
ATOM     39  C   UNL A   1      39.224  31.200  33.179  1.00  0.00     0.049 A 
ATOM     40  H   UNL A   1      40.181  29.887  31.876  1.00  0.00     0.167 HD
ATOM     41  C   UNL A   1      42.093  27.193  29.010  1.00  0.00     0.037 A 
ATOM     42  C   UNL A   1      39.933  31.200  34.326  1.00  0.00     0.037 A 
ATOM     43  C   UNL A   1      42.934  27.155  30.177  1.00  0.00     0.049 A 
ATOM     44  C   UNL A   1      41.148  30.310  34.440  1.00  0.00     0.074 A 
ATOM     45  C   UNL A   1      44.113  26.457  30.369  1.00  0.00     0.029 A 
ATOM     46  N   UNL A   1      42.677  27.838  31.358  1.00  0.00    -0.354 N 
ATOM     47  N   UNL A   1      41.700  29.538  33.535  1.00  0.00    -0.248 NA
ATOM     48  C   UNL A   1      41.835  30.288  35.740  1.00  0.00     0.031 C 
ATOM     49  C   UNL A   1      44.536  26.666  31.686  1.00  0.00     0.029 A 
ATOM     50  C   UNL A   1      43.659  27.550  32.293  1.00  0.00     0.049 A 
ATOM     51  H   UNL A   1      41.910  28.436  31.509  1.00  0.00     0.167 HD
ATOM     52  C   UNL A   1      42.811  28.967  34.143  1.00  0.00     0.074 A 
ATOM     53  C   UNL A   1      42.864  29.490  35.492  1.00  0.00     0.031 C 
ATOM     54  C   UNL A   1      43.708  28.089  33.630  1.00  0.00     0.037 A 
BRANCH  41  55
ATOM     55  C   UNL A   1      42.481  26.364  27.822  1.00  0.00     0.064 A 
ATOM     56  C   UNL A   1      41.966  25.076  27.615  1.00  0.00     0.173 A 
ATOM     57  C   UNL A   1      43.380  26.874  26.872  1.00  0.00     0.173 A 
ATOM     58  F   UNL A   1      41.121  24.535  28.504  1.00  0.00    -0.203 F 
ATOM     59  C   UNL A   1      42.358  24.319  26.513  1.00  0.00     0.198 A 
ATOM     60  C   UNL A   1      43.745  26.127  25.757  1.00  0.00     0.198 A 
ATOM     61  F   UNL A   1      43.902  28.100  27.025  1.00  0.00    -0.203 F 
ATOM     62  F   UNL A   1      41.896  23.070  26.363  1.00  0.00    -0.200 F 
ATOM     63  C   UNL A   1      43.241  24.847  25.583  1.00  0.00     0.200 A 
ATOM     64  F   UNL A   1      44.590  26.643  24.855  1.00  0.00    -0.200 F 
ATOM     65  F   UNL A   1      43.616  24.118  24.523  1.00  0.00    -0.200 F 
ENDBRANCH  41  55
BRANCH  42  66
ATOM     66  C   UNL A   1      39.491  32.023  35.485  1.00  0.00     0.064 A 
ATOM     67  C   UNL A   1      38.579  31.526  36.427  1.00  0.00     0.173 A 
ATOM     68  C   UNL A   1      39.929  33.347  35.642  1.00  0.00     0.173 A 
ATOM     69  F   UNL A   1      38.102  30.279  36.305  1.00  0.00    -0.203 F 
ATOM     70  C   UNL A   1      38.104  32.329  37.464  1.00  0.00     0.198 A 
ATOM     71  C   UNL A   1      39.480  34.137  36.697  1.00  0.00     0.198 A 
ATOM     72  F   UNL A   1      40.791  33.878  34.762  1.00  0.00    -0.203 F 
ATOM     73  F   UNL A   1      37.185  31.850  38.313  1.00  0.00    -0.200 F 
ATOM     74  C   UNL A   1      38.560  33.632  37.602  1.00  0.00     0.200 A 
ATOM     75  F   UNL A   1      39.929  35.392  36.829  1.00  0.00    -0.200 F 
ATOM     76  F   UNL A   1      38.100  34.405  38.595  1.00  0.00    -0.200 F 
ENDBRANCH  42  66
BRANCH  54  77
ATOM     77  C   UNL A   1      44.855  27.669  34.507  1.00  0.00     0.064 A 
ATOM     78  C   UNL A   1      46.046  28.405  34.575  1.00  0.00     0.173 A 
ATOM     79  C   UNL A   1      44.734  26.541  35.335  1.00  0.00     0.173 A 
ATOM     80  F   UNL A   1      46.220  29.482  33.795  1.00  0.00    -0.203 F 
ATOM     81  C   UNL A   1      47.083  28.015  35.421  1.00  0.00     0.198 A 
ATOM     82  C   UNL A   1      45.757  26.175  36.205  1.00  0.00     0.198 A 
ATOM     83  F   UNL A   1      43.612  25.806  35.317  1.00  0.00    -0.203 F 
ATOM     84  F   UNL A   1      48.230  28.707  35.435  1.00  0.00    -0.200 F 
ATOM     85  C   UNL A   1      46.932  26.907  36.242  1.00  0.00     0.200 A 
ATOM     86  F   UNL A   1      45.603  25.115  37.011  1.00  0.00    -0.200 F 
ATOM     87  F   UNL A   1      47.925  26.543  37.066  1.00  0.00    -0.200 F 
ENDBRANCH  54  77
ENDBRANCH  28  29
ENDBRANCH  21  23
ENDBRANCH  20  21
ENDBRANCH   1  20
TORSDOF 12
ENDMDL
MODEL 2
REMARK VINA RESULT:     -11.1      0.291      2.040
REMARK SMILES CC1(C)S[C@@H](c2ccsc2)[NH2+][C@@H]1C(=O)OCCOC(=O)c1ccc(-c2c3nc(c(-c4c(F)c(F)c(F)c(F)c4F)c4ccc([nH]4)c(-c4c(F)c(F)c(F)c(F)c4F)c4nc(c(-c5c(F)c(F)c(F)c(F)c5F)c5ccc2[nH]5)C=C4)C=C3)cc1
REMARK SMILES IDX 17 1 16 2 15 3 13 4 14 5 12 6 1 7 2 8 3 9 4 10 5 11 11 12
REMARK SMILES IDX 6 15 7 16 10 17 8 18 9 19 18 20 19 21 20 22 21 23 22 24
REMARK SMILES IDX 83 25 23 26 82 27 24 28 25 29 26 30 76 31 27 32 81 33 75 34
REMARK SMILES IDX 77 35 28 36 80 37 74 38 73 39 29 41 61 42 41 43 60 44 42 45
REMARK SMILES IDX 45 46 59 47 78 48 43 49 44 50 58 52 79 53 46 54 30 55 31 56
REMARK SMILES IDX 39 57 32 58 33 59 37 60 40 61 34 62 35 63 38 64 36 65 62 66
REMARK SMILES IDX 63 67 71 68 64 69 65 70 69 71 72 72 66 73 67 74 70 75 68 76
REMARK SMILES IDX 47 77 48 78 56 79 49 80 50 81 54 82 57 83 51 84 52 85 55 86
REMARK SMILES IDX 53 87
REMARK H PARENT 11 13 11 14 77 40 45 51
REMARK Flexibility Score: inf
ROOT
ATOM      1  C   UNL A   1      31.800  30.038  25.341  1.00  0.00     0.275 C 
ENDROOT
BRANCH   1   2
ATOM      2  C   UNL A   1      31.436  28.626  24.868  1.00  0.00     0.274 C 
BRANCH   2   3
ATOM      3  O   UNL A   1      31.022  27.790  25.964  1.00  0.00    -0.458 OA
BRANCH   3   4
ATOM      4  C   UNL A   1      31.541  26.523  25.986  1.00  0.00     0.366 C 
ATOM      5  O   UNL A   1      31.318  25.719  26.879  1.00  0.00    -0.245 OA
BRANCH   4   6
ATOM      6  C   UNL A   1      32.354  26.243  24.698  1.00  0.00     0.310 C 
ATOM      7  C   UNL A   1      32.416  25.400  22.304  1.00  0.00     0.030 C 
ATOM      8  C   UNL A   1      31.791  25.190  23.701  1.00  0.00     0.079 C 
ATOM      9  C   UNL A   1      30.279  25.064  23.499  1.00  0.00     0.030 C 
ATOM     10  S   UNL A   1      32.395  23.619  24.391  1.00  0.00    -0.081 SA
ATOM     11  C   UNL A   1      33.712  24.397  25.356  1.00  0.00     0.275 C 
ATOM     12  N   UNL A   1      33.753  25.829  25.044  1.00  0.00    -0.319 N 
ATOM     13  H   UNL A   1      34.374  25.997  24.253  1.00  0.00     0.348 HD
ATOM     14  H   UNL A   1      34.104  26.364  25.839  1.00  0.00     0.348 HD
BRANCH  11  15
ATOM     15  C   UNL A   1      35.038  23.754  25.045  1.00  0.00     0.031 A 
ATOM     16  C   UNL A   1      35.412  23.127  23.801  1.00  0.00     0.022 A 
ATOM     17  C   UNL A   1      36.069  23.628  25.961  1.00  0.00     0.075 A 
ATOM     18  C   UNL A   1      36.651  22.530  23.845  1.00  0.00     0.065 A 
ATOM     19  S   UNL A   1      37.408  22.753  25.357  1.00  0.00    -0.152 S 
ENDBRANCH  11  15
ENDBRANCH   4   6
ENDBRANCH   3   4
ENDBRANCH   2   3
ENDBRANCH   1   2
BRANCH   1  20
ATOM     20  O   UNL A   1      33.096  30.085  25.971  1.00  0.00    -0.458 OA
BRANCH  20  21
ATOM     21  C   UNL A   1      33.273  31.117  26.832  1.00  0.00     0.338 C 
ATOM     22  O   UNL A   1      32.489  32.018  27.070  1.00  0.00    -0.246 OA
BRANCH  21  23
ATOM     23  C   UNL A   1      34.502  30.915  27.627  1.00  0.00     0.060 A 
ATOM     24  C   UNL A   1      34.758  29.614  28.068  1.00  0.00     0.016 A 
ATOM     25  C   UNL A   1      35.374  31.952  27.967  1.00  0.00     0.016 A 
ATOM     26  C   UNL A   1      35.913  29.328  28.790  1.00  0.00     0.010 A 
ATOM     27  C   UNL A   1      36.522  31.669  28.722  1.00  0.00     0.010 A 
ATOM     28  C   UNL A   1      36.806  30.350  29.118  1.00  0.00    -0.014 A 
BRANCH  28  29
ATOM     29  C   UNL A   1      37.975  30.018  29.964  1.00  0.00     0.031 A 
ATOM     30  C   UNL A   1      39.042  29.126  29.408  1.00  0.00     0.074 A 
ATOM     31  C   UNL A   1      38.132  30.586  31.173  1.00  0.00     0.049 A 
ATOM     32  N   UNL A   1      40.134  28.682  29.975  1.00  0.00    -0.248 NA
ATOM     33  C   UNL A   1      38.864  28.692  28.014  1.00  0.00     0.031 C 
ATOM     34  C   UNL A   1      37.226  31.565  31.772  1.00  0.00     0.029 A 
ATOM     35  N   UNL A   1      39.120  30.423  32.113  1.00  0.00    -0.354 N 
ATOM     36  C   UNL A   1      40.770  27.914  29.012  1.00  0.00     0.074 A 
ATOM     37  C   UNL A   1      39.941  27.946  27.826  1.00  0.00     0.031 C 
ATOM     38  C   UNL A   1      37.692  31.903  32.988  1.00  0.00     0.029 A 
ATOM     39  C   UNL A   1      38.900  31.130  33.271  1.00  0.00     0.049 A 
ATOM     40  H   UNL A   1      39.911  29.854  31.972  1.00  0.00     0.167 HD
ATOM     41  C   UNL A   1      41.939  27.239  29.113  1.00  0.00     0.037 A 
ATOM     42  C   UNL A   1      39.578  31.119  34.436  1.00  0.00     0.037 A 
ATOM     43  C   UNL A   1      42.749  27.192  30.301  1.00  0.00     0.049 A 
ATOM     44  C   UNL A   1      40.803  30.246  34.568  1.00  0.00     0.074 A 
ATOM     45  C   UNL A   1      43.933  26.508  30.512  1.00  0.00     0.029 A 
ATOM     46  N   UNL A   1      42.450  27.850  31.486  1.00  0.00    -0.354 N 
ATOM     47  N   UNL A   1      41.390  29.497  33.665  1.00  0.00    -0.248 NA
ATOM     48  C   UNL A   1      41.455  30.210  35.885  1.00  0.00     0.031 C 
ATOM     49  C   UNL A   1      44.317  26.700  31.843  1.00  0.00     0.029 A 
ATOM     50  C   UNL A   1      43.411  27.560  32.442  1.00  0.00     0.049 A 
ATOM     51  H   UNL A   1      41.671  28.435  31.626  1.00  0.00     0.167 HD
ATOM     52  C   UNL A   1      42.493  28.932  34.292  1.00  0.00     0.074 A 
ATOM     53  C   UNL A   1      42.502  29.432  35.651  1.00  0.00     0.031 C 
ATOM     54  C   UNL A   1      43.417  28.076  33.788  1.00  0.00     0.037 A 
BRANCH  41  55
ATOM     55  C   UNL A   1      42.371  26.436  27.921  1.00  0.00     0.064 A 
ATOM     56  C   UNL A   1      43.283  26.936  26.980  1.00  0.00     0.173 A 
ATOM     57  C   UNL A   1      41.868  25.141  27.726  1.00  0.00     0.173 A 
ATOM     58  F   UNL A   1      43.777  28.176  27.110  1.00  0.00    -0.203 F 
ATOM     59  C   UNL A   1      43.653  26.177  25.872  1.00  0.00     0.198 A 
ATOM     60  C   UNL A   1      42.264  24.375  26.634  1.00  0.00     0.198 A 
ATOM     61  F   UNL A   1      40.992  24.617  28.597  1.00  0.00    -0.203 F 
ATOM     62  F   UNL A   1      44.484  26.694  24.956  1.00  0.00    -0.200 F 
ATOM     63  C   UNL A   1      43.148  24.896  25.704  1.00  0.00     0.200 A 
ATOM     64  F   UNL A   1      41.782  23.134  26.480  1.00  0.00    -0.200 F 
ATOM     65  F   UNL A   1      43.507  24.167  24.638  1.00  0.00    -0.200 F 
ENDBRANCH  41  55
BRANCH  42  66
ATOM     66  C   UNL A   1      39.093  31.915  35.597  1.00  0.00     0.064 A 
ATOM     67  C   UNL A   1      39.509  33.238  35.799  1.00  0.00     0.173 A 
ATOM     68  C   UNL A   1      38.244  31.347  36.560  1.00  0.00     0.173 A 
ATOM     69  F   UNL A   1      40.347  33.818  34.927  1.00  0.00    -0.203 F 
ATOM     70  C   UNL A   1      39.117  33.953  36.931  1.00  0.00     0.198 A 
ATOM     71  C   UNL A   1      37.827  32.073  37.673  1.00  0.00     0.198 A 
ATOM     72  F   UNL A   1      37.826  30.081  36.424  1.00  0.00    -0.203 F 
ATOM     73  F   UNL A   1      39.582  35.193  37.132  1.00  0.00    -0.200 F 
ATOM     74  C   UNL A   1      38.272  33.371  37.864  1.00  0.00     0.200 A 
ATOM     75  F   UNL A   1      37.005  31.508  38.568  1.00  0.00    -0.200 F 
ATOM     76  F   UNL A   1      37.900  34.055  38.955  1.00  0.00    -0.200 F 
ENDBRANCH  42  66
BRANCH  54  77
ATOM     77  C   UNL A   1      44.546  27.657  34.689  1.00  0.00     0.064 A 
ATOM     78  C   UNL A   1      44.481  26.496  35.470  1.00  0.00     0.173 A 
ATOM     79  C   UNL A   1      45.735  28.404  34.723  1.00  0.00     0.173 A 
ATOM     80  F   UNL A   1      43.364  25.752  35.485  1.00  0.00    -0.203 F 
ATOM     81  C   UNL A   1      45.554  26.109  36.271  1.00  0.00     0.198 A 
ATOM     82  C   UNL A   1      46.817  27.997  35.498  1.00  0.00     0.198 A 
ATOM     83  F   UNL A   1      45.854  29.520  33.989  1.00  0.00    -0.203 F 
ATOM     84  F   UNL A   1      45.452  25.020  37.045  1.00  0.00    -0.200 F 
ATOM     85  C   UNL A   1      46.724  26.854  36.276  1.00  0.00     0.200 A 
ATOM     86  F   UNL A   1      47.954  28.708  35.486  1.00  0.00    -0.200 F 
ATOM     87  F   UNL A   1      47.760  26.473  37.035  1.00  0.00    -0.200 F 
ENDBRANCH  54  77
ENDBRANCH  28  29
ENDBRANCH  21  23
ENDBRANCH  20  21
ENDBRANCH   1  20
TORSDOF 12
ENDMDL
MODEL 3
REMARK VINA RESULT:     -11.1      0.291      1.253
REMARK SMILES CC1(C)S[C@@H](c2ccsc2)[NH2+][C@@H]1C(=O)OCCOC(=O)c1ccc(-c2c3nc(c(-c4c(F)c(F)c(F)c(F)c4F)c4ccc([nH]4)c(-c4c(F)c(F)c(F)c(F)c4F)c4nc(c(-c5c(F)c(F)c(F)c(F)c5F)c5ccc2[nH]5)C=C4)C=C3)cc1
REMARK SMILES IDX 17 1 16 2 15 3 13 4 14 5 12 6 1 7 2 8 3 9 4 10 5 11 11 12
REMARK SMILES IDX 6 15 7 16 10 17 8 18 9 19 18 20 19 21 20 22 21 23 22 24
REMARK SMILES IDX 83 25 23 26 82 27 24 28 25 29 26 30 76 31 27 32 81 33 75 34
REMARK SMILES IDX 77 35 28 36 80 37 74 38 73 39 29 41 61 42 41 43 60 44 42 45
REMARK SMILES IDX 45 46 59 47 78 48 43 49 44 50 58 52 79 53 46 54 30 55 31 56
REMARK SMILES IDX 39 57 32 58 33 59 37 60 40 61 34 62 35 63 38 64 36 65 62 66
REMARK SMILES IDX 63 67 71 68 64 69 65 70 69 71 72 72 66 73 67 74 70 75 68 76
REMARK SMILES IDX 47 77 48 78 56 79 49 80 50 81 54 82 57 83 51 84 52 85 55 86
REMARK SMILES IDX 53 87
REMARK H PARENT 11 13 11 14 77 40 45 51
REMARK Flexibility Score: inf
ROOT
ATOM      1  C   UNL A   1      31.798  29.906  25.720  1.00  0.00     0.275 C 
ENDROOT
BRANCH   1   2
ATOM      2  C   UNL A   1      31.616  28.440  25.313  1.00  0.00     0.274 C 
BRANCH   2   3
ATOM      3  O   UNL A   1      31.425  27.589  26.459  1.00  0.00    -0.458 OA
BRANCH   3   4
ATOM      4  C   UNL A   1      31.610  26.249  26.254  1.00  0.00     0.366 C 
ATOM      5  O   UNL A   1      31.098  25.383  26.948  1.00  0.00    -0.245 OA
BRANCH   4   6
ATOM      6  C   UNL A   1      32.468  26.003  24.987  1.00  0.00     0.310 C 
ATOM      7  C   UNL A   1      32.613  25.229  22.574  1.00  0.00     0.030 C 
ATOM      8  C   UNL A   1      31.938  24.981  23.942  1.00  0.00     0.079 C 
ATOM      9  C   UNL A   1      30.434  24.865  23.683  1.00  0.00     0.030 C 
ATOM     10  S   UNL A   1      32.514  23.389  24.607  1.00  0.00    -0.081 SA
ATOM     11  C   UNL A   1      33.799  24.135  25.640  1.00  0.00     0.275 C 
ATOM     12  N   UNL A   1      33.853  25.575  25.371  1.00  0.00    -0.319 N 
ATOM     13  H   UNL A   1      34.501  25.764  24.607  1.00  0.00     0.348 HD
ATOM     14  H   UNL A   1      34.177  26.086  26.192  1.00  0.00     0.348 HD
BRANCH  11  15
ATOM     15  C   UNL A   1      35.133  23.497  25.357  1.00  0.00     0.031 A 
ATOM     16  C   UNL A   1      36.375  23.779  26.036  1.00  0.00     0.022 A 
ATOM     17  C   UNL A   1      35.352  22.580  24.343  1.00  0.00     0.075 A 
ATOM     18  C   UNL A   1      37.453  23.120  25.490  1.00  0.00     0.065 A 
ATOM     19  S   UNL A   1      36.990  22.117  24.191  1.00  0.00    -0.152 S 
ENDBRANCH  11  15
ENDBRANCH   4   6
ENDBRANCH   3   4
ENDBRANCH   2   3
ENDBRANCH   1   2
BRANCH   1  20
ATOM     20  O   UNL A   1      33.179  30.236  25.968  1.00  0.00    -0.458 OA
BRANCH  20  21
ATOM     21  C   UNL A   1      33.375  31.242  26.855  1.00  0.00     0.338 C 
ATOM     22  O   UNL A   1      32.594  32.132  27.139  1.00  0.00    -0.246 OA
BRANCH  21  23
ATOM     23  C   UNL A   1      34.624  31.021  27.613  1.00  0.00     0.060 A 
ATOM     24  C   UNL A   1      34.813  29.747  28.153  1.00  0.00     0.016 A 
ATOM     25  C   UNL A   1      35.577  32.019  27.827  1.00  0.00     0.016 A 
ATOM     26  C   UNL A   1      35.979  29.440  28.848  1.00  0.00     0.010 A 
ATOM     27  C   UNL A   1      36.737  31.719  28.555  1.00  0.00     0.010 A 
ATOM     28  C   UNL A   1      36.952  30.421  29.051  1.00  0.00    -0.014 A 
BRANCH  28  29
ATOM     29  C   UNL A   1      38.135  30.080  29.874  1.00  0.00     0.031 A 
ATOM     30  C   UNL A   1      39.172  29.161  29.305  1.00  0.00     0.074 A 
ATOM     31  C   UNL A   1      38.331  30.661  31.071  1.00  0.00     0.049 A 
ATOM     32  N   UNL A   1      40.269  28.706  29.853  1.00  0.00    -0.248 NA
ATOM     33  C   UNL A   1      38.953  28.712  27.922  1.00  0.00     0.031 C 
ATOM     34  C   UNL A   1      37.457  31.664  31.678  1.00  0.00     0.029 A 
ATOM     35  N   UNL A   1      39.338  30.492  31.990  1.00  0.00    -0.354 N 
ATOM     36  C   UNL A   1      40.869  27.913  28.885  1.00  0.00     0.074 A 
ATOM     37  C   UNL A   1      40.012  27.944  27.719  1.00  0.00     0.031 C 
ATOM     38  C   UNL A   1      37.957  32.009  32.877  1.00  0.00     0.029 A 
ATOM     39  C   UNL A   1      39.158  31.218  33.142  1.00  0.00     0.049 A 
ATOM     40  H   UNL A   1      40.115  29.907  31.838  1.00  0.00     0.167 HD
ATOM     41  C   UNL A   1      42.027  27.218  28.968  1.00  0.00     0.037 A 
ATOM     42  C   UNL A   1      39.863  31.211  34.292  1.00  0.00     0.037 A 
ATOM     43  C   UNL A   1      42.865  27.172  30.137  1.00  0.00     0.049 A 
ATOM     44  C   UNL A   1      41.075  30.318  34.406  1.00  0.00     0.074 A 
ATOM     45  C   UNL A   1      44.041  26.470  30.329  1.00  0.00     0.029 A 
ATOM     46  N   UNL A   1      42.606  27.852  31.320  1.00  0.00    -0.354 N 
ATOM     47  N   UNL A   1      41.627  29.546  33.500  1.00  0.00    -0.248 NA
ATOM     48  C   UNL A   1      41.758  30.288  35.708  1.00  0.00     0.031 C 
ATOM     49  C   UNL A   1      44.460  26.672  31.648  1.00  0.00     0.029 A 
ATOM     50  C   UNL A   1      43.584  27.557  32.256  1.00  0.00     0.049 A 
ATOM     51  H   UNL A   1      41.841  28.452  31.470  1.00  0.00     0.167 HD
ATOM     52  C   UNL A   1      42.735  28.970  34.109  1.00  0.00     0.074 A 
ATOM     53  C   UNL A   1      42.785  29.488  35.460  1.00  0.00     0.031 C 
ATOM     54  C   UNL A   1      43.631  28.091  33.595  1.00  0.00     0.037 A 
BRANCH  41  55
ATOM     55  C   UNL A   1      42.417  26.392  27.777  1.00  0.00     0.064 A 
ATOM     56  C   UNL A   1      41.894  25.109  27.561  1.00  0.00     0.173 A 
ATOM     57  C   UNL A   1      43.324  26.900  26.835  1.00  0.00     0.173 A 
ATOM     58  F   UNL A   1      41.040  24.569  28.443  1.00  0.00    -0.203 F 
ATOM     59  C   UNL A   1      42.287  24.354  26.458  1.00  0.00     0.198 A 
ATOM     60  C   UNL A   1      43.690  26.156  25.718  1.00  0.00     0.198 A 
ATOM     61  F   UNL A   1      43.853  28.122  26.997  1.00  0.00    -0.203 F 
ATOM     62  F   UNL A   1      41.817  23.109  26.298  1.00  0.00    -0.200 F 
ATOM     63  C   UNL A   1      43.179  24.881  25.535  1.00  0.00     0.200 A 
ATOM     64  F   UNL A   1      44.544  26.672  24.824  1.00  0.00    -0.200 F 
ATOM     65  F   UNL A   1      43.555  24.154  24.474  1.00  0.00    -0.200 F 
ENDBRANCH  41  55
BRANCH  42  66
ATOM     66  C   UNL A   1      39.420  32.031  35.452  1.00  0.00     0.064 A 
ATOM     67  C   UNL A   1      38.523  31.525  36.404  1.00  0.00     0.173 A 
ATOM     68  C   UNL A   1      39.842  33.362  35.602  1.00  0.00     0.173 A 
ATOM     69  F   UNL A   1      38.062  30.271  36.288  1.00  0.00    -0.203 F 
ATOM     70  C   UNL A   1      38.047  32.324  37.443  1.00  0.00     0.198 A 
ATOM     71  C   UNL A   1      39.392  34.148  36.659  1.00  0.00     0.198 A 
ATOM     72  F   UNL A   1      40.689  33.901  34.714  1.00  0.00    -0.203 F 
ATOM     73  F   UNL A   1      37.141  31.835  38.300  1.00  0.00    -0.200 F 
ATOM     74  C   UNL A   1      38.486  33.633  37.573  1.00  0.00     0.200 A 
ATOM     75  F   UNL A   1      39.824  35.410  36.784  1.00  0.00    -0.200 F 
ATOM     76  F   UNL A   1      38.024  34.402  38.568  1.00  0.00    -0.200 F 
ENDBRANCH  42  66
BRANCH  54  77
ATOM     77  C   UNL A   1      44.774  27.664  34.474  1.00  0.00     0.064 A 
ATOM     78  C   UNL A   1      44.707  26.513  35.271  1.00  0.00     0.173 A 
ATOM     79  C   UNL A   1      45.975  28.390  34.472  1.00  0.00     0.173 A 
ATOM     80  F   UNL A   1      43.579  25.789  35.322  1.00  0.00    -0.203 F 
ATOM     81  C   UNL A   1      45.792  26.118  36.053  1.00  0.00     0.198 A 
ATOM     82  C   UNL A   1      47.069  27.974  35.226  1.00  0.00     0.198 A 
ATOM     83  F   UNL A   1      46.097  29.495  33.721  1.00  0.00    -0.203 F 
ATOM     84  F   UNL A   1      45.689  25.040  36.842  1.00  0.00    -0.200 F 
ATOM     85  C   UNL A   1      46.974  26.843  36.020  1.00  0.00     0.200 A 
ATOM     86  F   UNL A   1      48.216  28.665  35.179  1.00  0.00    -0.200 F 
ATOM     87  F   UNL A   1      48.021  26.453  36.761  1.00  0.00    -0.200 F 
ENDBRANCH  54  77
ENDBRANCH  28  29
ENDBRANCH  21  23
ENDBRANCH  20  21
ENDBRANCH   1  20
TORSDOF 12
ENDMDL
