MODEL 1
REMARK VINA RESULT:     -12.3      0.000      0.000
REMARK SMILES O=C(OCCOC(=O)[C@H]1C[C@H]2CCCC[C@@H]2[N@@H+]1CC[C@@H]1CCCO1)c1ccc(-c2c3nc(c(-c4c(F)c(F)c(F)c(F)c4F)c4ccc([nH]4)c(-c4c(F)c(F)c(F)c(F)c4F)c4nc(c(-c5c(F)c(F)c(F)c(F)c5F)c5ccc2[nH]5)C=C4)C=C3)cc1
REMARK SMILES IDX 5 1 4 2 3 3 2 4 1 5 25 6 26 7 87 8 27 9 86 10 28 11 29 12
REMARK SMILES IDX 30 13 80 14 31 15 85 16 79 17 81 18 32 19 84 20 78 21 77 22
REMARK SMILES IDX 33 24 65 25 45 26 64 27 46 28 49 29 63 30 82 31 47 32 48 33
REMARK SMILES IDX 62 35 83 36 50 37 34 38 35 39 43 40 36 41 37 42 41 43 44 44
REMARK SMILES IDX 38 45 39 46 42 47 40 48 66 49 67 50 75 51 68 52 69 53 73 54
REMARK SMILES IDX 76 55 70 56 71 57 74 58 72 59 51 60 52 61 60 62 53 63 54 64
REMARK SMILES IDX 58 65 61 66 55 67 56 68 59 69 57 70 6 71 7 72 8 73 9 74
REMARK SMILES IDX 10 75 17 76 11 77 16 78 12 80 15 81 13 82 14 83 18 84 19 85
REMARK SMILES IDX 20 86 21 87 24 88 22 89 23 90
REMARK H PARENT 81 23 49 34 17 79
REMARK Flexibility Score: inf
ROOT
ATOM      1  C   UNL A   1      32.496  31.058  26.855  1.00  0.00     0.274 C 
ENDROOT
BRANCH   1   2
ATOM      2  C   UNL A   1      31.523  32.200  27.177  1.00  0.00     0.275 C 
BRANCH   2   3
ATOM      3  O   UNL A   1      32.138  33.499  27.249  1.00  0.00    -0.458 OA
BRANCH   3   4
ATOM      4  C   UNL A   1      32.890  34.067  28.218  1.00  0.00     0.338 C 
ATOM      5  O   UNL A   1      32.426  35.058  28.786  1.00  0.00    -0.246 OA
BRANCH   4   6
ATOM      6  C   UNL A   1      34.286  33.648  28.608  1.00  0.00     0.060 A 
ATOM      7  C   UNL A   1      35.502  34.005  28.008  1.00  0.00     0.016 A 
ATOM      8  C   UNL A   1      34.368  32.844  29.755  1.00  0.00     0.016 A 
ATOM      9  C   UNL A   1      36.753  33.657  28.578  1.00  0.00     0.010 A 
ATOM     10  C   UNL A   1      35.600  32.558  30.358  1.00  0.00     0.010 A 
ATOM     11  C   UNL A   1      36.824  32.952  29.779  1.00  0.00    -0.014 A 
BRANCH  11  12
ATOM     12  C   UNL A   1      38.089  32.464  30.431  1.00  0.00     0.031 A 
ATOM     13  C   UNL A   1      38.612  31.134  29.948  1.00  0.00     0.074 A 
ATOM     14  C   UNL A   1      38.706  33.049  31.488  1.00  0.00     0.049 A 
ATOM     15  N   UNL A   1      39.436  30.304  30.526  1.00  0.00    -0.248 NA
ATOM     16  C   UNL A   1      38.125  30.681  28.629  1.00  0.00     0.031 C 
ATOM     17  C   UNL A   1      38.463  34.388  32.021  1.00  0.00     0.029 A 
ATOM     18  N   UNL A   1      39.573  32.497  32.423  1.00  0.00    -0.354 N 
ATOM     19  C   UNL A   1      39.632  29.291  29.601  1.00  0.00     0.074 A 
ATOM     20  C   UNL A   1      38.684  29.486  28.531  1.00  0.00     0.031 C 
ATOM     21  C   UNL A   1      38.954  34.466  33.276  1.00  0.00     0.029 A 
ATOM     22  C   UNL A   1      39.575  33.194  33.624  1.00  0.00     0.049 A 
ATOM     23  H   UNL A   1      40.125  31.701  32.252  1.00  0.00     0.167 HD
ATOM     24  C   UNL A   1      40.620  28.370  29.575  1.00  0.00     0.037 A 
ATOM     25  C   UNL A   1      39.926  32.783  34.867  1.00  0.00     0.037 A 
ATOM     26  C   UNL A   1      41.580  28.213  30.626  1.00  0.00     0.049 A 
ATOM     27  C   UNL A   1      40.706  31.507  34.994  1.00  0.00     0.074 A 
ATOM     28  C   UNL A   1      42.740  27.465  30.647  1.00  0.00     0.029 A 
ATOM     29  N   UNL A   1      41.461  28.814  31.868  1.00  0.00    -0.354 N 
ATOM     30  N   UNL A   1      40.980  30.615  34.081  1.00  0.00    -0.248 NA
ATOM     31  C   UNL A   1      41.312  31.238  36.308  1.00  0.00     0.031 C 
ATOM     32  C   UNL A   1      43.295  27.567  31.929  1.00  0.00     0.029 A 
ATOM     33  C   UNL A   1      42.498  28.410  32.686  1.00  0.00     0.049 A 
ATOM     34  H   UNL A   1      40.745  29.437  32.129  1.00  0.00     0.167 HD
ATOM     35  C   UNL A   1      41.900  29.761  34.664  1.00  0.00     0.074 A 
ATOM     36  C   UNL A   1      42.039  30.161  36.047  1.00  0.00     0.031 C 
ATOM     37  C   UNL A   1      42.639  28.803  34.061  1.00  0.00     0.037 A 
BRANCH  24  38
ATOM     38  C   UNL A   1      40.766  27.569  28.320  1.00  0.00     0.064 A 
ATOM     39  C   UNL A   1      40.150  26.311  28.199  1.00  0.00     0.173 A 
ATOM     40  C   UNL A   1      41.512  28.045  27.237  1.00  0.00     0.173 A 
ATOM     41  F   UNL A   1      39.432  25.807  29.215  1.00  0.00    -0.203 F 
ATOM     42  C   UNL A   1      40.313  25.541  27.054  1.00  0.00     0.198 A 
ATOM     43  C   UNL A   1      41.647  27.283  26.080  1.00  0.00     0.198 A 
ATOM     44  F   UNL A   1      42.117  29.240  27.304  1.00  0.00    -0.203 F 
ATOM     45  F   UNL A   1      39.769  24.317  26.988  1.00  0.00    -0.200 F 
ATOM     46  C   UNL A   1      41.059  26.029  25.993  1.00  0.00     0.200 A 
ATOM     47  F   UNL A   1      42.361  27.757  25.049  1.00  0.00    -0.200 F 
ATOM     48  F   UNL A   1      41.218  25.286  24.889  1.00  0.00    -0.200 F 
ENDBRANCH  24  38
BRANCH  25  49
ATOM     49  C   UNL A   1      39.538  33.475  36.137  1.00  0.00     0.064 A 
ATOM     50  C   UNL A   1      40.310  34.474  36.733  1.00  0.00     0.173 A 
ATOM     51  C   UNL A   1      38.432  32.997  36.872  1.00  0.00     0.173 A 
ATOM     52  F   UNL A   1      41.428  34.902  36.131  1.00  0.00    -0.203 F 
ATOM     53  C   UNL A   1      39.979  34.986  37.993  1.00  0.00     0.198 A 
ATOM     54  C   UNL A   1      38.079  33.533  38.110  1.00  0.00     0.198 A 
ATOM     55  F   UNL A   1      37.706  31.973  36.396  1.00  0.00    -0.203 F 
ATOM     56  F   UNL A   1      40.771  35.899  38.571  1.00  0.00    -0.200 F 
ATOM     57  C   UNL A   1      38.857  34.527  38.673  1.00  0.00     0.200 A 
ATOM     58  F   UNL A   1      37.004  33.067  38.760  1.00  0.00    -0.200 F 
ATOM     59  F   UNL A   1      38.549  35.016  39.882  1.00  0.00    -0.200 F 
ENDBRANCH  25  49
BRANCH  37  60
ATOM     60  C   UNL A   1      43.767  28.221  34.847  1.00  0.00     0.064 A 
ATOM     61  C   UNL A   1      45.014  28.845  34.943  1.00  0.00     0.173 A 
ATOM     62  C   UNL A   1      43.569  27.015  35.539  1.00  0.00     0.173 A 
ATOM     63  F   UNL A   1      45.259  29.974  34.261  1.00  0.00    -0.203 F 
ATOM     64  C   UNL A   1      46.029  28.280  35.709  1.00  0.00     0.198 A 
ATOM     65  C   UNL A   1      44.573  26.472  36.328  1.00  0.00     0.198 A 
ATOM     66  F   UNL A   1      42.393  26.373  35.457  1.00  0.00    -0.203 F 
ATOM     67  F   UNL A   1      47.233  28.868  35.759  1.00  0.00    -0.200 F 
ATOM     68  C   UNL A   1      45.803  27.104  36.412  1.00  0.00     0.200 A 
ATOM     69  F   UNL A   1      44.349  25.340  37.009  1.00  0.00    -0.200 F 
ATOM     70  F   UNL A   1      46.777  26.574  37.163  1.00  0.00    -0.200 F 
ENDBRANCH  37  60
ENDBRANCH  11  12
ENDBRANCH   4   6
ENDBRANCH   3   4
ENDBRANCH   2   3
ENDBRANCH   1   2
BRANCH   1  71
ATOM     71  O   UNL A   1      31.794  29.936  26.305  1.00  0.00    -0.458 OA
BRANCH  71  72
ATOM     72  C   UNL A   1      32.104  28.669  26.733  1.00  0.00     0.365 C 
ATOM     73  O   UNL A   1      32.222  28.361  27.909  1.00  0.00    -0.245 OA
BRANCH  72  74
ATOM     74  C   UNL A   1      32.178  27.688  25.520  1.00  0.00     0.295 C 
ATOM     75  C   UNL A   1      33.421  26.792  25.630  1.00  0.00     0.087 C 
ATOM     76  N   UNL A   1      31.018  26.726  25.476  1.00  0.00    -0.320 N 
ATOM     77  C   UNL A   1      32.879  25.400  25.588  1.00  0.00     0.054 C 
ATOM     78  C   UNL A   1      31.511  25.558  26.208  1.00  0.00     0.188 C 
ATOM     79  H   UNL A   1      30.181  27.116  25.910  1.00  0.00     0.349 HD
ATOM     80  C   UNL A   1      33.668  24.286  26.177  1.00  0.00     0.010 C 
ATOM     81  C   UNL A   1      30.677  24.283  26.301  1.00  0.00     0.065 C 
ATOM     82  C   UNL A   1      32.854  23.004  26.120  1.00  0.00     0.001 C 
ATOM     83  C   UNL A   1      31.522  23.132  26.848  1.00  0.00     0.006 C 
BRANCH  76  84
ATOM     84  C   UNL A   1      30.470  26.449  24.112  1.00  0.00     0.265 C 
BRANCH  84  85
ATOM     85  C   UNL A   1      29.125  27.008  23.511  1.00  0.00     0.093 C 
BRANCH  85  86
ATOM     86  C   UNL A   1      29.051  28.499  23.104  1.00  0.00     0.123 C 
ATOM     87  C   UNL A   1      27.628  29.025  22.915  1.00  0.00     0.034 C 
ATOM     88  O   UNL A   1      29.674  28.866  21.867  1.00  0.00    -0.378 OA
ATOM     89  C   UNL A   1      27.858  30.365  22.249  1.00  0.00     0.031 C 
ATOM     90  C   UNL A   1      29.256  30.238  21.655  1.00  0.00     0.160 C 
ENDBRANCH  85  86
ENDBRANCH  84  85
ENDBRANCH  76  84
ENDBRANCH  72  74
ENDBRANCH  71  72
ENDBRANCH   1  71
TORSDOF 14
ENDMDL
MODEL 2
REMARK VINA RESULT:     -12.1      5.769     10.947
REMARK SMILES O=C(OCCOC(=O)[C@H]1C[C@H]2CCCC[C@@H]2[N@@H+]1CC[C@@H]1CCCO1)c1ccc(-c2c3nc(c(-c4c(F)c(F)c(F)c(F)c4F)c4ccc([nH]4)c(-c4c(F)c(F)c(F)c(F)c4F)c4nc(c(-c5c(F)c(F)c(F)c(F)c5F)c5ccc2[nH]5)C=C4)C=C3)cc1
REMARK SMILES IDX 5 1 4 2 3 3 2 4 1 5 25 6 26 7 87 8 27 9 86 10 28 11 29 12
REMARK SMILES IDX 30 13 80 14 31 15 85 16 79 17 81 18 32 19 84 20 78 21 77 22
REMARK SMILES IDX 33 24 65 25 45 26 64 27 46 28 49 29 63 30 82 31 47 32 48 33
REMARK SMILES IDX 62 35 83 36 50 37 34 38 35 39 43 40 36 41 37 42 41 43 44 44
REMARK SMILES IDX 38 45 39 46 42 47 40 48 66 49 67 50 75 51 68 52 69 53 73 54
REMARK SMILES IDX 76 55 70 56 71 57 74 58 72 59 51 60 52 61 60 62 53 63 54 64
REMARK SMILES IDX 58 65 61 66 55 67 56 68 59 69 57 70 6 71 7 72 8 73 9 74
REMARK SMILES IDX 10 75 17 76 11 77 16 78 12 80 15 81 13 82 14 83 18 84 19 85
REMARK SMILES IDX 20 86 21 87 24 88 22 89 23 90
REMARK H PARENT 81 23 49 34 17 79
REMARK Flexibility Score: inf
ROOT
ATOM      1  C   UNL A   1      38.214  21.090  25.505  1.00  0.00     0.274 C 
ENDROOT
BRANCH   1   2
ATOM      2  C   UNL A   1      38.700  19.731  24.987  1.00  0.00     0.275 C 
BRANCH   2   3
ATOM      3  O   UNL A   1      39.761  19.147  25.763  1.00  0.00    -0.458 OA
BRANCH   3   4
ATOM      4  C   UNL A   1      41.040  19.544  25.951  1.00  0.00     0.338 C 
ATOM      5  O   UNL A   1      41.930  18.766  25.600  1.00  0.00    -0.246 OA
BRANCH   4   6
ATOM      6  C   UNL A   1      41.474  20.818  26.631  1.00  0.00     0.060 A 
ATOM      7  C   UNL A   1      41.565  21.085  28.004  1.00  0.00     0.016 A 
ATOM      8  C   UNL A   1      41.895  21.841  25.766  1.00  0.00     0.016 A 
ATOM      9  C   UNL A   1      42.139  22.284  28.500  1.00  0.00     0.010 A 
ATOM     10  C   UNL A   1      42.525  22.994  26.253  1.00  0.00     0.010 A 
ATOM     11  C   UNL A   1      42.655  23.247  27.635  1.00  0.00    -0.014 A 
BRANCH  11  12
ATOM     12  C   UNL A   1      43.212  24.582  28.046  1.00  0.00     0.031 A 
ATOM     13  C   UNL A   1      42.205  25.687  28.242  1.00  0.00     0.074 A 
ATOM     14  C   UNL A   1      44.530  24.896  28.120  1.00  0.00     0.049 A 
ATOM     15  N   UNL A   1      42.378  26.980  28.245  1.00  0.00    -0.248 NA
ATOM     16  C   UNL A   1      40.806  25.265  28.459  1.00  0.00     0.031 C 
ATOM     17  C   UNL A   1      45.660  23.969  28.108  1.00  0.00     0.029 A 
ATOM     18  N   UNL A   1      45.149  26.138  28.053  1.00  0.00    -0.354 N 
ATOM     19  C   UNL A   1      41.134  27.508  28.556  1.00  0.00     0.074 A 
ATOM     20  C   UNL A   1      40.179  26.428  28.514  1.00  0.00     0.031 C 
ATOM     21  C   UNL A   1      46.788  24.642  27.800  1.00  0.00     0.029 A 
ATOM     22  C   UNL A   1      46.468  26.054  27.624  1.00  0.00     0.049 A 
ATOM     23  H   UNL A   1      44.702  26.984  28.283  1.00  0.00     0.167 HD
ATOM     24  C   UNL A   1      40.846  28.755  28.988  1.00  0.00     0.037 A 
ATOM     25  C   UNL A   1      47.255  26.992  27.046  1.00  0.00     0.037 A 
ATOM     26  C   UNL A   1      41.814  29.808  29.062  1.00  0.00     0.049 A 
ATOM     27  C   UNL A   1      46.811  28.424  27.111  1.00  0.00     0.074 A 
ATOM     28  C   UNL A   1      41.713  31.049  29.658  1.00  0.00     0.029 A 
ATOM     29  N   UNL A   1      43.072  29.734  28.488  1.00  0.00    -0.354 N 
ATOM     30  N   UNL A   1      45.671  28.915  27.517  1.00  0.00    -0.248 NA
ATOM     31  C   UNL A   1      47.810  29.438  26.734  1.00  0.00     0.031 C 
ATOM     32  C   UNL A   1      42.893  31.753  29.391  1.00  0.00     0.029 A 
ATOM     33  C   UNL A   1      43.739  30.931  28.664  1.00  0.00     0.049 A 
ATOM     34  H   UNL A   1      43.436  28.947  28.023  1.00  0.00     0.167 HD
ATOM     35  C   UNL A   1      45.861  30.284  27.580  1.00  0.00     0.074 A 
ATOM     36  C   UNL A   1      47.178  30.559  27.048  1.00  0.00     0.031 C 
ATOM     37  C   UNL A   1      45.046  31.209  28.136  1.00  0.00     0.037 A 
BRANCH  24  38
ATOM     38  C   UNL A   1      39.468  28.984  29.521  1.00  0.00     0.064 A 
ATOM     39  C   UNL A   1      39.173  28.735  30.873  1.00  0.00     0.173 A 
ATOM     40  C   UNL A   1      38.438  29.452  28.697  1.00  0.00     0.173 A 
ATOM     41  F   UNL A   1      40.124  28.277  31.701  1.00  0.00    -0.203 F 
ATOM     42  C   UNL A   1      37.885  28.905  31.368  1.00  0.00     0.198 A 
ATOM     43  C   UNL A   1      37.157  29.650  29.205  1.00  0.00     0.198 A 
ATOM     44  F   UNL A   1      38.671  29.706  27.401  1.00  0.00    -0.203 F 
ATOM     45  F   UNL A   1      37.615  28.599  32.646  1.00  0.00    -0.200 F 
ATOM     46  C   UNL A   1      36.879  29.366  30.535  1.00  0.00     0.200 A 
ATOM     47  F   UNL A   1      36.185  30.104  28.403  1.00  0.00    -0.200 F 
ATOM     48  F   UNL A   1      35.637  29.529  31.012  1.00  0.00    -0.200 F 
ENDBRANCH  24  38
BRANCH  25  49
ATOM     49  C   UNL A   1      48.512  26.701  26.285  1.00  0.00     0.064 A 
ATOM     50  C   UNL A   1      49.759  26.547  26.893  1.00  0.00     0.173 A 
ATOM     51  C   UNL A   1      48.490  26.748  24.874  1.00  0.00     0.173 A 
ATOM     52  F   UNL A   1      49.860  26.594  28.229  1.00  0.00    -0.203 F 
ATOM     53  C   UNL A   1      50.924  26.423  26.128  1.00  0.00     0.198 A 
ATOM     54  C   UNL A   1      49.645  26.586  24.111  1.00  0.00     0.198 A 
ATOM     55  F   UNL A   1      47.336  26.988  24.232  1.00  0.00    -0.203 F 
ATOM     56  F   UNL A   1      52.116  26.339  26.736  1.00  0.00    -0.200 F 
ATOM     57  C   UNL A   1      50.865  26.427  24.740  1.00  0.00     0.200 A 
ATOM     58  F   UNL A   1      49.573  26.608  22.772  1.00  0.00    -0.200 F 
ATOM     59  F   UNL A   1      51.985  26.314  24.013  1.00  0.00    -0.200 F 
ENDBRANCH  25  49
BRANCH  37  60
ATOM     60  C   UNL A   1      45.609  32.577  28.337  1.00  0.00     0.064 A 
ATOM     61  C   UNL A   1      46.415  32.903  29.432  1.00  0.00     0.173 A 
ATOM     62  C   UNL A   1      45.344  33.573  27.382  1.00  0.00     0.173 A 
ATOM     63  F   UNL A   1      46.654  31.994  30.389  1.00  0.00    -0.203 F 
ATOM     64  C   UNL A   1      46.941  34.184  29.565  1.00  0.00     0.198 A 
ATOM     65  C   UNL A   1      45.898  34.840  27.502  1.00  0.00     0.198 A 
ATOM     66  F   UNL A   1      44.559  33.307  26.327  1.00  0.00    -0.203 F 
ATOM     67  F   UNL A   1      47.678  34.494  30.640  1.00  0.00    -0.200 F 
ATOM     68  C   UNL A   1      46.695  35.146  28.593  1.00  0.00     0.200 A 
ATOM     69  F   UNL A   1      45.662  35.763  26.560  1.00  0.00    -0.200 F 
ATOM     70  F   UNL A   1      47.219  36.372  28.716  1.00  0.00    -0.200 F 
ENDBRANCH  37  60
ENDBRANCH  11  12
ENDBRANCH   4   6
ENDBRANCH   3   4
ENDBRANCH   2   3
ENDBRANCH   1   2
BRANCH   1  71
ATOM     71  O   UNL A   1      36.805  21.240  25.288  1.00  0.00    -0.458 OA
BRANCH  71  72
ATOM     72  C   UNL A   1      36.350  22.252  24.480  1.00  0.00     0.365 C 
ATOM     73  O   UNL A   1      37.010  22.753  23.584  1.00  0.00    -0.245 OA
BRANCH  72  74
ATOM     74  C   UNL A   1      34.859  22.583  24.809  1.00  0.00     0.295 C 
ATOM     75  C   UNL A   1      34.759  23.917  25.563  1.00  0.00     0.087 C 
ATOM     76  N   UNL A   1      34.018  22.779  23.573  1.00  0.00    -0.320 N 
ATOM     77  C   UNL A   1      33.834  24.744  24.730  1.00  0.00     0.054 C 
ATOM     78  C   UNL A   1      34.087  24.221  23.335  1.00  0.00     0.188 C 
ATOM     79  H   UNL A   1      34.376  22.249  22.779  1.00  0.00     0.349 HD
ATOM     80  C   UNL A   1      33.890  26.228  24.821  1.00  0.00     0.010 C 
ATOM     81  C   UNL A   1      33.265  24.872  22.226  1.00  0.00     0.065 C 
ATOM     82  C   UNL A   1      32.949  26.834  23.795  1.00  0.00     0.001 C 
ATOM     83  C   UNL A   1      33.280  26.394  22.375  1.00  0.00     0.006 C 
BRANCH  76  84
ATOM     84  C   UNL A   1      32.640  22.201  23.641  1.00  0.00     0.265 C 
BRANCH  84  85
ATOM     85  C   UNL A   1      32.135  21.100  24.649  1.00  0.00     0.093 C 
BRANCH  85  86
ATOM     86  C   UNL A   1      32.690  19.661  24.525  1.00  0.00     0.123 C 
ATOM     87  C   UNL A   1      32.483  19.029  23.149  1.00  0.00     0.034 C 
ATOM     88  O   UNL A   1      32.131  18.672  25.397  1.00  0.00    -0.378 OA
ATOM     89  C   UNL A   1      32.833  17.577  23.397  1.00  0.00     0.031 C 
ATOM     90  C   UNL A   1      32.674  17.421  24.905  1.00  0.00     0.160 C 
ENDBRANCH  85  86
ENDBRANCH  84  85
ENDBRANCH  76  84
ENDBRANCH  72  74
ENDBRANCH  71  72
ENDBRANCH   1  71
TORSDOF 14
ENDMDL
MODEL 3
REMARK VINA RESULT:     -11.9      3.622      8.758
REMARK SMILES O=C(OCCOC(=O)[C@H]1C[C@H]2CCCC[C@@H]2[N@@H+]1CC[C@@H]1CCCO1)c1ccc(-c2c3nc(c(-c4c(F)c(F)c(F)c(F)c4F)c4ccc([nH]4)c(-c4c(F)c(F)c(F)c(F)c4F)c4nc(c(-c5c(F)c(F)c(F)c(F)c5F)c5ccc2[nH]5)C=C4)C=C3)cc1
REMARK SMILES IDX 5 1 4 2 3 3 2 4 1 5 25 6 26 7 87 8 27 9 86 10 28 11 29 12
REMARK SMILES IDX 30 13 80 14 31 15 85 16 79 17 81 18 32 19 84 20 78 21 77 22
REMARK SMILES IDX 33 24 65 25 45 26 64 27 46 28 49 29 63 30 82 31 47 32 48 33
REMARK SMILES IDX 62 35 83 36 50 37 34 38 35 39 43 40 36 41 37 42 41 43 44 44
REMARK SMILES IDX 38 45 39 46 42 47 40 48 66 49 67 50 75 51 68 52 69 53 73 54
REMARK SMILES IDX 76 55 70 56 71 57 74 58 72 59 51 60 52 61 60 62 53 63 54 64
REMARK SMILES IDX 58 65 61 66 55 67 56 68 59 69 57 70 6 71 7 72 8 73 9 74
REMARK SMILES IDX 10 75 17 76 11 77 16 78 12 80 15 81 13 82 14 83 18 84 19 85
REMARK SMILES IDX 20 86 21 87 24 88 22 89 23 90
REMARK H PARENT 81 23 49 34 17 79
REMARK Flexibility Score: inf
ROOT
ATOM      1  C   UNL A   1      39.061  21.659  26.136  1.00  0.00     0.274 C 
ENDROOT
BRANCH   1   2
ATOM      2  C   UNL A   1      40.277  20.731  26.024  1.00  0.00     0.275 C 
BRANCH   2   3
ATOM      3  O   UNL A   1      41.510  21.312  26.484  1.00  0.00    -0.458 OA
BRANCH   3   4
ATOM      4  C   UNL A   1      42.192  22.395  26.048  1.00  0.00     0.338 C 
ATOM      5  O   UNL A   1      42.791  22.291  24.975  1.00  0.00    -0.246 OA
BRANCH   4   6
ATOM      6  C   UNL A   1      42.356  23.692  26.800  1.00  0.00     0.060 A 
ATOM      7  C   UNL A   1      43.325  24.689  26.614  1.00  0.00     0.016 A 
ATOM      8  C   UNL A   1      41.372  23.950  27.767  1.00  0.00     0.016 A 
ATOM      9  C   UNL A   1      43.264  25.932  27.295  1.00  0.00     0.010 A 
ATOM     10  C   UNL A   1      41.270  25.202  28.388  1.00  0.00     0.010 A 
ATOM     11  C   UNL A   1      42.220  26.222  28.172  1.00  0.00    -0.014 A 
BRANCH  11  12
ATOM     12  C   UNL A   1      42.099  27.470  29.003  1.00  0.00     0.031 A 
ATOM     13  C   UNL A   1      42.809  27.451  30.333  1.00  0.00     0.074 A 
ATOM     14  C   UNL A   1      41.306  28.533  28.715  1.00  0.00     0.049 A 
ATOM     15  N   UNL A   1      42.616  28.190  31.391  1.00  0.00    -0.248 NA
ATOM     16  C   UNL A   1      43.886  26.450  30.485  1.00  0.00     0.031 C 
ATOM     17  C   UNL A   1      40.649  28.824  27.443  1.00  0.00     0.029 A 
ATOM     18  N   UNL A   1      40.781  29.500  29.562  1.00  0.00    -0.354 N 
ATOM     19  C   UNL A   1      43.603  27.803  32.284  1.00  0.00     0.074 A 
ATOM     20  C   UNL A   1      44.244  26.629  31.745  1.00  0.00     0.031 C 
ATOM     21  C   UNL A   1      39.655  29.714  27.645  1.00  0.00     0.029 A 
ATOM     22  C   UNL A   1      39.625  30.081  29.056  1.00  0.00     0.049 A 
ATOM     23  H   UNL A   1      41.183  29.746  30.426  1.00  0.00     0.167 HD
ATOM     24  C   UNL A   1      44.035  28.464  33.380  1.00  0.00     0.037 A 
ATOM     25  C   UNL A   1      38.619  30.719  29.701  1.00  0.00     0.037 A 
ATOM     26  C   UNL A   1      43.413  29.652  33.882  1.00  0.00     0.049 A 
ATOM     27  C   UNL A   1      38.852  31.154  31.118  1.00  0.00     0.074 A 
ATOM     28  C   UNL A   1      43.855  30.527  34.854  1.00  0.00     0.029 A 
ATOM     29  N   UNL A   1      42.182  30.114  33.448  1.00  0.00    -0.354 N 
ATOM     30  N   UNL A   1      39.850  30.872  31.912  1.00  0.00    -0.248 NA
ATOM     31  C   UNL A   1      37.864  32.083  31.690  1.00  0.00     0.031 C 
ATOM     32  C   UNL A   1      42.858  31.491  35.051  1.00  0.00     0.029 A 
ATOM     33  C   UNL A   1      41.818  31.232  34.173  1.00  0.00     0.049 A 
ATOM     34  H   UNL A   1      41.646  29.707  32.730  1.00  0.00     0.167 HD
ATOM     35  C   UNL A   1      39.687  31.694  33.014  1.00  0.00     0.074 A 
ATOM     36  C   UNL A   1      38.428  32.388  32.849  1.00  0.00     0.031 C 
ATOM     37  C   UNL A   1      40.568  31.924  34.014  1.00  0.00     0.037 A 
BRANCH  24  38
ATOM     38  C   UNL A   1      45.299  27.973  34.011  1.00  0.00     0.064 A 
ATOM     39  C   UNL A   1      45.257  27.065  35.084  1.00  0.00     0.173 A 
ATOM     40  C   UNL A   1      46.552  28.397  33.554  1.00  0.00     0.173 A 
ATOM     41  F   UNL A   1      44.080  26.636  35.564  1.00  0.00    -0.203 F 
ATOM     42  C   UNL A   1      46.424  26.635  35.704  1.00  0.00     0.198 A 
ATOM     43  C   UNL A   1      47.719  27.939  34.159  1.00  0.00     0.198 A 
ATOM     44  F   UNL A   1      46.643  29.261  32.533  1.00  0.00    -0.203 F 
ATOM     45  F   UNL A   1      46.355  25.819  36.766  1.00  0.00    -0.200 F 
ATOM     46  C   UNL A   1      47.655  27.069  35.239  1.00  0.00     0.200 A 
ATOM     47  F   UNL A   1      48.911  28.352  33.706  1.00  0.00    -0.200 F 
ATOM     48  F   UNL A   1      48.781  26.655  35.837  1.00  0.00    -0.200 F 
ENDBRANCH  24  38
BRANCH  25  49
ATOM     49  C   UNL A   1      37.259  30.968  29.126  1.00  0.00     0.064 A 
ATOM     50  C   UNL A   1      36.321  29.957  28.908  1.00  0.00     0.173 A 
ATOM     51  C   UNL A   1      36.950  32.248  28.617  1.00  0.00     0.173 A 
ATOM     52  F   UNL A   1      36.597  28.700  29.279  1.00  0.00    -0.203 F 
ATOM     53  C   UNL A   1      35.122  30.219  28.233  1.00  0.00     0.198 A 
ATOM     54  C   UNL A   1      35.740  32.518  27.979  1.00  0.00     0.198 A 
ATOM     55  F   UNL A   1      37.850  33.239  28.711  1.00  0.00    -0.203 F 
ATOM     56  F   UNL A   1      34.267  29.218  27.981  1.00  0.00    -0.200 F 
ATOM     57  C   UNL A   1      34.826  31.500  27.784  1.00  0.00     0.200 A 
ATOM     58  F   UNL A   1      35.477  33.756  27.537  1.00  0.00    -0.200 F 
ATOM     59  F   UNL A   1      33.680  31.742  27.133  1.00  0.00    -0.200 F 
ENDBRANCH  25  49
BRANCH  37  60
ATOM     60  C   UNL A   1      40.278  33.069  34.925  1.00  0.00     0.064 A 
ATOM     61  C   UNL A   1      40.693  34.374  34.645  1.00  0.00     0.173 A 
ATOM     62  C   UNL A   1      39.538  32.841  36.097  1.00  0.00     0.173 A 
ATOM     63  F   UNL A   1      41.440  34.627  33.560  1.00  0.00    -0.203 F 
ATOM     64  C   UNL A   1      40.377  35.418  35.509  1.00  0.00     0.198 A 
ATOM     65  C   UNL A   1      39.196  33.890  36.940  1.00  0.00     0.198 A 
ATOM     66  F   UNL A   1      39.137  31.600  36.413  1.00  0.00    -0.203 F 
ATOM     67  F   UNL A   1      40.817  36.656  35.250  1.00  0.00    -0.200 F 
ATOM     68  C   UNL A   1      39.617  35.177  36.647  1.00  0.00     0.200 A 
ATOM     69  F   UNL A   1      38.458  33.654  38.033  1.00  0.00    -0.200 F 
ATOM     70  F   UNL A   1      39.298  36.187  37.467  1.00  0.00    -0.200 F 
ENDBRANCH  37  60
ENDBRANCH  11  12
ENDBRANCH   4   6
ENDBRANCH   3   4
ENDBRANCH   2   3
ENDBRANCH   1   2
BRANCH   1  71
ATOM     71  O   UNL A   1      38.181  21.478  25.019  1.00  0.00    -0.458 OA
BRANCH  71  72
ATOM     72  C   UNL A   1      37.079  20.671  25.151  1.00  0.00     0.365 C 
ATOM     73  O   UNL A   1      37.106  19.458  25.009  1.00  0.00    -0.245 OA
BRANCH  72  74
ATOM     74  C   UNL A   1      35.841  21.510  25.601  1.00  0.00     0.295 C 
ATOM     75  C   UNL A   1      35.563  22.639  24.598  1.00  0.00     0.087 C 
ATOM     76  N   UNL A   1      34.567  20.702  25.629  1.00  0.00    -0.320 N 
ATOM     77  C   UNL A   1      34.147  22.417  24.175  1.00  0.00     0.054 C 
ATOM     78  C   UNL A   1      33.993  20.920  24.301  1.00  0.00     0.188 C 
ATOM     79  H   UNL A   1      34.745  19.713  25.805  1.00  0.00     0.349 HD
ATOM     80  C   UNL A   1      33.679  22.950  22.868  1.00  0.00     0.010 C 
ATOM     81  C   UNL A   1      32.617  20.365  23.942  1.00  0.00     0.065 C 
ATOM     82  C   UNL A   1      32.253  22.491  22.615  1.00  0.00     0.001 C 
ATOM     83  C   UNL A   1      32.123  20.973  22.628  1.00  0.00     0.006 C 
BRANCH  76  84
ATOM     84  C   UNL A   1      33.657  20.987  26.781  1.00  0.00     0.265 C 
BRANCH  84  85
ATOM     85  C   UNL A   1      33.598  22.319  27.622  1.00  0.00     0.093 C 
BRANCH  85  86
ATOM     86  C   UNL A   1      32.512  23.368  27.286  1.00  0.00     0.123 C 
ATOM     87  C   UNL A   1      31.362  22.827  26.437  1.00  0.00     0.034 C 
ATOM     88  O   UNL A   1      32.926  24.515  26.535  1.00  0.00    -0.378 OA
ATOM     89  C   UNL A   1      30.636  24.089  26.022  1.00  0.00     0.031 C 
ATOM     90  C   UNL A   1      31.685  25.182  26.195  1.00  0.00     0.160 C 
ENDBRANCH  85  86
ENDBRANCH  84  85
ENDBRANCH  76  84
ENDBRANCH  72  74
ENDBRANCH  71  72
ENDBRANCH   1  71
TORSDOF 14
ENDMDL
