MODEL 1
REMARK VINA RESULT:     -13.5      0.000      0.000
REMARK SMILES Cc1ccc(-n2nc(C(=O)OCCOC(=O)c3ccc(-c4c5nc(c(-c6c(F)c(F)c(F)c(F)c6F)c6ccc([nH]6)c(-c6c(F)c(F)c(F)c(F)c6F)c6nc(c(-c7c(F)c(F)c(F)c(F)c7F)c7ccc4[nH]7)C=C6)C=C5)cc3)c3c2CCC3)c(F)c1
REMARK SMILES IDX 13 1 12 2 11 3 9 4 10 5 8 6 6 7 7 8 81 9 80 10 82 11 84 12
REMARK SMILES IDX 83 13 5 14 1 15 2 16 3 17 87 18 4 19 85 20 86 21 14 22 15 23
REMARK SMILES IDX 16 24 17 25 18 26 79 27 19 28 78 29 20 30 21 31 22 32 72 33
REMARK SMILES IDX 23 34 77 35 71 36 73 37 24 38 76 39 70 40 69 41 25 43 57 44
REMARK SMILES IDX 37 45 56 46 38 47 41 48 55 49 74 50 39 51 40 52 54 54 75 55
REMARK SMILES IDX 42 56 26 57 27 58 35 59 28 60 29 61 33 62 36 63 30 64 31 65
REMARK SMILES IDX 34 66 32 67 58 68 59 69 67 70 60 71 61 72 65 73 68 74 62 75
REMARK SMILES IDX 63 76 66 77 64 78 43 79 44 80 52 81 45 82 46 83 50 84 53 85
REMARK SMILES IDX 47 86 48 87 51 88 49 89
REMARK H PARENT 73 42 41 53
REMARK Flexibility Score: inf
ROOT
ATOM      1  C   UNL A   1      40.279  21.961  27.129  1.00  0.00     0.275 C 
ENDROOT
BRANCH   1   2
ATOM      2  C   UNL A   1      39.561  21.203  26.010  1.00  0.00     0.275 C 
BRANCH   2   3
ATOM      3  O   UNL A   1      38.259  21.743  25.702  1.00  0.00    -0.457 OA
BRANCH   3   4
ATOM      4  C   UNL A   1      37.354  20.923  25.069  1.00  0.00     0.359 C 
ATOM      5  O   UNL A   1      37.575  19.758  24.775  1.00  0.00    -0.244 OA
BRANCH   4   6
ATOM      6  C   UNL A   1      36.055  21.576  24.827  1.00  0.00     0.174 A 
ATOM      7  N   UNL A   1      34.604  23.135  24.417  1.00  0.00    -0.234 N 
ATOM      8  N   UNL A   1      35.937  22.904  24.571  1.00  0.00    -0.160 NA
ATOM      9  C   UNL A   1      33.907  21.973  24.497  1.00  0.00     0.048 A 
ATOM     10  C   UNL A   1      34.785  20.968  24.751  1.00  0.00     0.009 A 
ATOM     11  C   UNL A   1      32.520  21.554  24.237  1.00  0.00     0.057 C 
ATOM     12  C   UNL A   1      34.099  19.670  24.829  1.00  0.00     0.040 C 
ATOM     13  C   UNL A   1      32.595  20.040  24.599  1.00  0.00     0.011 C 
BRANCH   7  14
ATOM     14  C   UNL A   1      34.069  24.409  24.170  1.00  0.00     0.101 A 
ATOM     15  C   UNL A   1      32.988  28.498  23.433  1.00  0.00     0.044 C 
ATOM     16  C   UNL A   1      33.296  27.052  23.677  1.00  0.00    -0.048 A 
ATOM     17  C   UNL A   1      33.622  26.206  22.612  1.00  0.00     0.006 A 
ATOM     18  C   UNL A   1      33.321  26.548  24.985  1.00  0.00     0.045 A 
ATOM     19  C   UNL A   1      34.012  24.891  22.855  1.00  0.00     0.032 A 
ATOM     20  C   UNL A   1      33.687  25.226  25.229  1.00  0.00     0.149 A 
ATOM     21  F   UNL A   1      33.778  24.821  26.504  1.00  0.00    -0.205 F 
ENDBRANCH   7  14
ENDBRANCH   4   6
ENDBRANCH   3   4
ENDBRANCH   2   3
ENDBRANCH   1   2
BRANCH   1  22
ATOM     22  O   UNL A   1      40.924  23.128  26.608  1.00  0.00    -0.458 OA
BRANCH  22  23
ATOM     23  C   UNL A   1      41.003  24.115  27.518  1.00  0.00     0.338 C 
ATOM     24  O   UNL A   1      41.770  24.188  28.470  1.00  0.00    -0.246 OA
BRANCH  23  25
ATOM     25  C   UNL A   1      39.911  25.082  27.331  1.00  0.00     0.060 A 
ATOM     26  C   UNL A   1      40.280  26.104  26.450  1.00  0.00     0.016 A 
ATOM     27  C   UNL A   1      39.278  25.360  28.539  1.00  0.00     0.016 A 
ATOM     28  C   UNL A   1      40.484  27.368  26.966  1.00  0.00     0.010 A 
ATOM     29  C   UNL A   1      39.409  26.635  29.034  1.00  0.00     0.010 A 
ATOM     30  C   UNL A   1      40.121  27.589  28.291  1.00  0.00    -0.014 A 
BRANCH  30  31
ATOM     31  C   UNL A   1      40.349  28.851  28.956  1.00  0.00     0.031 A 
ATOM     32  C   UNL A   1      39.273  29.850  28.934  1.00  0.00     0.074 A 
ATOM     33  C   UNL A   1      41.487  29.021  29.657  1.00  0.00     0.049 A 
ATOM     34  N   UNL A   1      39.429  31.107  29.165  1.00  0.00    -0.248 NA
ATOM     35  C   UNL A   1      37.914  29.502  28.521  1.00  0.00     0.031 C 
ATOM     36  C   UNL A   1      41.719  29.968  30.735  1.00  0.00     0.029 A 
ATOM     37  N   UNL A   1      42.735  28.425  29.427  1.00  0.00    -0.354 N 
ATOM     38  C   UNL A   1      38.165  31.636  29.304  1.00  0.00     0.074 A 
ATOM     39  C   UNL A   1      37.299  30.675  28.677  1.00  0.00     0.031 C 
ATOM     40  C   UNL A   1      43.040  30.073  30.947  1.00  0.00     0.029 A 
ATOM     41  C   UNL A   1      43.701  29.349  29.874  1.00  0.00     0.049 A 
ATOM     42  H   UNL A   1      42.904  27.539  29.034  1.00  0.00     0.167 HD
ATOM     43  C   UNL A   1      37.999  32.695  30.149  1.00  0.00     0.037 A 
ATOM     44  C   UNL A   1      44.584  29.923  29.004  1.00  0.00     0.037 A 
ATOM     45  C   UNL A   1      39.305  33.195  30.587  1.00  0.00     0.049 A 
ATOM     46  C   UNL A   1      44.448  31.426  28.941  1.00  0.00     0.074 A 
ATOM     47  C   UNL A   1      40.019  33.018  31.762  1.00  0.00     0.029 A 
ATOM     48  N   UNL A   1      40.201  33.707  29.652  1.00  0.00    -0.354 N 
ATOM     49  N   UNL A   1      43.331  32.062  29.170  1.00  0.00    -0.248 NA
ATOM     50  C   UNL A   1      45.560  32.327  28.657  1.00  0.00     0.031 C 
ATOM     51  C   UNL A   1      41.368  33.369  31.511  1.00  0.00     0.029 A 
ATOM     52  C   UNL A   1      41.469  33.788  30.195  1.00  0.00     0.049 A 
ATOM     53  H   UNL A   1      39.964  33.975  28.735  1.00  0.00     0.167 HD
ATOM     54  C   UNL A   1      43.563  33.413  29.135  1.00  0.00     0.074 A 
ATOM     55  C   UNL A   1      44.968  33.528  28.789  1.00  0.00     0.031 C 
ATOM     56  C   UNL A   1      42.588  34.324  29.434  1.00  0.00     0.037 A 
BRANCH  43  57
ATOM     57  C   UNL A   1      36.702  33.042  30.874  1.00  0.00     0.064 A 
ATOM     58  C   UNL A   1      35.715  33.810  30.211  1.00  0.00     0.173 A 
ATOM     59  C   UNL A   1      36.398  32.770  32.224  1.00  0.00     0.173 A 
ATOM     60  F   UNL A   1      35.793  34.067  28.899  1.00  0.00    -0.203 F 
ATOM     61  C   UNL A   1      34.602  34.348  30.868  1.00  0.00     0.198 A 
ATOM     62  C   UNL A   1      35.291  33.313  32.884  1.00  0.00     0.198 A 
ATOM     63  F   UNL A   1      37.127  31.943  32.972  1.00  0.00    -0.203 F 
ATOM     64  F   UNL A   1      33.730  35.105  30.188  1.00  0.00    -0.200 F 
ATOM     65  C   UNL A   1      34.403  34.119  32.212  1.00  0.00     0.200 A 
ATOM     66  F   UNL A   1      35.102  33.045  34.185  1.00  0.00    -0.200 F 
ATOM     67  F   UNL A   1      33.352  34.650  32.850  1.00  0.00    -0.200 F 
ENDBRANCH  43  57
BRANCH  44  68
ATOM     68  C   UNL A   1      44.960  29.039  27.870  1.00  0.00     0.064 A 
ATOM     69  C   UNL A   1      46.012  28.122  28.061  1.00  0.00     0.173 A 
ATOM     70  C   UNL A   1      44.119  28.834  26.772  1.00  0.00     0.173 A 
ATOM     71  F   UNL A   1      46.854  28.276  29.097  1.00  0.00    -0.203 F 
ATOM     72  C   UNL A   1      46.155  26.998  27.250  1.00  0.00     0.198 A 
ATOM     73  C   UNL A   1      44.271  27.712  25.953  1.00  0.00     0.198 A 
ATOM     74  F   UNL A   1      43.106  29.678  26.526  1.00  0.00    -0.203 F 
ATOM     75  F   UNL A   1      47.121  26.105  27.513  1.00  0.00    -0.200 F 
ATOM     76  C   UNL A   1      45.272  26.783  26.206  1.00  0.00     0.200 A 
ATOM     77  F   UNL A   1      43.422  27.516  24.934  1.00  0.00    -0.200 F 
ATOM     78  F   UNL A   1      45.388  25.686  25.446  1.00  0.00    -0.200 F 
ENDBRANCH  44  68
BRANCH  56  79
ATOM     79  C   UNL A   1      42.639  35.818  29.198  1.00  0.00     0.064 A 
ATOM     80  C   UNL A   1      43.407  36.710  29.964  1.00  0.00     0.173 A 
ATOM     81  C   UNL A   1      42.004  36.390  28.065  1.00  0.00     0.173 A 
ATOM     82  F   UNL A   1      44.171  36.283  30.977  1.00  0.00    -0.203 F 
ATOM     83  C   UNL A   1      43.465  38.077  29.673  1.00  0.00     0.198 A 
ATOM     84  C   UNL A   1      42.116  37.741  27.742  1.00  0.00     0.198 A 
ATOM     85  F   UNL A   1      41.276  35.654  27.213  1.00  0.00    -0.203 F 
ATOM     86  F   UNL A   1      44.170  38.892  30.467  1.00  0.00    -0.200 F 
ATOM     87  C   UNL A   1      42.827  38.590  28.558  1.00  0.00     0.200 A 
ATOM     88  F   UNL A   1      41.543  38.206  26.622  1.00  0.00    -0.200 F 
ATOM     89  F   UNL A   1      42.922  39.892  28.261  1.00  0.00    -0.200 F 
ENDBRANCH  56  79
ENDBRANCH  30  31
ENDBRANCH  23  25
ENDBRANCH  22  23
ENDBRANCH   1  22
TORSDOF 12
ENDMDL
MODEL 2
REMARK VINA RESULT:     -13.4      4.543     10.460
REMARK SMILES Cc1ccc(-n2nc(C(=O)OCCOC(=O)c3ccc(-c4c5nc(c(-c6c(F)c(F)c(F)c(F)c6F)c6ccc([nH]6)c(-c6c(F)c(F)c(F)c(F)c6F)c6nc(c(-c7c(F)c(F)c(F)c(F)c7F)c7ccc4[nH]7)C=C6)C=C5)cc3)c3c2CCC3)c(F)c1
REMARK SMILES IDX 13 1 12 2 11 3 9 4 10 5 8 6 6 7 7 8 81 9 80 10 82 11 84 12
REMARK SMILES IDX 83 13 5 14 1 15 2 16 3 17 87 18 4 19 85 20 86 21 14 22 15 23
REMARK SMILES IDX 16 24 17 25 18 26 79 27 19 28 78 29 20 30 21 31 22 32 72 33
REMARK SMILES IDX 23 34 77 35 71 36 73 37 24 38 76 39 70 40 69 41 25 43 57 44
REMARK SMILES IDX 37 45 56 46 38 47 41 48 55 49 74 50 39 51 40 52 54 54 75 55
REMARK SMILES IDX 42 56 26 57 27 58 35 59 28 60 29 61 33 62 36 63 30 64 31 65
REMARK SMILES IDX 34 66 32 67 58 68 59 69 67 70 60 71 61 72 65 73 68 74 62 75
REMARK SMILES IDX 63 76 66 77 64 78 43 79 44 80 52 81 45 82 46 83 50 84 53 85
REMARK SMILES IDX 47 86 48 87 51 88 49 89
REMARK H PARENT 73 42 41 53
REMARK Flexibility Score: inf
ROOT
ATOM      1  C   UNL A   1      34.767  31.986  28.794  1.00  0.00     0.275 C 
ENDROOT
BRANCH   1   2
ATOM      2  C   UNL A   1      33.564  32.019  27.849  1.00  0.00     0.275 C 
BRANCH   2   3
ATOM      3  O   UNL A   1      33.214  30.720  27.329  1.00  0.00    -0.457 OA
BRANCH   3   4
ATOM      4  C   UNL A   1      32.107  30.627  26.518  1.00  0.00     0.359 C 
ATOM      5  O   UNL A   1      31.366  31.564  26.261  1.00  0.00    -0.244 OA
BRANCH   4   6
ATOM      6  C   UNL A   1      31.931  29.285  25.934  1.00  0.00     0.174 A 
ATOM      7  N   UNL A   1      32.095  27.138  25.678  1.00  0.00    -0.234 N 
ATOM      8  N   UNL A   1      32.450  28.165  26.499  1.00  0.00    -0.160 NA
ATOM      9  C   UNL A   1      31.310  27.586  24.665  1.00  0.00     0.048 A 
ATOM     10  C   UNL A   1      31.181  28.933  24.794  1.00  0.00     0.009 A 
ATOM     11  C   UNL A   1      30.491  26.967  23.611  1.00  0.00     0.057 C 
ATOM     12  C   UNL A   1      30.321  29.486  23.738  1.00  0.00     0.040 C 
ATOM     13  C   UNL A   1      29.938  28.230  22.884  1.00  0.00     0.011 C 
BRANCH   7  14
ATOM     14  C   UNL A   1      32.476  25.806  25.907  1.00  0.00     0.101 A 
ATOM     15  C   UNL A   1      33.830  21.919  27.129  1.00  0.00     0.044 C 
ATOM     16  C   UNL A   1      33.326  23.245  26.643  1.00  0.00    -0.048 A 
ATOM     17  C   UNL A   1      32.032  23.671  26.956  1.00  0.00     0.006 A 
ATOM     18  C   UNL A   1      34.173  24.098  25.922  1.00  0.00     0.045 A 
ATOM     19  C   UNL A   1      31.607  24.948  26.595  1.00  0.00     0.032 A 
ATOM     20  C   UNL A   1      33.743  25.367  25.538  1.00  0.00     0.149 A 
ATOM     21  F   UNL A   1      34.622  26.174  24.927  1.00  0.00    -0.205 F 
ENDBRANCH   7  14
ENDBRANCH   4   6
ENDBRANCH   3   4
ENDBRANCH   2   3
ENDBRANCH   1   2
BRANCH   1  22
ATOM     22  O   UNL A   1      35.988  31.944  28.048  1.00  0.00    -0.458 OA
BRANCH  22  23
ATOM     23  C   UNL A   1      36.982  31.350  28.732  1.00  0.00     0.338 C 
ATOM     24  O   UNL A   1      37.787  31.881  29.486  1.00  0.00    -0.246 OA
BRANCH  23  25
ATOM     25  C   UNL A   1      37.105  29.936  28.346  1.00  0.00     0.060 A 
ATOM     26  C   UNL A   1      37.095  29.098  29.465  1.00  0.00     0.016 A 
ATOM     27  C   UNL A   1      38.042  29.776  27.329  1.00  0.00     0.016 A 
ATOM     28  C   UNL A   1      38.270  28.465  29.817  1.00  0.00     0.010 A 
ATOM     29  C   UNL A   1      39.188  29.085  27.639  1.00  0.00     0.010 A 
ATOM     30  C   UNL A   1      39.336  28.544  28.926  1.00  0.00    -0.014 A 
BRANCH  30  31
ATOM     31  C   UNL A   1      40.632  27.978  29.217  1.00  0.00     0.031 A 
ATOM     32  C   UNL A   1      40.911  26.611  28.757  1.00  0.00     0.074 A 
ATOM     33  C   UNL A   1      41.566  28.755  29.800  1.00  0.00     0.049 A 
ATOM     34  N   UNL A   1      41.847  25.856  29.214  1.00  0.00    -0.248 NA
ATOM     35  C   UNL A   1      40.045  25.939  27.789  1.00  0.00     0.031 C 
ATOM     36  C   UNL A   1      43.008  28.568  29.766  1.00  0.00     0.029 A 
ATOM     37  N   UNL A   1      41.364  29.835  30.671  1.00  0.00    -0.354 N 
ATOM     38  C   UNL A   1      41.936  24.784  28.355  1.00  0.00     0.074 A 
ATOM     39  C   UNL A   1      40.678  24.773  27.657  1.00  0.00     0.031 C 
ATOM     40  C   UNL A   1      43.568  29.327  30.719  1.00  0.00     0.029 A 
ATOM     41  C   UNL A   1      42.485  29.868  31.524  1.00  0.00     0.049 A 
ATOM     42  H   UNL A   1      40.595  30.449  30.683  1.00  0.00     0.167 HD
ATOM     43  C   UNL A   1      43.157  24.203  28.173  1.00  0.00     0.037 A 
ATOM     44  C   UNL A   1      42.357  29.651  32.867  1.00  0.00     0.037 A 
ATOM     45  C   UNL A   1      44.116  24.741  29.142  1.00  0.00     0.049 A 
ATOM     46  C   UNL A   1      43.128  28.441  33.339  1.00  0.00     0.074 A 
ATOM     47  C   UNL A   1      45.115  25.695  29.024  1.00  0.00     0.029 A 
ATOM     48  N   UNL A   1      43.905  24.555  30.505  1.00  0.00    -0.354 N 
ATOM     49  N   UNL A   1      43.386  27.407  32.585  1.00  0.00    -0.248 NA
ATOM     50  C   UNL A   1      43.702  28.321  34.675  1.00  0.00     0.031 C 
ATOM     51  C   UNL A   1      45.462  26.128  30.327  1.00  0.00     0.029 A 
ATOM     52  C   UNL A   1      44.697  25.417  31.237  1.00  0.00     0.049 A 
ATOM     53  H   UNL A   1      43.280  23.899  30.892  1.00  0.00     0.167 HD
ATOM     54  C   UNL A   1      44.187  26.533  33.273  1.00  0.00     0.074 A 
ATOM     55  C   UNL A   1      44.340  27.139  34.583  1.00  0.00     0.031 C 
ATOM     56  C   UNL A   1      44.692  25.402  32.693  1.00  0.00     0.037 A 
BRANCH  43  57
ATOM     57  C   UNL A   1      43.592  23.450  26.918  1.00  0.00     0.064 A 
ATOM     58  C   UNL A   1      43.207  22.100  26.745  1.00  0.00     0.173 A 
ATOM     59  C   UNL A   1      44.461  23.927  25.916  1.00  0.00     0.173 A 
ATOM     60  F   UNL A   1      42.302  21.522  27.546  1.00  0.00    -0.203 F 
ATOM     61  C   UNL A   1      43.735  21.282  25.739  1.00  0.00     0.198 A 
ATOM     62  C   UNL A   1      44.996  23.109  24.915  1.00  0.00     0.198 A 
ATOM     63  F   UNL A   1      44.818  25.207  25.822  1.00  0.00    -0.203 F 
ATOM     64  F   UNL A   1      43.360  19.998  25.661  1.00  0.00    -0.200 F 
ATOM     65  C   UNL A   1      44.650  21.781  24.837  1.00  0.00     0.200 A 
ATOM     66  F   UNL A   1      45.859  23.630  24.029  1.00  0.00    -0.200 F 
ATOM     67  F   UNL A   1      45.176  20.997  23.888  1.00  0.00    -0.200 F 
ENDBRANCH  43  57
BRANCH  44  68
ATOM     68  C   UNL A   1      41.062  30.124  33.423  1.00  0.00     0.064 A 
ATOM     69  C   UNL A   1      40.939  31.486  33.759  1.00  0.00     0.173 A 
ATOM     70  C   UNL A   1      39.883  29.381  33.306  1.00  0.00     0.173 A 
ATOM     71  F   UNL A   1      42.041  32.244  33.891  1.00  0.00    -0.203 F 
ATOM     72  C   UNL A   1      39.694  32.099  33.875  1.00  0.00     0.198 A 
ATOM     73  C   UNL A   1      38.634  29.995  33.434  1.00  0.00     0.198 A 
ATOM     74  F   UNL A   1      39.930  28.076  33.002  1.00  0.00    -0.203 F 
ATOM     75  F   UNL A   1      39.618  33.416  34.118  1.00  0.00    -0.200 F 
ATOM     76  C   UNL A   1      38.540  31.356  33.694  1.00  0.00     0.200 A 
ATOM     77  F   UNL A   1      37.519  29.268  33.272  1.00  0.00    -0.200 F 
ATOM     78  F   UNL A   1      37.342  31.951  33.772  1.00  0.00    -0.200 F 
ENDBRANCH  44  68
BRANCH  56  79
ATOM     79  C   UNL A   1      45.371  24.248  33.397  1.00  0.00     0.064 A 
ATOM     80  C   UNL A   1      46.673  24.301  33.920  1.00  0.00     0.173 A 
ATOM     81  C   UNL A   1      44.651  23.062  33.696  1.00  0.00     0.173 A 
ATOM     82  F   UNL A   1      47.416  25.412  33.834  1.00  0.00    -0.203 F 
ATOM     83  C   UNL A   1      47.239  23.225  34.611  1.00  0.00     0.198 A 
ATOM     84  C   UNL A   1      45.196  22.018  34.440  1.00  0.00     0.198 A 
ATOM     85  F   UNL A   1      43.380  22.887  33.305  1.00  0.00    -0.203 F 
ATOM     86  F   UNL A   1      48.504  23.308  35.043  1.00  0.00    -0.200 F 
ATOM     87  C   UNL A   1      46.498  22.088  34.879  1.00  0.00     0.200 A 
ATOM     88  F   UNL A   1      44.440  20.952  34.743  1.00  0.00    -0.200 F 
ATOM     89  F   UNL A   1      47.031  21.079  35.578  1.00  0.00    -0.200 F 
ENDBRANCH  56  79
ENDBRANCH  30  31
ENDBRANCH  23  25
ENDBRANCH  22  23
ENDBRANCH   1  22
TORSDOF 12
ENDMDL
MODEL 3
REMARK VINA RESULT:     -13.4      1.339      2.927
REMARK SMILES Cc1ccc(-n2nc(C(=O)OCCOC(=O)c3ccc(-c4c5nc(c(-c6c(F)c(F)c(F)c(F)c6F)c6ccc([nH]6)c(-c6c(F)c(F)c(F)c(F)c6F)c6nc(c(-c7c(F)c(F)c(F)c(F)c7F)c7ccc4[nH]7)C=C6)C=C5)cc3)c3c2CCC3)c(F)c1
REMARK SMILES IDX 13 1 12 2 11 3 9 4 10 5 8 6 6 7 7 8 81 9 80 10 82 11 84 12
REMARK SMILES IDX 83 13 5 14 1 15 2 16 3 17 87 18 4 19 85 20 86 21 14 22 15 23
REMARK SMILES IDX 16 24 17 25 18 26 79 27 19 28 78 29 20 30 21 31 22 32 72 33
REMARK SMILES IDX 23 34 77 35 71 36 73 37 24 38 76 39 70 40 69 41 25 43 57 44
REMARK SMILES IDX 37 45 56 46 38 47 41 48 55 49 74 50 39 51 40 52 54 54 75 55
REMARK SMILES IDX 42 56 26 57 27 58 35 59 28 60 29 61 33 62 36 63 30 64 31 65
REMARK SMILES IDX 34 66 32 67 58 68 59 69 67 70 60 71 61 72 65 73 68 74 62 75
REMARK SMILES IDX 63 76 66 77 64 78 43 79 44 80 52 81 45 82 46 83 50 84 53 85
REMARK SMILES IDX 47 86 48 87 51 88 49 89
REMARK H PARENT 73 42 41 53
REMARK Flexibility Score: inf
ROOT
ATOM      1  C   UNL A   1      40.323  22.132  26.414  1.00  0.00     0.275 C 
ENDROOT
BRANCH   1   2
ATOM      2  C   UNL A   1      38.945  21.538  26.110  1.00  0.00     0.275 C 
BRANCH   2   3
ATOM      3  O   UNL A   1      38.157  22.357  25.223  1.00  0.00    -0.457 OA
BRANCH   3   4
ATOM      4  C   UNL A   1      36.926  22.785  25.663  1.00  0.00     0.359 C 
ATOM      5  O   UNL A   1      36.758  23.745  26.400  1.00  0.00    -0.244 OA
BRANCH   4   6
ATOM      6  C   UNL A   1      35.809  21.998  25.108  1.00  0.00     0.174 A 
ATOM      7  N   UNL A   1      34.507  20.311  24.710  1.00  0.00    -0.234 N 
ATOM      8  N   UNL A   1      35.609  20.691  25.413  1.00  0.00    -0.160 NA
ATOM      9  C   UNL A   1      33.981  21.368  24.040  1.00  0.00     0.048 A 
ATOM     10  C   UNL A   1      34.771  22.450  24.269  1.00  0.00     0.009 A 
ATOM     11  C   UNL A   1      32.742  21.634  23.292  1.00  0.00     0.057 C 
ATOM     12  C   UNL A   1      34.246  23.643  23.589  1.00  0.00     0.040 C 
ATOM     13  C   UNL A   1      32.970  23.112  22.853  1.00  0.00     0.011 C 
BRANCH   7  14
ATOM     14  C   UNL A   1      33.994  19.005  24.734  1.00  0.00     0.101 A 
ATOM     15  C   UNL A   1      32.527  15.023  25.386  1.00  0.00     0.044 C 
ATOM     16  C   UNL A   1      33.014  16.409  25.089  1.00  0.00    -0.048 A 
ATOM     17  C   UNL A   1      32.155  17.505  25.213  1.00  0.00     0.006 A 
ATOM     18  C   UNL A   1      34.356  16.624  24.745  1.00  0.00     0.045 A 
ATOM     19  C   UNL A   1      32.641  18.800  25.042  1.00  0.00     0.032 A 
ATOM     20  C   UNL A   1      34.839  17.917  24.549  1.00  0.00     0.149 A 
ATOM     21  F   UNL A   1      36.149  18.071  24.307  1.00  0.00    -0.205 F 
ENDBRANCH   7  14
ENDBRANCH   4   6
ENDBRANCH   3   4
ENDBRANCH   2   3
ENDBRANCH   1   2
BRANCH   1  22
ATOM     22  O   UNL A   1      40.303  22.825  27.666  1.00  0.00    -0.458 OA
BRANCH  22  23
ATOM     23  C   UNL A   1      40.818  24.064  27.569  1.00  0.00     0.338 C 
ATOM     24  O   UNL A   1      41.981  24.401  27.749  1.00  0.00    -0.246 OA
BRANCH  23  25
ATOM     25  C   UNL A   1      39.752  25.055  27.358  1.00  0.00     0.060 A 
ATOM     26  C   UNL A   1      40.155  26.059  26.472  1.00  0.00     0.016 A 
ATOM     27  C   UNL A   1      39.110  25.359  28.555  1.00  0.00     0.016 A 
ATOM     28  C   UNL A   1      40.383  27.323  26.979  1.00  0.00     0.010 A 
ATOM     29  C   UNL A   1      39.264  26.635  29.039  1.00  0.00     0.010 A 
ATOM     30  C   UNL A   1      40.007  27.565  28.297  1.00  0.00    -0.014 A 
BRANCH  30  31
ATOM     31  C   UNL A   1      40.256  28.829  28.952  1.00  0.00     0.031 A 
ATOM     32  C   UNL A   1      39.190  29.839  28.938  1.00  0.00     0.074 A 
ATOM     33  C   UNL A   1      41.404  28.991  29.638  1.00  0.00     0.049 A 
ATOM     34  N   UNL A   1      39.361  31.094  29.160  1.00  0.00    -0.248 NA
ATOM     35  C   UNL A   1      37.823  29.501  28.544  1.00  0.00     0.031 C 
ATOM     36  C   UNL A   1      41.659  29.941  30.708  1.00  0.00     0.029 A 
ATOM     37  N   UNL A   1      42.644  28.381  29.396  1.00  0.00    -0.354 N 
ATOM     38  C   UNL A   1      38.105  31.637  29.311  1.00  0.00     0.074 A 
ATOM     39  C   UNL A   1      37.221  30.682  28.701  1.00  0.00     0.031 C 
ATOM     40  C   UNL A   1      42.983  30.034  30.904  1.00  0.00     0.029 A 
ATOM     41  C   UNL A   1      43.624  29.298  29.826  1.00  0.00     0.049 A 
ATOM     42  H   UNL A   1      42.798  27.491  29.005  1.00  0.00     0.167 HD
ATOM     43  C   UNL A   1      37.959  32.701  30.153  1.00  0.00     0.037 A 
ATOM     44  C   UNL A   1      44.502  29.859  28.942  1.00  0.00     0.037 A 
ATOM     45  C   UNL A   1      39.276  33.191  30.572  1.00  0.00     0.049 A 
ATOM     46  C   UNL A   1      44.380  31.362  28.873  1.00  0.00     0.074 A 
ATOM     47  C   UNL A   1      40.002  33.013  31.739  1.00  0.00     0.029 A 
ATOM     48  N   UNL A   1      40.165  33.690  29.624  1.00  0.00    -0.354 N 
ATOM     49  N   UNL A   1      43.272  32.011  29.112  1.00  0.00    -0.248 NA
ATOM     50  C   UNL A   1      45.497  32.250  28.571  1.00  0.00     0.031 C 
ATOM     51  C   UNL A   1      41.351  33.349  31.471  1.00  0.00     0.029 A 
ATOM     52  C   UNL A   1      41.440  33.760  30.151  1.00  0.00     0.049 A 
ATOM     53  H   UNL A   1      39.920  33.955  28.708  1.00  0.00     0.167 HD
ATOM     54  C   UNL A   1      43.517  33.359  29.068  1.00  0.00     0.074 A 
ATOM     55  C   UNL A   1      44.919  33.458  28.704  1.00  0.00     0.031 C 
ATOM     56  C   UNL A   1      42.555  34.282  29.374  1.00  0.00     0.037 A 
BRANCH  43  57
ATOM     57  C   UNL A   1      36.674  33.065  30.892  1.00  0.00     0.064 A 
ATOM     58  C   UNL A   1      35.667  33.799  30.222  1.00  0.00     0.173 A 
ATOM     59  C   UNL A   1      36.402  32.842  32.257  1.00  0.00     0.173 A 
ATOM     60  F   UNL A   1      35.716  34.007  28.899  1.00  0.00    -0.203 F 
ATOM     61  C   UNL A   1      34.563  34.353  30.882  1.00  0.00     0.198 A 
ATOM     62  C   UNL A   1      35.304  33.401  32.920  1.00  0.00     0.198 A 
ATOM     63  F   UNL A   1      37.154  32.051  33.020  1.00  0.00    -0.203 F 
ATOM     64  F   UNL A   1      33.671  35.076  30.192  1.00  0.00    -0.200 F 
ATOM     65  C   UNL A   1      34.395  34.174  32.238  1.00  0.00     0.200 A 
ATOM     66  F   UNL A   1      35.145  33.182  34.234  1.00  0.00    -0.200 F 
ATOM     67  F   UNL A   1      33.353  34.720  32.877  1.00  0.00    -0.200 F 
ENDBRANCH  43  57
BRANCH  44  68
ATOM     68  C   UNL A   1      44.855  28.965  27.809  1.00  0.00     0.064 A 
ATOM     69  C   UNL A   1      45.901  28.039  27.991  1.00  0.00     0.173 A 
ATOM     70  C   UNL A   1      43.998  28.761  26.723  1.00  0.00     0.173 A 
ATOM     71  F   UNL A   1      46.758  28.191  29.015  1.00  0.00    -0.203 F 
ATOM     72  C   UNL A   1      46.023  26.910  27.185  1.00  0.00     0.198 A 
ATOM     73  C   UNL A   1      44.129  27.633  25.908  1.00  0.00     0.198 A 
ATOM     74  F   UNL A   1      42.990  29.613  26.485  1.00  0.00    -0.203 F 
ATOM     75  F   UNL A   1      46.985  26.009  27.440  1.00  0.00    -0.200 F 
ATOM     76  C   UNL A   1      45.125  26.697  26.153  1.00  0.00     0.200 A 
ATOM     77  F   UNL A   1      43.265  27.440  24.901  1.00  0.00    -0.200 F 
ATOM     78  F   UNL A   1      45.221  25.595  25.398  1.00  0.00    -0.200 F 
ENDBRANCH  44  68
BRANCH  56  79
ATOM     79  C   UNL A   1      42.619  35.773  29.129  1.00  0.00     0.064 A 
ATOM     80  C   UNL A   1      43.394  36.663  29.889  1.00  0.00     0.173 A 
ATOM     81  C   UNL A   1      41.986  36.344  27.994  1.00  0.00     0.173 A 
ATOM     82  F   UNL A   1      44.156  36.236  30.904  1.00  0.00    -0.203 F 
ATOM     83  C   UNL A   1      43.463  38.028  29.590  1.00  0.00     0.198 A 
ATOM     84  C   UNL A   1      42.109  37.692  27.663  1.00  0.00     0.198 A 
ATOM     85  F   UNL A   1      41.252  35.609  27.146  1.00  0.00    -0.203 F 
ATOM     86  F   UNL A   1      44.176  38.842  30.379  1.00  0.00    -0.200 F 
ATOM     87  C   UNL A   1      42.829  38.540  28.474  1.00  0.00     0.200 A 
ATOM     88  F   UNL A   1      41.539  38.156  26.541  1.00  0.00    -0.200 F 
ATOM     89  F   UNL A   1      42.933  39.839  28.168  1.00  0.00    -0.200 F 
ENDBRANCH  56  79
ENDBRANCH  30  31
ENDBRANCH  23  25
ENDBRANCH  22  23
ENDBRANCH   1  22
TORSDOF 12
ENDMDL
