MODEL 1
REMARK VINA RESULT:     -11.6      0.000      0.000
REMARK SMILES C[C@@]([NH2+]CC(=O)NC1CCOCC1)(C(=O)OCCOC(=O)c1ccc(-c2c3nc(c(-c4c(F)c(F)c(F)c(F)c4F)c4ccc([nH]4)c(-c4c(F)c(F)c(F)c(F)c4F)c4nc(c(-c5c(F)c(F)c(F)c(F)c5F)c5ccc2[nH]5)C=C4)C=C3)cc1)C(F)(F)F
REMARK SMILES IDX 17 1 16 2 14 3 15 4 2 5 1 6 3 7 4 10 5 11 6 12 7 13 8 15
REMARK SMILES IDX 9 16 13 17 10 18 12 19 11 20 85 21 86 22 87 23 88 24 18 25
REMARK SMILES IDX 19 26 20 27 21 28 22 29 23 30 84 31 24 32 83 33 25 34 26 35
REMARK SMILES IDX 27 36 77 37 28 38 82 39 76 40 78 41 29 42 81 43 75 44 74 45
REMARK SMILES IDX 30 47 62 48 42 49 61 50 43 51 46 52 60 53 79 54 44 55 45 56
REMARK SMILES IDX 59 58 80 59 47 60 31 61 32 62 40 63 33 64 34 65 38 66 41 67
REMARK SMILES IDX 35 68 36 69 39 70 37 71 63 72 64 73 72 74 65 75 66 76 70 77
REMARK SMILES IDX 73 78 67 79 68 80 71 81 69 82 48 83 49 84 57 85 50 86 51 87
REMARK SMILES IDX 55 88 58 89 52 90 53 91 56 92 54 93
REMARK H PARENT 3 8 3 9 7 14 78 46 46 57
REMARK Flexibility Score: inf
ROOT
ATOM      1  C   UNL A   1      32.072  27.559  27.152  1.00  0.00     0.274 C 
ENDROOT
BRANCH   1   2
ATOM      2  O   UNL A   1      31.008  26.560  26.913  1.00  0.00    -0.457 OA
BRANCH   2   3
ATOM      3  C   UNL A   1      30.842  26.237  25.588  1.00  0.00     0.377 C 
ATOM      4  O   UNL A   1      29.845  26.683  25.023  1.00  0.00    -0.244 OA
BRANCH   3   5
ATOM      5  C   UNL A   1      31.902  25.163  24.897  1.00  0.00     0.287 C 
ATOM      6  C   UNL A   1      31.099  23.840  24.870  1.00  0.00     0.103 C 
BRANCH   5   7
ATOM      7  N   UNL A   1      32.117  25.841  23.574  1.00  0.00    -0.317 N 
ATOM      8  H   UNL A   1      31.209  25.994  23.133  1.00  0.00     0.347 HD
ATOM      9  H   UNL A   1      32.711  25.236  23.007  1.00  0.00     0.347 HD
BRANCH   7  10
ATOM     10  C   UNL A   1      32.828  27.193  23.717  1.00  0.00     0.363 C 
BRANCH  10  11
ATOM     11  C   UNL A   1      32.260  28.576  23.092  1.00  0.00     0.275 C 
ATOM     12  O   UNL A   1      32.922  29.167  22.231  1.00  0.00    -0.268 OA
ATOM     13  N   UNL A   1      31.208  29.264  23.698  1.00  0.00    -0.348 N 
ATOM     14  H   UNL A   1      31.305  29.392  24.668  1.00  0.00     0.163 HD
BRANCH  13  15
ATOM     15  C   UNL A   1      29.946  29.844  23.104  1.00  0.00     0.086 C 
ATOM     16  C   UNL A   1      29.407  31.012  23.928  1.00  0.00     0.053 C 
ATOM     17  C   UNL A   1      28.799  28.877  22.765  1.00  0.00     0.053 C 
ATOM     18  C   UNL A   1      28.034  31.464  23.441  1.00  0.00     0.162 C 
ATOM     19  C   UNL A   1      27.394  29.408  22.582  1.00  0.00     0.162 C 
ATOM     20  O   UNL A   1      27.101  30.398  23.542  1.00  0.00    -0.381 OA
ENDBRANCH  13  15
ENDBRANCH  10  11
ENDBRANCH   7  10
ENDBRANCH   5   7
BRANCH   5  21
ATOM     21  C   UNL A   1      33.383  24.615  25.270  1.00  0.00     0.455 C 
ATOM     22  F   UNL A   1      34.184  25.393  26.012  1.00  0.00    -0.164 F 
ATOM     23  F   UNL A   1      33.260  23.456  25.995  1.00  0.00    -0.164 F 
ATOM     24  F   UNL A   1      34.109  24.184  24.197  1.00  0.00    -0.164 F 
ENDBRANCH   5  21
ENDBRANCH   3   5
ENDBRANCH   2   3
ENDBRANCH   1   2
BRANCH   1  25
ATOM     25  C   UNL A   1      31.668  29.072  27.170  1.00  0.00     0.275 C 
BRANCH  25  26
ATOM     26  O   UNL A   1      32.448  29.963  26.321  1.00  0.00    -0.458 OA
BRANCH  26  27
ATOM     27  C   UNL A   1      32.970  31.068  26.964  1.00  0.00     0.338 C 
ATOM     28  O   UNL A   1      32.320  32.020  27.335  1.00  0.00    -0.246 OA
BRANCH  27  29
ATOM     29  C   UNL A   1      34.418  30.890  27.357  1.00  0.00     0.060 A 
ATOM     30  C   UNL A   1      34.978  29.632  27.490  1.00  0.00     0.016 A 
ATOM     31  C   UNL A   1      35.187  31.988  27.783  1.00  0.00     0.016 A 
ATOM     32  C   UNL A   1      36.133  29.466  28.279  1.00  0.00     0.010 A 
ATOM     33  C   UNL A   1      36.448  31.812  28.413  1.00  0.00     0.010 A 
ATOM     34  C   UNL A   1      36.934  30.535  28.724  1.00  0.00    -0.014 A 
BRANCH  34  35
ATOM     35  C   UNL A   1      38.252  30.287  29.441  1.00  0.00     0.031 A 
ATOM     36  C   UNL A   1      39.377  29.435  28.859  1.00  0.00     0.074 A 
ATOM     37  C   UNL A   1      38.478  30.845  30.655  1.00  0.00     0.049 A 
ATOM     38  N   UNL A   1      40.429  28.914  29.457  1.00  0.00    -0.248 NA
ATOM     39  C   UNL A   1      39.332  29.140  27.419  1.00  0.00     0.031 C 
ATOM     40  C   UNL A   1      37.567  31.748  31.361  1.00  0.00     0.029 A 
ATOM     41  N   UNL A   1      39.549  30.742  31.523  1.00  0.00    -0.354 N 
ATOM     42  C   UNL A   1      41.126  28.190  28.488  1.00  0.00     0.074 A 
ATOM     43  C   UNL A   1      40.398  28.366  27.249  1.00  0.00     0.031 C 
ATOM     44  C   UNL A   1      38.135  32.178  32.489  1.00  0.00     0.029 A 
ATOM     45  C   UNL A   1      39.346  31.410  32.709  1.00  0.00     0.049 A 
ATOM     46  H   UNL A   1      40.371  30.243  31.313  1.00  0.00     0.167 HD
ATOM     47  C   UNL A   1      42.248  27.434  28.628  1.00  0.00     0.037 A 
ATOM     48  C   UNL A   1      39.957  31.337  33.907  1.00  0.00     0.037 A 
ATOM     49  C   UNL A   1      42.996  27.298  29.859  1.00  0.00     0.049 A 
ATOM     50  C   UNL A   1      41.108  30.401  34.082  1.00  0.00     0.074 A 
ATOM     51  C   UNL A   1      44.142  26.554  30.102  1.00  0.00     0.029 A 
ATOM     52  N   UNL A   1      42.678  27.924  31.055  1.00  0.00    -0.354 N 
ATOM     53  N   UNL A   1      41.680  29.625  33.197  1.00  0.00    -0.248 NA
ATOM     54  C   UNL A   1      41.680  30.307  35.431  1.00  0.00     0.031 C 
ATOM     55  C   UNL A   1      44.477  26.680  31.454  1.00  0.00     0.029 A 
ATOM     56  C   UNL A   1      43.584  27.559  32.041  1.00  0.00     0.049 A 
ATOM     57  H   UNL A   1      41.920  28.539  31.184  1.00  0.00     0.167 HD
ATOM     58  C   UNL A   1      42.687  28.959  33.874  1.00  0.00     0.074 A 
ATOM     59  C   UNL A   1      42.661  29.438  35.242  1.00  0.00     0.031 C 
ATOM     60  C   UNL A   1      43.553  28.031  33.401  1.00  0.00     0.037 A 
BRANCH  47  61
ATOM     61  C   UNL A   1      42.739  26.622  27.449  1.00  0.00     0.064 A 
ATOM     62  C   UNL A   1      43.746  27.075  26.584  1.00  0.00     0.173 A 
ATOM     63  C   UNL A   1      42.273  25.306  27.266  1.00  0.00     0.173 A 
ATOM     64  F   UNL A   1      44.236  28.316  26.710  1.00  0.00    -0.203 F 
ATOM     65  C   UNL A   1      44.257  26.250  25.578  1.00  0.00     0.198 A 
ATOM     66  C   UNL A   1      42.805  24.477  26.281  1.00  0.00     0.198 A 
ATOM     67  F   UNL A   1      41.327  24.807  28.075  1.00  0.00    -0.203 F 
ATOM     68  F   UNL A   1      45.205  26.711  24.750  1.00  0.00    -0.200 F 
ATOM     69  C   UNL A   1      43.794  24.950  25.434  1.00  0.00     0.200 A 
ATOM     70  F   UNL A   1      42.373  23.213  26.162  1.00  0.00    -0.200 F 
ATOM     71  F   UNL A   1      44.303  24.152  24.484  1.00  0.00    -0.200 F 
ENDBRANCH  47  61
BRANCH  48  72
ATOM     72  C   UNL A   1      39.377  32.077  35.062  1.00  0.00     0.064 A 
ATOM     73  C   UNL A   1      38.541  31.447  35.992  1.00  0.00     0.173 A 
ATOM     74  C   UNL A   1      39.698  33.430  35.286  1.00  0.00     0.173 A 
ATOM     75  F   UNL A   1      38.176  30.171  35.806  1.00  0.00    -0.203 F 
ATOM     76  C   UNL A   1      38.060  32.135  37.105  1.00  0.00     0.198 A 
ATOM     77  C   UNL A   1      39.257  34.099  36.423  1.00  0.00     0.198 A 
ATOM     78  F   UNL A   1      40.490  34.085  34.423  1.00  0.00    -0.203 F 
ATOM     79  F   UNL A   1      37.233  31.522  37.961  1.00  0.00    -0.200 F 
ATOM     80  C   UNL A   1      38.434  33.452  37.329  1.00  0.00     0.200 A 
ATOM     81  F   UNL A   1      39.646  35.362  36.647  1.00  0.00    -0.200 F 
ATOM     82  F   UNL A   1      37.996  34.101  38.418  1.00  0.00    -0.200 F 
ENDBRANCH  48  72
BRANCH  60  83
ATOM     83  C   UNL A   1      44.580  27.518  34.367  1.00  0.00     0.064 A 
ATOM     84  C   UNL A   1      44.362  26.362  35.132  1.00  0.00     0.173 A 
ATOM     85  C   UNL A   1      45.787  28.209  34.548  1.00  0.00     0.173 A 
ATOM     86  F   UNL A   1      43.212  25.680  35.013  1.00  0.00    -0.203 F 
ATOM     87  C   UNL A   1      45.297  25.943  36.074  1.00  0.00     0.198 A 
ATOM     88  C   UNL A   1      46.735  27.767  35.466  1.00  0.00     0.198 A 
ATOM     89  F   UNL A   1      46.044  29.319  33.841  1.00  0.00    -0.203 F 
ATOM     90  F   UNL A   1      45.037  24.878  36.845  1.00  0.00    -0.200 F 
ATOM     91  C   UNL A   1      46.484  26.642  36.237  1.00  0.00     0.200 A 
ATOM     92  F   UNL A   1      47.884  28.440  35.616  1.00  0.00    -0.200 F 
ATOM     93  F   UNL A   1      47.380  26.241  37.150  1.00  0.00    -0.200 F 
ENDBRANCH  60  83
ENDBRANCH  34  35
ENDBRANCH  27  29
ENDBRANCH  26  27
ENDBRANCH  25  26
ENDBRANCH   1  25
TORSDOF 16
ENDMDL
MODEL 2
REMARK VINA RESULT:     -11.5      4.190      9.438
REMARK SMILES C[C@@]([NH2+]CC(=O)NC1CCOCC1)(C(=O)OCCOC(=O)c1ccc(-c2c3nc(c(-c4c(F)c(F)c(F)c(F)c4F)c4ccc([nH]4)c(-c4c(F)c(F)c(F)c(F)c4F)c4nc(c(-c5c(F)c(F)c(F)c(F)c5F)c5ccc2[nH]5)C=C4)C=C3)cc1)C(F)(F)F
REMARK SMILES IDX 17 1 16 2 14 3 15 4 2 5 1 6 3 7 4 10 5 11 6 12 7 13 8 15
REMARK SMILES IDX 9 16 13 17 10 18 12 19 11 20 85 21 86 22 87 23 88 24 18 25
REMARK SMILES IDX 19 26 20 27 21 28 22 29 23 30 84 31 24 32 83 33 25 34 26 35
REMARK SMILES IDX 27 36 77 37 28 38 82 39 76 40 78 41 29 42 81 43 75 44 74 45
REMARK SMILES IDX 30 47 62 48 42 49 61 50 43 51 46 52 60 53 79 54 44 55 45 56
REMARK SMILES IDX 59 58 80 59 47 60 31 61 32 62 40 63 33 64 34 65 38 66 41 67
REMARK SMILES IDX 35 68 36 69 39 70 37 71 63 72 64 73 72 74 65 75 66 76 70 77
REMARK SMILES IDX 73 78 67 79 68 80 71 81 69 82 48 83 49 84 57 85 50 86 51 87
REMARK SMILES IDX 55 88 58 89 52 90 53 91 56 92 54 93
REMARK H PARENT 3 8 3 9 7 14 78 46 46 57
REMARK Flexibility Score: inf
ROOT
ATOM      1  C   UNL A   1      35.242  21.674  26.223  1.00  0.00     0.274 C 
ENDROOT
BRANCH   1   2
ATOM      2  O   UNL A   1      34.887  23.109  26.210  1.00  0.00    -0.457 OA
BRANCH   2   3
ATOM      3  C   UNL A   1      33.539  23.343  26.090  1.00  0.00     0.377 C 
ATOM      4  O   UNL A   1      32.875  23.335  27.126  1.00  0.00    -0.244 OA
BRANCH   3   5
ATOM      5  C   UNL A   1      32.889  23.469  24.569  1.00  0.00     0.287 C 
ATOM      6  C   UNL A   1      31.418  23.033  24.775  1.00  0.00     0.103 C 
BRANCH   5   7
ATOM      7  N   UNL A   1      33.124  24.931  24.317  1.00  0.00    -0.317 N 
ATOM      8  H   UNL A   1      33.399  25.056  23.343  1.00  0.00     0.347 HD
ATOM      9  H   UNL A   1      33.855  25.243  24.956  1.00  0.00     0.347 HD
BRANCH   7  10
ATOM     10  C   UNL A   1      31.874  25.780  24.587  1.00  0.00     0.363 C 
BRANCH  10  11
ATOM     11  C   UNL A   1      31.662  26.662  25.930  1.00  0.00     0.275 C 
ATOM     12  O   UNL A   1      31.012  26.187  26.869  1.00  0.00    -0.268 OA
ATOM     13  N   UNL A   1      31.931  28.031  25.944  1.00  0.00    -0.348 N 
ATOM     14  H   UNL A   1      31.546  28.534  25.192  1.00  0.00     0.163 HD
BRANCH  13  15
ATOM     15  C   UNL A   1      32.717  28.864  26.929  1.00  0.00     0.086 C 
ATOM     16  C   UNL A   1      32.436  30.357  26.772  1.00  0.00     0.053 C 
ATOM     17  C   UNL A   1      34.234  28.630  27.021  1.00  0.00     0.053 C 
ATOM     18  C   UNL A   1      33.373  31.205  27.627  1.00  0.00     0.162 C 
ATOM     19  C   UNL A   1      35.124  29.684  27.643  1.00  0.00     0.162 C 
ATOM     20  O   UNL A   1      34.723  30.977  27.249  1.00  0.00    -0.381 OA
ENDBRANCH  13  15
ENDBRANCH  10  11
ENDBRANCH   7  10
ENDBRANCH   5   7
BRANCH   5  21
ATOM     21  C   UNL A   1      33.209  22.795  23.128  1.00  0.00     0.455 C 
ATOM     22  F   UNL A   1      32.866  21.515  22.931  1.00  0.00    -0.164 F 
ATOM     23  F   UNL A   1      32.535  23.487  22.152  1.00  0.00    -0.164 F 
ATOM     24  F   UNL A   1      34.503  22.942  22.714  1.00  0.00    -0.164 F 
ENDBRANCH   5  21
ENDBRANCH   3   5
ENDBRANCH   2   3
ENDBRANCH   1   2
BRANCH   1  25
ATOM     25  C   UNL A   1      36.062  21.109  25.013  1.00  0.00     0.275 C 
BRANCH  25  26
ATOM     26  O   UNL A   1      37.351  21.735  24.753  1.00  0.00    -0.458 OA
BRANCH  26  27
ATOM     27  C   UNL A   1      38.369  21.343  25.601  1.00  0.00     0.338 C 
ATOM     28  O   UNL A   1      38.877  20.244  25.605  1.00  0.00    -0.246 OA
BRANCH  27  29
ATOM     29  C   UNL A   1      38.945  22.492  26.396  1.00  0.00     0.060 A 
ATOM     30  C   UNL A   1      38.440  23.774  26.279  1.00  0.00     0.016 A 
ATOM     31  C   UNL A   1      40.131  22.329  27.135  1.00  0.00     0.016 A 
ATOM     32  C   UNL A   1      39.243  24.872  26.640  1.00  0.00     0.010 A 
ATOM     33  C   UNL A   1      40.838  23.444  27.661  1.00  0.00     0.010 A 
ATOM     34  C   UNL A   1      40.435  24.757  27.382  1.00  0.00    -0.014 A 
BRANCH  34  35
ATOM     35  C   UNL A   1      41.179  25.989  27.875  1.00  0.00     0.031 A 
ATOM     36  C   UNL A   1      40.533  27.069  28.738  1.00  0.00     0.074 A 
ATOM     37  C   UNL A   1      42.485  26.161  27.561  1.00  0.00     0.049 A 
ATOM     38  N   UNL A   1      40.950  28.291  29.002  1.00  0.00    -0.248 NA
ATOM     39  C   UNL A   1      39.267  26.739  29.408  1.00  0.00     0.031 C 
ATOM     40  C   UNL A   1      43.312  25.218  26.805  1.00  0.00     0.029 A 
ATOM     41  N   UNL A   1      43.363  27.193  27.837  1.00  0.00    -0.354 N 
ATOM     42  C   UNL A   1      39.976  28.884  29.809  1.00  0.00     0.074 A 
ATOM     43  C   UNL A   1      38.960  27.875  30.024  1.00  0.00     0.031 C 
ATOM     44  C   UNL A   1      44.570  25.659  26.750  1.00  0.00     0.029 A 
ATOM     45  C   UNL A   1      44.599  27.018  27.257  1.00  0.00     0.049 A 
ATOM     46  H   UNL A   1      43.127  27.972  28.390  1.00  0.00     0.167 HD
ATOM     47  C   UNL A   1      39.928  30.152  30.299  1.00  0.00     0.037 A 
ATOM     48  C   UNL A   1      45.615  27.867  27.014  1.00  0.00     0.037 A 
ATOM     49  C   UNL A   1      40.969  31.141  30.118  1.00  0.00     0.049 A 
ATOM     50  C   UNL A   1      45.491  29.293  27.441  1.00  0.00     0.074 A 
ATOM     51  C   UNL A   1      41.011  32.451  30.572  1.00  0.00     0.029 A 
ATOM     52  N   UNL A   1      42.155  30.928  29.431  1.00  0.00    -0.354 N 
ATOM     53  N   UNL A   1      44.515  29.877  28.089  1.00  0.00    -0.248 NA
ATOM     54  C   UNL A   1      46.597  30.187  27.078  1.00  0.00     0.031 C 
ATOM     55  C   UNL A   1      42.188  33.046  30.107  1.00  0.00     0.029 A 
ATOM     56  C   UNL A   1      42.917  32.089  29.424  1.00  0.00     0.049 A 
ATOM     57  H   UNL A   1      42.419  30.077  29.012  1.00  0.00     0.167 HD
ATOM     58  C   UNL A   1      44.891  31.202  28.223  1.00  0.00     0.074 A 
ATOM     59  C   UNL A   1      46.196  31.333  27.607  1.00  0.00     0.031 C 
ATOM     60  C   UNL A   1      44.210  32.219  28.805  1.00  0.00     0.037 A 
BRANCH  47  61
ATOM     61  C   UNL A   1      38.689  30.607  31.039  1.00  0.00     0.064 A 
ATOM     62  C   UNL A   1      38.597  30.602  32.437  1.00  0.00     0.173 A 
ATOM     63  C   UNL A   1      37.620  31.179  30.322  1.00  0.00     0.173 A 
ATOM     64  F   UNL A   1      39.583  30.077  33.178  1.00  0.00    -0.203 F 
ATOM     65  C   UNL A   1      37.483  31.140  33.089  1.00  0.00     0.198 A 
ATOM     66  C   UNL A   1      36.525  31.741  30.976  1.00  0.00     0.198 A 
ATOM     67  F   UNL A   1      37.658  31.234  28.983  1.00  0.00    -0.203 F 
ATOM     68  F   UNL A   1      37.408  31.107  34.427  1.00  0.00    -0.200 F 
ATOM     69  C   UNL A   1      36.454  31.718  32.359  1.00  0.00     0.200 A 
ATOM     70  F   UNL A   1      35.546  32.321  30.266  1.00  0.00    -0.200 F 
ATOM     71  F   UNL A   1      35.398  32.255  32.987  1.00  0.00    -0.200 F 
ENDBRANCH  47  61
BRANCH  48  72
ATOM     72  C   UNL A   1      46.769  27.400  26.196  1.00  0.00     0.064 A 
ATOM     73  C   UNL A   1      46.821  27.612  24.813  1.00  0.00     0.173 A 
ATOM     74  C   UNL A   1      47.876  26.776  26.801  1.00  0.00     0.173 A 
ATOM     75  F   UNL A   1      45.779  28.170  24.182  1.00  0.00    -0.203 F 
ATOM     76  C   UNL A   1      47.937  27.230  24.071  1.00  0.00     0.198 A 
ATOM     77  C   UNL A   1      49.008  26.440  26.067  1.00  0.00     0.198 A 
ATOM     78  F   UNL A   1      47.877  26.542  28.123  1.00  0.00    -0.203 F 
ATOM     79  F   UNL A   1      47.949  27.410  22.743  1.00  0.00    -0.200 F 
ATOM     80  C   UNL A   1      49.036  26.663  24.701  1.00  0.00     0.200 A 
ATOM     81  F   UNL A   1      50.077  25.921  26.687  1.00  0.00    -0.200 F 
ATOM     82  F   UNL A   1      50.122  26.327  23.989  1.00  0.00    -0.200 F 
ENDBRANCH  48  72
BRANCH  60  83
ATOM     83  C   UNL A   1      44.900  33.551  28.847  1.00  0.00     0.064 A 
ATOM     84  C   UNL A   1      45.755  33.906  29.901  1.00  0.00     0.173 A 
ATOM     85  C   UNL A   1      44.678  34.493  27.832  1.00  0.00     0.173 A 
ATOM     86  F   UNL A   1      45.979  33.049  30.908  1.00  0.00    -0.203 F 
ATOM     87  C   UNL A   1      46.329  35.173  29.957  1.00  0.00     0.198 A 
ATOM     88  C   UNL A   1      45.281  35.746  27.874  1.00  0.00     0.198 A 
ATOM     89  F   UNL A   1      43.869  34.202  26.803  1.00  0.00    -0.203 F 
ATOM     90  F   UNL A   1      47.085  35.518  31.009  1.00  0.00    -0.200 F 
ATOM     91  C   UNL A   1      46.095  36.090  28.942  1.00  0.00     0.200 A 
ATOM     92  F   UNL A   1      45.061  36.627  26.889  1.00  0.00    -0.200 F 
ATOM     93  F   UNL A   1      46.643  37.312  29.003  1.00  0.00    -0.200 F 
ENDBRANCH  60  83
ENDBRANCH  34  35
ENDBRANCH  27  29
ENDBRANCH  26  27
ENDBRANCH  25  26
ENDBRANCH   1  25
TORSDOF 16
ENDMDL
MODEL 3
REMARK VINA RESULT:     -11.5      1.861      3.621
REMARK SMILES C[C@@]([NH2+]CC(=O)NC1CCOCC1)(C(=O)OCCOC(=O)c1ccc(-c2c3nc(c(-c4c(F)c(F)c(F)c(F)c4F)c4ccc([nH]4)c(-c4c(F)c(F)c(F)c(F)c4F)c4nc(c(-c5c(F)c(F)c(F)c(F)c5F)c5ccc2[nH]5)C=C4)C=C3)cc1)C(F)(F)F
REMARK SMILES IDX 17 1 16 2 14 3 15 4 2 5 1 6 3 7 4 10 5 11 6 12 7 13 8 15
REMARK SMILES IDX 9 16 13 17 10 18 12 19 11 20 85 21 86 22 87 23 88 24 18 25
REMARK SMILES IDX 19 26 20 27 21 28 22 29 23 30 84 31 24 32 83 33 25 34 26 35
REMARK SMILES IDX 27 36 77 37 28 38 82 39 76 40 78 41 29 42 81 43 75 44 74 45
REMARK SMILES IDX 30 47 62 48 42 49 61 50 43 51 46 52 60 53 79 54 44 55 45 56
REMARK SMILES IDX 59 58 80 59 47 60 31 61 32 62 40 63 33 64 34 65 38 66 41 67
REMARK SMILES IDX 35 68 36 69 39 70 37 71 63 72 64 73 72 74 65 75 66 76 70 77
REMARK SMILES IDX 73 78 67 79 68 80 71 81 69 82 48 83 49 84 57 85 50 86 51 87
REMARK SMILES IDX 55 88 58 89 52 90 53 91 56 92 54 93
REMARK H PARENT 3 8 3 9 7 14 78 46 46 57
REMARK Flexibility Score: inf
ROOT
ATOM      1  C   UNL A   1      31.825  28.045  27.496  1.00  0.00     0.274 C 
ENDROOT
BRANCH   1   2
ATOM      2  O   UNL A   1      31.005  26.973  26.892  1.00  0.00    -0.457 OA
BRANCH   2   3
ATOM      3  C   UNL A   1      31.612  26.346  25.831  1.00  0.00     0.377 C 
ATOM      4  O   UNL A   1      32.490  25.524  26.092  1.00  0.00    -0.244 OA
BRANCH   3   5
ATOM      5  C   UNL A   1      31.228  26.842  24.294  1.00  0.00     0.287 C 
ATOM      6  C   UNL A   1      32.519  27.552  23.819  1.00  0.00     0.103 C 
BRANCH   5   7
ATOM      7  N   UNL A   1      30.929  25.509  23.669  1.00  0.00    -0.317 N 
ATOM      8  H   UNL A   1      30.003  25.549  23.241  1.00  0.00     0.347 HD
ATOM      9  H   UNL A   1      30.972  24.804  24.404  1.00  0.00     0.347 HD
BRANCH   7  10
ATOM     10  C   UNL A   1      31.952  25.125  22.592  1.00  0.00     0.363 C 
BRANCH  10  11
ATOM     11  C   UNL A   1      33.060  23.958  22.784  1.00  0.00     0.275 C 
ATOM     12  O   UNL A   1      33.087  23.012  21.987  1.00  0.00    -0.268 OA
ATOM     13  N   UNL A   1      33.781  23.834  23.971  1.00  0.00    -0.348 N 
ATOM     14  H   UNL A   1      33.236  23.865  24.789  1.00  0.00     0.163 HD
BRANCH  13  15
ATOM     15  C   UNL A   1      35.264  23.660  24.204  1.00  0.00     0.086 C 
ATOM     16  C   UNL A   1      35.715  22.218  23.982  1.00  0.00     0.053 C 
ATOM     17  C   UNL A   1      35.853  24.190  25.522  1.00  0.00     0.053 C 
ATOM     18  C   UNL A   1      37.164  22.004  24.407  1.00  0.00     0.162 C 
ATOM     19  C   UNL A   1      37.195  23.685  26.005  1.00  0.00     0.162 C 
ATOM     20  O   UNL A   1      37.318  22.297  25.788  1.00  0.00    -0.381 OA
ENDBRANCH  13  15
ENDBRANCH  10  11
ENDBRANCH   7  10
ENDBRANCH   5   7
BRANCH   5  21
ATOM     21  C   UNL A   1      30.093  27.808  23.653  1.00  0.00     0.455 C 
ATOM     22  F   UNL A   1      30.084  29.102  24.003  1.00  0.00    -0.164 F 
ATOM     23  F   UNL A   1      30.237  27.821  22.288  1.00  0.00    -0.164 F 
ATOM     24  F   UNL A   1      28.818  27.339  23.783  1.00  0.00    -0.164 F 
ENDBRANCH   5  21
ENDBRANCH   3   5
ENDBRANCH   2   3
ENDBRANCH   1   2
BRANCH   1  25
ATOM     25  C   UNL A   1      31.652  29.501  26.946  1.00  0.00     0.275 C 
BRANCH  25  26
ATOM     26  O   UNL A   1      32.834  30.120  26.361  1.00  0.00    -0.458 OA
BRANCH  26  27
ATOM     27  C   UNL A   1      33.374  31.153  27.101  1.00  0.00     0.338 C 
ATOM     28  O   UNL A   1      32.747  32.100  27.523  1.00  0.00    -0.246 OA
BRANCH  27  29
ATOM     29  C   UNL A   1      34.801  30.890  27.525  1.00  0.00     0.060 A 
ATOM     30  C   UNL A   1      35.246  29.609  27.798  1.00  0.00     0.016 A 
ATOM     31  C   UNL A   1      35.665  31.956  27.838  1.00  0.00     0.016 A 
ATOM     32  C   UNL A   1      36.381  29.427  28.610  1.00  0.00     0.010 A 
ATOM     33  C   UNL A   1      36.906  31.738  28.495  1.00  0.00     0.010 A 
ATOM     34  C   UNL A   1      37.276  30.463  28.945  1.00  0.00    -0.014 A 
BRANCH  34  35
ATOM     35  C   UNL A   1      38.566  30.178  29.697  1.00  0.00     0.031 A 
ATOM     36  C   UNL A   1      39.668  29.270  29.157  1.00  0.00     0.074 A 
ATOM     37  C   UNL A   1      38.788  30.751  30.904  1.00  0.00     0.049 A 
ATOM     38  N   UNL A   1      40.686  28.720  29.789  1.00  0.00    -0.248 NA
ATOM     39  C   UNL A   1      39.643  28.948  27.723  1.00  0.00     0.031 C 
ATOM     40  C   UNL A   1      37.898  31.703  31.572  1.00  0.00     0.029 A 
ATOM     41  N   UNL A   1      39.834  30.623  31.798  1.00  0.00    -0.354 N 
ATOM     42  C   UNL A   1      41.374  27.949  28.850  1.00  0.00     0.074 A 
ATOM     43  C   UNL A   1      40.681  28.129  27.591  1.00  0.00     0.031 C 
ATOM     44  C   UNL A   1      38.458  32.133  32.704  1.00  0.00     0.029 A 
ATOM     45  C   UNL A   1      39.632  31.323  32.966  1.00  0.00     0.049 A 
ATOM     46  H   UNL A   1      40.640  30.088  31.617  1.00  0.00     0.167 HD
ATOM     47  C   UNL A   1      42.462  27.153  29.030  1.00  0.00     0.037 A 
ATOM     48  C   UNL A   1      40.213  31.250  34.179  1.00  0.00     0.037 A 
ATOM     49  C   UNL A   1      43.177  27.012  30.281  1.00  0.00     0.049 A 
ATOM     50  C   UNL A   1      41.321  30.272  34.399  1.00  0.00     0.074 A 
ATOM     51  C   UNL A   1      44.286  26.229  30.565  1.00  0.00     0.029 A 
ATOM     52  N   UNL A   1      42.857  27.675  31.456  1.00  0.00    -0.354 N 
ATOM     53  N   UNL A   1      41.881  29.456  33.542  1.00  0.00    -0.248 NA
ATOM     54  C   UNL A   1      41.859  30.183  35.761  1.00  0.00     0.031 C 
ATOM     55  C   UNL A   1      44.596  26.369  31.921  1.00  0.00     0.029 A 
ATOM     56  C   UNL A   1      43.727  27.294  32.471  1.00  0.00     0.049 A 
ATOM     57  H   UNL A   1      42.122  28.322  31.557  1.00  0.00     0.167 HD
ATOM     58  C   UNL A   1      42.846  28.765  34.255  1.00  0.00     0.074 A 
ATOM     59  C   UNL A   1      42.809  29.273  35.612  1.00  0.00     0.031 C 
ATOM     60  C   UNL A   1      43.684  27.794  33.820  1.00  0.00     0.037 A 
BRANCH  47  61
ATOM     61  C   UNL A   1      42.946  26.299  27.879  1.00  0.00     0.064 A 
ATOM     62  C   UNL A   1      42.430  25.023  27.613  1.00  0.00     0.173 A 
ATOM     63  C   UNL A   1      43.859  26.833  26.950  1.00  0.00     0.173 A 
ATOM     64  F   UNL A   1      41.553  24.460  28.456  1.00  0.00    -0.203 F 
ATOM     65  C   UNL A   1      42.816  24.312  26.473  1.00  0.00     0.198 A 
ATOM     66  C   UNL A   1      44.219  26.134  25.799  1.00  0.00     0.198 A 
ATOM     67  F   UNL A   1      44.372  28.059  27.136  1.00  0.00    -0.203 F 
ATOM     68  F   UNL A   1      42.324  23.085  26.250  1.00  0.00    -0.200 F 
ATOM     69  C   UNL A   1      43.700  24.872  25.563  1.00  0.00     0.200 A 
ATOM     70  F   UNL A   1      45.054  26.691  24.910  1.00  0.00    -0.200 F 
ATOM     71  F   UNL A   1      44.050  24.198  24.457  1.00  0.00    -0.200 F 
ENDBRANCH  47  61
BRANCH  48  72
ATOM     72  C   UNL A   1      39.638  32.036  35.306  1.00  0.00     0.064 A 
ATOM     73  C   UNL A   1      38.675  31.490  36.164  1.00  0.00     0.173 A 
ATOM     74  C   UNL A   1      40.088  33.341  35.578  1.00  0.00     0.173 A 
ATOM     75  F   UNL A   1      38.187  30.265  35.929  1.00  0.00    -0.203 F 
ATOM     76  C   UNL A   1      38.195  32.214  37.255  1.00  0.00     0.198 A 
ATOM     77  C   UNL A   1      39.644  34.042  36.695  1.00  0.00     0.198 A 
ATOM     78  F   UNL A   1      41.005  33.915  34.784  1.00  0.00    -0.203 F 
ATOM     79  F   UNL A   1      37.247  31.685  38.040  1.00  0.00    -0.200 F 
ATOM     80  C   UNL A   1      38.694  33.479  37.530  1.00  0.00     0.200 A 
ATOM     81  F   UNL A   1      40.152  35.251  36.970  1.00  0.00    -0.200 F 
ATOM     82  F   UNL A   1      38.254  34.159  38.599  1.00  0.00    -0.200 F 
ENDBRANCH  48  72
BRANCH  60  83
ATOM     83  C   UNL A   1      44.668  27.261  34.818  1.00  0.00     0.064 A 
ATOM     84  C   UNL A   1      44.384  26.135  35.606  1.00  0.00     0.173 A 
ATOM     85  C   UNL A   1      45.901  27.902  35.008  1.00  0.00     0.173 A 
ATOM     86  F   UNL A   1      43.208  25.501  35.480  1.00  0.00    -0.203 F 
ATOM     87  C   UNL A   1      45.281  25.699  36.577  1.00  0.00     0.198 A 
ATOM     88  C   UNL A   1      46.810  27.442  35.955  1.00  0.00     0.198 A 
ATOM     89  F   UNL A   1      46.221  28.982  34.279  1.00  0.00    -0.203 F 
ATOM     90  F   UNL A   1      44.959  24.666  37.369  1.00  0.00    -0.200 F 
ATOM     91  C   UNL A   1      46.495  26.349  36.748  1.00  0.00     0.200 A 
ATOM     92  F   UNL A   1      47.985  28.067  36.113  1.00  0.00    -0.200 F 
ATOM     93  F   UNL A   1      47.353  25.932  37.688  1.00  0.00    -0.200 F 
ENDBRANCH  60  83
ENDBRANCH  34  35
ENDBRANCH  27  29
ENDBRANCH  26  27
ENDBRANCH  25  26
ENDBRANCH   1  25
TORSDOF 16
ENDMDL
