MODEL 1
REMARK VINA RESULT:     -13.1      0.000      0.000
REMARK SMILES NS(=O)(=O)c1ccc(-n2nc(C(F)F)cc2-c2ccc(C(=O)OCCOC(=O)c3ccc(-c4c5nc(c(-c6c(F)c(F)c(F)c(F)c6F)c6ccc([nH]6)c(-c6c(F)c(F)c(F)c(F)c6F)c6nc(c(-c7c(F)c(F)c(F)c(F)c7F)c7ccc4[nH]7)C=C6)C=C5)cc3)cc2)cc1
REMARK SMILES IDX 24 1 23 2 21 3 22 4 20 5 17 6 18 7 93 8 19 9 92 10 16 11
REMARK SMILES IDX 9 12 10 13 11 14 15 15 8 16 5 17 6 18 95 19 7 20 94 21 2 22
REMARK SMILES IDX 3 23 4 24 1 25 12 28 13 29 14 30 25 31 26 32 27 33 28 34
REMARK SMILES IDX 29 35 30 36 91 37 31 38 90 39 32 40 33 41 34 42 84 43 35 44
REMARK SMILES IDX 89 45 83 46 85 47 36 48 88 49 82 50 81 51 37 53 69 54 49 55
REMARK SMILES IDX 68 56 50 57 53 58 67 59 86 60 51 61 52 62 66 64 87 65 54 66
REMARK SMILES IDX 38 67 39 68 47 69 40 70 41 71 45 72 48 73 42 74 43 75 46 76
REMARK SMILES IDX 44 77 70 78 71 79 79 80 72 81 73 82 77 83 80 84 74 85 75 86
REMARK SMILES IDX 78 87 76 88 55 89 56 90 64 91 57 92 58 93 62 94 65 95 59 96
REMARK SMILES IDX 60 97 63 98 61 99
REMARK H PARENT 1 26 1 27 85 52 53 63
REMARK Flexibility Score: inf
ROOT
ATOM      1  C   UNL A   1      33.884  33.223  28.211  1.00  0.00     0.275 C 
ENDROOT
BRANCH   1   2
ATOM      2  O   UNL A   1      33.533  31.831  28.202  1.00  0.00    -0.458 OA
BRANCH   2   3
ATOM      3  C   UNL A   1      34.422  31.010  27.590  1.00  0.00     0.338 C 
ATOM      4  O   UNL A   1      35.613  31.226  27.427  1.00  0.00    -0.246 OA
BRANCH   3   5
ATOM      5  C   UNL A   1      33.770  29.730  27.216  1.00  0.00     0.060 A 
ATOM      6  C   UNL A   1      32.599  27.321  26.383  1.00  0.00     0.000 A 
ATOM      7  C   UNL A   1      33.913  27.636  26.009  1.00  0.00     0.011 A 
ATOM      8  C   UNL A   1      31.888  28.207  27.202  1.00  0.00     0.011 A 
ATOM      9  C   UNL A   1      34.495  28.834  26.421  1.00  0.00     0.016 A 
ATOM     10  C   UNL A   1      32.474  29.403  27.626  1.00  0.00     0.016 A 
BRANCH   6  11
ATOM     11  C   UNL A   1      31.949  26.128  25.849  1.00  0.00     0.075 A 
ATOM     12  N   UNL A   1      30.813  26.099  25.047  1.00  0.00    -0.233 N 
ATOM     13  N   UNL A   1      30.259  24.858  25.015  1.00  0.00    -0.166 NA
ATOM     14  C   UNL A   1      31.165  24.055  25.596  1.00  0.00     0.129 A 
ATOM     15  C   UNL A   1      32.225  24.809  26.149  1.00  0.00     0.060 A 
BRANCH  12  16
ATOM     16  C   UNL A   1      30.237  27.157  24.294  1.00  0.00     0.065 A 
ATOM     17  C   UNL A   1      29.084  29.252  22.859  1.00  0.00     0.082 A 
ATOM     18  C   UNL A   1      30.427  29.328  23.229  1.00  0.00     0.024 A 
ATOM     19  C   UNL A   1      28.318  28.125  23.180  1.00  0.00     0.024 A 
ATOM     20  C   UNL A   1      31.000  28.284  23.960  1.00  0.00     0.030 A 
ATOM     21  C   UNL A   1      28.903  27.061  23.875  1.00  0.00     0.030 A 
BRANCH  17  22
ATOM     22  S   UNL A   1      28.292  30.582  22.002  1.00  0.00     0.238 S 
ATOM     23  O   UNL A   1      27.278  31.134  22.861  1.00  0.00    -0.207 OA
ATOM     24  O   UNL A   1      28.029  30.154  20.643  1.00  0.00    -0.207 OA
BRANCH  22  25
ATOM     25  N   UNL A   1      29.469  31.776  21.878  1.00  0.00    -0.225 NA
ATOM     26  H   UNL A   1      29.090  32.663  22.209  1.00  0.00     0.137 HD
ATOM     27  H   UNL A   1      29.756  31.871  20.903  1.00  0.00     0.137 HD
ENDBRANCH  22  25
ENDBRANCH  17  22
ENDBRANCH  12  16
BRANCH  14  28
ATOM     28  C   UNL A   1      31.016  22.564  25.654  1.00  0.00     0.393 C 
ATOM     29  F   UNL A   1      32.126  21.945  26.135  1.00  0.00    -0.203 F 
ATOM     30  F   UNL A   1      29.981  22.198  26.460  1.00  0.00    -0.203 F 
ENDBRANCH  14  28
ENDBRANCH   6  11
ENDBRANCH   3   5
ENDBRANCH   2   3
ENDBRANCH   1   2
BRANCH   1  31
ATOM     31  C   UNL A   1      34.033  33.739  29.635  1.00  0.00     0.275 C 
BRANCH  31  32
ATOM     32  O   UNL A   1      35.336  33.495  30.165  1.00  0.00    -0.458 OA
BRANCH  32  33
ATOM     33  C   UNL A   1      35.439  32.403  30.956  1.00  0.00     0.338 C 
ATOM     34  O   UNL A   1      34.855  32.184  32.005  1.00  0.00    -0.246 OA
BRANCH  33  35
ATOM     35  C   UNL A   1      36.574  31.591  30.501  1.00  0.00     0.060 A 
ATOM     36  C   UNL A   1      36.478  30.202  30.618  1.00  0.00     0.016 A 
ATOM     37  C   UNL A   1      37.793  32.221  30.209  1.00  0.00     0.016 A 
ATOM     38  C   UNL A   1      37.637  29.451  30.554  1.00  0.00     0.010 A 
ATOM     39  C   UNL A   1      38.949  31.474  30.163  1.00  0.00     0.010 A 
ATOM     40  C   UNL A   1      38.868  30.103  30.391  1.00  0.00    -0.014 A 
BRANCH  40  41
ATOM     41  C   UNL A   1      40.070  29.293  30.315  1.00  0.00     0.031 A 
ATOM     42  C   UNL A   1      40.730  29.103  31.629  1.00  0.00     0.074 A 
ATOM     43  C   UNL A   1      40.477  28.668  29.194  1.00  0.00     0.049 A 
ATOM     44  N   UNL A   1      41.917  29.474  31.975  1.00  0.00    -0.248 NA
ATOM     45  C   UNL A   1      39.924  28.552  32.731  1.00  0.00     0.031 C 
ATOM     46  C   UNL A   1      39.767  28.532  27.920  1.00  0.00     0.029 A 
ATOM     47  N   UNL A   1      41.602  27.926  28.998  1.00  0.00    -0.354 N 
ATOM     48  C   UNL A   1      42.072  29.066  33.297  1.00  0.00     0.074 A 
ATOM     49  C   UNL A   1      40.776  28.638  33.752  1.00  0.00     0.031 C 
ATOM     50  C   UNL A   1      40.374  27.582  27.172  1.00  0.00     0.029 A 
ATOM     51  C   UNL A   1      41.580  27.141  27.854  1.00  0.00     0.049 A 
ATOM     52  H   UNL A   1      42.367  27.945  29.617  1.00  0.00     0.167 HD
ATOM     53  C   UNL A   1      43.308  28.909  33.840  1.00  0.00     0.037 A 
ATOM     54  C   UNL A   1      42.461  26.159  27.536  1.00  0.00     0.037 A 
ATOM     55  C   UNL A   1      44.302  29.629  33.088  1.00  0.00     0.049 A 
ATOM     56  C   UNL A   1      43.685  26.378  28.346  1.00  0.00     0.074 A 
ATOM     57  C   UNL A   1      44.513  30.961  32.789  1.00  0.00     0.029 A 
ATOM     58  N   UNL A   1      45.077  28.920  32.205  1.00  0.00    -0.354 N 
ATOM     59  N   UNL A   1      44.506  27.375  28.171  1.00  0.00    -0.248 NA
ATOM     60  C   UNL A   1      43.768  25.720  29.642  1.00  0.00     0.031 C 
ATOM     61  C   UNL A   1      45.024  30.967  31.459  1.00  0.00     0.029 A 
ATOM     62  C   UNL A   1      45.144  29.642  31.042  1.00  0.00     0.049 A 
ATOM     63  H   UNL A   1      45.507  28.052  32.376  1.00  0.00     0.167 HD
ATOM     64  C   UNL A   1      44.880  27.747  29.454  1.00  0.00     0.074 A 
ATOM     65  C   UNL A   1      44.478  26.634  30.308  1.00  0.00     0.031 C 
ATOM     66  C   UNL A   1      45.219  29.039  29.733  1.00  0.00     0.037 A 
BRANCH  53  67
ATOM     67  C   UNL A   1      43.667  27.810  34.809  1.00  0.00     0.064 A 
ATOM     68  C   UNL A   1      43.404  26.472  34.452  1.00  0.00     0.173 A 
ATOM     69  C   UNL A   1      43.956  28.029  36.172  1.00  0.00     0.173 A 
ATOM     70  F   UNL A   1      43.099  26.149  33.185  1.00  0.00    -0.203 F 
ATOM     71  C   UNL A   1      43.350  25.452  35.404  1.00  0.00     0.198 A 
ATOM     72  C   UNL A   1      43.954  27.000  37.111  1.00  0.00     0.198 A 
ATOM     73  F   UNL A   1      44.135  29.255  36.678  1.00  0.00    -0.203 F 
ATOM     74  F   UNL A   1      42.963  24.222  35.040  1.00  0.00    -0.200 F 
ATOM     75  C   UNL A   1      43.617  25.718  36.734  1.00  0.00     0.200 A 
ATOM     76  F   UNL A   1      44.195  27.283  38.399  1.00  0.00    -0.200 F 
ATOM     77  F   UNL A   1      43.499  24.757  37.659  1.00  0.00    -0.200 F 
ENDBRANCH  53  67
BRANCH  54  78
ATOM     78  C   UNL A   1      42.221  24.886  26.815  1.00  0.00     0.064 A 
ATOM     79  C   UNL A   1      43.017  24.514  25.717  1.00  0.00     0.173 A 
ATOM     80  C   UNL A   1      41.407  23.877  27.365  1.00  0.00     0.173 A 
ATOM     81  F   UNL A   1      43.853  25.402  25.159  1.00  0.00    -0.203 F 
ATOM     82  C   UNL A   1      43.023  23.205  25.222  1.00  0.00     0.198 A 
ATOM     83  C   UNL A   1      41.409  22.573  26.865  1.00  0.00     0.198 A 
ATOM     84  F   UNL A   1      40.669  24.109  28.459  1.00  0.00    -0.203 F 
ATOM     85  F   UNL A   1      43.847  22.874  24.219  1.00  0.00    -0.200 F 
ATOM     86  C   UNL A   1      42.228  22.233  25.806  1.00  0.00     0.200 A 
ATOM     87  F   UNL A   1      40.661  21.633  27.462  1.00  0.00    -0.200 F 
ATOM     88  F   UNL A   1      42.282  20.965  25.376  1.00  0.00    -0.200 F 
ENDBRANCH  54  78
BRANCH  66  89
ATOM     89  C   UNL A   1      45.464  29.963  28.575  1.00  0.00     0.064 A 
ATOM     90  C   UNL A   1      44.452  30.662  27.893  1.00  0.00     0.173 A 
ATOM     91  C   UNL A   1      46.792  30.252  28.232  1.00  0.00     0.173 A 
ATOM     92  F   UNL A   1      43.164  30.519  28.230  1.00  0.00    -0.203 F 
ATOM     93  C   UNL A   1      44.760  31.573  26.884  1.00  0.00     0.198 A 
ATOM     94  C   UNL A   1      47.097  31.190  27.252  1.00  0.00     0.198 A 
ATOM     95  F   UNL A   1      47.799  29.654  28.886  1.00  0.00    -0.203 F 
ATOM     96  F   UNL A   1      43.776  32.221  26.241  1.00  0.00    -0.200 F 
ATOM     97  C   UNL A   1      46.082  31.842  26.570  1.00  0.00     0.200 A 
ATOM     98  F   UNL A   1      48.377  31.483  26.986  1.00  0.00    -0.200 F 
ATOM     99  F   UNL A   1      46.377  32.749  25.629  1.00  0.00    -0.200 F 
ENDBRANCH  66  89
ENDBRANCH  40  41
ENDBRANCH  33  35
ENDBRANCH  32  33
ENDBRANCH  31  32
ENDBRANCH   1  31
TORSDOF 16
ENDMDL
MODEL 2
REMARK VINA RESULT:     -13.0      0.530      1.241
REMARK SMILES NS(=O)(=O)c1ccc(-n2nc(C(F)F)cc2-c2ccc(C(=O)OCCOC(=O)c3ccc(-c4c5nc(c(-c6c(F)c(F)c(F)c(F)c6F)c6ccc([nH]6)c(-c6c(F)c(F)c(F)c(F)c6F)c6nc(c(-c7c(F)c(F)c(F)c(F)c7F)c7ccc4[nH]7)C=C6)C=C5)cc3)cc2)cc1
REMARK SMILES IDX 24 1 23 2 21 3 22 4 20 5 17 6 18 7 93 8 19 9 92 10 16 11
REMARK SMILES IDX 9 12 10 13 11 14 15 15 8 16 5 17 6 18 95 19 7 20 94 21 2 22
REMARK SMILES IDX 3 23 4 24 1 25 12 28 13 29 14 30 25 31 26 32 27 33 28 34
REMARK SMILES IDX 29 35 30 36 91 37 31 38 90 39 32 40 33 41 34 42 84 43 35 44
REMARK SMILES IDX 89 45 83 46 85 47 36 48 88 49 82 50 81 51 37 53 69 54 49 55
REMARK SMILES IDX 68 56 50 57 53 58 67 59 86 60 51 61 52 62 66 64 87 65 54 66
REMARK SMILES IDX 38 67 39 68 47 69 40 70 41 71 45 72 48 73 42 74 43 75 46 76
REMARK SMILES IDX 44 77 70 78 71 79 79 80 72 81 73 82 77 83 80 84 74 85 75 86
REMARK SMILES IDX 78 87 76 88 55 89 56 90 64 91 57 92 58 93 62 94 65 95 59 96
REMARK SMILES IDX 60 97 63 98 61 99
REMARK H PARENT 1 26 1 27 85 52 53 63
REMARK Flexibility Score: inf
ROOT
ATOM      1  C   UNL A   1      34.020  33.270  28.118  1.00  0.00     0.275 C 
ENDROOT
BRANCH   1   2
ATOM      2  O   UNL A   1      33.575  31.912  27.979  1.00  0.00    -0.458 OA
BRANCH   2   3
ATOM      3  C   UNL A   1      34.505  31.040  27.513  1.00  0.00     0.338 C 
ATOM      4  O   UNL A   1      35.710  31.231  27.453  1.00  0.00    -0.246 OA
BRANCH   3   5
ATOM      5  C   UNL A   1      33.869  29.745  27.165  1.00  0.00     0.060 A 
ATOM      6  C   UNL A   1      32.729  27.305  26.382  1.00  0.00     0.000 A 
ATOM      7  C   UNL A   1      34.045  27.621  26.016  1.00  0.00     0.011 A 
ATOM      8  C   UNL A   1      32.000  28.206  27.167  1.00  0.00     0.011 A 
ATOM      9  C   UNL A   1      34.612  28.835  26.404  1.00  0.00     0.016 A 
ATOM     10  C   UNL A   1      32.570  29.418  27.567  1.00  0.00     0.016 A 
BRANCH   6  11
ATOM     11  C   UNL A   1      32.096  26.093  25.871  1.00  0.00     0.075 A 
ATOM     12  N   UNL A   1      30.947  26.030  25.090  1.00  0.00    -0.233 N 
ATOM     13  N   UNL A   1      30.420  24.777  25.081  1.00  0.00    -0.166 NA
ATOM     14  C   UNL A   1      31.354  24.001  25.653  1.00  0.00     0.129 A 
ATOM     15  C   UNL A   1      32.406  24.783  26.180  1.00  0.00     0.060 A 
BRANCH  12  16
ATOM     16  C   UNL A   1      30.334  27.067  24.338  1.00  0.00     0.065 A 
ATOM     17  C   UNL A   1      29.115  29.126  22.904  1.00  0.00     0.082 A 
ATOM     18  C   UNL A   1      30.494  29.157  23.116  1.00  0.00     0.024 A 
ATOM     19  C   UNL A   1      28.343  28.060  23.383  1.00  0.00     0.024 A 
ATOM     20  C   UNL A   1      31.102  28.133  23.846  1.00  0.00     0.030 A 
ATOM     21  C   UNL A   1      28.958  27.013  24.077  1.00  0.00     0.030 A 
BRANCH  17  22
ATOM     22  S   UNL A   1      28.288  30.438  22.054  1.00  0.00     0.238 S 
ATOM     23  O   UNL A   1      27.239  30.937  22.903  1.00  0.00    -0.207 OA
ATOM     24  O   UNL A   1      28.064  30.024  20.684  1.00  0.00    -0.207 OA
BRANCH  22  25
ATOM     25  N   UNL A   1      29.420  31.678  21.970  1.00  0.00    -0.225 NA
ATOM     26  H   UNL A   1      29.415  32.080  21.032  1.00  0.00     0.137 HD
ATOM     27  H   UNL A   1      30.348  31.306  22.175  1.00  0.00     0.137 HD
ENDBRANCH  22  25
ENDBRANCH  17  22
ENDBRANCH  12  16
BRANCH  14  28
ATOM     28  C   UNL A   1      31.240  22.508  25.728  1.00  0.00     0.393 C 
ATOM     29  F   UNL A   1      30.017  22.096  26.157  1.00  0.00    -0.203 F 
ATOM     30  F   UNL A   1      31.444  21.930  24.512  1.00  0.00    -0.203 F 
ENDBRANCH  14  28
ENDBRANCH   6  11
ENDBRANCH   3   5
ENDBRANCH   2   3
ENDBRANCH   1   2
BRANCH   1  31
ATOM     31  C   UNL A   1      33.972  33.715  29.572  1.00  0.00     0.275 C 
BRANCH  31  32
ATOM     32  O   UNL A   1      35.220  33.518  30.239  1.00  0.00    -0.458 OA
BRANCH  32  33
ATOM     33  C   UNL A   1      35.305  32.388  30.977  1.00  0.00     0.338 C 
ATOM     34  O   UNL A   1      34.686  32.110  31.991  1.00  0.00    -0.246 OA
BRANCH  33  35
ATOM     35  C   UNL A   1      36.463  31.610  30.522  1.00  0.00     0.060 A 
ATOM     36  C   UNL A   1      36.423  30.221  30.673  1.00  0.00     0.016 A 
ATOM     37  C   UNL A   1      37.652  32.279  30.194  1.00  0.00     0.016 A 
ATOM     38  C   UNL A   1      37.609  29.514  30.607  1.00  0.00     0.010 A 
ATOM     39  C   UNL A   1      38.836  31.575  30.147  1.00  0.00     0.010 A 
ATOM     40  C   UNL A   1      38.811  30.209  30.408  1.00  0.00    -0.014 A 
BRANCH  40  41
ATOM     41  C   UNL A   1      40.042  29.443  30.331  1.00  0.00     0.031 A 
ATOM     42  C   UNL A   1      40.703  29.266  31.647  1.00  0.00     0.074 A 
ATOM     43  C   UNL A   1      40.477  28.844  29.207  1.00  0.00     0.049 A 
ATOM     44  N   UNL A   1      41.873  29.676  32.002  1.00  0.00    -0.248 NA
ATOM     45  C   UNL A   1      39.912  28.676  32.739  1.00  0.00     0.031 C 
ATOM     46  C   UNL A   1      39.779  28.694  27.928  1.00  0.00     0.029 A 
ATOM     47  N   UNL A   1      41.629  28.146  29.010  1.00  0.00    -0.354 N 
ATOM     48  C   UNL A   1      42.037  29.263  33.321  1.00  0.00     0.074 A 
ATOM     49  C   UNL A   1      40.755  28.783  33.766  1.00  0.00     0.031 C 
ATOM     50  C   UNL A   1      40.424  27.773  27.175  1.00  0.00     0.029 A 
ATOM     51  C   UNL A   1      41.641  27.371  27.859  1.00  0.00     0.049 A 
ATOM     52  H   UNL A   1      42.390  28.187  29.633  1.00  0.00     0.167 HD
ATOM     53  C   UNL A   1      43.276  29.146  33.869  1.00  0.00     0.037 A 
ATOM     54  C   UNL A   1      42.559  26.424  27.537  1.00  0.00     0.037 A 
ATOM     55  C   UNL A   1      44.246  29.909  33.129  1.00  0.00     0.049 A 
ATOM     56  C   UNL A   1      43.770  26.681  28.355  1.00  0.00     0.074 A 
ATOM     57  C   UNL A   1      44.409  31.251  32.843  1.00  0.00     0.029 A 
ATOM     58  N   UNL A   1      45.050  29.237  32.244  1.00  0.00    -0.354 N 
ATOM     59  N   UNL A   1      44.556  27.708  28.193  1.00  0.00    -0.248 NA
ATOM     60  C   UNL A   1      43.871  26.014  29.645  1.00  0.00     0.031 C 
ATOM     61  C   UNL A   1      44.926  31.287  31.515  1.00  0.00     0.029 A 
ATOM     62  C   UNL A   1      45.096  29.971  31.087  1.00  0.00     0.049 A 
ATOM     63  H   UNL A   1      45.511  28.383  32.409  1.00  0.00     0.167 HD
ATOM     64  C   UNL A   1      44.910  28.082  29.481  1.00  0.00     0.074 A 
ATOM     65  C   UNL A   1      44.545  26.947  30.323  1.00  0.00     0.031 C 
ATOM     66  C   UNL A   1      45.199  29.383  29.773  1.00  0.00     0.037 A 
BRANCH  53  67
ATOM     67  C   UNL A   1      43.669  28.052  34.830  1.00  0.00     0.064 A 
ATOM     68  C   UNL A   1      44.331  28.397  36.025  1.00  0.00     0.173 A 
ATOM     69  C   UNL A   1      43.708  26.683  34.487  1.00  0.00     0.173 A 
ATOM     70  F   UNL A   1      44.374  29.672  36.440  1.00  0.00    -0.203 F 
ATOM     71  C   UNL A   1      45.049  27.457  36.768  1.00  0.00     0.198 A 
ATOM     72  C   UNL A   1      44.381  25.739  35.259  1.00  0.00     0.198 A 
ATOM     73  F   UNL A   1      43.205  26.218  33.337  1.00  0.00    -0.203 F 
ATOM     74  F   UNL A   1      45.775  27.856  37.821  1.00  0.00    -0.200 F 
ATOM     75  C   UNL A   1      45.080  26.130  36.380  1.00  0.00     0.200 A 
ATOM     76  F   UNL A   1      44.416  24.461  34.855  1.00  0.00    -0.200 F 
ATOM     77  F   UNL A   1      45.822  25.241  37.051  1.00  0.00    -0.200 F 
ENDBRANCH  53  67
BRANCH  54  78
ATOM     78  C   UNL A   1      42.370  25.150  26.803  1.00  0.00     0.064 A 
ATOM     79  C   UNL A   1      43.114  24.863  25.645  1.00  0.00     0.173 A 
ATOM     80  C   UNL A   1      41.677  24.069  27.383  1.00  0.00     0.173 A 
ATOM     81  F   UNL A   1      43.836  25.825  25.053  1.00  0.00    -0.203 F 
ATOM     82  C   UNL A   1      43.187  23.569  25.119  1.00  0.00     0.198 A 
ATOM     83  C   UNL A   1      41.746  22.779  26.853  1.00  0.00     0.198 A 
ATOM     84  F   UNL A   1      41.002  24.222  28.530  1.00  0.00    -0.203 F 
ATOM     85  F   UNL A   1      43.962  23.322  24.054  1.00  0.00    -0.200 F 
ATOM     86  C   UNL A   1      42.513  22.525  25.732  1.00  0.00     0.200 A 
ATOM     87  F   UNL A   1      41.118  21.772  27.477  1.00  0.00    -0.200 F 
ATOM     88  F   UNL A   1      42.636  21.274  25.269  1.00  0.00    -0.200 F 
ENDBRANCH  54  78
BRANCH  66  89
ATOM     89  C   UNL A   1      45.416  30.325  28.625  1.00  0.00     0.064 A 
ATOM     90  C   UNL A   1      44.385  31.012  27.959  1.00  0.00     0.173 A 
ATOM     91  C   UNL A   1      46.735  30.646  28.275  1.00  0.00     0.173 A 
ATOM     92  F   UNL A   1      43.103  30.839  28.305  1.00  0.00    -0.203 F 
ATOM     93  C   UNL A   1      44.666  31.941  26.960  1.00  0.00     0.198 A 
ATOM     94  C   UNL A   1      47.013  31.603  27.304  1.00  0.00     0.198 A 
ATOM     95  F   UNL A   1      47.760  30.061  28.914  1.00  0.00    -0.203 F 
ATOM     96  F   UNL A   1      43.664  32.577  26.332  1.00  0.00    -0.200 F 
ATOM     97  C   UNL A   1      45.979  32.241  26.638  1.00  0.00     0.200 A 
ATOM     98  F   UNL A   1      48.284  31.925  27.031  1.00  0.00    -0.200 F 
ATOM     99  F   UNL A   1      46.248  33.166  25.706  1.00  0.00    -0.200 F 
ENDBRANCH  66  89
ENDBRANCH  40  41
ENDBRANCH  33  35
ENDBRANCH  32  33
ENDBRANCH  31  32
ENDBRANCH   1  31
TORSDOF 16
ENDMDL
MODEL 3
REMARK VINA RESULT:     -12.7      3.623      8.742
REMARK SMILES NS(=O)(=O)c1ccc(-n2nc(C(F)F)cc2-c2ccc(C(=O)OCCOC(=O)c3ccc(-c4c5nc(c(-c6c(F)c(F)c(F)c(F)c6F)c6ccc([nH]6)c(-c6c(F)c(F)c(F)c(F)c6F)c6nc(c(-c7c(F)c(F)c(F)c(F)c7F)c7ccc4[nH]7)C=C6)C=C5)cc3)cc2)cc1
REMARK SMILES IDX 24 1 23 2 21 3 22 4 20 5 17 6 18 7 93 8 19 9 92 10 16 11
REMARK SMILES IDX 9 12 10 13 11 14 15 15 8 16 5 17 6 18 95 19 7 20 94 21 2 22
REMARK SMILES IDX 3 23 4 24 1 25 12 28 13 29 14 30 25 31 26 32 27 33 28 34
REMARK SMILES IDX 29 35 30 36 91 37 31 38 90 39 32 40 33 41 34 42 84 43 35 44
REMARK SMILES IDX 89 45 83 46 85 47 36 48 88 49 82 50 81 51 37 53 69 54 49 55
REMARK SMILES IDX 68 56 50 57 53 58 67 59 86 60 51 61 52 62 66 64 87 65 54 66
REMARK SMILES IDX 38 67 39 68 47 69 40 70 41 71 45 72 48 73 42 74 43 75 46 76
REMARK SMILES IDX 44 77 70 78 71 79 79 80 72 81 73 82 77 83 80 84 74 85 75 86
REMARK SMILES IDX 78 87 76 88 55 89 56 90 64 91 57 92 58 93 62 94 65 95 59 96
REMARK SMILES IDX 60 97 63 98 61 99
REMARK H PARENT 1 26 1 27 85 52 53 63
REMARK Flexibility Score: inf
ROOT
ATOM      1  C   UNL A   1      36.122  21.761  25.754  1.00  0.00     0.275 C 
ENDROOT
BRANCH   1   2
ATOM      2  O   UNL A   1      35.566  23.043  26.084  1.00  0.00    -0.458 OA
BRANCH   2   3
ATOM      3  C   UNL A   1      34.327  23.015  26.636  1.00  0.00     0.338 C 
ATOM      4  O   UNL A   1      33.962  22.304  27.560  1.00  0.00    -0.246 OA
BRANCH   3   5
ATOM      5  C   UNL A   1      33.466  24.058  26.024  1.00  0.00     0.060 A 
ATOM      6  C   UNL A   1      31.956  26.091  24.818  1.00  0.00     0.000 A 
ATOM      7  C   UNL A   1      33.086  25.571  24.172  1.00  0.00     0.011 A 
ATOM      8  C   UNL A   1      31.571  25.564  26.057  1.00  0.00     0.011 A 
ATOM      9  C   UNL A   1      33.838  24.561  24.771  1.00  0.00     0.016 A 
ATOM     10  C   UNL A   1      32.317  24.544  26.654  1.00  0.00     0.016 A 
BRANCH   6  11
ATOM     11  C   UNL A   1      31.243  27.231  24.248  1.00  0.00     0.075 A 
ATOM     12  N   UNL A   1      31.291  28.543  24.704  1.00  0.00    -0.233 N 
ATOM     13  N   UNL A   1      30.266  29.282  24.203  1.00  0.00    -0.166 NA
ATOM     14  C   UNL A   1      29.712  28.511  23.253  1.00  0.00     0.129 A 
ATOM     15  C   UNL A   1      30.277  27.216  23.262  1.00  0.00     0.060 A 
BRANCH  12  16
ATOM     16  C   UNL A   1      32.253  29.145  25.559  1.00  0.00     0.065 A 
ATOM     17  C   UNL A   1      34.118  30.308  27.277  1.00  0.00     0.082 A 
ATOM     18  C   UNL A   1      34.443  29.130  26.604  1.00  0.00     0.024 A 
ATOM     19  C   UNL A   1      32.875  30.923  27.080  1.00  0.00     0.024 A 
ATOM     20  C   UNL A   1      33.504  28.541  25.754  1.00  0.00     0.030 A 
ATOM     21  C   UNL A   1      31.951  30.356  26.196  1.00  0.00     0.030 A 
BRANCH  17  22
ATOM     22  S   UNL A   1      35.242  31.049  28.423  1.00  0.00     0.238 S 
ATOM     23  O   UNL A   1      34.508  31.976  29.244  1.00  0.00    -0.207 OA
ATOM     24  O   UNL A   1      36.448  31.414  27.707  1.00  0.00    -0.207 OA
BRANCH  22  25
ATOM     25  N   UNL A   1      35.692  29.800  29.455  1.00  0.00    -0.225 NA
ATOM     26  H   UNL A   1      36.064  30.191  30.321  1.00  0.00     0.137 HD
ATOM     27  H   UNL A   1      36.409  29.229  29.005  1.00  0.00     0.137 HD
ENDBRANCH  22  25
ENDBRANCH  17  22
ENDBRANCH  12  16
BRANCH  14  28
ATOM     28  C   UNL A   1      28.620  28.994  22.346  1.00  0.00     0.393 C 
ATOM     29  F   UNL A   1      27.570  29.525  23.027  1.00  0.00    -0.203 F 
ATOM     30  F   UNL A   1      29.067  29.960  21.497  1.00  0.00    -0.203 F 
ENDBRANCH  14  28
ENDBRANCH   6  11
ENDBRANCH   3   5
ENDBRANCH   2   3
ENDBRANCH   1   2
BRANCH   1  31
ATOM     31  C   UNL A   1      37.623  21.860  25.527  1.00  0.00     0.275 C 
BRANCH  31  32
ATOM     32  O   UNL A   1      38.190  23.014  26.150  1.00  0.00    -0.458 OA
BRANCH  32  33
ATOM     33  C   UNL A   1      39.412  22.830  26.697  1.00  0.00     0.338 C 
ATOM     34  O   UNL A   1      39.949  21.773  26.986  1.00  0.00    -0.246 OA
BRANCH  33  35
ATOM     35  C   UNL A   1      39.933  24.127  27.144  1.00  0.00     0.060 A 
ATOM     36  C   UNL A   1      41.055  24.135  27.977  1.00  0.00     0.016 A 
ATOM     37  C   UNL A   1      39.160  25.282  26.943  1.00  0.00     0.016 A 
ATOM     38  C   UNL A   1      41.335  25.279  28.700  1.00  0.00     0.010 A 
ATOM     39  C   UNL A   1      39.430  26.415  27.678  1.00  0.00     0.010 A 
ATOM     40  C   UNL A   1      40.481  26.386  28.589  1.00  0.00    -0.014 A 
BRANCH  40  41
ATOM     41  C   UNL A   1      40.802  27.580  29.350  1.00  0.00     0.031 A 
ATOM     42  C   UNL A   1      42.003  28.288  28.846  1.00  0.00     0.074 A 
ATOM     43  C   UNL A   1      40.020  28.070  30.331  1.00  0.00     0.049 A 
ATOM     44  N   UNL A   1      43.107  28.512  29.475  1.00  0.00    -0.248 NA
ATOM     45  C   UNL A   1      42.026  28.678  27.427  1.00  0.00     0.031 C 
ATOM     46  C   UNL A   1      38.676  27.639  30.723  1.00  0.00     0.029 A 
ATOM     47  N   UNL A   1      40.243  29.147  31.134  1.00  0.00    -0.354 N 
ATOM     48  C   UNL A   1      43.917  29.210  28.585  1.00  0.00     0.074 A 
ATOM     49  C   UNL A   1      43.263  29.160  27.304  1.00  0.00     0.031 C 
ATOM     50  C   UNL A   1      38.126  28.577  31.529  1.00  0.00     0.029 A 
ATOM     51  C   UNL A   1      39.120  29.600  31.811  1.00  0.00     0.049 A 
ATOM     52  H   UNL A   1      41.128  29.569  31.226  1.00  0.00     0.167 HD
ATOM     53  C   UNL A   1      44.957  29.964  29.029  1.00  0.00     0.037 A 
ATOM     54  C   UNL A   1      39.011  30.767  32.496  1.00  0.00     0.037 A 
ATOM     55  C   UNL A   1      45.355  29.572  30.355  1.00  0.00     0.049 A 
ATOM     56  C   UNL A   1      40.386  31.236  32.799  1.00  0.00     0.074 A 
ATOM     57  C   UNL A   1      45.853  28.410  30.913  1.00  0.00     0.029 A 
ATOM     58  N   UNL A   1      44.919  30.335  31.409  1.00  0.00    -0.354 N 
ATOM     59  N   UNL A   1      41.189  30.647  33.640  1.00  0.00    -0.248 NA
ATOM     60  C   UNL A   1      41.027  32.123  31.840  1.00  0.00     0.031 C 
ATOM     61  C   UNL A   1      45.263  28.338  32.209  1.00  0.00     0.029 A 
ATOM     62  C   UNL A   1      44.484  29.480  32.387  1.00  0.00     0.049 A 
ATOM     63  H   UNL A   1      44.919  31.319  31.453  1.00  0.00     0.167 HD
ATOM     64  C   UNL A   1      42.439  30.732  33.046  1.00  0.00     0.074 A 
ATOM     65  C   UNL A   1      42.296  31.736  31.996  1.00  0.00     0.031 C 
ATOM     66  C   UNL A   1      43.386  29.777  33.275  1.00  0.00     0.037 A 
BRANCH  53  67
ATOM     67  C   UNL A   1      45.353  31.289  28.425  1.00  0.00     0.064 A 
ATOM     68  C   UNL A   1      44.372  32.288  28.265  1.00  0.00     0.173 A 
ATOM     69  C   UNL A   1      46.557  31.500  27.719  1.00  0.00     0.173 A 
ATOM     70  F   UNL A   1      43.181  32.181  28.875  1.00  0.00    -0.203 F 
ATOM     71  C   UNL A   1      44.553  33.366  27.395  1.00  0.00     0.198 A 
ATOM     72  C   UNL A   1      46.754  32.605  26.894  1.00  0.00     0.198 A 
ATOM     73  F   UNL A   1      47.544  30.597  27.699  1.00  0.00    -0.203 F 
ATOM     74  F   UNL A   1      43.542  34.216  27.172  1.00  0.00    -0.200 F 
ATOM     75  C   UNL A   1      45.740  33.520  26.705  1.00  0.00     0.200 A 
ATOM     76  F   UNL A   1      47.905  32.725  26.218  1.00  0.00    -0.200 F 
ATOM     77  F   UNL A   1      45.891  34.514  25.820  1.00  0.00    -0.200 F 
ENDBRANCH  53  67
BRANCH  54  78
ATOM     78  C   UNL A   1      37.833  31.654  32.650  1.00  0.00     0.064 A 
ATOM     79  C   UNL A   1      37.351  32.003  33.924  1.00  0.00     0.173 A 
ATOM     80  C   UNL A   1      37.342  32.410  31.568  1.00  0.00     0.173 A 
ATOM     81  F   UNL A   1      37.798  31.362  35.013  1.00  0.00    -0.203 F 
ATOM     82  C   UNL A   1      36.458  33.065  34.107  1.00  0.00     0.198 A 
ATOM     83  C   UNL A   1      36.445  33.465  31.752  1.00  0.00     0.198 A 
ATOM     84  F   UNL A   1      37.797  32.207  30.324  1.00  0.00    -0.203 F 
ATOM     85  F   UNL A   1      36.075  33.411  35.344  1.00  0.00    -0.200 F 
ATOM     86  C   UNL A   1      36.016  33.803  33.021  1.00  0.00     0.200 A 
ATOM     87  F   UNL A   1      36.054  34.194  30.697  1.00  0.00    -0.200 F 
ATOM     88  F   UNL A   1      35.215  34.861  33.202  1.00  0.00    -0.200 F 
ENDBRANCH  54  78
BRANCH  66  89
ATOM     89  C   UNL A   1      43.148  28.815  34.404  1.00  0.00     0.064 A 
ATOM     90  C   UNL A   1      42.352  27.661  34.304  1.00  0.00     0.173 A 
ATOM     91  C   UNL A   1      43.867  29.003  35.592  1.00  0.00     0.173 A 
ATOM     92  F   UNL A   1      41.714  27.355  33.167  1.00  0.00    -0.203 F 
ATOM     93  C   UNL A   1      42.247  26.764  35.365  1.00  0.00     0.198 A 
ATOM     94  C   UNL A   1      43.791  28.085  36.635  1.00  0.00     0.198 A 
ATOM     95  F   UNL A   1      44.684  30.059  35.722  1.00  0.00    -0.203 F 
ATOM     96  F   UNL A   1      41.473  25.674  35.250  1.00  0.00    -0.200 F 
ATOM     97  C   UNL A   1      42.973  26.972  36.527  1.00  0.00     0.200 A 
ATOM     98  F   UNL A   1      44.532  28.266  37.736  1.00  0.00    -0.200 F 
ATOM     99  F   UNL A   1      42.905  26.087  37.530  1.00  0.00    -0.200 F 
ENDBRANCH  66  89
ENDBRANCH  40  41
ENDBRANCH  33  35
ENDBRANCH  32  33
ENDBRANCH  31  32
ENDBRANCH   1  31
TORSDOF 16
ENDMDL
