MODEL 1
REMARK VINA RESULT:      -9.9      0.000      0.000
REMARK SMILES COc1ccc(N[C@H](C)[C@H](C)C(=O)OCCOC(=O)c2ccc(-c3c4nc(c(-c5c(F)c(F)c(F)c(F)c5F)c5ccc([nH]5)c(-c5c(F)c(F)c(F)c(F)c5F)c5nc(c(-c6c(F)c(F)c(F)c(F)c6F)c6ccc3[nH]6)C=C5)C=C4)cc2)c(OC)c1
REMARK SMILES IDX 15 1 14 2 12 3 13 4 10 5 11 6 8 7 9 8 7 9 6 11 3 12 4 13
REMARK SMILES IDX 86 14 5 15 83 16 2 17 1 18 84 19 85 20 16 21 17 22 18 23
REMARK SMILES IDX 19 24 20 25 21 26 82 27 22 28 81 29 23 30 24 31 25 32 75 33
REMARK SMILES IDX 26 34 80 35 74 36 76 37 27 38 79 39 73 40 72 41 28 43 60 44
REMARK SMILES IDX 40 45 59 46 41 47 44 48 58 49 77 50 42 51 43 52 57 54 78 55
REMARK SMILES IDX 45 56 29 57 30 58 38 59 31 60 32 61 36 62 39 63 33 64 34 65
REMARK SMILES IDX 37 66 35 67 61 68 62 69 70 70 63 71 64 72 68 73 71 74 65 75
REMARK SMILES IDX 66 76 69 77 67 78 46 79 47 80 55 81 48 82 49 83 53 84 56 85
REMARK SMILES IDX 50 86 51 87 54 88 52 89
REMARK H PARENT 7 10 76 42 44 53
REMARK Flexibility Score: inf
ROOT
ATOM      1  C   UNL A   1      42.303  19.296  26.590  1.00  0.00     0.274 C 
ENDROOT
BRANCH   1   2
ATOM      2  O   UNL A   1      41.409  20.136  25.837  1.00  0.00    -0.462 OA
BRANCH   2   3
ATOM      3  C   UNL A   1      41.484  21.469  26.086  1.00  0.00     0.310 C 
ATOM      4  O   UNL A   1      41.947  22.287  25.295  1.00  0.00    -0.252 OA
BRANCH   3   5
ATOM      5  C   UNL A   1      40.796  21.884  27.380  1.00  0.00     0.118 C 
ATOM      6  C   UNL A   1      41.682  22.602  28.401  1.00  0.00     0.022 C 
BRANCH   5   7
ATOM      7  C   UNL A   1      39.467  22.596  27.051  1.00  0.00     0.090 C 
ATOM      8  C   UNL A   1      39.656  24.120  27.047  1.00  0.00     0.031 C 
BRANCH   7   9
ATOM      9  N   UNL A   1      38.945  22.208  25.752  1.00  0.00    -0.379 N 
ATOM     10  H   UNL A   1      39.431  22.556  24.970  1.00  0.00     0.160 HD
BRANCH   9  11
ATOM     11  C   UNL A   1      37.847  21.411  25.481  1.00  0.00     0.077 A 
ATOM     12  C   UNL A   1      35.527  19.899  24.926  1.00  0.00     0.122 A 
ATOM     13  C   UNL A   1      36.790  19.333  24.786  1.00  0.00     0.049 A 
ATOM     14  C   UNL A   1      35.405  21.208  25.387  1.00  0.00     0.095 A 
ATOM     15  C   UNL A   1      37.938  20.084  25.055  1.00  0.00     0.033 A 
ATOM     16  C   UNL A   1      36.554  21.958  25.670  1.00  0.00     0.145 A 
BRANCH  12  17
ATOM     17  O   UNL A   1      34.475  19.075  24.625  1.00  0.00    -0.497 OA
ATOM     18  C   UNL A   1      33.223  19.481  25.169  1.00  0.00     0.278 C 
ENDBRANCH  12  17
BRANCH  16  19
ATOM     19  O   UNL A   1      36.535  23.260  26.127  1.00  0.00    -0.494 OA
ATOM     20  C   UNL A   1      35.796  24.196  25.354  1.00  0.00     0.278 C 
ENDBRANCH  16  19
ENDBRANCH   9  11
ENDBRANCH   7   9
ENDBRANCH   5   7
ENDBRANCH   3   5
ENDBRANCH   2   3
ENDBRANCH   1   2
BRANCH   1  21
ATOM     21  C   UNL A   1      43.160  18.426  25.664  1.00  0.00     0.275 C 
BRANCH  21  22
ATOM     22  O   UNL A   1      44.493  18.952  25.496  1.00  0.00    -0.458 OA
BRANCH  22  23
ATOM     23  C   UNL A   1      44.690  19.670  24.365  1.00  0.00     0.338 C 
ATOM     24  O   UNL A   1      44.528  19.304  23.214  1.00  0.00    -0.246 OA
BRANCH  23  25
ATOM     25  C   UNL A   1      45.050  21.054  24.703  1.00  0.00     0.060 A 
ATOM     26  C   UNL A   1      45.412  21.343  26.022  1.00  0.00     0.016 A 
ATOM     27  C   UNL A   1      44.918  22.079  23.766  1.00  0.00     0.016 A 
ATOM     28  C   UNL A   1      45.610  22.659  26.422  1.00  0.00     0.010 A 
ATOM     29  C   UNL A   1      45.138  23.402  24.163  1.00  0.00     0.010 A 
ATOM     30  C   UNL A   1      45.465  23.700  25.497  1.00  0.00    -0.014 A 
BRANCH  30  31
ATOM     31  C   UNL A   1      45.621  25.103  25.950  1.00  0.00     0.031 A 
ATOM     32  C   UNL A   1      46.952  25.786  25.832  1.00  0.00     0.074 A 
ATOM     33  C   UNL A   1      44.559  25.767  26.437  1.00  0.00     0.049 A 
ATOM     34  N   UNL A   1      47.309  26.980  26.232  1.00  0.00    -0.248 NA
ATOM     35  C   UNL A   1      48.026  25.023  25.178  1.00  0.00     0.031 C 
ATOM     36  C   UNL A   1      43.205  25.226  26.551  1.00  0.00     0.029 A 
ATOM     37  N   UNL A   1      44.451  27.046  26.922  1.00  0.00    -0.354 N 
ATOM     38  C   UNL A   1      48.653  27.100  25.909  1.00  0.00     0.074 A 
ATOM     39  C   UNL A   1      49.053  25.856  25.286  1.00  0.00     0.031 C 
ATOM     40  C   UNL A   1      42.398  26.172  27.056  1.00  0.00     0.029 A 
ATOM     41  C   UNL A   1      43.187  27.364  27.350  1.00  0.00     0.049 A 
ATOM     42  H   UNL A   1      45.209  27.675  26.960  1.00  0.00     0.167 HD
ATOM     43  C   UNL A   1      49.477  28.156  26.115  1.00  0.00     0.037 A 
ATOM     44  C   UNL A   1      42.724  28.485  27.934  1.00  0.00     0.037 A 
ATOM     45  C   UNL A   1      49.066  29.404  26.704  1.00  0.00     0.049 A 
ATOM     46  C   UNL A   1      43.672  29.620  28.202  1.00  0.00     0.074 A 
ATOM     47  C   UNL A   1      49.817  30.546  26.918  1.00  0.00     0.029 A 
ATOM     48  N   UNL A   1      47.789  29.671  27.176  1.00  0.00    -0.354 N 
ATOM     49  N   UNL A   1      44.943  29.724  27.899  1.00  0.00    -0.248 NA
ATOM     50  C   UNL A   1      43.123  30.786  28.907  1.00  0.00     0.031 C 
ATOM     51  C   UNL A   1      49.004  31.490  27.557  1.00  0.00     0.029 A 
ATOM     52  C   UNL A   1      47.736  30.951  27.704  1.00  0.00     0.049 A 
ATOM     53  H   UNL A   1      47.031  29.043  27.140  1.00  0.00     0.167 HD
ATOM     54  C   UNL A   1      45.342  30.973  28.356  1.00  0.00     0.074 A 
ATOM     55  C   UNL A   1      44.174  31.592  28.949  1.00  0.00     0.031 C 
ATOM     56  C   UNL A   1      46.565  31.552  28.290  1.00  0.00     0.037 A 
BRANCH  43  57
ATOM     57  C   UNL A   1      50.918  27.991  25.733  1.00  0.00     0.064 A 
ATOM     58  C   UNL A   1      51.366  28.200  24.421  1.00  0.00     0.173 A 
ATOM     59  C   UNL A   1      51.867  27.639  26.705  1.00  0.00     0.173 A 
ATOM     60  F   UNL A   1      50.496  28.524  23.453  1.00  0.00    -0.203 F 
ATOM     61  C   UNL A   1      52.709  28.036  24.090  1.00  0.00     0.198 A 
ATOM     62  C   UNL A   1      53.212  27.500  26.376  1.00  0.00     0.198 A 
ATOM     63  F   UNL A   1      51.489  27.432  27.975  1.00  0.00    -0.203 F 
ATOM     64  F   UNL A   1      53.110  28.198  22.822  1.00  0.00    -0.200 F 
ATOM     65  C   UNL A   1      53.632  27.692  25.069  1.00  0.00     0.200 A 
ATOM     66  F   UNL A   1      54.102  27.175  27.323  1.00  0.00    -0.200 F 
ATOM     67  F   UNL A   1      54.923  27.535  24.748  1.00  0.00    -0.200 F 
ENDBRANCH  43  57
BRANCH  44  68
ATOM     68  C   UNL A   1      41.292  28.578  28.311  1.00  0.00     0.064 A 
ATOM     69  C   UNL A   1      40.870  28.251  29.605  1.00  0.00     0.173 A 
ATOM     70  C   UNL A   1      40.323  29.008  27.394  1.00  0.00     0.173 A 
ATOM     71  F   UNL A   1      41.758  27.810  30.508  1.00  0.00    -0.203 F 
ATOM     72  C   UNL A   1      39.529  28.348  29.969  1.00  0.00     0.198 A 
ATOM     73  C   UNL A   1      38.985  29.128  27.765  1.00  0.00     0.198 A 
ATOM     74  F   UNL A   1      40.678  29.329  26.141  1.00  0.00    -0.203 F 
ATOM     75  F   UNL A   1      39.145  27.999  31.205  1.00  0.00    -0.200 F 
ATOM     76  C   UNL A   1      38.589  28.794  29.051  1.00  0.00     0.200 A 
ATOM     77  F   UNL A   1      38.083  29.568  26.877  1.00  0.00    -0.200 F 
ATOM     78  F   UNL A   1      37.300  28.895  29.403  1.00  0.00    -0.200 F 
ENDBRANCH  44  68
BRANCH  56  79
ATOM     79  C   UNL A   1      46.696  32.937  28.848  1.00  0.00     0.064 A 
ATOM     80  C   UNL A   1      46.454  34.070  28.058  1.00  0.00     0.173 A 
ATOM     81  C   UNL A   1      47.035  33.131  30.195  1.00  0.00     0.173 A 
ATOM     82  F   UNL A   1      46.144  33.934  26.760  1.00  0.00    -0.203 F 
ATOM     83  C   UNL A   1      46.566  35.351  28.593  1.00  0.00     0.198 A 
ATOM     84  C   UNL A   1      47.123  34.413  30.732  1.00  0.00     0.198 A 
ATOM     85  F   UNL A   1      47.273  32.079  30.991  1.00  0.00    -0.203 F 
ATOM     86  F   UNL A   1      46.370  36.421  27.811  1.00  0.00    -0.200 F 
ATOM     87  C   UNL A   1      46.895  35.520  29.930  1.00  0.00     0.200 A 
ATOM     88  F   UNL A   1      47.432  34.576  32.026  1.00  0.00    -0.200 F 
ATOM     89  F   UNL A   1      46.999  36.754  30.444  1.00  0.00    -0.200 F 
ENDBRANCH  56  79
ENDBRANCH  30  31
ENDBRANCH  23  25
ENDBRANCH  22  23
ENDBRANCH  21  22
ENDBRANCH   1  21
TORSDOF 16
ENDMDL
MODEL 2
REMARK VINA RESULT:      -9.8      5.539      9.884
REMARK SMILES COc1ccc(N[C@H](C)[C@H](C)C(=O)OCCOC(=O)c2ccc(-c3c4nc(c(-c5c(F)c(F)c(F)c(F)c5F)c5ccc([nH]5)c(-c5c(F)c(F)c(F)c(F)c5F)c5nc(c(-c6c(F)c(F)c(F)c(F)c6F)c6ccc3[nH]6)C=C5)C=C4)cc2)c(OC)c1
REMARK SMILES IDX 15 1 14 2 12 3 13 4 10 5 11 6 8 7 9 8 7 9 6 11 3 12 4 13
REMARK SMILES IDX 86 14 5 15 83 16 2 17 1 18 84 19 85 20 16 21 17 22 18 23
REMARK SMILES IDX 19 24 20 25 21 26 82 27 22 28 81 29 23 30 24 31 25 32 75 33
REMARK SMILES IDX 26 34 80 35 74 36 76 37 27 38 79 39 73 40 72 41 28 43 60 44
REMARK SMILES IDX 40 45 59 46 41 47 44 48 58 49 77 50 42 51 43 52 57 54 78 55
REMARK SMILES IDX 45 56 29 57 30 58 38 59 31 60 32 61 36 62 39 63 33 64 34 65
REMARK SMILES IDX 37 66 35 67 61 68 62 69 70 70 63 71 64 72 68 73 71 74 65 75
REMARK SMILES IDX 66 76 69 77 67 78 46 79 47 80 55 81 48 82 49 83 53 84 56 85
REMARK SMILES IDX 50 86 51 87 54 88 52 89
REMARK H PARENT 7 10 76 42 44 53
REMARK Flexibility Score: inf
ROOT
ATOM      1  C   UNL A   1      32.908  28.592  25.434  1.00  0.00     0.274 C 
ENDROOT
BRANCH   1   2
ATOM      2  O   UNL A   1      31.689  27.854  25.227  1.00  0.00    -0.462 OA
BRANCH   2   3
ATOM      3  C   UNL A   1      31.294  27.048  26.247  1.00  0.00     0.310 C 
ATOM      4  O   UNL A   1      31.352  27.369  27.432  1.00  0.00    -0.252 OA
BRANCH   3   5
ATOM      5  C   UNL A   1      30.625  25.763  25.781  1.00  0.00     0.118 C 
ATOM      6  C   UNL A   1      29.809  25.870  24.491  1.00  0.00     0.022 C 
BRANCH   5   7
ATOM      7  C   UNL A   1      31.648  24.608  25.813  1.00  0.00     0.090 C 
ATOM      8  C   UNL A   1      30.995  23.293  25.360  1.00  0.00     0.031 C 
BRANCH   7   9
ATOM      9  N   UNL A   1      32.786  24.860  24.947  1.00  0.00    -0.379 N 
ATOM     10  H   UNL A   1      32.693  25.612  24.318  1.00  0.00     0.160 HD
BRANCH   9  11
ATOM     11  C   UNL A   1      33.986  24.172  24.899  1.00  0.00     0.077 A 
ATOM     12  C   UNL A   1      36.449  22.809  24.667  1.00  0.00     0.122 A 
ATOM     13  C   UNL A   1      35.880  23.035  25.917  1.00  0.00     0.049 A 
ATOM     14  C   UNL A   1      35.775  23.219  23.519  1.00  0.00     0.095 A 
ATOM     15  C   UNL A   1      34.664  23.714  26.031  1.00  0.00     0.033 A 
ATOM     16  C   UNL A   1      34.550  23.889  23.630  1.00  0.00     0.145 A 
BRANCH  12  17
ATOM     17  O   UNL A   1      37.645  22.143  24.676  1.00  0.00    -0.497 OA
ATOM     18  C   UNL A   1      37.548  20.743  24.923  1.00  0.00     0.278 C 
ENDBRANCH  12  17
BRANCH  16  19
ATOM     19  O   UNL A   1      33.811  24.336  22.553  1.00  0.00    -0.494 OA
ATOM     20  C   UNL A   1      33.206  23.339  21.740  1.00  0.00     0.278 C 
ENDBRANCH  16  19
ENDBRANCH   9  11
ENDBRANCH   7   9
ENDBRANCH   5   7
ENDBRANCH   3   5
ENDBRANCH   2   3
ENDBRANCH   1   2
BRANCH   1  21
ATOM     21  C   UNL A   1      32.629  30.089  25.603  1.00  0.00     0.275 C 
BRANCH  21  22
ATOM     22  O   UNL A   1      32.591  30.487  26.989  1.00  0.00    -0.458 OA
BRANCH  22  23
ATOM     23  C   UNL A   1      33.305  31.597  27.289  1.00  0.00     0.338 C 
ATOM     24  O   UNL A   1      32.945  32.759  27.205  1.00  0.00    -0.246 OA
BRANCH  23  25
ATOM     25  C   UNL A   1      34.610  31.221  27.853  1.00  0.00     0.060 A 
ATOM     26  C   UNL A   1      34.767  29.926  28.354  1.00  0.00     0.016 A 
ATOM     27  C   UNL A   1      35.627  32.164  27.999  1.00  0.00     0.016 A 
ATOM     28  C   UNL A   1      35.927  29.574  29.034  1.00  0.00     0.010 A 
ATOM     29  C   UNL A   1      36.803  31.804  28.665  1.00  0.00     0.010 A 
ATOM     30  C   UNL A   1      36.950  30.514  29.204  1.00  0.00    -0.014 A 
BRANCH  30  31
ATOM     31  C   UNL A   1      38.157  30.144  29.982  1.00  0.00     0.031 A 
ATOM     32  C   UNL A   1      39.184  29.229  29.383  1.00  0.00     0.074 A 
ATOM     33  C   UNL A   1      38.339  30.656  31.211  1.00  0.00     0.049 A 
ATOM     34  N   UNL A   1      40.269  28.734  29.924  1.00  0.00    -0.248 NA
ATOM     35  C   UNL A   1      38.961  28.812  27.990  1.00  0.00     0.031 C 
ATOM     36  C   UNL A   1      37.436  31.596  31.875  1.00  0.00     0.029 A 
ATOM     37  N   UNL A   1      39.350  30.463  32.118  1.00  0.00    -0.354 N 
ATOM     38  C   UNL A   1      40.840  27.925  28.953  1.00  0.00     0.074 A 
ATOM     39  C   UNL A   1      39.980  27.987  27.789  1.00  0.00     0.031 C 
ATOM     40  C   UNL A   1      37.942  31.912  33.078  1.00  0.00     0.029 A 
ATOM     41  C   UNL A   1      39.175  31.158  33.288  1.00  0.00     0.049 A 
ATOM     42  H   UNL A   1      40.126  29.881  31.946  1.00  0.00     0.167 HD
ATOM     43  C   UNL A   1      41.980  27.197  29.028  1.00  0.00     0.037 A 
ATOM     44  C   UNL A   1      39.914  31.165  34.412  1.00  0.00     0.037 A 
ATOM     45  C   UNL A   1      42.850  27.165  30.175  1.00  0.00     0.049 A 
ATOM     46  C   UNL A   1      41.144  30.305  34.490  1.00  0.00     0.074 A 
ATOM     47  C   UNL A   1      44.048  26.491  30.332  1.00  0.00     0.029 A 
ATOM     48  N   UNL A   1      42.612  27.840  31.364  1.00  0.00    -0.354 N 
ATOM     49  N   UNL A   1      41.675  29.538  33.570  1.00  0.00    -0.248 NA
ATOM     50  C   UNL A   1      41.868  30.302  35.768  1.00  0.00     0.031 C 
ATOM     51  C   UNL A   1      44.513  26.724  31.632  1.00  0.00     0.029 A 
ATOM     52  C   UNL A   1      43.627  27.577  32.270  1.00  0.00     0.049 A 
ATOM     53  H   UNL A   1      41.835  28.420  31.538  1.00  0.00     0.167 HD
ATOM     54  C   UNL A   1      42.805  28.976  34.147  1.00  0.00     0.074 A 
ATOM     55  C   UNL A   1      42.887  29.498  35.496  1.00  0.00     0.031 C 
ATOM     56  C   UNL A   1      43.693  28.106  33.608  1.00  0.00     0.037 A 
BRANCH  43  57
ATOM     57  C   UNL A   1      42.332  26.343  27.846  1.00  0.00     0.064 A 
ATOM     58  C   UNL A   1      41.752  25.084  27.641  1.00  0.00     0.173 A 
ATOM     59  C   UNL A   1      43.253  26.807  26.893  1.00  0.00     0.173 A 
ATOM     60  F   UNL A   1      40.878  24.590  28.530  1.00  0.00    -0.203 F 
ATOM     61  C   UNL A   1      42.100  24.308  26.538  1.00  0.00     0.198 A 
ATOM     62  C   UNL A   1      43.579  26.040  25.779  1.00  0.00     0.198 A 
ATOM     63  F   UNL A   1      43.833  28.008  27.042  1.00  0.00    -0.203 F 
ATOM     64  F   UNL A   1      41.566  23.088  26.383  1.00  0.00    -0.200 F 
ATOM     65  C   UNL A   1      43.008  24.788  25.605  1.00  0.00     0.200 A 
ATOM     66  F   UNL A   1      44.451  26.509  24.876  1.00  0.00    -0.200 F 
ATOM     67  F   UNL A   1      43.341  24.040  24.545  1.00  0.00    -0.200 F 
ENDBRANCH  43  57
BRANCH  44  68
ATOM     68  C   UNL A   1      39.500  32.013  35.558  1.00  0.00     0.064 A 
ATOM     69  C   UNL A   1      40.014  33.306  35.714  1.00  0.00     0.173 A 
ATOM     70  C   UNL A   1      38.575  31.556  36.508  1.00  0.00     0.173 A 
ATOM     71  F   UNL A   1      40.921  33.776  34.845  1.00  0.00    -0.203 F 
ATOM     72  C   UNL A   1      39.621  34.111  36.781  1.00  0.00     0.198 A 
ATOM     73  C   UNL A   1      38.165  32.370  37.561  1.00  0.00     0.198 A 
ATOM     74  F   UNL A   1      38.058  30.323  36.403  1.00  0.00    -0.203 F 
ATOM     75  F   UNL A   1      40.152  35.333  36.926  1.00  0.00    -0.200 F 
ATOM     76  C   UNL A   1      38.691  33.645  37.699  1.00  0.00     0.200 A 
ATOM     77  F   UNL A   1      37.259  31.919  38.439  1.00  0.00    -0.200 F 
ATOM     78  F   UNL A   1      38.307  34.423  38.720  1.00  0.00    -0.200 F 
ENDBRANCH  44  68
BRANCH  56  79
ATOM     79  C   UNL A   1      44.847  27.687  34.469  1.00  0.00     0.064 A 
ATOM     80  C   UNL A   1      44.784  26.536  35.267  1.00  0.00     0.173 A 
ATOM     81  C   UNL A   1      46.038  28.427  34.470  1.00  0.00     0.173 A 
ATOM     82  F   UNL A   1      43.659  25.806  35.311  1.00  0.00    -0.203 F 
ATOM     83  C   UNL A   1      45.868  26.151  36.051  1.00  0.00     0.198 A 
ATOM     84  C   UNL A   1      47.128  28.026  35.238  1.00  0.00     0.198 A 
ATOM     85  F   UNL A   1      46.147  29.534  33.721  1.00  0.00    -0.203 F 
ATOM     86  F   UNL A   1      45.773  25.070  36.838  1.00  0.00    -0.200 F 
ATOM     87  C   UNL A   1      47.040  26.893  36.032  1.00  0.00     0.200 A 
ATOM     88  F   UNL A   1      48.263  28.739  35.212  1.00  0.00    -0.200 F 
ATOM     89  F   UNL A   1      48.083  26.519  36.785  1.00  0.00    -0.200 F 
ENDBRANCH  56  79
ENDBRANCH  30  31
ENDBRANCH  23  25
ENDBRANCH  22  23
ENDBRANCH  21  22
ENDBRANCH   1  21
TORSDOF 16
ENDMDL
MODEL 3
REMARK VINA RESULT:      -9.7      0.852      7.536
REMARK SMILES COc1ccc(N[C@H](C)[C@H](C)C(=O)OCCOC(=O)c2ccc(-c3c4nc(c(-c5c(F)c(F)c(F)c(F)c5F)c5ccc([nH]5)c(-c5c(F)c(F)c(F)c(F)c5F)c5nc(c(-c6c(F)c(F)c(F)c(F)c6F)c6ccc3[nH]6)C=C5)C=C4)cc2)c(OC)c1
REMARK SMILES IDX 15 1 14 2 12 3 13 4 10 5 11 6 8 7 9 8 7 9 6 11 3 12 4 13
REMARK SMILES IDX 86 14 5 15 83 16 2 17 1 18 84 19 85 20 16 21 17 22 18 23
REMARK SMILES IDX 19 24 20 25 21 26 82 27 22 28 81 29 23 30 24 31 25 32 75 33
REMARK SMILES IDX 26 34 80 35 74 36 76 37 27 38 79 39 73 40 72 41 28 43 60 44
REMARK SMILES IDX 40 45 59 46 41 47 44 48 58 49 77 50 42 51 43 52 57 54 78 55
REMARK SMILES IDX 45 56 29 57 30 58 38 59 31 60 32 61 36 62 39 63 33 64 34 65
REMARK SMILES IDX 37 66 35 67 61 68 62 69 70 70 63 71 64 72 68 73 71 74 65 75
REMARK SMILES IDX 66 76 69 77 67 78 46 79 47 80 55 81 48 82 49 83 53 84 56 85
REMARK SMILES IDX 50 86 51 87 54 88 52 89
REMARK H PARENT 7 10 76 42 44 53
REMARK Flexibility Score: inf
ROOT
ATOM      1  C   UNL A   1      42.284  19.255  26.616  1.00  0.00     0.274 C 
ENDROOT
BRANCH   1   2
ATOM      2  O   UNL A   1      41.338  20.162  26.017  1.00  0.00    -0.462 OA
BRANCH   2   3
ATOM      3  C   UNL A   1      41.544  21.484  26.248  1.00  0.00     0.310 C 
ATOM      4  O   UNL A   1      42.009  22.258  25.415  1.00  0.00    -0.252 OA
BRANCH   3   5
ATOM      5  C   UNL A   1      41.000  21.958  27.588  1.00  0.00     0.118 C 
ATOM      6  C   UNL A   1      42.027  22.574  28.541  1.00  0.00     0.022 C 
BRANCH   5   7
ATOM      7  C   UNL A   1      39.731  22.805  27.358  1.00  0.00     0.090 C 
ATOM      8  C   UNL A   1      40.023  24.294  27.599  1.00  0.00     0.031 C 
BRANCH   7   9
ATOM      9  N   UNL A   1      39.217  22.666  26.007  1.00  0.00    -0.379 N 
ATOM     10  H   UNL A   1      39.888  22.517  25.302  1.00  0.00     0.160 HD
BRANCH   9  11
ATOM     11  C   UNL A   1      37.898  22.717  25.590  1.00  0.00     0.077 A 
ATOM     12  C   UNL A   1      35.203  22.683  24.744  1.00  0.00     0.122 A 
ATOM     13  C   UNL A   1      35.785  23.860  25.206  1.00  0.00     0.049 A 
ATOM     14  C   UNL A   1      35.970  21.524  24.655  1.00  0.00     0.095 A 
ATOM     15  C   UNL A   1      37.116  23.874  25.630  1.00  0.00     0.033 A 
ATOM     16  C   UNL A   1      37.309  21.539  25.068  1.00  0.00     0.145 A 
BRANCH  12  17
ATOM     17  O   UNL A   1      33.892  22.784  24.364  1.00  0.00    -0.497 OA
ATOM     18  C   UNL A   1      32.958  22.803  25.440  1.00  0.00     0.278 C 
ENDBRANCH  12  17
BRANCH  16  19
ATOM     19  O   UNL A   1      38.147  20.443  25.022  1.00  0.00    -0.494 OA
ATOM     20  C   UNL A   1      37.522  19.168  24.943  1.00  0.00     0.278 C 
ENDBRANCH  16  19
ENDBRANCH   9  11
ENDBRANCH   7   9
ENDBRANCH   5   7
ENDBRANCH   3   5
ENDBRANCH   2   3
ENDBRANCH   1   2
BRANCH   1  21
ATOM     21  C   UNL A   1      43.159  18.584  25.553  1.00  0.00     0.275 C 
BRANCH  21  22
ATOM     22  O   UNL A   1      44.467  19.184  25.459  1.00  0.00    -0.458 OA
BRANCH  22  23
ATOM     23  C   UNL A   1      44.674  19.945  24.359  1.00  0.00     0.338 C 
ATOM     24  O   UNL A   1      44.455  19.650  23.197  1.00  0.00    -0.246 OA
BRANCH  23  25
ATOM     25  C   UNL A   1      45.130  21.287  24.753  1.00  0.00     0.060 A 
ATOM     26  C   UNL A   1      45.429  21.518  26.098  1.00  0.00     0.016 A 
ATOM     27  C   UNL A   1      45.148  22.336  23.833  1.00  0.00     0.016 A 
ATOM     28  C   UNL A   1      45.713  22.803  26.541  1.00  0.00     0.010 A 
ATOM     29  C   UNL A   1      45.455  23.627  24.276  1.00  0.00     0.010 A 
ATOM     30  C   UNL A   1      45.719  23.871  25.635  1.00  0.00    -0.014 A 
BRANCH  30  31
ATOM     31  C   UNL A   1      45.966  25.246  26.130  1.00  0.00     0.031 A 
ATOM     32  C   UNL A   1      44.846  26.035  26.745  1.00  0.00     0.074 A 
ATOM     33  C   UNL A   1      47.201  25.770  26.053  1.00  0.00     0.049 A 
ATOM     34  N   UNL A   1      44.842  27.272  27.173  1.00  0.00    -0.248 NA
ATOM     35  C   UNL A   1      43.559  25.339  26.897  1.00  0.00     0.031 C 
ATOM     36  C   UNL A   1      48.378  25.080  25.524  1.00  0.00     0.029 A 
ATOM     37  N   UNL A   1      47.673  27.002  26.426  1.00  0.00    -0.354 N 
ATOM     38  C   UNL A   1      43.549  27.513  27.614  1.00  0.00     0.074 A 
ATOM     39  C   UNL A   1      42.792  26.299  27.396  1.00  0.00     0.031 C 
ATOM     40  C   UNL A   1      49.441  25.893  25.623  1.00  0.00     0.029 A 
ATOM     41  C   UNL A   1      49.011  27.176  26.171  1.00  0.00     0.049 A 
ATOM     42  H   UNL A   1      47.107  27.696  26.836  1.00  0.00     0.167 HD
ATOM     43  C   UNL A   1      43.043  28.649  28.153  1.00  0.00     0.037 A 
ATOM     44  C   UNL A   1      49.793  28.257  26.340  1.00  0.00     0.037 A 
ATOM     45  C   UNL A   1      43.808  29.843  28.399  1.00  0.00     0.049 A 
ATOM     46  C   UNL A   1      49.193  29.522  26.887  1.00  0.00     0.074 A 
ATOM     47  C   UNL A   1      43.395  31.030  28.978  1.00  0.00     0.029 A 
ATOM     48  N   UNL A   1      45.149  30.001  28.078  1.00  0.00    -0.354 N 
ATOM     49  N   UNL A   1      47.969  29.745  27.297  1.00  0.00    -0.248 NA
ATOM     50  C   UNL A   1      50.082  30.688  26.981  1.00  0.00     0.031 C 
ATOM     51  C   UNL A   1      44.476  31.921  28.968  1.00  0.00     0.029 A 
ATOM     52  C   UNL A   1      45.573  31.274  28.422  1.00  0.00     0.049 A 
ATOM     53  H   UNL A   1      45.716  29.309  27.666  1.00  0.00     0.167 HD
ATOM     54  C   UNL A   1      47.943  31.068  27.716  1.00  0.00     0.074 A 
ATOM     55  C   UNL A   1      49.278  31.594  27.519  1.00  0.00     0.031 C 
ATOM     56  C   UNL A   1      46.906  31.781  28.219  1.00  0.00     0.037 A 
BRANCH  43  57
ATOM     57  C   UNL A   1      41.579  28.664  28.478  1.00  0.00     0.064 A 
ATOM     58  C   UNL A   1      40.613  29.049  27.537  1.00  0.00     0.173 A 
ATOM     59  C   UNL A   1      41.137  28.266  29.750  1.00  0.00     0.173 A 
ATOM     60  F   UNL A   1      40.986  29.451  26.313  1.00  0.00    -0.203 F 
ATOM     61  C   UNL A   1      39.260  29.060  27.865  1.00  0.00     0.198 A 
ATOM     62  C   UNL A   1      39.781  28.255  30.066  1.00  0.00     0.198 A 
ATOM     63  F   UNL A   1      42.020  27.885  30.684  1.00  0.00    -0.203 F 
ATOM     64  F   UNL A   1      38.357  29.473  26.965  1.00  0.00    -0.200 F 
ATOM     65  C   UNL A   1      38.845  28.658  29.127  1.00  0.00     0.200 A 
ATOM     66  F   UNL A   1      39.382  27.859  31.282  1.00  0.00    -0.200 F 
ATOM     67  F   UNL A   1      37.542  28.669  29.440  1.00  0.00    -0.200 F 
ENDBRANCH  43  57
BRANCH  44  68
ATOM     68  C   UNL A   1      51.230  28.187  25.977  1.00  0.00     0.064 A 
ATOM     69  C   UNL A   1      52.204  27.931  26.951  1.00  0.00     0.173 A 
ATOM     70  C   UNL A   1      51.658  28.359  24.653  1.00  0.00     0.173 A 
ATOM     71  F   UNL A   1      51.844  27.786  28.235  1.00  0.00    -0.203 F 
ATOM     72  C   UNL A   1      53.553  27.854  26.614  1.00  0.00     0.198 A 
ATOM     73  C   UNL A   1      53.004  28.257  24.313  1.00  0.00     0.198 A 
ATOM     74  F   UNL A   1      50.763  28.609  23.685  1.00  0.00    -0.203 F 
ATOM     75  F   UNL A   1      54.468  27.639  27.570  1.00  0.00    -0.200 F 
ATOM     76  C   UNL A   1      53.952  28.008  25.294  1.00  0.00     0.200 A 
ATOM     77  F   UNL A   1      53.383  28.397  23.035  1.00  0.00    -0.200 F 
ATOM     78  F   UNL A   1      55.249  27.925  24.970  1.00  0.00    -0.200 F 
ENDBRANCH  44  68
BRANCH  56  79
ATOM     79  C   UNL A   1      47.182  33.200  28.617  1.00  0.00     0.064 A 
ATOM     80  C   UNL A   1      47.632  33.524  29.905  1.00  0.00     0.173 A 
ATOM     81  C   UNL A   1      47.027  34.241  27.691  1.00  0.00     0.173 A 
ATOM     82  F   UNL A   1      47.777  32.563  30.831  1.00  0.00    -0.203 F 
ATOM     83  C   UNL A   1      47.897  34.845  30.258  1.00  0.00     0.198 A 
ATOM     84  C   UNL A   1      47.316  35.558  28.040  1.00  0.00     0.198 A 
ATOM     85  F   UNL A   1      46.604  33.981  26.445  1.00  0.00    -0.203 F 
ATOM     86  F   UNL A   1      48.286  35.137  31.506  1.00  0.00    -0.200 F 
ATOM     87  C   UNL A   1      47.744  35.859  29.323  1.00  0.00     0.200 A 
ATOM     88  F   UNL A   1      47.177  36.535  27.134  1.00  0.00    -0.200 F 
ATOM     89  F   UNL A   1      48.004  37.128  29.664  1.00  0.00    -0.200 F 
ENDBRANCH  56  79
ENDBRANCH  30  31
ENDBRANCH  23  25
ENDBRANCH  22  23
ENDBRANCH  21  22
ENDBRANCH   1  21
TORSDOF 16
ENDMDL
