MODEL 1
REMARK VINA RESULT:     -11.5      0.000      0.000
REMARK SMILES COc1ccc(CCn2cc(C(=O)OCCOC(=O)c3ccc(-c4c5nc(c(-c6c(F)c(F)c(F)c(F)c6F)c6ccc([nH]6)c(-c6c(F)c(F)c(F)c(F)c6F)c6nc(c(-c7c(F)c(F)c(F)c(F)c7F)c7ccc4[nH]7)C=C6)C=C5)cc3)ccc2=O)cc1OC
REMARK SMILES IDX 15 1 14 2 12 3 13 4 11 5 9 6 10 7 85 8 84 9 86 10 83 11 8 12
REMARK SMILES IDX 7 13 6 14 3 15 4 16 88 17 5 18 87 19 2 20 1 21 89 22 90 23
REMARK SMILES IDX 16 24 17 25 18 26 19 27 20 28 21 29 82 30 22 31 81 32 23 33
REMARK SMILES IDX 24 34 25 35 75 36 26 37 80 38 74 39 76 40 27 41 79 42 73 43
REMARK SMILES IDX 72 44 28 46 60 47 40 48 59 49 41 50 44 51 58 52 77 53 42 54
REMARK SMILES IDX 43 55 57 57 78 58 45 59 29 60 30 61 38 62 31 63 32 64 36 65
REMARK SMILES IDX 39 66 33 67 34 68 37 69 35 70 61 71 62 72 70 73 63 74 64 75
REMARK SMILES IDX 68 76 71 77 65 78 66 79 69 80 67 81 46 82 47 83 55 84 48 85
REMARK SMILES IDX 49 86 53 87 56 88 50 89 51 90 54 91 52 92
REMARK H PARENT 76 45 44 56
REMARK Flexibility Score: inf
ROOT
ATOM      1  C   UNL A   1      32.832  29.328  24.598  1.00  0.00     0.275 C 
ENDROOT
BRANCH   1   2
ATOM      2  O   UNL A   1      33.476  28.153  25.130  1.00  0.00    -0.458 OA
BRANCH   2   3
ATOM      3  C   UNL A   1      33.381  27.055  24.343  1.00  0.00     0.339 C 
ATOM      4  O   UNL A   1      34.023  26.843  23.322  1.00  0.00    -0.246 OA
BRANCH   3   5
ATOM      5  C   UNL A   1      32.316  26.126  24.789  1.00  0.00     0.076 A 
ATOM      6  N   UNL A   1      31.418  24.016  24.186  1.00  0.00    -0.314 N 
ATOM      7  C   UNL A   1      31.894  25.273  23.845  1.00  0.00     0.104 A 
ATOM      8  C   UNL A   1      31.150  23.662  25.515  1.00  0.00     0.250 A 
ATOM      9  C   UNL A   1      31.488  24.681  26.544  1.00  0.00     0.072 A 
ATOM     10  O   UNL A   1      30.719  22.571  25.875  1.00  0.00    -0.269 OA
ATOM     11  C   UNL A   1      32.076  25.827  26.181  1.00  0.00     0.023 A 
BRANCH   6  12
ATOM     12  C   UNL A   1      31.403  22.917  23.216  1.00  0.00     0.130 C 
BRANCH  12  13
ATOM     13  C   UNL A   1      32.720  22.221  22.824  1.00  0.00     0.057 C 
BRANCH  13  14
ATOM     14  C   UNL A   1      34.007  22.476  23.597  1.00  0.00    -0.042 A 
ATOM     15  C   UNL A   1      36.418  22.539  25.070  1.00  0.00     0.160 A 
ATOM     16  C   UNL A   1      36.360  23.082  23.788  1.00  0.00     0.051 A 
ATOM     17  C   UNL A   1      35.257  22.052  25.672  1.00  0.00     0.160 A 
ATOM     18  C   UNL A   1      35.155  23.084  23.074  1.00  0.00     0.008 A 
ATOM     19  C   UNL A   1      34.079  21.983  24.914  1.00  0.00     0.054 A 
BRANCH  15  20
ATOM     20  O   UNL A   1      37.629  22.550  25.708  1.00  0.00    -0.493 OA
ATOM     21  C   UNL A   1      38.001  23.884  26.063  1.00  0.00     0.278 C 
ENDBRANCH  15  20
BRANCH  17  22
ATOM     22  O   UNL A   1      35.135  21.564  26.945  1.00  0.00    -0.493 OA
ATOM     23  C   UNL A   1      33.814  21.524  27.476  1.00  0.00     0.278 C 
ENDBRANCH  17  22
ENDBRANCH  13  14
ENDBRANCH  12  13
ENDBRANCH   6  12
ENDBRANCH   3   5
ENDBRANCH   2   3
ENDBRANCH   1   2
BRANCH   1  24
ATOM     24  C   UNL A   1      31.819  29.900  25.586  1.00  0.00     0.275 C 
BRANCH  24  25
ATOM     25  O   UNL A   1      32.412  30.013  26.892  1.00  0.00    -0.458 OA
BRANCH  25  26
ATOM     26  C   UNL A   1      33.043  31.178  27.148  1.00  0.00     0.338 C 
ATOM     27  O   UNL A   1      32.599  32.311  27.020  1.00  0.00    -0.246 OA
BRANCH  26  28
ATOM     28  C   UNL A   1      34.398  30.921  27.663  1.00  0.00     0.060 A 
ATOM     29  C   UNL A   1      34.782  29.623  27.987  1.00  0.00     0.016 A 
ATOM     30  C   UNL A   1      35.239  31.989  27.966  1.00  0.00     0.016 A 
ATOM     31  C   UNL A   1      35.947  29.392  28.710  1.00  0.00     0.010 A 
ATOM     32  C   UNL A   1      36.468  31.744  28.587  1.00  0.00     0.010 A 
ATOM     33  C   UNL A   1      36.818  30.446  29.002  1.00  0.00    -0.014 A 
BRANCH  33  34
ATOM     34  C   UNL A   1      38.067  30.196  29.771  1.00  0.00     0.031 A 
ATOM     35  C   UNL A   1      39.152  29.339  29.180  1.00  0.00     0.074 A 
ATOM     36  C   UNL A   1      38.243  30.747  30.989  1.00  0.00     0.049 A 
ATOM     37  N   UNL A   1      40.200  28.811  29.760  1.00  0.00    -0.248 NA
ATOM     38  C   UNL A   1      39.034  29.019  27.749  1.00  0.00     0.031 C 
ATOM     39  C   UNL A   1      37.306  31.653  31.656  1.00  0.00     0.029 A 
ATOM     40  N   UNL A   1      39.278  30.629  31.882  1.00  0.00    -0.354 N 
ATOM     41  C   UNL A   1      40.822  28.039  28.786  1.00  0.00     0.074 A 
ATOM     42  C   UNL A   1      40.043  28.177  27.575  1.00  0.00     0.031 C 
ATOM     43  C   UNL A   1      37.827  32.043  32.828  1.00  0.00     0.029 A 
ATOM     44  C   UNL A   1      39.081  31.332  33.046  1.00  0.00     0.049 A 
ATOM     45  H   UNL A   1      40.085  30.092  31.706  1.00  0.00     0.167 HD
ATOM     46  C   UNL A   1      41.936  27.279  28.904  1.00  0.00     0.037 A 
ATOM     47  C   UNL A   1      39.798  31.362  34.185  1.00  0.00     0.037 A 
ATOM     48  C   UNL A   1      42.743  27.204  30.094  1.00  0.00     0.049 A 
ATOM     49  C   UNL A   1      41.015  30.490  34.301  1.00  0.00     0.074 A 
ATOM     50  C   UNL A   1      43.900  26.478  30.313  1.00  0.00     0.029 A 
ATOM     51  N   UNL A   1      42.482  27.902  31.265  1.00  0.00    -0.354 N 
ATOM     52  N   UNL A   1      41.546  29.691  33.408  1.00  0.00    -0.248 NA
ATOM     53  C   UNL A   1      41.712  30.499  35.594  1.00  0.00     0.031 C 
ATOM     54  C   UNL A   1      44.324  26.713  31.625  1.00  0.00     0.029 A 
ATOM     55  C   UNL A   1      43.451  27.615  32.213  1.00  0.00     0.049 A 
ATOM     56  H   UNL A   1      41.722  28.512  31.402  1.00  0.00     0.167 HD
ATOM     57  C   UNL A   1      42.636  29.099  34.029  1.00  0.00     0.074 A 
ATOM     58  C   UNL A   1      42.707  29.653  35.366  1.00  0.00     0.031 C 
ATOM     59  C   UNL A   1      43.494  28.171  33.540  1.00  0.00     0.037 A 
BRANCH  46  60
ATOM     60  C   UNL A   1      42.325  26.431  27.729  1.00  0.00     0.064 A 
ATOM     61  C   UNL A   1      41.703  25.206  27.451  1.00  0.00     0.173 A 
ATOM     62  C   UNL A   1      43.328  26.871  26.849  1.00  0.00     0.173 A 
ATOM     63  F   UNL A   1      40.751  24.733  28.270  1.00  0.00    -0.203 F 
ATOM     64  C   UNL A   1      42.085  24.442  26.350  1.00  0.00     0.198 A 
ATOM     65  C   UNL A   1      43.689  26.118  25.736  1.00  0.00     0.198 A 
ATOM     66  F   UNL A   1      43.954  28.038  27.068  1.00  0.00    -0.203 F 
ATOM     67  F   UNL A   1      41.508  23.253  26.130  1.00  0.00    -0.200 F 
ATOM     68  C   UNL A   1      43.072  24.900  25.491  1.00  0.00     0.200 A 
ATOM     69  F   UNL A   1      44.637  26.568  24.902  1.00  0.00    -0.200 F 
ATOM     70  F   UNL A   1      43.436  24.165  24.431  1.00  0.00    -0.200 F 
ENDBRANCH  46  60
BRANCH  47  71
ATOM     71  C   UNL A   1      39.340  32.202  35.321  1.00  0.00     0.064 A 
ATOM     72  C   UNL A   1      38.537  31.666  36.335  1.00  0.00     0.173 A 
ATOM     73  C   UNL A   1      39.719  33.549  35.431  1.00  0.00     0.173 A 
ATOM     74  F   UNL A   1      38.126  30.391  36.260  1.00  0.00    -0.203 F 
ATOM     75  C   UNL A   1      38.130  32.444  37.417  1.00  0.00     0.198 A 
ATOM     76  C   UNL A   1      39.338  34.318  36.527  1.00  0.00     0.198 A 
ATOM     77  F   UNL A   1      40.487  34.110  34.484  1.00  0.00    -0.203 F 
ATOM     78  F   UNL A   1      37.337  31.916  38.359  1.00  0.00    -0.200 F 
ATOM     79  C   UNL A   1      38.540  33.766  37.518  1.00  0.00     0.200 A 
ATOM     80  F   UNL A   1      39.749  35.589  36.627  1.00  0.00    -0.200 F 
ATOM     81  F   UNL A   1      38.163  34.509  38.567  1.00  0.00    -0.200 F 
ENDBRANCH  47  71
BRANCH  59  82
ATOM     82  C   UNL A   1      44.585  27.709  34.459  1.00  0.00     0.064 A 
ATOM     83  C   UNL A   1      44.420  26.578  35.273  1.00  0.00     0.173 A 
ATOM     84  C   UNL A   1      45.811  28.386  34.507  1.00  0.00     0.173 A 
ATOM     85  F   UNL A   1      43.257  25.910  35.272  1.00  0.00    -0.203 F 
ATOM     86  C   UNL A   1      45.440  26.156  36.121  1.00  0.00     0.198 A 
ATOM     87  C   UNL A   1      46.836  27.947  35.340  1.00  0.00     0.198 A 
ATOM     88  F   UNL A   1      46.014  29.471  33.744  1.00  0.00    -0.203 F 
ATOM     89  F   UNL A   1      45.247  25.100  36.923  1.00  0.00    -0.200 F 
ATOM     90  C   UNL A   1      46.648  26.837  36.150  1.00  0.00     0.200 A 
ATOM     91  F   UNL A   1      48.006  28.601  35.361  1.00  0.00    -0.200 F 
ATOM     92  F   UNL A   1      47.628  26.429  36.967  1.00  0.00    -0.200 F 
ENDBRANCH  59  82
ENDBRANCH  33  34
ENDBRANCH  26  28
ENDBRANCH  25  26
ENDBRANCH  24  25
ENDBRANCH   1  24
TORSDOF 16
ENDMDL
MODEL 2
REMARK VINA RESULT:     -11.4      4.310     10.136
REMARK SMILES COc1ccc(CCn2cc(C(=O)OCCOC(=O)c3ccc(-c4c5nc(c(-c6c(F)c(F)c(F)c(F)c6F)c6ccc([nH]6)c(-c6c(F)c(F)c(F)c(F)c6F)c6nc(c(-c7c(F)c(F)c(F)c(F)c7F)c7ccc4[nH]7)C=C6)C=C5)cc3)ccc2=O)cc1OC
REMARK SMILES IDX 15 1 14 2 12 3 13 4 11 5 9 6 10 7 85 8 84 9 86 10 83 11 8 12
REMARK SMILES IDX 7 13 6 14 3 15 4 16 88 17 5 18 87 19 2 20 1 21 89 22 90 23
REMARK SMILES IDX 16 24 17 25 18 26 19 27 20 28 21 29 82 30 22 31 81 32 23 33
REMARK SMILES IDX 24 34 25 35 75 36 26 37 80 38 74 39 76 40 27 41 79 42 73 43
REMARK SMILES IDX 72 44 28 46 60 47 40 48 59 49 41 50 44 51 58 52 77 53 42 54
REMARK SMILES IDX 43 55 57 57 78 58 45 59 29 60 30 61 38 62 31 63 32 64 36 65
REMARK SMILES IDX 39 66 33 67 34 68 37 69 35 70 61 71 62 72 70 73 63 74 64 75
REMARK SMILES IDX 68 76 71 77 65 78 66 79 69 80 67 81 46 82 47 83 55 84 48 85
REMARK SMILES IDX 49 86 53 87 56 88 50 89 51 90 54 91 52 92
REMARK H PARENT 76 45 44 56
REMARK Flexibility Score: inf
ROOT
ATOM      1  C   UNL A   1      33.479  33.861  28.025  1.00  0.00     0.275 C 
ENDROOT
BRANCH   1   2
ATOM      2  O   UNL A   1      34.000  34.973  28.779  1.00  0.00    -0.458 OA
BRANCH   2   3
ATOM      3  C   UNL A   1      33.057  35.733  29.385  1.00  0.00     0.339 C 
ATOM      4  O   UNL A   1      32.221  36.428  28.821  1.00  0.00    -0.246 OA
BRANCH   3   5
ATOM      5  C   UNL A   1      33.184  35.728  30.861  1.00  0.00     0.076 A 
ATOM      6  N   UNL A   1      34.076  34.351  32.572  1.00  0.00    -0.314 N 
ATOM      7  C   UNL A   1      33.357  34.512  31.397  1.00  0.00     0.104 A 
ATOM      8  C   UNL A   1      34.460  35.444  33.361  1.00  0.00     0.250 A 
ATOM      9  C   UNL A   1      34.127  36.789  32.820  1.00  0.00     0.072 A 
ATOM     10  O   UNL A   1      35.086  35.362  34.413  1.00  0.00    -0.269 OA
ATOM     11  C   UNL A   1      33.557  36.902  31.615  1.00  0.00     0.023 A 
BRANCH   6  12
ATOM     12  C   UNL A   1      34.683  33.064  32.924  1.00  0.00     0.130 C 
BRANCH  12  13
ATOM     13  C   UNL A   1      35.661  32.383  31.948  1.00  0.00     0.057 C 
BRANCH  13  14
ATOM     14  C   UNL A   1      36.894  33.113  31.430  1.00  0.00    -0.042 A 
ATOM     15  C   UNL A   1      39.397  34.202  30.699  1.00  0.00     0.160 A 
ATOM     16  C   UNL A   1      38.540  33.688  29.727  1.00  0.00     0.051 A 
ATOM     17  C   UNL A   1      38.978  34.272  32.028  1.00  0.00     0.160 A 
ATOM     18  C   UNL A   1      37.284  33.184  30.087  1.00  0.00     0.008 A 
ATOM     19  C   UNL A   1      37.755  33.686  32.385  1.00  0.00     0.054 A 
BRANCH  15  20
ATOM     20  O   UNL A   1      40.618  34.662  30.286  1.00  0.00    -0.493 OA
ATOM     21  C   UNL A   1      40.540  35.178  28.956  1.00  0.00     0.278 C 
ENDBRANCH  15  20
BRANCH  17  22
ATOM     22  O   UNL A   1      39.666  34.818  33.079  1.00  0.00    -0.493 OA
ATOM     23  C   UNL A   1      39.663  34.066  34.288  1.00  0.00     0.278 C 
ENDBRANCH  17  22
ENDBRANCH  13  14
ENDBRANCH  12  13
ENDBRANCH   6  12
ENDBRANCH   3   5
ENDBRANCH   2   3
ENDBRANCH   1   2
BRANCH   1  24
ATOM     24  C   UNL A   1      34.029  32.534  28.542  1.00  0.00     0.275 C 
BRANCH  24  25
ATOM     25  O   UNL A   1      34.525  31.744  27.447  1.00  0.00    -0.458 OA
BRANCH  25  26
ATOM     26  C   UNL A   1      34.682  30.428  27.701  1.00  0.00     0.338 C 
ATOM     27  O   UNL A   1      33.884  29.526  27.484  1.00  0.00    -0.246 OA
BRANCH  26  28
ATOM     28  C   UNL A   1      36.015  30.175  28.273  1.00  0.00     0.060 A 
ATOM     29  C   UNL A   1      37.149  30.331  27.481  1.00  0.00     0.016 A 
ATOM     30  C   UNL A   1      36.130  29.638  29.552  1.00  0.00     0.016 A 
ATOM     31  C   UNL A   1      38.382  29.853  27.913  1.00  0.00     0.010 A 
ATOM     32  C   UNL A   1      37.391  29.267  30.033  1.00  0.00     0.010 A 
ATOM     33  C   UNL A   1      38.525  29.335  29.204  1.00  0.00    -0.014 A 
BRANCH  33  34
ATOM     34  C   UNL A   1      39.845  28.829  29.667  1.00  0.00     0.031 A 
ATOM     35  C   UNL A   1      40.612  29.587  30.715  1.00  0.00     0.074 A 
ATOM     36  C   UNL A   1      40.355  27.685  29.167  1.00  0.00     0.049 A 
ATOM     37  N   UNL A   1      41.860  29.455  31.088  1.00  0.00    -0.248 NA
ATOM     38  C   UNL A   1      39.882  30.646  31.430  1.00  0.00     0.031 C 
ATOM     39  C   UNL A   1      39.692  26.812  28.197  1.00  0.00     0.029 A 
ATOM     40  N   UNL A   1      41.550  27.056  29.413  1.00  0.00    -0.354 N 
ATOM     41  C   UNL A   1      42.084  30.459  32.022  1.00  0.00     0.074 A 
ATOM     42  C   UNL A   1      40.840  31.184  32.170  1.00  0.00     0.031 C 
ATOM     43  C   UNL A   1      40.465  25.742  27.965  1.00  0.00     0.029 A 
ATOM     44  C   UNL A   1      41.723  25.905  28.683  1.00  0.00     0.049 A 
ATOM     45  H   UNL A   1      42.218  27.396  30.052  1.00  0.00     0.167 HD
ATOM     46  C   UNL A   1      43.229  30.750  32.683  1.00  0.00     0.037 A 
ATOM     47  C   UNL A   1      42.794  25.099  28.559  1.00  0.00     0.037 A 
ATOM     48  C   UNL A   1      44.441  29.979  32.579  1.00  0.00     0.049 A 
ATOM     49  C   UNL A   1      44.061  25.456  29.281  1.00  0.00     0.074 A 
ATOM     50  C   UNL A   1      45.652  30.177  33.219  1.00  0.00     0.029 A 
ATOM     51  N   UNL A   1      44.585  28.843  31.794  1.00  0.00    -0.354 N 
ATOM     52  N   UNL A   1      44.295  26.459  30.091  1.00  0.00    -0.248 NA
ATOM     53  C   UNL A   1      45.222  24.587  29.045  1.00  0.00     0.031 C 
ATOM     54  C   UNL A   1      46.539  29.179  32.799  1.00  0.00     0.029 A 
ATOM     55  C   UNL A   1      45.868  28.338  31.925  1.00  0.00     0.049 A 
ATOM     56  H   UNL A   1      43.880  28.454  31.228  1.00  0.00     0.167 HD
ATOM     57  C   UNL A   1      45.627  26.348  30.458  1.00  0.00     0.074 A 
ATOM     58  C   UNL A   1      46.143  25.161  29.806  1.00  0.00     0.031 C 
ATOM     59  C   UNL A   1      46.361  27.161  31.257  1.00  0.00     0.037 A 
BRANCH  46  60
ATOM     60  C   UNL A   1      43.242  31.978  33.543  1.00  0.00     0.064 A 
ATOM     61  C   UNL A   1      43.561  33.245  33.035  1.00  0.00     0.173 A 
ATOM     62  C   UNL A   1      42.901  31.884  34.903  1.00  0.00     0.173 A 
ATOM     63  F   UNL A   1      43.910  33.386  31.748  1.00  0.00    -0.203 F 
ATOM     64  C   UNL A   1      43.562  34.368  33.860  1.00  0.00     0.198 A 
ATOM     65  C   UNL A   1      42.876  33.012  35.718  1.00  0.00     0.198 A 
ATOM     66  F   UNL A   1      42.584  30.696  35.439  1.00  0.00    -0.203 F 
ATOM     67  F   UNL A   1      43.915  35.562  33.363  1.00  0.00    -0.200 F 
ATOM     68  C   UNL A   1      43.214  34.252  35.198  1.00  0.00     0.200 A 
ATOM     69  F   UNL A   1      42.532  32.899  37.008  1.00  0.00    -0.200 F 
ATOM     70  F   UNL A   1      43.213  35.335  35.988  1.00  0.00    -0.200 F 
ENDBRANCH  46  60
BRANCH  47  71
ATOM     71  C   UNL A   1      42.723  23.913  27.666  1.00  0.00     0.064 A 
ATOM     72  C   UNL A   1      43.043  24.015  26.307  1.00  0.00     0.173 A 
ATOM     73  C   UNL A   1      42.361  22.650  28.160  1.00  0.00     0.173 A 
ATOM     74  F   UNL A   1      43.369  25.207  25.784  1.00  0.00    -0.203 F 
ATOM     75  C   UNL A   1      43.006  22.898  25.474  1.00  0.00     0.198 A 
ATOM     76  C   UNL A   1      42.353  21.529  27.334  1.00  0.00     0.198 A 
ATOM     77  F   UNL A   1      42.043  22.500  29.454  1.00  0.00    -0.203 F 
ATOM     78  F   UNL A   1      43.288  23.028  24.171  1.00  0.00    -0.200 F 
ATOM     79  C   UNL A   1      42.672  21.655  25.991  1.00  0.00     0.200 A 
ATOM     80  F   UNL A   1      42.045  20.328  27.841  1.00  0.00    -0.200 F 
ATOM     81  F   UNL A   1      42.652  20.578  25.192  1.00  0.00    -0.200 F 
ENDBRANCH  47  71
BRANCH  59  82
ATOM     82  C   UNL A   1      47.796  26.784  31.469  1.00  0.00     0.064 A 
ATOM     83  C   UNL A   1      48.164  25.839  32.438  1.00  0.00     0.173 A 
ATOM     84  C   UNL A   1      48.807  27.353  30.682  1.00  0.00     0.173 A 
ATOM     85  F   UNL A   1      47.233  25.282  33.226  1.00  0.00    -0.203 F 
ATOM     86  C   UNL A   1      49.500  25.494  32.626  1.00  0.00     0.198 A 
ATOM     87  C   UNL A   1      50.138  26.989  30.858  1.00  0.00     0.198 A 
ATOM     88  F   UNL A   1      48.501  28.259  29.742  1.00  0.00    -0.203 F 
ATOM     89  F   UNL A   1      49.836  24.622  33.586  1.00  0.00    -0.200 F 
ATOM     90  C   UNL A   1      50.484  26.065  31.833  1.00  0.00     0.200 A 
ATOM     91  F   UNL A   1      51.088  27.535  30.085  1.00  0.00    -0.200 F 
ATOM     92  F   UNL A   1      51.769  25.732  32.015  1.00  0.00    -0.200 F 
ENDBRANCH  59  82
ENDBRANCH  33  34
ENDBRANCH  26  28
ENDBRANCH  25  26
ENDBRANCH  24  25
ENDBRANCH   1  24
TORSDOF 16
ENDMDL
MODEL 3
REMARK VINA RESULT:     -11.3      1.203      2.436
REMARK SMILES COc1ccc(CCn2cc(C(=O)OCCOC(=O)c3ccc(-c4c5nc(c(-c6c(F)c(F)c(F)c(F)c6F)c6ccc([nH]6)c(-c6c(F)c(F)c(F)c(F)c6F)c6nc(c(-c7c(F)c(F)c(F)c(F)c7F)c7ccc4[nH]7)C=C6)C=C5)cc3)ccc2=O)cc1OC
REMARK SMILES IDX 15 1 14 2 12 3 13 4 11 5 9 6 10 7 85 8 84 9 86 10 83 11 8 12
REMARK SMILES IDX 7 13 6 14 3 15 4 16 88 17 5 18 87 19 2 20 1 21 89 22 90 23
REMARK SMILES IDX 16 24 17 25 18 26 19 27 20 28 21 29 82 30 22 31 81 32 23 33
REMARK SMILES IDX 24 34 25 35 75 36 26 37 80 38 74 39 76 40 27 41 79 42 73 43
REMARK SMILES IDX 72 44 28 46 60 47 40 48 59 49 41 50 44 51 58 52 77 53 42 54
REMARK SMILES IDX 43 55 57 57 78 58 45 59 29 60 30 61 38 62 31 63 32 64 36 65
REMARK SMILES IDX 39 66 33 67 34 68 37 69 35 70 61 71 62 72 70 73 63 74 64 75
REMARK SMILES IDX 68 76 71 77 65 78 66 79 69 80 67 81 46 82 47 83 55 84 48 85
REMARK SMILES IDX 49 86 53 87 56 88 50 89 51 90 54 91 52 92
REMARK H PARENT 76 45 44 56
REMARK Flexibility Score: inf
ROOT
ATOM      1  C   UNL A   1      33.263  29.090  24.704  1.00  0.00     0.275 C 
ENDROOT
BRANCH   1   2
ATOM      2  O   UNL A   1      33.224  29.327  23.283  1.00  0.00    -0.458 OA
BRANCH   2   3
ATOM      3  C   UNL A   1      33.131  28.206  22.528  1.00  0.00     0.339 C 
ATOM      4  O   UNL A   1      34.024  27.723  21.844  1.00  0.00    -0.246 OA
BRANCH   3   5
ATOM      5  C   UNL A   1      31.765  27.634  22.525  1.00  0.00     0.076 A 
ATOM      6  N   UNL A   1      30.596  25.794  23.460  1.00  0.00    -0.314 N 
ATOM      7  C   UNL A   1      31.710  26.330  22.830  1.00  0.00     0.104 A 
ATOM      8  C   UNL A   1      29.408  26.523  23.605  1.00  0.00     0.250 A 
ATOM      9  C   UNL A   1      29.440  27.930  23.124  1.00  0.00     0.072 A 
ATOM     10  O   UNL A   1      28.389  26.099  24.142  1.00  0.00    -0.269 OA
ATOM     11  C   UNL A   1      30.579  28.448  22.651  1.00  0.00     0.023 A 
BRANCH   6  12
ATOM     12  C   UNL A   1      30.676  24.543  24.218  1.00  0.00     0.130 C 
BRANCH  12  13
ATOM     13  C   UNL A   1      31.272  23.283  23.561  1.00  0.00     0.057 C 
BRANCH  13  14
ATOM     14  C   UNL A   1      32.548  22.645  24.093  1.00  0.00    -0.042 A 
ATOM     15  C   UNL A   1      34.914  21.237  24.732  1.00  0.00     0.160 A 
ATOM     16  C   UNL A   1      34.926  22.627  24.627  1.00  0.00     0.051 A 
ATOM     17  C   UNL A   1      33.709  20.543  24.621  1.00  0.00     0.160 A 
ATOM     18  C   UNL A   1      33.745  23.326  24.347  1.00  0.00     0.008 A 
ATOM     19  C   UNL A   1      32.552  21.246  24.257  1.00  0.00     0.054 A 
BRANCH  15  20
ATOM     20  O   UNL A   1      36.104  20.612  24.987  1.00  0.00    -0.493 OA
ATOM     21  C   UNL A   1      37.204  21.459  24.646  1.00  0.00     0.278 C 
ENDBRANCH  15  20
BRANCH  17  22
ATOM     22  O   UNL A   1      33.520  19.195  24.777  1.00  0.00    -0.493 OA
ATOM     23  C   UNL A   1      32.530  18.601  23.945  1.00  0.00     0.278 C 
ENDBRANCH  17  22
ENDBRANCH  13  14
ENDBRANCH  12  13
ENDBRANCH   6  12
ENDBRANCH   3   5
ENDBRANCH   2   3
ENDBRANCH   1   2
BRANCH   1  24
ATOM     24  C   UNL A   1      32.272  29.986  25.442  1.00  0.00     0.275 C 
BRANCH  24  25
ATOM     25  O   UNL A   1      32.625  30.072  26.834  1.00  0.00    -0.458 OA
BRANCH  25  26
ATOM     26  C   UNL A   1      33.233  31.216  27.213  1.00  0.00     0.338 C 
ATOM     27  O   UNL A   1      32.774  32.350  27.183  1.00  0.00    -0.246 OA
BRANCH  26  28
ATOM     28  C   UNL A   1      34.581  30.929  27.731  1.00  0.00     0.060 A 
ATOM     29  C   UNL A   1      34.942  29.620  28.035  1.00  0.00     0.016 A 
ATOM     30  C   UNL A   1      35.436  31.978  28.058  1.00  0.00     0.016 A 
ATOM     31  C   UNL A   1      36.099  29.358  28.761  1.00  0.00     0.010 A 
ATOM     32  C   UNL A   1      36.658  31.704  28.682  1.00  0.00     0.010 A 
ATOM     33  C   UNL A   1      36.985  30.393  29.075  1.00  0.00    -0.014 A 
BRANCH  33  34
ATOM     34  C   UNL A   1      38.225  30.111  29.848  1.00  0.00     0.031 A 
ATOM     35  C   UNL A   1      39.300  29.246  29.248  1.00  0.00     0.074 A 
ATOM     36  C   UNL A   1      38.403  30.638  31.075  1.00  0.00     0.049 A 
ATOM     37  N   UNL A   1      40.336  28.692  29.825  1.00  0.00    -0.248 NA
ATOM     38  C   UNL A   1      39.185  28.952  27.812  1.00  0.00     0.031 C 
ATOM     39  C   UNL A   1      37.477  31.548  31.752  1.00  0.00     0.029 A 
ATOM     40  N   UNL A   1      39.431  30.489  31.972  1.00  0.00    -0.354 N 
ATOM     41  C   UNL A   1      40.951  27.927  28.842  1.00  0.00     0.074 A 
ATOM     42  C   UNL A   1      40.181  28.097  27.629  1.00  0.00     0.031 C 
ATOM     43  C   UNL A   1      37.997  31.910  32.933  1.00  0.00     0.029 A 
ATOM     44  C   UNL A   1      39.239  31.176  33.146  1.00  0.00     0.049 A 
ATOM     45  H   UNL A   1      40.230  29.942  31.792  1.00  0.00     0.167 HD
ATOM     46  C   UNL A   1      42.053  27.147  28.953  1.00  0.00     0.037 A 
ATOM     47  C   UNL A   1      39.949  31.175  34.290  1.00  0.00     0.037 A 
ATOM     48  C   UNL A   1      42.851  27.039  30.147  1.00  0.00     0.049 A 
ATOM     49  C   UNL A   1      41.151  30.282  34.398  1.00  0.00     0.074 A 
ATOM     50  C   UNL A   1      43.995  26.291  30.359  1.00  0.00     0.029 A 
ATOM     51  N   UNL A   1      42.595  27.722  31.328  1.00  0.00    -0.354 N 
ATOM     52  N   UNL A   1      41.675  29.490  33.495  1.00  0.00    -0.248 NA
ATOM     53  C   UNL A   1      41.841  30.259  35.695  1.00  0.00     0.031 C 
ATOM     54  C   UNL A   1      44.415  26.497  31.678  1.00  0.00     0.029 A 
ATOM     55  C   UNL A   1      43.553  27.403  32.276  1.00  0.00     0.049 A 
ATOM     56  H   UNL A   1      41.844  28.342  31.471  1.00  0.00     0.167 HD
ATOM     57  C   UNL A   1      42.751  28.870  34.112  1.00  0.00     0.074 A 
ATOM     58  C   UNL A   1      42.823  29.401  35.459  1.00  0.00     0.031 C 
ATOM     59  C   UNL A   1      43.598  27.937  33.612  1.00  0.00     0.037 A 
BRANCH  46  60
ATOM     60  C   UNL A   1      42.434  26.312  27.766  1.00  0.00     0.064 A 
ATOM     61  C   UNL A   1      43.416  26.717  26.852  1.00  0.00     0.173 A 
ATOM     62  C   UNL A   1      41.818  25.067  27.558  1.00  0.00     0.173 A 
ATOM     63  F   UNL A   1      44.022  27.905  26.995  1.00  0.00    -0.203 F 
ATOM     64  C   UNL A   1      43.750  25.919  25.759  1.00  0.00     0.198 A 
ATOM     65  C   UNL A   1      42.173  24.260  26.481  1.00  0.00     0.198 A 
ATOM     66  F   UNL A   1      40.874  24.631  28.406  1.00  0.00    -0.203 F 
ATOM     67  F   UNL A   1      44.659  26.346  24.872  1.00  0.00    -0.200 F 
ATOM     68  C   UNL A   1      43.133  24.690  25.578  1.00  0.00     0.200 A 
ATOM     69  F   UNL A   1      41.582  23.069  26.314  1.00  0.00    -0.200 F 
ATOM     70  F   UNL A   1      43.459  23.922  24.529  1.00  0.00    -0.200 F 
ENDBRANCH  46  60
BRANCH  47  71
ATOM     71  C   UNL A   1      39.498  32.004  35.437  1.00  0.00     0.064 A 
ATOM     72  C   UNL A   1      39.946  33.322  35.593  1.00  0.00     0.173 A 
ATOM     73  C   UNL A   1      38.592  31.505  36.385  1.00  0.00     0.173 A 
ATOM     74  F   UNL A   1      40.835  33.833  34.728  1.00  0.00    -0.203 F 
ATOM     75  C   UNL A   1      39.502  34.111  36.652  1.00  0.00     0.198 A 
ATOM     76  C   UNL A   1      38.125  32.304  37.426  1.00  0.00     0.198 A 
ATOM     77  F   UNL A   1      38.134  30.248  36.281  1.00  0.00    -0.203 F 
ATOM     78  F   UNL A   1      39.968  35.359  36.796  1.00  0.00    -0.200 F 
ATOM     79  C   UNL A   1      38.584  33.605  37.561  1.00  0.00     0.200 A 
ATOM     80  F   UNL A   1      37.227  31.816  38.291  1.00  0.00    -0.200 F 
ATOM     81  F   UNL A   1      38.145  34.371  38.569  1.00  0.00    -0.200 F 
ENDBRANCH  47  71
BRANCH  59  82
ATOM     82  C   UNL A   1      44.675  27.442  34.529  1.00  0.00     0.064 A 
ATOM     83  C   UNL A   1      45.907  28.105  34.629  1.00  0.00     0.173 A 
ATOM     84  C   UNL A   1      44.465  26.312  35.331  1.00  0.00     0.173 A 
ATOM     85  F   UNL A   1      46.159  29.180  33.867  1.00  0.00    -0.203 F 
ATOM     86  C   UNL A   1      46.901  27.638  35.485  1.00  0.00     0.198 A 
ATOM     87  C   UNL A   1      45.453  25.861  36.202  1.00  0.00     0.198 A 
ATOM     88  F   UNL A   1      43.301  25.647  35.270  1.00  0.00    -0.203 F 
ATOM     89  F   UNL A   1      48.087  28.260  35.533  1.00  0.00    -0.200 F 
ATOM     90  C   UNL A   1      46.671  26.521  36.274  1.00  0.00     0.200 A 
ATOM     91  F   UNL A   1      45.226  24.786  36.971  1.00  0.00    -0.200 F 
ATOM     92  F   UNL A   1      47.628  26.073  37.097  1.00  0.00    -0.200 F 
ENDBRANCH  59  82
ENDBRANCH  33  34
ENDBRANCH  26  28
ENDBRANCH  25  26
ENDBRANCH  24  25
ENDBRANCH   1  24
TORSDOF 16
ENDMDL
