MODEL 1
REMARK VINA RESULT:     -12.4      0.000      0.000
REMARK SMILES O=C(OCCOC(=O)[C@H]1CCCCN1C(=O)c1cn2ccccc2n1)c1ccc(-c2c3nc(c(-c4c(F)c(F)c(F)c(F)c4F)c4ccc([nH]4)c(-c4c(F)c(F)c(F)c(F)c4F)c4nc(c(-c5c(F)c(F)c(F)c(F)c5F)c5ccc2[nH]5)C=C4)C=C3)cc1
REMARK SMILES IDX 4 1 3 2 2 3 1 4 26 5 27 6 88 7 28 8 87 9 29 10 30 11 31 12
REMARK SMILES IDX 81 13 32 14 86 15 80 16 82 17 33 18 85 19 79 20 78 21 34 23
REMARK SMILES IDX 66 24 46 25 65 26 47 27 50 28 64 29 83 30 48 31 49 32 63 34
REMARK SMILES IDX 84 35 51 36 35 37 36 38 44 39 37 40 38 41 42 42 45 43 39 44
REMARK SMILES IDX 40 45 43 46 41 47 67 48 68 49 76 50 69 51 70 52 74 53 77 54
REMARK SMILES IDX 71 55 72 56 75 57 73 58 52 59 53 60 61 61 54 62 55 63 59 64
REMARK SMILES IDX 62 65 56 66 57 67 60 68 58 69 5 70 6 71 7 72 8 73 9 74 10 75
REMARK SMILES IDX 14 76 11 77 13 78 12 79 15 80 16 81 17 82 18 83 25 84 19 85
REMARK SMILES IDX 24 86 20 87 23 88 21 89 22 90
REMARK H PARENT 82 22 50 33
REMARK Flexibility Score: inf
ROOT
ATOM      1  C   UNL A   1      31.732  32.015  26.872  1.00  0.00     0.275 C 
ENDROOT
BRANCH   1   2
ATOM      2  O   UNL A   1      32.844  32.924  26.807  1.00  0.00    -0.458 OA
BRANCH   2   3
ATOM      3  C   UNL A   1      33.469  33.431  27.901  1.00  0.00     0.338 C 
ATOM      4  O   UNL A   1      33.245  34.576  28.280  1.00  0.00    -0.246 OA
BRANCH   3   5
ATOM      5  C   UNL A   1      34.659  32.717  28.441  1.00  0.00     0.060 A 
ATOM      6  C   UNL A   1      34.639  31.432  28.989  1.00  0.00     0.016 A 
ATOM      7  C   UNL A   1      35.865  33.431  28.445  1.00  0.00     0.016 A 
ATOM      8  C   UNL A   1      35.818  30.838  29.453  1.00  0.00     0.010 A 
ATOM      9  C   UNL A   1      37.044  32.844  28.914  1.00  0.00     0.010 A 
ATOM     10  C   UNL A   1      37.027  31.539  29.419  1.00  0.00    -0.014 A 
BRANCH  10  11
ATOM     11  C   UNL A   1      38.230  30.959  30.059  1.00  0.00     0.031 A 
ATOM     12  C   UNL A   1      38.528  31.322  31.484  1.00  0.00     0.074 A 
ATOM     13  C   UNL A   1      39.018  30.089  29.401  1.00  0.00     0.049 A 
ATOM     14  N   UNL A   1      39.432  30.835  32.295  1.00  0.00    -0.248 NA
ATOM     15  C   UNL A   1      37.689  32.376  32.078  1.00  0.00     0.031 C 
ATOM     16  C   UNL A   1      38.854  29.686  28.006  1.00  0.00     0.029 A 
ATOM     17  N   UNL A   1      40.117  29.386  29.827  1.00  0.00    -0.354 N 
ATOM     18  C   UNL A   1      39.255  31.506  33.495  1.00  0.00     0.074 A 
ATOM     19  C   UNL A   1      38.194  32.470  33.298  1.00  0.00     0.031 C 
ATOM     20  C   UNL A   1      39.813  28.796  27.693  1.00  0.00     0.029 A 
ATOM     21  C   UNL A   1      40.656  28.568  28.865  1.00  0.00     0.049 A 
ATOM     22  H   UNL A   1      40.484  29.460  30.738  1.00  0.00     0.167 HD
ATOM     23  C   UNL A   1      39.902  31.323  34.669  1.00  0.00     0.037 A 
ATOM     24  C   UNL A   1      41.705  27.726  28.935  1.00  0.00     0.037 A 
ATOM     25  C   UNL A   1      40.976  30.391  34.862  1.00  0.00     0.049 A 
ATOM     26  C   UNL A   1      42.435  27.563  30.244  1.00  0.00     0.074 A 
ATOM     27  C   UNL A   1      41.700  30.128  36.011  1.00  0.00     0.029 A 
ATOM     28  N   UNL A   1      41.492  29.578  33.864  1.00  0.00    -0.354 N 
ATOM     29  N   UNL A   1      42.197  28.129  31.403  1.00  0.00    -0.248 NA
ATOM     30  C   UNL A   1      43.572  26.630  30.259  1.00  0.00     0.031 C 
ATOM     31  C   UNL A   1      42.674  29.171  35.700  1.00  0.00     0.029 A 
ATOM     32  C   UNL A   1      42.535  28.819  34.366  1.00  0.00     0.049 A 
ATOM     33  H   UNL A   1      41.165  29.545  32.936  1.00  0.00     0.167 HD
ATOM     34  C   UNL A   1      43.127  27.600  32.288  1.00  0.00     0.074 A 
ATOM     35  C   UNL A   1      43.931  26.660  31.536  1.00  0.00     0.031 C 
ATOM     36  C   UNL A   1      43.301  27.869  33.604  1.00  0.00     0.037 A 
BRANCH  23  37
ATOM     37  C   UNL A   1      39.447  32.160  35.822  1.00  0.00     0.064 A 
ATOM     38  C   UNL A   1      40.022  33.415  36.077  1.00  0.00     0.173 A 
ATOM     39  C   UNL A   1      38.456  31.696  36.699  1.00  0.00     0.173 A 
ATOM     40  F   UNL A   1      40.989  33.888  35.275  1.00  0.00    -0.203 F 
ATOM     41  C   UNL A   1      39.644  34.161  37.188  1.00  0.00     0.198 A 
ATOM     42  C   UNL A   1      38.068  32.456  37.799  1.00  0.00     0.198 A 
ATOM     43  F   UNL A   1      37.881  30.502  36.498  1.00  0.00    -0.203 F 
ATOM     44  F   UNL A   1      40.245  35.332  37.441  1.00  0.00    -0.200 F 
ATOM     45  C   UNL A   1      38.668  33.682  38.047  1.00  0.00     0.200 A 
ATOM     46  F   UNL A   1      37.123  31.995  38.630  1.00  0.00    -0.200 F 
ATOM     47  F   UNL A   1      38.314  34.397  39.124  1.00  0.00    -0.200 F 
ENDBRANCH  23  37
BRANCH  24  48
ATOM     48  C   UNL A   1      42.113  26.934  27.746  1.00  0.00     0.064 A 
ATOM     49  C   UNL A   1      41.591  25.652  27.522  1.00  0.00     0.173 A 
ATOM     50  C   UNL A   1      43.057  27.423  26.832  1.00  0.00     0.173 A 
ATOM     51  F   UNL A   1      40.704  25.131  28.382  1.00  0.00    -0.203 F 
ATOM     52  C   UNL A   1      42.016  24.880  26.443  1.00  0.00     0.198 A 
ATOM     53  C   UNL A   1      43.466  26.658  25.741  1.00  0.00     0.198 A 
ATOM     54  F   UNL A   1      43.590  28.641  27.005  1.00  0.00    -0.203 F 
ATOM     55  F   UNL A   1      41.537  23.640  26.278  1.00  0.00    -0.200 F 
ATOM     56  C   UNL A   1      42.951  25.385  25.552  1.00  0.00     0.200 A 
ATOM     57  F   UNL A   1      44.367  27.149  24.879  1.00  0.00    -0.200 F 
ATOM     58  F   UNL A   1      43.365  24.639  24.519  1.00  0.00    -0.200 F 
ENDBRANCH  24  48
BRANCH  36  59
ATOM     59  C   UNL A   1      44.370  27.110  34.328  1.00  0.00     0.064 A 
ATOM     60  C   UNL A   1      45.668  27.621  34.461  1.00  0.00     0.173 A 
ATOM     61  C   UNL A   1      44.071  25.889  34.953  1.00  0.00     0.173 A 
ATOM     62  F   UNL A   1      46.002  28.777  33.868  1.00  0.00    -0.203 F 
ATOM     63  C   UNL A   1      46.635  26.931  35.188  1.00  0.00     0.198 A 
ATOM     64  C   UNL A   1      45.035  25.213  35.695  1.00  0.00     0.198 A 
ATOM     65  F   UNL A   1      42.842  25.363  34.856  1.00  0.00    -0.203 F 
ATOM     66  F   UNL A   1      47.878  27.423  35.281  1.00  0.00    -0.200 F 
ATOM     67  C   UNL A   1      46.315  25.733  35.810  1.00  0.00     0.200 A 
ATOM     68  F   UNL A   1      44.723  24.060  36.303  1.00  0.00    -0.200 F 
ATOM     69  F   UNL A   1      47.244  25.077  36.518  1.00  0.00    -0.200 F 
ENDBRANCH  36  59
ENDBRANCH  10  11
ENDBRANCH   3   5
ENDBRANCH   2   3
ENDBRANCH   1   2
BRANCH   1  70
ATOM     70  C   UNL A   1      32.157  30.545  26.877  1.00  0.00     0.274 C 
BRANCH  70  71
ATOM     71  O   UNL A   1      32.845  30.164  25.676  1.00  0.00    -0.461 OA
BRANCH  71  72
ATOM     72  C   UNL A   1      33.473  28.949  25.737  1.00  0.00     0.328 C 
ATOM     73  O   UNL A   1      34.395  28.696  26.503  1.00  0.00    -0.250 OA
BRANCH  72  74
ATOM     74  C   UNL A   1      32.895  27.973  24.692  1.00  0.00     0.195 C 
ATOM     75  C   UNL A   1      33.675  26.655  24.700  1.00  0.00     0.037 C 
ATOM     76  N   UNL A   1      31.457  27.704  24.880  1.00  0.00    -0.323 N 
ATOM     77  C   UNL A   1      33.342  25.803  25.930  1.00  0.00     0.005 C 
ATOM     78  C   UNL A   1      31.094  26.982  26.099  1.00  0.00     0.121 C 
ATOM     79  C   UNL A   1      31.832  25.642  26.132  1.00  0.00     0.022 C 
BRANCH  76  80
ATOM     80  C   UNL A   1      30.645  27.600  23.746  1.00  0.00     0.274 C 
ATOM     81  O   UNL A   1      30.485  26.522  23.166  1.00  0.00    -0.267 OA
BRANCH  80  82
ATOM     82  C   UNL A   1      30.038  28.838  23.246  1.00  0.00     0.147 A 
ATOM     83  C   UNL A   1      29.941  30.044  23.921  1.00  0.00     0.127 A 
ATOM     84  N   UNL A   1      29.513  28.966  21.972  1.00  0.00    -0.223 NA
ATOM     85  N   UNL A   1      29.303  30.904  23.066  1.00  0.00    -0.306 N 
ATOM     86  C   UNL A   1      29.062  30.199  21.892  1.00  0.00     0.137 A 
ATOM     87  C   UNL A   1      28.923  32.230  23.262  1.00  0.00     0.093 A 
ATOM     88  C   UNL A   1      28.388  30.891  20.848  1.00  0.00     0.048 A 
ATOM     89  C   UNL A   1      28.279  32.877  22.275  1.00  0.00     0.018 A 
ATOM     90  C   UNL A   1      28.006  32.171  21.031  1.00  0.00     0.005 A 
ENDBRANCH  80  82
ENDBRANCH  76  80
ENDBRANCH  72  74
ENDBRANCH  71  72
ENDBRANCH  70  71
ENDBRANCH   1  70
TORSDOF 13
ENDMDL
MODEL 2
REMARK VINA RESULT:     -12.1      5.415     10.992
REMARK SMILES O=C(OCCOC(=O)[C@H]1CCCCN1C(=O)c1cn2ccccc2n1)c1ccc(-c2c3nc(c(-c4c(F)c(F)c(F)c(F)c4F)c4ccc([nH]4)c(-c4c(F)c(F)c(F)c(F)c4F)c4nc(c(-c5c(F)c(F)c(F)c(F)c5F)c5ccc2[nH]5)C=C4)C=C3)cc1
REMARK SMILES IDX 4 1 3 2 2 3 1 4 26 5 27 6 88 7 28 8 87 9 29 10 30 11 31 12
REMARK SMILES IDX 81 13 32 14 86 15 80 16 82 17 33 18 85 19 79 20 78 21 34 23
REMARK SMILES IDX 66 24 46 25 65 26 47 27 50 28 64 29 83 30 48 31 49 32 63 34
REMARK SMILES IDX 84 35 51 36 35 37 36 38 44 39 37 40 38 41 42 42 45 43 39 44
REMARK SMILES IDX 40 45 43 46 41 47 67 48 68 49 76 50 69 51 70 52 74 53 77 54
REMARK SMILES IDX 71 55 72 56 75 57 73 58 52 59 53 60 61 61 54 62 55 63 59 64
REMARK SMILES IDX 62 65 56 66 57 67 60 68 58 69 5 70 6 71 7 72 8 73 9 74 10 75
REMARK SMILES IDX 14 76 11 77 13 78 12 79 15 80 16 81 17 82 18 83 25 84 19 85
REMARK SMILES IDX 24 86 20 87 23 88 21 89 22 90
REMARK H PARENT 82 22 50 33
REMARK Flexibility Score: inf
ROOT
ATOM      1  C   UNL A   1      38.426  20.046  25.434  1.00  0.00     0.275 C 
ENDROOT
BRANCH   1   2
ATOM      2  O   UNL A   1      39.806  20.428  25.561  1.00  0.00    -0.458 OA
BRANCH   2   3
ATOM      3  C   UNL A   1      40.408  20.703  26.747  1.00  0.00     0.338 C 
ATOM      4  O   UNL A   1      40.447  19.866  27.642  1.00  0.00    -0.246 OA
BRANCH   3   5
ATOM      5  C   UNL A   1      40.729  22.120  27.074  1.00  0.00     0.060 A 
ATOM      6  C   UNL A   1      40.262  23.230  26.367  1.00  0.00     0.016 A 
ATOM      7  C   UNL A   1      41.618  22.326  28.138  1.00  0.00     0.016 A 
ATOM      8  C   UNL A   1      40.606  24.526  26.767  1.00  0.00     0.010 A 
ATOM      9  C   UNL A   1      41.971  23.619  28.537  1.00  0.00     0.010 A 
ATOM     10  C   UNL A   1      41.462  24.729  27.855  1.00  0.00    -0.014 A 
BRANCH  10  11
ATOM     11  C   UNL A   1      41.943  26.095  28.164  1.00  0.00     0.031 A 
ATOM     12  C   UNL A   1      43.304  26.501  27.682  1.00  0.00     0.074 A 
ATOM     13  C   UNL A   1      41.165  26.973  28.823  1.00  0.00     0.049 A 
ATOM     14  N   UNL A   1      43.878  27.676  27.706  1.00  0.00    -0.248 NA
ATOM     15  C   UNL A   1      44.130  25.437  27.087  1.00  0.00     0.031 C 
ATOM     16  C   UNL A   1      39.842  26.688  29.373  1.00  0.00     0.029 A 
ATOM     17  N   UNL A   1      41.382  28.292  29.138  1.00  0.00    -0.354 N 
ATOM     18  C   UNL A   1      45.118  27.497  27.111  1.00  0.00     0.074 A 
ATOM     19  C   UNL A   1      45.238  26.093  26.782  1.00  0.00     0.031 C 
ATOM     20  C   UNL A   1      39.358  27.803  29.950  1.00  0.00     0.029 A 
ATOM     21  C   UNL A   1      40.338  28.879  29.809  1.00  0.00     0.049 A 
ATOM     22  H   UNL A   1      42.210  28.772  28.904  1.00  0.00     0.167 HD
ATOM     23  C   UNL A   1      46.067  28.422  26.841  1.00  0.00     0.037 A 
ATOM     24  C   UNL A   1      40.193  30.144  30.247  1.00  0.00     0.037 A 
ATOM     25  C   UNL A   1      45.967  29.809  27.194  1.00  0.00     0.049 A 
ATOM     26  C   UNL A   1      41.280  31.151  29.965  1.00  0.00     0.074 A 
ATOM     27  C   UNL A   1      46.872  30.830  26.967  1.00  0.00     0.029 A 
ATOM     28  N   UNL A   1      44.891  30.366  27.870  1.00  0.00    -0.354 N 
ATOM     29  N   UNL A   1      42.407  30.995  29.314  1.00  0.00    -0.248 NA
ATOM     30  C   UNL A   1      41.065  32.517  30.467  1.00  0.00     0.031 C 
ATOM     31  C   UNL A   1      46.354  32.002  27.530  1.00  0.00     0.029 A 
ATOM     32  C   UNL A   1      45.115  31.716  28.080  1.00  0.00     0.049 A 
ATOM     33  H   UNL A   1      44.089  29.875  28.158  1.00  0.00     0.167 HD
ATOM     34  C   UNL A   1      43.018  32.242  29.299  1.00  0.00     0.074 A 
ATOM     35  C   UNL A   1      42.134  33.149  30.000  1.00  0.00     0.031 C 
ATOM     36  C   UNL A   1      44.205  32.604  28.755  1.00  0.00     0.037 A 
BRANCH  23  37
ATOM     37  C   UNL A   1      47.290  27.938  26.128  1.00  0.00     0.064 A 
ATOM     38  C   UNL A   1      47.304  27.799  24.731  1.00  0.00     0.173 A 
ATOM     39  C   UNL A   1      48.442  27.578  26.840  1.00  0.00     0.173 A 
ATOM     40  F   UNL A   1      46.215  28.110  24.010  1.00  0.00    -0.203 F 
ATOM     41  C   UNL A   1      48.419  27.285  24.076  1.00  0.00     0.198 A 
ATOM     42  C   UNL A   1      49.562  27.083  26.178  1.00  0.00     0.198 A 
ATOM     43  F   UNL A   1      48.474  27.691  28.176  1.00  0.00    -0.203 F 
ATOM     44  F   UNL A   1      48.392  27.110  22.748  1.00  0.00    -0.200 F 
ATOM     45  C   UNL A   1      49.547  26.929  24.800  1.00  0.00     0.200 A 
ATOM     46  F   UNL A   1      50.654  26.740  26.877  1.00  0.00    -0.200 F 
ATOM     47  F   UNL A   1      50.615  26.422  24.169  1.00  0.00    -0.200 F 
ENDBRANCH  23  37
BRANCH  24  48
ATOM     48  C   UNL A   1      38.957  30.555  30.961  1.00  0.00     0.064 A 
ATOM     49  C   UNL A   1      37.849  31.048  30.257  1.00  0.00     0.173 A 
ATOM     50  C   UNL A   1      38.871  30.501  32.359  1.00  0.00     0.173 A 
ATOM     51  F   UNL A   1      37.894  31.142  28.921  1.00  0.00    -0.203 F 
ATOM     52  C   UNL A   1      36.710  31.492  30.926  1.00  0.00     0.198 A 
ATOM     53  C   UNL A   1      37.724  30.927  33.026  1.00  0.00     0.198 A 
ATOM     54  F   UNL A   1      39.906  30.043  33.079  1.00  0.00    -0.203 F 
ATOM     55  F   UNL A   1      35.684  32.002  30.233  1.00  0.00    -0.200 F 
ATOM     56  C   UNL A   1      36.648  31.429  32.311  1.00  0.00     0.200 A 
ATOM     57  F   UNL A   1      37.664  30.861  34.364  1.00  0.00    -0.200 F 
ATOM     58  F   UNL A   1      35.556  31.864  32.953  1.00  0.00    -0.200 F 
ENDBRANCH  24  48
BRANCH  36  59
ATOM     59  C   UNL A   1      44.600  34.045  28.856  1.00  0.00     0.064 A 
ATOM     60  C   UNL A   1      44.207  34.980  27.889  1.00  0.00     0.173 A 
ATOM     61  C   UNL A   1      45.319  34.505  29.969  1.00  0.00     0.173 A 
ATOM     62  F   UNL A   1      43.531  34.582  26.801  1.00  0.00    -0.203 F 
ATOM     63  C   UNL A   1      44.531  36.327  28.027  1.00  0.00     0.198 A 
ATOM     64  C   UNL A   1      45.623  35.855  30.114  1.00  0.00     0.198 A 
ATOM     65  F   UNL A   1      45.713  33.648  30.922  1.00  0.00    -0.203 F 
ATOM     66  F   UNL A   1      44.171  37.202  27.078  1.00  0.00    -0.200 F 
ATOM     67  C   UNL A   1      45.231  36.764  29.142  1.00  0.00     0.200 A 
ATOM     68  F   UNL A   1      46.292  36.278  31.195  1.00  0.00    -0.200 F 
ATOM     69  F   UNL A   1      45.532  38.063  29.279  1.00  0.00    -0.200 F 
ENDBRANCH  36  59
ENDBRANCH  10  11
ENDBRANCH   3   5
ENDBRANCH   2   3
ENDBRANCH   1   2
BRANCH   1  70
ATOM     70  C   UNL A   1      37.536  21.175  24.911  1.00  0.00     0.274 C 
BRANCH  70  71
ATOM     71  O   UNL A   1      36.752  21.786  25.948  1.00  0.00    -0.461 OA
BRANCH  71  72
ATOM     72  C   UNL A   1      36.252  23.021  25.634  1.00  0.00     0.328 C 
ATOM     73  O   UNL A   1      36.950  24.000  25.399  1.00  0.00    -0.250 OA
BRANCH  72  74
ATOM     74  C   UNL A   1      34.709  23.018  25.661  1.00  0.00     0.195 C 
ATOM     75  C   UNL A   1      34.172  24.446  25.790  1.00  0.00     0.037 C 
ATOM     76  N   UNL A   1      34.108  22.361  24.485  1.00  0.00    -0.323 N 
ATOM     77  C   UNL A   1      34.316  25.229  24.481  1.00  0.00     0.005 C 
ATOM     78  C   UNL A   1      34.317  23.031  23.201  1.00  0.00     0.121 C 
ATOM     79  C   UNL A   1      33.766  24.456  23.279  1.00  0.00     0.022 C 
BRANCH  76  80
ATOM     80  C   UNL A   1      32.975  21.565  24.675  1.00  0.00     0.274 C 
ATOM     81  O   UNL A   1      31.850  22.061  24.785  1.00  0.00    -0.267 OA
BRANCH  80  82
ATOM     82  C   UNL A   1      33.189  20.118  24.790  1.00  0.00     0.147 A 
ATOM     83  C   UNL A   1      34.378  19.437  24.577  1.00  0.00     0.127 A 
ATOM     84  N   UNL A   1      32.203  19.233  25.188  1.00  0.00    -0.223 NA
ATOM     85  N   UNL A   1      34.099  18.115  24.800  1.00  0.00    -0.306 N 
ATOM     86  C   UNL A   1      32.760  18.041  25.167  1.00  0.00     0.137 A 
ATOM     87  C   UNL A   1      34.931  17.003  24.688  1.00  0.00     0.093 A 
ATOM     88  C   UNL A   1      32.233  16.748  25.439  1.00  0.00     0.048 A 
ATOM     89  C   UNL A   1      34.425  15.781  24.937  1.00  0.00     0.018 A 
ATOM     90  C   UNL A   1      33.026  15.664  25.323  1.00  0.00     0.005 A 
ENDBRANCH  80  82
ENDBRANCH  76  80
ENDBRANCH  72  74
ENDBRANCH  71  72
ENDBRANCH  70  71
ENDBRANCH   1  70
TORSDOF 13
ENDMDL
MODEL 3
REMARK VINA RESULT:     -11.9      5.579     10.793
REMARK SMILES O=C(OCCOC(=O)[C@H]1CCCCN1C(=O)c1cn2ccccc2n1)c1ccc(-c2c3nc(c(-c4c(F)c(F)c(F)c(F)c4F)c4ccc([nH]4)c(-c4c(F)c(F)c(F)c(F)c4F)c4nc(c(-c5c(F)c(F)c(F)c(F)c5F)c5ccc2[nH]5)C=C4)C=C3)cc1
REMARK SMILES IDX 4 1 3 2 2 3 1 4 26 5 27 6 88 7 28 8 87 9 29 10 30 11 31 12
REMARK SMILES IDX 81 13 32 14 86 15 80 16 82 17 33 18 85 19 79 20 78 21 34 23
REMARK SMILES IDX 66 24 46 25 65 26 47 27 50 28 64 29 83 30 48 31 49 32 63 34
REMARK SMILES IDX 84 35 51 36 35 37 36 38 44 39 37 40 38 41 42 42 45 43 39 44
REMARK SMILES IDX 40 45 43 46 41 47 67 48 68 49 76 50 69 51 70 52 74 53 77 54
REMARK SMILES IDX 71 55 72 56 75 57 73 58 52 59 53 60 61 61 54 62 55 63 59 64
REMARK SMILES IDX 62 65 56 66 57 67 60 68 58 69 5 70 6 71 7 72 8 73 9 74 10 75
REMARK SMILES IDX 14 76 11 77 13 78 12 79 15 80 16 81 17 82 18 83 25 84 19 85
REMARK SMILES IDX 24 86 20 87 23 88 21 89 22 90
REMARK H PARENT 82 22 50 33
REMARK Flexibility Score: inf
ROOT
ATOM      1  C   UNL A   1      38.398  19.979  25.075  1.00  0.00     0.275 C 
ENDROOT
BRANCH   1   2
ATOM      2  O   UNL A   1      39.320  19.549  26.090  1.00  0.00    -0.458 OA
BRANCH   2   3
ATOM      3  C   UNL A   1      40.656  19.788  26.048  1.00  0.00     0.338 C 
ATOM      4  O   UNL A   1      41.450  18.886  25.804  1.00  0.00    -0.246 OA
BRANCH   3   5
ATOM      5  C   UNL A   1      41.173  21.065  26.615  1.00  0.00     0.060 A 
ATOM      6  C   UNL A   1      41.224  21.371  27.978  1.00  0.00     0.016 A 
ATOM      7  C   UNL A   1      41.575  22.038  25.691  1.00  0.00     0.016 A 
ATOM      8  C   UNL A   1      41.746  22.594  28.412  1.00  0.00     0.010 A 
ATOM      9  C   UNL A   1      42.091  23.265  26.121  1.00  0.00     0.010 A 
ATOM     10  C   UNL A   1      42.184  23.549  27.488  1.00  0.00    -0.014 A 
BRANCH  10  11
ATOM     11  C   UNL A   1      42.583  24.895  27.957  1.00  0.00     0.031 A 
ATOM     12  C   UNL A   1      44.043  25.242  27.977  1.00  0.00     0.074 A 
ATOM     13  C   UNL A   1      41.662  25.808  28.316  1.00  0.00     0.049 A 
ATOM     14  N   UNL A   1      44.620  26.393  28.209  1.00  0.00    -0.248 NA
ATOM     15  C   UNL A   1      44.979  24.142  27.692  1.00  0.00     0.031 C 
ATOM     16  C   UNL A   1      40.220  25.580  28.373  1.00  0.00     0.029 A 
ATOM     17  N   UNL A   1      41.811  27.118  28.700  1.00  0.00    -0.354 N 
ATOM     18  C   UNL A   1      45.981  26.159  28.076  1.00  0.00     0.074 A 
ATOM     19  C   UNL A   1      46.150  24.750  27.794  1.00  0.00     0.031 C 
ATOM     20  C   UNL A   1      39.613  26.717  28.760  1.00  0.00     0.029 A 
ATOM     21  C   UNL A   1      40.624  27.750  28.975  1.00  0.00     0.049 A 
ATOM     22  H   UNL A   1      42.687  27.562  28.770  1.00  0.00     0.167 HD
ATOM     23  C   UNL A   1      47.002  27.043  28.159  1.00  0.00     0.037 A 
ATOM     24  C   UNL A   1      40.389  29.023  29.349  1.00  0.00     0.037 A 
ATOM     25  C   UNL A   1      46.842  28.435  28.469  1.00  0.00     0.049 A 
ATOM     26  C   UNL A   1      41.546  29.983  29.469  1.00  0.00     0.074 A 
ATOM     27  C   UNL A   1      47.811  29.416  28.577  1.00  0.00     0.029 A 
ATOM     28  N   UNL A   1      45.623  29.039  28.738  1.00  0.00    -0.354 N 
ATOM     29  N   UNL A   1      42.821  29.777  29.244  1.00  0.00    -0.248 NA
ATOM     30  C   UNL A   1      41.227  31.359  29.879  1.00  0.00     0.031 C 
ATOM     31  C   UNL A   1      47.179  30.611  28.939  1.00  0.00     0.029 A 
ATOM     32  C   UNL A   1      45.815  30.379  29.026  1.00  0.00     0.049 A 
ATOM     33  H   UNL A   1      44.751  28.583  28.727  1.00  0.00     0.167 HD
ATOM     34  C   UNL A   1      43.450  30.997  29.453  1.00  0.00     0.074 A 
ATOM     35  C   UNL A   1      42.416  31.944  29.815  1.00  0.00     0.031 C 
ATOM     36  C   UNL A   1      44.765  31.307  29.355  1.00  0.00     0.037 A 
BRANCH  23  37
ATOM     37  C   UNL A   1      48.374  26.505  27.905  1.00  0.00     0.064 A 
ATOM     38  C   UNL A   1      49.202  26.107  28.967  1.00  0.00     0.173 A 
ATOM     39  C   UNL A   1      48.882  26.417  26.601  1.00  0.00     0.173 A 
ATOM     40  F   UNL A   1      48.765  26.195  30.233  1.00  0.00    -0.203 F 
ATOM     41  C   UNL A   1      50.502  25.671  28.733  1.00  0.00     0.198 A 
ATOM     42  C   UNL A   1      50.177  25.960  26.371  1.00  0.00     0.198 A 
ATOM     43  F   UNL A   1      48.129  26.788  25.557  1.00  0.00    -0.203 F 
ATOM     44  F   UNL A   1      51.294  25.346  29.765  1.00  0.00    -0.200 F 
ATOM     45  C   UNL A   1      50.988  25.597  27.437  1.00  0.00     0.200 A 
ATOM     46  F   UNL A   1      50.647  25.887  25.119  1.00  0.00    -0.200 F 
ATOM     47  F   UNL A   1      52.245  25.188  27.214  1.00  0.00    -0.200 F 
ENDBRANCH  23  37
BRANCH  24  48
ATOM     48  C   UNL A   1      39.000  29.488  29.598  1.00  0.00     0.064 A 
ATOM     49  C   UNL A   1      38.187  29.925  28.542  1.00  0.00     0.173 A 
ATOM     50  C   UNL A   1      38.471  29.544  30.895  1.00  0.00     0.173 A 
ATOM     51  F   UNL A   1      38.658  29.915  27.287  1.00  0.00    -0.203 F 
ATOM     52  C   UNL A   1      36.906  30.420  28.777  1.00  0.00     0.198 A 
ATOM     53  C   UNL A   1      37.182  30.019  31.126  1.00  0.00     0.198 A 
ATOM     54  F   UNL A   1      39.210  29.143  31.939  1.00  0.00    -0.203 F 
ATOM     55  F   UNL A   1      36.168  30.874  27.756  1.00  0.00    -0.200 F 
ATOM     56  C   UNL A   1      36.403  30.464  30.069  1.00  0.00     0.200 A 
ATOM     57  F   UNL A   1      36.696  30.058  32.375  1.00  0.00    -0.200 F 
ATOM     58  F   UNL A   1      35.174  30.948  30.294  1.00  0.00    -0.200 F 
ENDBRANCH  24  48
BRANCH  36  59
ATOM     59  C   UNL A   1      45.159  32.731  29.600  1.00  0.00     0.064 A 
ATOM     60  C   UNL A   1      45.155  33.679  28.567  1.00  0.00     0.173 A 
ATOM     61  C   UNL A   1      45.476  33.165  30.896  1.00  0.00     0.173 A 
ATOM     62  F   UNL A   1      44.872  33.306  27.310  1.00  0.00    -0.203 F 
ATOM     63  C   UNL A   1      45.465  35.012  28.822  1.00  0.00     0.198 A 
ATOM     64  C   UNL A   1      45.766  34.502  31.150  1.00  0.00     0.198 A 
ATOM     65  F   UNL A   1      45.489  32.294  31.916  1.00  0.00    -0.203 F 
ATOM     66  F   UNL A   1      45.483  35.898  27.817  1.00  0.00    -0.200 F 
ATOM     67  C   UNL A   1      45.763  35.423  30.113  1.00  0.00     0.200 A 
ATOM     68  F   UNL A   1      46.045  34.900  32.399  1.00  0.00    -0.200 F 
ATOM     69  F   UNL A   1      46.051  36.708  30.358  1.00  0.00    -0.200 F 
ENDBRANCH  36  59
ENDBRANCH  10  11
ENDBRANCH   3   5
ENDBRANCH   2   3
ENDBRANCH   1   2
BRANCH   1  70
ATOM     70  C   UNL A   1      37.941  21.428  25.252  1.00  0.00     0.274 C 
BRANCH  70  71
ATOM     71  O   UNL A   1      36.629  21.527  25.828  1.00  0.00    -0.461 OA
BRANCH  71  72
ATOM     72  C   UNL A   1      36.133  22.801  25.908  1.00  0.00     0.328 C 
ATOM     73  O   UNL A   1      36.829  23.793  26.087  1.00  0.00    -0.250 OA
BRANCH  72  74
ATOM     74  C   UNL A   1      34.595  22.806  25.784  1.00  0.00     0.195 C 
ATOM     75  C   UNL A   1      34.054  24.235  25.891  1.00  0.00     0.037 C 
ATOM     76  N   UNL A   1      34.109  22.179  24.541  1.00  0.00    -0.323 N 
ATOM     77  C   UNL A   1      34.328  25.044  24.619  1.00  0.00     0.005 C 
ATOM     78  C   UNL A   1      34.445  22.874  23.298  1.00  0.00     0.121 C 
ATOM     79  C   UNL A   1      33.895  24.301  23.353  1.00  0.00     0.022 C 
BRANCH  76  80
ATOM     80  C   UNL A   1      32.960  21.385  24.602  1.00  0.00     0.274 C 
ATOM     81  O   UNL A   1      31.831  21.884  24.575  1.00  0.00    -0.267 OA
BRANCH  80  82
ATOM     82  C   UNL A   1      33.156  19.939  24.753  1.00  0.00     0.147 A 
ATOM     83  C   UNL A   1      34.338  19.239  24.565  1.00  0.00     0.127 A 
ATOM     84  N   UNL A   1      32.156  19.075  25.164  1.00  0.00    -0.223 NA
ATOM     85  N   UNL A   1      34.041  17.926  24.816  1.00  0.00    -0.306 N 
ATOM     86  C   UNL A   1      32.699  17.877  25.176  1.00  0.00     0.137 A 
ATOM     87  C   UNL A   1      34.860  16.801  24.737  1.00  0.00     0.093 A 
ATOM     88  C   UNL A   1      32.155  16.597  25.474  1.00  0.00     0.048 A 
ATOM     89  C   UNL A   1      34.338  15.593  25.011  1.00  0.00     0.018 A 
ATOM     90  C   UNL A   1      32.935  15.502  25.390  1.00  0.00     0.005 A 
ENDBRANCH  80  82
ENDBRANCH  76  80
ENDBRANCH  72  74
ENDBRANCH  71  72
ENDBRANCH  70  71
ENDBRANCH   1  70
TORSDOF 13
ENDMDL
