MODEL 1
REMARK VINA RESULT:     -11.2      0.000      0.000
REMARK SMILES CC(C)Cc1ccc([C@H](C)C(=O)OCCOC(=O)c2ccc(-c3c4nc(c(-c5c(F)c(F)c(F)c(F)c5F)c5ccc([nH]5)c(-c5c(F)c(F)c(F)c(F)c5F)c5nc(c(-c6c(F)c(F)c(F)c(F)c6F)c6ccc3[nH]6)C=C5)C=C4)cc2)cc1
REMARK SMILES IDX 14 1 13 2 11 3 12 4 9 5 10 6 8 7 5 8 6 9 83 10 7 11 82 12
REMARK SMILES IDX 4 13 2 14 1 15 3 16 15 17 16 18 17 19 18 20 19 21 20 22
REMARK SMILES IDX 81 23 21 24 80 25 22 26 23 27 24 28 74 29 25 30 79 31 73 32
REMARK SMILES IDX 75 33 26 34 78 35 72 36 71 37 27 39 59 40 39 41 58 42 40 43
REMARK SMILES IDX 43 44 57 45 76 46 41 47 42 48 56 50 77 51 44 52 28 53 29 54
REMARK SMILES IDX 37 55 30 56 31 57 35 58 38 59 32 60 33 61 36 62 34 63 60 64
REMARK SMILES IDX 61 65 69 66 62 67 63 68 67 69 70 70 64 71 65 72 68 73 66 74
REMARK SMILES IDX 45 75 46 76 54 77 47 78 48 79 52 80 55 81 49 82 50 83 53 84
REMARK SMILES IDX 51 85
REMARK H PARENT 75 38 43 49
REMARK Flexibility Score: inf
ROOT
ATOM      1  C   UNL A   1      33.994  34.777  29.342  1.00  0.00     0.274 C 
ENDROOT
BRANCH   1   2
ATOM      2  O   UNL A   1      33.639  34.518  30.715  1.00  0.00    -0.462 OA
BRANCH   2   3
ATOM      3  C   UNL A   1      34.506  33.742  31.419  1.00  0.00     0.313 C 
ATOM      4  O   UNL A   1      34.676  32.542  31.222  1.00  0.00    -0.252 OA
BRANCH   3   5
ATOM      5  C   UNL A   1      35.261  34.517  32.503  1.00  0.00     0.126 C 
ATOM      6  C   UNL A   1      34.834  34.113  33.917  1.00  0.00     0.025 C 
BRANCH   5   7
ATOM      7  C   UNL A   1      36.755  34.535  32.230  1.00  0.00    -0.034 A 
ATOM      8  C   UNL A   1      39.505  34.437  31.610  1.00  0.00    -0.048 A 
ATOM      9  C   UNL A   1      39.077  34.550  32.937  1.00  0.00     0.004 A 
ATOM     10  C   UNL A   1      38.554  34.430  30.587  1.00  0.00     0.004 A 
ATOM     11  C   UNL A   1      37.716  34.594  33.246  1.00  0.00     0.005 A 
ATOM     12  C   UNL A   1      37.196  34.483  30.896  1.00  0.00     0.005 A 
BRANCH   8  13
ATOM     13  C   UNL A   1      40.968  34.237  31.295  1.00  0.00     0.038 C 
BRANCH  13  14
ATOM     14  C   UNL A   1      41.394  32.760  31.432  1.00  0.00    -0.013 C 
ATOM     15  C   UNL A   1      41.699  32.117  30.076  1.00  0.00     0.008 C 
ATOM     16  C   UNL A   1      42.614  32.650  32.344  1.00  0.00     0.008 C 
ENDBRANCH  13  14
ENDBRANCH   8  13
ENDBRANCH   5   7
ENDBRANCH   3   5
ENDBRANCH   2   3
ENDBRANCH   1   2
BRANCH   1  17
ATOM     17  C   UNL A   1      33.119  33.986  28.368  1.00  0.00     0.275 C 
BRANCH  17  18
ATOM     18  O   UNL A   1      33.914  33.242  27.424  1.00  0.00    -0.458 OA
BRANCH  18  19
ATOM     19  C   UNL A   1      33.831  31.897  27.541  1.00  0.00     0.338 C 
ATOM     20  O   UNL A   1      32.881  31.183  27.272  1.00  0.00    -0.246 OA
BRANCH  19  21
ATOM     21  C   UNL A   1      35.133  31.343  27.939  1.00  0.00     0.060 A 
ATOM     22  C   UNL A   1      35.161  30.025  28.398  1.00  0.00     0.016 A 
ATOM     23  C   UNL A   1      36.272  32.144  28.018  1.00  0.00     0.016 A 
ATOM     24  C   UNL A   1      36.315  29.504  28.971  1.00  0.00     0.010 A 
ATOM     25  C   UNL A   1      37.438  31.619  28.590  1.00  0.00     0.010 A 
ATOM     26  C   UNL A   1      37.454  30.306  29.098  1.00  0.00    -0.014 A 
BRANCH  26  27
ATOM     27  C   UNL A   1      38.605  29.790  29.878  1.00  0.00     0.031 A 
ATOM     28  C   UNL A   1      38.758  30.190  31.319  1.00  0.00     0.074 A 
ATOM     29  C   UNL A   1      39.460  28.911  29.327  1.00  0.00     0.049 A 
ATOM     30  N   UNL A   1      39.700  29.875  32.172  1.00  0.00    -0.248 NA
ATOM     31  C   UNL A   1      37.710  31.060  31.877  1.00  0.00     0.031 C 
ATOM     32  C   UNL A   1      39.386  28.406  27.957  1.00  0.00     0.029 A 
ATOM     33  N   UNL A   1      40.554  28.277  29.861  1.00  0.00    -0.354 N 
ATOM     34  C   UNL A   1      39.377  30.532  33.352  1.00  0.00     0.074 A 
ATOM     35  C   UNL A   1      38.154  31.266  33.109  1.00  0.00     0.031 C 
ATOM     36  C   UNL A   1      40.388  27.533  27.759  1.00  0.00     0.029 A 
ATOM     37  C   UNL A   1      41.191  27.444  28.977  1.00  0.00     0.049 A 
ATOM     38  H   UNL A   1      40.853  28.408  30.790  1.00  0.00     0.167 HD
ATOM     39  C   UNL A   1      40.043  30.522  34.530  1.00  0.00     0.037 A 
ATOM     40  C   UNL A   1      42.308  26.706  29.129  1.00  0.00     0.037 A 
ATOM     41  C   UNL A   1      41.233  29.758  34.789  1.00  0.00     0.049 A 
ATOM     42  C   UNL A   1      43.029  26.720  30.449  1.00  0.00     0.074 A 
ATOM     43  C   UNL A   1      41.964  29.667  35.962  1.00  0.00     0.029 A 
ATOM     44  N   UNL A   1      41.858  28.939  33.863  1.00  0.00    -0.354 N 
ATOM     45  N   UNL A   1      42.723  27.356  31.552  1.00  0.00    -0.248 NA
ATOM     46  C   UNL A   1      44.256  25.915  30.541  1.00  0.00     0.031 C 
ATOM     47  C   UNL A   1      43.049  28.813  35.735  1.00  0.00     0.029 A 
ATOM     48  C   UNL A   1      42.974  28.350  34.432  1.00  0.00     0.049 A 
ATOM     49  H   UNL A   1      41.555  28.798  32.937  1.00  0.00     0.167 HD
ATOM     50  C   UNL A   1      43.708  27.022  32.471  1.00  0.00     0.074 A 
ATOM     51  C   UNL A   1      44.612  26.109  31.804  1.00  0.00     0.031 C 
ATOM     52  C   UNL A   1      43.856  27.439  33.751  1.00  0.00     0.037 A 
BRANCH  39  53
ATOM     53  C   UNL A   1      39.512  31.388  35.630  1.00  0.00     0.064 A 
ATOM     54  C   UNL A   1      38.485  30.955  36.479  1.00  0.00     0.173 A 
ATOM     55  C   UNL A   1      40.076  32.651  35.866  1.00  0.00     0.173 A 
ATOM     56  F   UNL A   1      37.905  29.761  36.282  1.00  0.00    -0.203 F 
ATOM     57  C   UNL A   1      38.032  31.762  37.520  1.00  0.00     0.198 A 
ATOM     58  C   UNL A   1      39.634  33.447  36.918  1.00  0.00     0.198 A 
ATOM     59  F   UNL A   1      41.063  33.108  35.079  1.00  0.00    -0.203 F 
ATOM     60  F   UNL A   1      37.031  31.341  38.306  1.00  0.00    -0.200 F 
ATOM     61  C   UNL A   1      38.611  33.003  37.743  1.00  0.00     0.200 A 
ATOM     62  F   UNL A   1      40.199  34.642  37.135  1.00  0.00    -0.200 F 
ATOM     63  F   UNL A   1      38.181  33.774  38.751  1.00  0.00    -0.200 F 
ENDBRANCH  39  53
BRANCH  40  64
ATOM     64  C   UNL A   1      42.830  25.905  27.994  1.00  0.00     0.064 A 
ATOM     65  C   UNL A   1      43.681  26.475  27.037  1.00  0.00     0.173 A 
ATOM     66  C   UNL A   1      42.464  24.562  27.827  1.00  0.00     0.173 A 
ATOM     67  F   UNL A   1      44.035  27.765  27.141  1.00  0.00    -0.203 F 
ATOM     68  C   UNL A   1      44.132  25.737  25.946  1.00  0.00     0.198 A 
ATOM     69  C   UNL A   1      42.934  23.818  26.748  1.00  0.00     0.198 A 
ATOM     70  F   UNL A   1      41.646  23.973  28.713  1.00  0.00    -0.203 F 
ATOM     71  F   UNL A   1      44.907  26.318  25.021  1.00  0.00    -0.200 F 
ATOM     72  C   UNL A   1      43.761  24.407  25.805  1.00  0.00     0.200 A 
ATOM     73  F   UNL A   1      42.578  22.532  26.618  1.00  0.00    -0.200 F 
ATOM     74  F   UNL A   1      44.191  23.698  24.751  1.00  0.00    -0.200 F 
ENDBRANCH  40  64
BRANCH  52  75
ATOM     75  C   UNL A   1      45.028  26.899  34.514  1.00  0.00     0.064 A 
ATOM     76  C   UNL A   1      46.261  27.564  34.520  1.00  0.00     0.173 A 
ATOM     77  C   UNL A   1      44.907  25.723  35.267  1.00  0.00     0.173 A 
ATOM     78  F   UNL A   1      46.427  28.685  33.800  1.00  0.00    -0.203 F 
ATOM     79  C   UNL A   1      47.342  27.058  35.237  1.00  0.00     0.198 A 
ATOM     80  C   UNL A   1      45.982  25.230  36.000  1.00  0.00     0.198 A 
ATOM     81  F   UNL A   1      43.744  25.054  35.295  1.00  0.00    -0.203 F 
ATOM     82  F   UNL A   1      48.524  27.687  35.198  1.00  0.00    -0.200 F 
ATOM     83  C   UNL A   1      47.200  25.895  35.979  1.00  0.00     0.200 A 
ATOM     84  F   UNL A   1      45.844  24.110  36.722  1.00  0.00    -0.200 F 
ATOM     85  F   UNL A   1      48.241  25.409  36.669  1.00  0.00    -0.200 F 
ENDBRANCH  52  75
ENDBRANCH  26  27
ENDBRANCH  19  21
ENDBRANCH  18  19
ENDBRANCH  17  18
ENDBRANCH   1  17
TORSDOF 14
ENDMDL
MODEL 2
REMARK VINA RESULT:     -11.2      4.344     10.293
REMARK SMILES CC(C)Cc1ccc([C@H](C)C(=O)OCCOC(=O)c2ccc(-c3c4nc(c(-c5c(F)c(F)c(F)c(F)c5F)c5ccc([nH]5)c(-c5c(F)c(F)c(F)c(F)c5F)c5nc(c(-c6c(F)c(F)c(F)c(F)c6F)c6ccc3[nH]6)C=C5)C=C4)cc2)cc1
REMARK SMILES IDX 14 1 13 2 11 3 12 4 9 5 10 6 8 7 5 8 6 9 83 10 7 11 82 12
REMARK SMILES IDX 4 13 2 14 1 15 3 16 15 17 16 18 17 19 18 20 19 21 20 22
REMARK SMILES IDX 81 23 21 24 80 25 22 26 23 27 24 28 74 29 25 30 79 31 73 32
REMARK SMILES IDX 75 33 26 34 78 35 72 36 71 37 27 39 59 40 39 41 58 42 40 43
REMARK SMILES IDX 43 44 57 45 76 46 41 47 42 48 56 50 77 51 44 52 28 53 29 54
REMARK SMILES IDX 37 55 30 56 31 57 35 58 38 59 32 60 33 61 36 62 34 63 60 64
REMARK SMILES IDX 61 65 69 66 62 67 63 68 67 69 70 70 64 71 65 72 68 73 66 74
REMARK SMILES IDX 45 75 46 76 54 77 47 78 48 79 52 80 55 81 49 82 50 83 53 84
REMARK SMILES IDX 51 85
REMARK H PARENT 75 38 43 49
REMARK Flexibility Score: inf
ROOT
ATOM      1  C   UNL A   1      43.653  21.467  25.433  1.00  0.00     0.274 C 
ENDROOT
BRANCH   1   2
ATOM      2  O   UNL A   1      42.215  21.539  25.371  1.00  0.00    -0.462 OA
BRANCH   2   3
ATOM      3  C   UNL A   1      41.539  20.594  26.077  1.00  0.00     0.313 C 
ATOM      4  O   UNL A   1      41.704  19.384  25.946  1.00  0.00    -0.252 OA
BRANCH   3   5
ATOM      5  C   UNL A   1      40.532  21.189  27.065  1.00  0.00     0.126 C 
ATOM      6  C   UNL A   1      41.204  22.037  28.148  1.00  0.00     0.025 C 
BRANCH   5   7
ATOM      7  C   UNL A   1      39.359  21.826  26.341  1.00  0.00    -0.034 A 
ATOM      8  C   UNL A   1      37.131  23.084  25.150  1.00  0.00    -0.048 A 
ATOM      9  C   UNL A   1      37.435  21.748  24.863  1.00  0.00     0.004 A 
ATOM     10  C   UNL A   1      37.979  23.807  25.991  1.00  0.00     0.004 A 
ATOM     11  C   UNL A   1      38.534  21.123  25.455  1.00  0.00     0.005 A 
ATOM     12  C   UNL A   1      39.081  23.185  26.576  1.00  0.00     0.005 A 
BRANCH   8  13
ATOM     13  C   UNL A   1      35.860  23.706  24.627  1.00  0.00     0.038 C 
BRANCH  13  14
ATOM     14  C   UNL A   1      35.030  24.361  25.751  1.00  0.00    -0.013 C 
ATOM     15  C   UNL A   1      34.101  25.458  25.221  1.00  0.00     0.008 C 
ATOM     16  C   UNL A   1      34.213  23.300  26.486  1.00  0.00     0.008 C 
ENDBRANCH  13  14
ENDBRANCH   8  13
ENDBRANCH   5   7
ENDBRANCH   3   5
ENDBRANCH   2   3
ENDBRANCH   1   2
BRANCH   1  17
ATOM     17  C   UNL A   1      44.317  22.516  24.539  1.00  0.00     0.275 C 
BRANCH  17  18
ATOM     18  O   UNL A   1      43.586  23.756  24.542  1.00  0.00    -0.458 OA
BRANCH  18  19
ATOM     19  C   UNL A   1      44.274  24.826  25.001  1.00  0.00     0.338 C 
ATOM     20  O   UNL A   1      45.377  25.209  24.649  1.00  0.00    -0.246 OA
BRANCH  19  21
ATOM     21  C   UNL A   1      43.447  25.595  25.942  1.00  0.00     0.060 A 
ATOM     22  C   UNL A   1      43.791  26.929  26.163  1.00  0.00     0.016 A 
ATOM     23  C   UNL A   1      42.462  24.980  26.714  1.00  0.00     0.016 A 
ATOM     24  C   UNL A   1      43.179  27.654  27.179  1.00  0.00     0.010 A 
ATOM     25  C   UNL A   1      41.840  25.711  27.735  1.00  0.00     0.010 A 
ATOM     26  C   UNL A   1      42.219  27.042  27.992  1.00  0.00    -0.014 A 
BRANCH  26  27
ATOM     27  C   UNL A   1      41.721  27.775  29.180  1.00  0.00     0.031 A 
ATOM     28  C   UNL A   1      42.485  27.692  30.472  1.00  0.00     0.074 A 
ATOM     29  C   UNL A   1      40.640  28.571  29.085  1.00  0.00     0.049 A 
ATOM     30  N   UNL A   1      42.212  28.232  31.633  1.00  0.00    -0.248 NA
ATOM     31  C   UNL A   1      43.723  26.896  30.456  1.00  0.00     0.031 C 
ATOM     32  C   UNL A   1      39.846  28.776  27.874  1.00  0.00     0.029 A 
ATOM     33  N   UNL A   1      40.032  29.364  30.024  1.00  0.00    -0.354 N 
ATOM     34  C   UNL A   1      43.222  27.815  32.490  1.00  0.00     0.074 A 
ATOM     35  C   UNL A   1      44.115  26.977  31.720  1.00  0.00     0.031 C 
ATOM     36  C   UNL A   1      38.859  29.646  28.142  1.00  0.00     0.029 A 
ATOM     37  C   UNL A   1      38.932  30.032  29.549  1.00  0.00     0.049 A 
ATOM     38  H   UNL A   1      40.354  29.447  30.952  1.00  0.00     0.167 HD
ATOM     39  C   UNL A   1      43.388  28.108  33.801  1.00  0.00     0.037 A 
ATOM     40  C   UNL A   1      38.071  30.851  30.185  1.00  0.00     0.037 A 
ATOM     41  C   UNL A   1      42.529  28.979  34.558  1.00  0.00     0.049 A 
ATOM     42  C   UNL A   1      38.278  31.153  31.644  1.00  0.00     0.074 A 
ATOM     43  C   UNL A   1      42.633  29.353  35.887  1.00  0.00     0.029 A 
ATOM     44  N   UNL A   1      41.415  29.623  34.046  1.00  0.00    -0.354 N 
ATOM     45  N   UNL A   1      39.228  30.742  32.447  1.00  0.00    -0.248 NA
ATOM     46  C   UNL A   1      37.288  32.030  32.285  1.00  0.00     0.031 C 
ATOM     47  C   UNL A   1      41.563  30.204  36.186  1.00  0.00     0.029 A 
ATOM     48  C   UNL A   1      40.814  30.383  35.036  1.00  0.00     0.049 A 
ATOM     49  H   UNL A   1      41.097  29.551  33.117  1.00  0.00     0.167 HD
ATOM     50  C   UNL A   1      38.958  31.317  33.681  1.00  0.00     0.074 A 
ATOM     51  C   UNL A   1      37.767  32.123  33.518  1.00  0.00     0.031 C 
ATOM     52  C   UNL A   1      39.632  31.183  34.849  1.00  0.00     0.037 A 
BRANCH  39  53
ATOM     53  C   UNL A   1      44.533  27.459  34.514  1.00  0.00     0.064 A 
ATOM     54  C   UNL A   1      45.779  28.089  34.635  1.00  0.00     0.173 A 
ATOM     55  C   UNL A   1      44.363  26.209  35.127  1.00  0.00     0.173 A 
ATOM     56  F   UNL A   1      45.993  29.279  34.052  1.00  0.00    -0.203 F 
ATOM     57  C   UNL A   1      46.820  27.484  35.335  1.00  0.00     0.198 A 
ATOM     58  C   UNL A   1      45.398  25.615  35.841  1.00  0.00     0.198 A 
ATOM     59  F   UNL A   1      43.187  25.568  35.038  1.00  0.00    -0.203 F 
ATOM     60  F   UNL A   1      48.012  28.091  35.417  1.00  0.00    -0.200 F 
ATOM     61  C   UNL A   1      46.627  26.252  35.943  1.00  0.00     0.200 A 
ATOM     62  F   UNL A   1      45.208  24.428  36.433  1.00  0.00    -0.200 F 
ATOM     63  F   UNL A   1      47.626  25.675  36.624  1.00  0.00    -0.200 F 
ENDBRANCH  39  53
BRANCH  40  64
ATOM     64  C   UNL A   1      36.917  31.429  29.452  1.00  0.00     0.064 A 
ATOM     65  C   UNL A   1      35.815  30.637  29.098  1.00  0.00     0.173 A 
ATOM     66  C   UNL A   1      36.905  32.777  29.067  1.00  0.00     0.173 A 
ATOM     67  F   UNL A   1      35.795  29.336  29.421  1.00  0.00    -0.203 F 
ATOM     68  C   UNL A   1      34.754  31.169  28.368  1.00  0.00     0.198 A 
ATOM     69  C   UNL A   1      35.834  33.312  28.358  1.00  0.00     0.198 A 
ATOM     70  F   UNL A   1      37.940  33.573  29.378  1.00  0.00    -0.203 F 
ATOM     71  F   UNL A   1      33.736  30.380  28.002  1.00  0.00    -0.200 F 
ATOM     72  C   UNL A   1      34.763  32.507  28.003  1.00  0.00     0.200 A 
ATOM     73  F   UNL A   1      35.842  34.607  28.011  1.00  0.00    -0.200 F 
ATOM     74  F   UNL A   1      33.744  33.017  27.297  1.00  0.00    -0.200 F 
ENDBRANCH  40  64
BRANCH  52  75
ATOM     75  C   UNL A   1      39.105  31.938  36.031  1.00  0.00     0.064 A 
ATOM     76  C   UNL A   1      39.492  33.262  36.281  1.00  0.00     0.173 A 
ATOM     77  C   UNL A   1      38.184  31.342  36.904  1.00  0.00     0.173 A 
ATOM     78  F   UNL A   1      40.384  33.867  35.481  1.00  0.00    -0.203 F 
ATOM     79  C   UNL A   1      38.990  33.957  37.378  1.00  0.00     0.198 A 
ATOM     80  C   UNL A   1      37.668  32.046  37.987  1.00  0.00     0.198 A 
ATOM     81  F   UNL A   1      37.781  30.078  36.702  1.00  0.00    -0.203 F 
ATOM     82  F   UNL A   1      39.402  35.208  37.621  1.00  0.00    -0.200 F 
ATOM     83  C   UNL A   1      38.076  33.351  38.226  1.00  0.00     0.200 A 
ATOM     84  F   UNL A   1      36.780  31.462  38.804  1.00  0.00    -0.200 F 
ATOM     85  F   UNL A   1      37.594  34.021  39.282  1.00  0.00    -0.200 F 
ENDBRANCH  52  75
ENDBRANCH  26  27
ENDBRANCH  19  21
ENDBRANCH  18  19
ENDBRANCH  17  18
ENDBRANCH   1  17
TORSDOF 14
ENDMDL
MODEL 3
REMARK VINA RESULT:     -11.1      4.392     10.276
REMARK SMILES CC(C)Cc1ccc([C@H](C)C(=O)OCCOC(=O)c2ccc(-c3c4nc(c(-c5c(F)c(F)c(F)c(F)c5F)c5ccc([nH]5)c(-c5c(F)c(F)c(F)c(F)c5F)c5nc(c(-c6c(F)c(F)c(F)c(F)c6F)c6ccc3[nH]6)C=C5)C=C4)cc2)cc1
REMARK SMILES IDX 14 1 13 2 11 3 12 4 9 5 10 6 8 7 5 8 6 9 83 10 7 11 82 12
REMARK SMILES IDX 4 13 2 14 1 15 3 16 15 17 16 18 17 19 18 20 19 21 20 22
REMARK SMILES IDX 81 23 21 24 80 25 22 26 23 27 24 28 74 29 25 30 79 31 73 32
REMARK SMILES IDX 75 33 26 34 78 35 72 36 71 37 27 39 59 40 39 41 58 42 40 43
REMARK SMILES IDX 43 44 57 45 76 46 41 47 42 48 56 50 77 51 44 52 28 53 29 54
REMARK SMILES IDX 37 55 30 56 31 57 35 58 38 59 32 60 33 61 36 62 34 63 60 64
REMARK SMILES IDX 61 65 69 66 62 67 63 68 67 69 70 70 64 71 65 72 68 73 66 74
REMARK SMILES IDX 45 75 46 76 54 77 47 78 48 79 52 80 55 81 49 82 50 83 53 84
REMARK SMILES IDX 51 85
REMARK H PARENT 75 38 43 49
REMARK Flexibility Score: inf
ROOT
ATOM      1  C   UNL A   1      43.954  21.674  25.329  1.00  0.00     0.274 C 
ENDROOT
BRANCH   1   2
ATOM      2  O   UNL A   1      42.535  21.877  25.473  1.00  0.00    -0.462 OA
BRANCH   2   3
ATOM      3  C   UNL A   1      41.842  20.860  26.052  1.00  0.00     0.313 C 
ATOM      4  O   UNL A   1      41.961  19.678  25.741  1.00  0.00    -0.252 OA
BRANCH   3   5
ATOM      5  C   UNL A   1      40.880  21.334  27.145  1.00  0.00     0.126 C 
ATOM      6  C   UNL A   1      41.597  22.078  28.275  1.00  0.00     0.025 C 
BRANCH   5   7
ATOM      7  C   UNL A   1      39.665  22.024  26.549  1.00  0.00    -0.034 A 
ATOM      8  C   UNL A   1      37.381  23.382  25.600  1.00  0.00    -0.048 A 
ATOM      9  C   UNL A   1      37.584  22.030  25.300  1.00  0.00     0.004 A 
ATOM     10  C   UNL A   1      38.354  24.069  26.329  1.00  0.00     0.004 A 
ATOM     11  C   UNL A   1      38.710  21.356  25.774  1.00  0.00     0.005 A 
ATOM     12  C   UNL A   1      39.483  23.398  26.794  1.00  0.00     0.005 A 
BRANCH   8  13
ATOM     13  C   UNL A   1      36.091  24.064  25.216  1.00  0.00     0.038 C 
BRANCH  13  14
ATOM     14  C   UNL A   1      35.051  23.067  24.662  1.00  0.00    -0.013 C 
ATOM     15  C   UNL A   1      33.726  23.127  25.428  1.00  0.00     0.008 C 
ATOM     16  C   UNL A   1      34.805  23.336  23.179  1.00  0.00     0.008 C 
ENDBRANCH  13  14
ENDBRANCH   8  13
ENDBRANCH   5   7
ENDBRANCH   3   5
ENDBRANCH   2   3
ENDBRANCH   1   2
BRANCH   1  17
ATOM     17  C   UNL A   1      44.607  22.778  24.494  1.00  0.00     0.275 C 
BRANCH  17  18
ATOM     18  O   UNL A   1      43.837  23.994  24.526  1.00  0.00    -0.458 OA
BRANCH  18  19
ATOM     19  C   UNL A   1      44.492  25.074  25.010  1.00  0.00     0.338 C 
ATOM     20  O   UNL A   1      45.590  25.489  24.679  1.00  0.00    -0.246 OA
BRANCH  19  21
ATOM     21  C   UNL A   1      43.634  25.807  25.952  1.00  0.00     0.060 A 
ATOM     22  C   UNL A   1      43.902  27.162  26.150  1.00  0.00     0.016 A 
ATOM     23  C   UNL A   1      42.695  25.148  26.745  1.00  0.00     0.016 A 
ATOM     24  C   UNL A   1      43.262  27.865  27.163  1.00  0.00     0.010 A 
ATOM     25  C   UNL A   1      42.044  25.857  27.763  1.00  0.00     0.010 A 
ATOM     26  C   UNL A   1      42.349  27.210  27.997  1.00  0.00    -0.014 A 
BRANCH  26  27
ATOM     27  C   UNL A   1      41.824  27.931  29.181  1.00  0.00     0.031 A 
ATOM     28  C   UNL A   1      42.573  27.856  30.483  1.00  0.00     0.074 A 
ATOM     29  C   UNL A   1      40.731  28.708  29.075  1.00  0.00     0.049 A 
ATOM     30  N   UNL A   1      42.277  28.387  31.642  1.00  0.00    -0.248 NA
ATOM     31  C   UNL A   1      43.825  27.081  30.479  1.00  0.00     0.031 C 
ATOM     32  C   UNL A   1      39.949  28.904  27.856  1.00  0.00     0.029 A 
ATOM     33  N   UNL A   1      40.098  29.488  30.010  1.00  0.00    -0.354 N 
ATOM     34  C   UNL A   1      43.283  27.984  32.510  1.00  0.00     0.074 A 
ATOM     35  C   UNL A   1      44.199  27.164  31.748  1.00  0.00     0.031 C 
ATOM     36  C   UNL A   1      38.943  29.756  28.114  1.00  0.00     0.029 A 
ATOM     37  C   UNL A   1      38.992  30.139  29.524  1.00  0.00     0.049 A 
ATOM     38  H   UNL A   1      40.407  29.572  30.942  1.00  0.00     0.167 HD
ATOM     39  C   UNL A   1      43.428  28.275  33.824  1.00  0.00     0.037 A 
ATOM     40  C   UNL A   1      38.110  30.940  30.151  1.00  0.00     0.037 A 
ATOM     41  C   UNL A   1      42.545  29.128  34.573  1.00  0.00     0.049 A 
ATOM     42  C   UNL A   1      38.294  31.240  31.614  1.00  0.00     0.074 A 
ATOM     43  C   UNL A   1      42.626  29.499  35.905  1.00  0.00     0.029 A 
ATOM     44  N   UNL A   1      41.426  29.755  34.050  1.00  0.00    -0.354 N 
ATOM     45  N   UNL A   1      39.240  30.843  32.428  1.00  0.00    -0.248 NA
ATOM     46  C   UNL A   1      37.281  32.098  32.246  1.00  0.00     0.031 C 
ATOM     47  C   UNL A   1      41.538  30.331  36.193  1.00  0.00     0.029 A 
ATOM     48  C   UNL A   1      40.800  30.501  35.034  1.00  0.00     0.049 A 
ATOM     49  H   UNL A   1      41.121  29.681  33.117  1.00  0.00     0.167 HD
ATOM     50  C   UNL A   1      38.946  31.408  33.660  1.00  0.00     0.074 A 
ATOM     51  C   UNL A   1      37.743  32.195  33.485  1.00  0.00     0.031 C 
ATOM     52  C   UNL A   1      39.608  31.282  34.836  1.00  0.00     0.037 A 
BRANCH  39  53
ATOM     53  C   UNL A   1      44.575  27.643  34.549  1.00  0.00     0.064 A 
ATOM     54  C   UNL A   1      44.462  26.381  35.148  1.00  0.00     0.173 A 
ATOM     55  C   UNL A   1      45.817  28.292  34.602  1.00  0.00     0.173 A 
ATOM     56  F   UNL A   1      43.289  25.730  35.136  1.00  0.00    -0.203 F 
ATOM     57  C   UNL A   1      45.553  25.795  35.786  1.00  0.00     0.198 A 
ATOM     58  C   UNL A   1      46.910  27.696  35.224  1.00  0.00     0.198 A 
ATOM     59  F   UNL A   1      45.972  29.502  34.042  1.00  0.00    -0.203 F 
ATOM     60  F   UNL A   1      45.419  24.599  36.375  1.00  0.00    -0.200 F 
ATOM     61  C   UNL A   1      46.777  26.449  35.817  1.00  0.00     0.200 A 
ATOM     62  F   UNL A   1      48.092  28.326  35.248  1.00  0.00    -0.200 F 
ATOM     63  F   UNL A   1      47.828  25.879  36.423  1.00  0.00    -0.200 F 
ENDBRANCH  39  53
BRANCH  40  64
ATOM     64  C   UNL A   1      36.955  31.501  29.406  1.00  0.00     0.064 A 
ATOM     65  C   UNL A   1      36.887  32.867  29.099  1.00  0.00     0.173 A 
ATOM     66  C   UNL A   1      35.883  30.687  29.012  1.00  0.00     0.173 A 
ATOM     67  F   UNL A   1      37.876  33.689  29.481  1.00  0.00    -0.203 F 
ATOM     68  C   UNL A   1      35.780  33.401  28.443  1.00  0.00     0.198 A 
ATOM     69  C   UNL A   1      34.789  31.218  28.336  1.00  0.00     0.198 A 
ATOM     70  F   UNL A   1      35.900  29.374  29.289  1.00  0.00    -0.203 F 
ATOM     71  F   UNL A   1      35.718  34.717  28.203  1.00  0.00    -0.200 F 
ATOM     72  C   UNL A   1      34.735  32.574  28.058  1.00  0.00     0.200 A 
ATOM     73  F   UNL A   1      33.782  30.416  27.960  1.00  0.00    -0.200 F 
ATOM     74  F   UNL A   1      33.668  33.090  27.431  1.00  0.00    -0.200 F 
ENDBRANCH  40  64
BRANCH  52  75
ATOM     75  C   UNL A   1      39.053  32.023  36.014  1.00  0.00     0.064 A 
ATOM     76  C   UNL A   1      38.173  31.405  36.913  1.00  0.00     0.173 A 
ATOM     77  C   UNL A   1      39.427  33.351  36.260  1.00  0.00     0.173 A 
ATOM     78  F   UNL A   1      37.775  30.140  36.708  1.00  0.00    -0.203 F 
ATOM     79  C   UNL A   1      37.669  32.101  38.009  1.00  0.00     0.198 A 
ATOM     80  C   UNL A   1      38.938  34.037  37.368  1.00  0.00     0.198 A 
ATOM     81  F   UNL A   1      40.270  33.982  35.430  1.00  0.00    -0.203 F 
ATOM     82  F   UNL A   1      36.798  31.505  38.835  1.00  0.00    -0.200 F 
ATOM     83  C   UNL A   1      38.055  33.412  38.238  1.00  0.00     0.200 A 
ATOM     84  F   UNL A   1      39.315  35.303  37.593  1.00  0.00    -0.200 F 
ATOM     85  F   UNL A   1      37.568  34.080  39.294  1.00  0.00    -0.200 F 
ENDBRANCH  52  75
ENDBRANCH  26  27
ENDBRANCH  19  21
ENDBRANCH  18  19
ENDBRANCH  17  18
ENDBRANCH   1  17
TORSDOF 14
ENDMDL
