MODEL 1
REMARK VINA RESULT:     -11.0      0.000      0.000
REMARK SMILES O=C(OCCOC(=O)[C@H]1CC[C@@H](CNc2ncccn2)O1)c1ccc(-c2c3nc(c(-c4c(F)c(F)c(F)c(F)c4F)c4ccc([nH]4)c(-c4c(F)c(F)c(F)c(F)c4F)c4nc(c(-c5c(F)c(F)c(F)c(F)c5F)c5ccc2[nH]5)C=C4)C=C3)cc1
REMARK SMILES IDX 5 1 4 2 3 3 2 4 1 5 22 6 23 7 84 8 24 9 83 10 25 11 26 12
REMARK SMILES IDX 27 13 77 14 28 15 82 16 76 17 78 18 29 19 81 20 75 21 74 22
REMARK SMILES IDX 30 24 62 25 42 26 61 27 43 28 46 29 60 30 79 31 44 32 45 33
REMARK SMILES IDX 59 35 80 36 47 37 31 38 32 39 40 40 33 41 34 42 38 43 41 44
REMARK SMILES IDX 35 45 36 46 39 47 37 48 63 49 64 50 72 51 65 52 66 53 70 54
REMARK SMILES IDX 73 55 67 56 68 57 71 58 69 59 48 60 49 61 57 62 50 63 51 64
REMARK SMILES IDX 55 65 58 66 52 67 53 68 56 69 54 70 6 71 7 72 8 73 9 74
REMARK SMILES IDX 10 75 21 76 11 77 12 78 13 79 14 80 15 82 16 83 20 84 17 85
REMARK SMILES IDX 19 86 18 87
REMARK H PARENT 78 23 46 34 14 81
REMARK Flexibility Score: inf
ROOT
ATOM      1  C   UNL A   1      31.271  31.847  26.729  1.00  0.00     0.274 C 
ENDROOT
BRANCH   1   2
ATOM      2  C   UNL A   1      32.464  32.795  26.881  1.00  0.00     0.275 C 
BRANCH   2   3
ATOM      3  O   UNL A   1      32.158  33.962  27.670  1.00  0.00    -0.458 OA
BRANCH   3   4
ATOM      4  C   UNL A   1      32.952  34.609  28.560  1.00  0.00     0.338 C 
ATOM      5  O   UNL A   1      32.754  35.800  28.786  1.00  0.00    -0.246 OA
BRANCH   4   6
ATOM      6  C   UNL A   1      34.193  33.988  29.124  1.00  0.00     0.060 A 
ATOM      7  C   UNL A   1      35.507  34.294  28.754  1.00  0.00     0.016 A 
ATOM      8  C   UNL A   1      34.002  33.027  30.137  1.00  0.00     0.016 A 
ATOM      9  C   UNL A   1      36.598  33.744  29.434  1.00  0.00     0.010 A 
ATOM     10  C   UNL A   1      35.089  32.458  30.810  1.00  0.00     0.010 A 
ATOM     11  C   UNL A   1      36.395  32.827  30.466  1.00  0.00    -0.014 A 
BRANCH  11  12
ATOM     12  C   UNL A   1      37.552  32.107  31.035  1.00  0.00     0.031 A 
ATOM     13  C   UNL A   1      38.029  32.544  32.382  1.00  0.00     0.074 A 
ATOM     14  C   UNL A   1      38.138  31.086  30.388  1.00  0.00     0.049 A 
ATOM     15  N   UNL A   1      39.020  32.092  33.099  1.00  0.00    -0.248 NA
ATOM     16  C   UNL A   1      37.268  33.635  33.012  1.00  0.00     0.031 C 
ATOM     17  C   UNL A   1      37.698  30.535  29.111  1.00  0.00     0.029 A 
ATOM     18  N   UNL A   1      39.244  30.339  30.708  1.00  0.00    -0.354 N 
ATOM     19  C   UNL A   1      38.994  32.835  34.269  1.00  0.00     0.074 A 
ATOM     20  C   UNL A   1      37.922  33.797  34.148  1.00  0.00     0.031 C 
ATOM     21  C   UNL A   1      38.561  29.581  28.720  1.00  0.00     0.029 A 
ATOM     22  C   UNL A   1      39.614  29.456  29.723  1.00  0.00     0.049 A 
ATOM     23  H   UNL A   1      39.727  30.428  31.562  1.00  0.00     0.167 HD
ATOM     24  C   UNL A   1      39.792  32.715  35.353  1.00  0.00     0.037 A 
ATOM     25  C   UNL A   1      40.696  28.656  29.640  1.00  0.00     0.037 A 
ATOM     26  C   UNL A   1      40.885  31.787  35.430  1.00  0.00     0.049 A 
ATOM     27  C   UNL A   1      41.646  28.615  30.810  1.00  0.00     0.074 A 
ATOM     28  C   UNL A   1      41.776  31.584  36.465  1.00  0.00     0.029 A 
ATOM     29  N   UNL A   1      41.250  30.925  34.403  1.00  0.00    -0.354 N 
ATOM     30  N   UNL A   1      41.592  29.284  31.938  1.00  0.00    -0.248 NA
ATOM     31  C   UNL A   1      42.792  27.701  30.712  1.00  0.00     0.031 C 
ATOM     32  C   UNL A   1      42.723  30.648  36.037  1.00  0.00     0.029 A 
ATOM     33  C   UNL A   1      42.380  30.214  34.765  1.00  0.00     0.049 A 
ATOM     34  H   UNL A   1      40.777  30.834  33.545  1.00  0.00     0.167 HD
ATOM     35  C   UNL A   1      42.668  28.847  32.699  1.00  0.00     0.074 A 
ATOM     36  C   UNL A   1      43.363  27.856  31.900  1.00  0.00     0.031 C 
ATOM     37  C   UNL A   1      43.040  29.222  33.948  1.00  0.00     0.037 A 
BRANCH  24  38
ATOM     38  C   UNL A   1      39.530  33.664  36.484  1.00  0.00     0.064 A 
ATOM     39  C   UNL A   1      40.118  34.939  36.530  1.00  0.00     0.173 A 
ATOM     40  C   UNL A   1      38.751  33.262  37.578  1.00  0.00     0.173 A 
ATOM     41  F   UNL A   1      40.896  35.362  35.521  1.00  0.00    -0.203 F 
ATOM     42  C   UNL A   1      39.985  35.749  37.655  1.00  0.00     0.198 A 
ATOM     43  C   UNL A   1      38.591  34.089  38.685  1.00  0.00     0.198 A 
ATOM     44  F   UNL A   1      38.171  32.052  37.586  1.00  0.00    -0.203 F 
ATOM     45  F   UNL A   1      40.632  36.921  37.715  1.00  0.00    -0.200 F 
ATOM     46  C   UNL A   1      39.222  35.323  38.731  1.00  0.00     0.200 A 
ATOM     47  F   UNL A   1      37.849  33.678  39.723  1.00  0.00    -0.200 F 
ATOM     48  F   UNL A   1      39.112  36.093  39.823  1.00  0.00    -0.200 F 
ENDBRANCH  24  38
BRANCH  25  49
ATOM     49  C   UNL A   1      40.930  27.846  28.415  1.00  0.00     0.064 A 
ATOM     50  C   UNL A   1      40.362  26.575  28.254  1.00  0.00     0.173 A 
ATOM     51  C   UNL A   1      41.724  28.338  27.367  1.00  0.00     0.173 A 
ATOM     52  F   UNL A   1      39.610  26.050  29.232  1.00  0.00    -0.203 F 
ATOM     53  C   UNL A   1      40.584  25.825  27.098  1.00  0.00     0.198 A 
ATOM     54  C   UNL A   1      41.927  27.597  26.203  1.00  0.00     0.198 A 
ATOM     55  F   UNL A   1      42.292  29.548  27.466  1.00  0.00    -0.203 F 
ATOM     56  F   UNL A   1      40.051  24.600  26.984  1.00  0.00    -0.200 F 
ATOM     57  C   UNL A   1      41.361  26.339  26.072  1.00  0.00     0.200 A 
ATOM     58  F   UNL A   1      42.669  28.105  25.208  1.00  0.00    -0.200 F 
ATOM     59  F   UNL A   1      41.565  25.622  24.958  1.00  0.00    -0.200 F 
ENDBRANCH  25  49
BRANCH  37  60
ATOM     60  C   UNL A   1      44.224  28.533  34.559  1.00  0.00     0.064 A 
ATOM     61  C   UNL A   1      45.511  29.084  34.498  1.00  0.00     0.173 A 
ATOM     62  C   UNL A   1      44.040  27.364  35.314  1.00  0.00     0.173 A 
ATOM     63  F   UNL A   1      45.738  30.192  33.777  1.00  0.00    -0.203 F 
ATOM     64  C   UNL A   1      46.572  28.489  35.173  1.00  0.00     0.198 A 
ATOM     65  C   UNL A   1      45.096  26.791  36.013  1.00  0.00     0.198 A 
ATOM     66  F   UNL A   1      42.824  26.804  35.407  1.00  0.00    -0.203 F 
ATOM     67  F   UNL A   1      47.801  29.019  35.086  1.00  0.00    -0.200 F 
ATOM     68  C   UNL A   1      46.362  27.352  35.942  1.00  0.00     0.200 A 
ATOM     69  F   UNL A   1      44.885  25.705  36.770  1.00  0.00    -0.200 F 
ATOM     70  F   UNL A   1      47.379  26.800  36.616  1.00  0.00    -0.200 F 
ENDBRANCH  37  60
ENDBRANCH  11  12
ENDBRANCH   4   6
ENDBRANCH   3   4
ENDBRANCH   2   3
ENDBRANCH   1   2
BRANCH   1  71
ATOM     71  O   UNL A   1      31.550  30.787  25.802  1.00  0.00    -0.460 OA
BRANCH  71  72
ATOM     72  C   UNL A   1      32.200  29.699  26.322  1.00  0.00     0.335 C 
ATOM     73  O   UNL A   1      31.984  29.218  27.422  1.00  0.00    -0.249 OA
BRANCH  72  74
ATOM     74  C   UNL A   1      33.191  29.139  25.290  1.00  0.00     0.228 C 
ATOM     75  C   UNL A   1      33.392  27.646  25.383  1.00  0.00     0.047 C 
ATOM     76  O   UNL A   1      32.753  29.408  23.952  1.00  0.00    -0.361 OA
ATOM     77  C   UNL A   1      32.307  27.137  24.478  1.00  0.00     0.037 C 
ATOM     78  C   UNL A   1      32.265  28.183  23.370  1.00  0.00     0.138 C 
BRANCH  78  79
ATOM     79  C   UNL A   1      30.885  28.411  22.721  1.00  0.00     0.148 C 
BRANCH  79  80
ATOM     80  N   UNL A   1      30.025  29.241  23.552  1.00  0.00    -0.352 N 
ATOM     81  H   UNL A   1      29.966  29.124  24.526  1.00  0.00     0.163 HD
BRANCH  80  82
ATOM     82  C   UNL A   1      29.300  30.203  22.876  1.00  0.00     0.222 A 
ATOM     83  N   UNL A   1      28.966  31.288  23.588  1.00  0.00    -0.222 NA
ATOM     84  N   UNL A   1      29.057  30.060  21.568  1.00  0.00    -0.222 NA
ATOM     85  C   UNL A   1      28.402  32.305  22.908  1.00  0.00     0.117 A 
ATOM     86  C   UNL A   1      28.465  31.090  20.938  1.00  0.00     0.117 A 
ATOM     87  C   UNL A   1      28.124  32.261  21.565  1.00  0.00     0.040 A 
ENDBRANCH  80  82
ENDBRANCH  79  80
ENDBRANCH  78  79
ENDBRANCH  72  74
ENDBRANCH  71  72
ENDBRANCH   1  71
TORSDOF 14
ENDMDL
MODEL 2
REMARK VINA RESULT:     -10.9      6.649     10.535
REMARK SMILES O=C(OCCOC(=O)[C@H]1CC[C@@H](CNc2ncccn2)O1)c1ccc(-c2c3nc(c(-c4c(F)c(F)c(F)c(F)c4F)c4ccc([nH]4)c(-c4c(F)c(F)c(F)c(F)c4F)c4nc(c(-c5c(F)c(F)c(F)c(F)c5F)c5ccc2[nH]5)C=C4)C=C3)cc1
REMARK SMILES IDX 5 1 4 2 3 3 2 4 1 5 22 6 23 7 84 8 24 9 83 10 25 11 26 12
REMARK SMILES IDX 27 13 77 14 28 15 82 16 76 17 78 18 29 19 81 20 75 21 74 22
REMARK SMILES IDX 30 24 62 25 42 26 61 27 43 28 46 29 60 30 79 31 44 32 45 33
REMARK SMILES IDX 59 35 80 36 47 37 31 38 32 39 40 40 33 41 34 42 38 43 41 44
REMARK SMILES IDX 35 45 36 46 39 47 37 48 63 49 64 50 72 51 65 52 66 53 70 54
REMARK SMILES IDX 73 55 67 56 68 57 71 58 69 59 48 60 49 61 57 62 50 63 51 64
REMARK SMILES IDX 55 65 58 66 52 67 53 68 56 69 54 70 6 71 7 72 8 73 9 74
REMARK SMILES IDX 10 75 21 76 11 77 12 78 13 79 14 80 15 82 16 83 20 84 17 85
REMARK SMILES IDX 19 86 18 87
REMARK H PARENT 78 23 46 34 14 81
REMARK Flexibility Score: inf
ROOT
ATOM      1  C   UNL A   1      37.730  19.742  24.928  1.00  0.00     0.274 C 
ENDROOT
BRANCH   1   2
ATOM      2  C   UNL A   1      38.954  20.192  25.731  1.00  0.00     0.275 C 
BRANCH   2   3
ATOM      3  O   UNL A   1      40.007  19.208  25.750  1.00  0.00    -0.458 OA
BRANCH   3   4
ATOM      4  C   UNL A   1      41.323  19.388  26.024  1.00  0.00     0.338 C 
ATOM      5  O   UNL A   1      42.057  18.407  26.116  1.00  0.00    -0.246 OA
BRANCH   4   6
ATOM      6  C   UNL A   1      41.883  20.717  26.427  1.00  0.00     0.060 A 
ATOM      7  C   UNL A   1      42.070  21.167  27.738  1.00  0.00     0.016 A 
ATOM      8  C   UNL A   1      42.273  21.572  25.376  1.00  0.00     0.016 A 
ATOM      9  C   UNL A   1      42.717  22.379  28.003  1.00  0.00     0.010 A 
ATOM     10  C   UNL A   1      42.904  22.794  25.633  1.00  0.00     0.010 A 
ATOM     11  C   UNL A   1      43.139  23.195  26.953  1.00  0.00    -0.014 A 
BRANCH  11  12
ATOM     12  C   UNL A   1      43.636  24.555  27.246  1.00  0.00     0.031 A 
ATOM     13  C   UNL A   1      42.638  25.552  27.740  1.00  0.00     0.074 A 
ATOM     14  C   UNL A   1      44.932  24.882  27.103  1.00  0.00     0.049 A 
ATOM     15  N   UNL A   1      42.804  26.805  28.061  1.00  0.00    -0.248 NA
ATOM     16  C   UNL A   1      41.262  25.056  27.909  1.00  0.00     0.031 C 
ATOM     17  C   UNL A   1      45.992  23.963  26.705  1.00  0.00     0.029 A 
ATOM     18  N   UNL A   1      45.575  26.084  27.257  1.00  0.00    -0.354 N 
ATOM     19  C   UNL A   1      41.558  27.243  28.481  1.00  0.00     0.074 A 
ATOM     20  C   UNL A   1      40.637  26.140  28.331  1.00  0.00     0.031 C 
ATOM     21  C   UNL A   1      47.145  24.644  26.583  1.00  0.00     0.029 A 
ATOM     22  C   UNL A   1      46.899  26.049  26.894  1.00  0.00     0.049 A 
ATOM     23  H   UNL A   1      45.130  26.894  27.596  1.00  0.00     0.167 HD
ATOM     24  C   UNL A   1      41.218  28.461  28.960  1.00  0.00     0.037 A 
ATOM     25  C   UNL A   1      47.799  27.049  26.807  1.00  0.00     0.037 A 
ATOM     26  C   UNL A   1      42.139  29.558  29.050  1.00  0.00     0.049 A 
ATOM     27  C   UNL A   1      47.375  28.431  27.234  1.00  0.00     0.074 A 
ATOM     28  C   UNL A   1      41.911  30.844  29.500  1.00  0.00     0.029 A 
ATOM     29  N   UNL A   1      43.468  29.497  28.648  1.00  0.00    -0.354 N 
ATOM     30  N   UNL A   1      46.208  28.834  27.679  1.00  0.00    -0.248 NA
ATOM     31  C   UNL A   1      48.389  29.493  27.171  1.00  0.00     0.031 C 
ATOM     32  C   UNL A   1      43.084  31.580  29.304  1.00  0.00     0.029 A 
ATOM     33  C   UNL A   1      44.065  30.736  28.802  1.00  0.00     0.049 A 
ATOM     34  H   UNL A   1      43.919  28.693  28.303  1.00  0.00     0.167 HD
ATOM     35  C   UNL A   1      46.354  30.180  27.984  1.00  0.00     0.074 A 
ATOM     36  C   UNL A   1      47.726  30.528  27.669  1.00  0.00     0.031 C 
ATOM     37  C   UNL A   1      45.440  31.045  28.490  1.00  0.00     0.037 A 
BRANCH  24  38
ATOM     38  C   UNL A   1      39.781  28.651  29.341  1.00  0.00     0.064 A 
ATOM     39  C   UNL A   1      38.831  29.133  28.425  1.00  0.00     0.173 A 
ATOM     40  C   UNL A   1      39.366  28.432  30.662  1.00  0.00     0.173 A 
ATOM     41  F   UNL A   1      39.184  29.386  27.155  1.00  0.00    -0.203 F 
ATOM     42  C   UNL A   1      37.536  29.446  28.833  1.00  0.00     0.198 A 
ATOM     43  C   UNL A   1      38.061  28.712  31.058  1.00  0.00     0.198 A 
ATOM     44  F   UNL A   1      40.234  27.977  31.577  1.00  0.00    -0.203 F 
ATOM     45  F   UNL A   1      36.676  29.992  27.965  1.00  0.00    -0.200 F 
ATOM     46  C   UNL A   1      37.154  29.235  30.149  1.00  0.00     0.200 A 
ATOM     47  F   UNL A   1      37.691  28.502  32.329  1.00  0.00    -0.200 F 
ATOM     48  F   UNL A   1      35.915  29.556  30.547  1.00  0.00    -0.200 F 
ENDBRANCH  24  38
BRANCH  25  49
ATOM     49  C   UNL A   1      49.168  26.775  26.293  1.00  0.00     0.064 A 
ATOM     50  C   UNL A   1      49.496  26.956  24.943  1.00  0.00     0.173 A 
ATOM     51  C   UNL A   1      50.187  26.336  27.154  1.00  0.00     0.173 A 
ATOM     52  F   UNL A   1      48.556  27.357  24.074  1.00  0.00    -0.203 F 
ATOM     53  C   UNL A   1      50.784  26.702  24.471  1.00  0.00     0.198 A 
ATOM     54  C   UNL A   1      51.480  26.103  26.687  1.00  0.00     0.198 A 
ATOM     55  F   UNL A   1      49.930  26.147  28.456  1.00  0.00    -0.203 F 
ATOM     56  F   UNL A   1      51.062  26.855  23.169  1.00  0.00    -0.200 F 
ATOM     57  C   UNL A   1      51.776  26.281  25.345  1.00  0.00     0.200 A 
ATOM     58  F   UNL A   1      52.438  25.710  27.538  1.00  0.00    -0.200 F 
ATOM     59  F   UNL A   1      53.016  26.047  24.892  1.00  0.00    -0.200 F 
ENDBRANCH  25  49
BRANCH  37  60
ATOM     60  C   UNL A   1      45.894  32.445  28.783  1.00  0.00     0.064 A 
ATOM     61  C   UNL A   1      45.751  33.478  27.848  1.00  0.00     0.173 A 
ATOM     62  C   UNL A   1      46.370  32.772  30.062  1.00  0.00     0.173 A 
ATOM     63  F   UNL A   1      45.313  33.212  26.608  1.00  0.00    -0.203 F 
ATOM     64  C   UNL A   1      46.068  34.791  28.184  1.00  0.00     0.198 A 
ATOM     65  C   UNL A   1      46.655  34.089  30.404  1.00  0.00     0.198 A 
ATOM     66  F   UNL A   1      46.517  31.817  30.993  1.00  0.00    -0.203 F 
ATOM     67  F   UNL A   1      45.944  35.763  27.269  1.00  0.00    -0.200 F 
ATOM     68  C   UNL A   1      46.505  35.098  29.465  1.00  0.00     0.200 A 
ATOM     69  F   UNL A   1      47.058  34.385  31.647  1.00  0.00    -0.200 F 
ATOM     70  F   UNL A   1      46.779  36.367  29.795  1.00  0.00    -0.200 F 
ENDBRANCH  37  60
ENDBRANCH  11  12
ENDBRANCH   4   6
ENDBRANCH   3   4
ENDBRANCH   2   3
ENDBRANCH   1   2
BRANCH   1  71
ATOM     71  O   UNL A   1      36.560  20.498  25.276  1.00  0.00    -0.460 OA
BRANCH  71  72
ATOM     72  C   UNL A   1      36.464  21.740  24.707  1.00  0.00     0.335 C 
ATOM     73  O   UNL A   1      37.027  22.082  23.680  1.00  0.00    -0.249 OA
BRANCH  72  74
ATOM     74  C   UNL A   1      35.495  22.614  25.518  1.00  0.00     0.228 C 
ATOM     75  C   UNL A   1      34.906  23.762  24.735  1.00  0.00     0.047 C 
ATOM     76  O   UNL A   1      34.388  21.843  26.004  1.00  0.00    -0.361 OA
ATOM     77  C   UNL A   1      33.686  23.128  24.135  1.00  0.00     0.037 C 
ATOM     78  C   UNL A   1      33.216  22.179  25.233  1.00  0.00     0.138 C 
BRANCH  78  79
ATOM     79  C   UNL A   1      32.509  20.897  24.748  1.00  0.00     0.148 C 
BRANCH  79  80
ATOM     80  N   UNL A   1      32.552  19.842  25.750  1.00  0.00    -0.352 N 
ATOM     81  H   UNL A   1      32.273  19.992  26.682  1.00  0.00     0.163 HD
BRANCH  80  82
ATOM     82  C   UNL A   1      33.010  18.619  25.302  1.00  0.00     0.222 A 
ATOM     83  N   UNL A   1      32.342  17.546  25.751  1.00  0.00    -0.222 NA
ATOM     84  N   UNL A   1      33.997  18.564  24.400  1.00  0.00    -0.222 NA
ATOM     85  C   UNL A   1      32.669  16.361  25.202  1.00  0.00     0.117 A 
ATOM     86  C   UNL A   1      34.307  17.355  23.902  1.00  0.00     0.117 A 
ATOM     87  C   UNL A   1      33.656  16.203  24.262  1.00  0.00     0.040 A 
ENDBRANCH  80  82
ENDBRANCH  79  80
ENDBRANCH  78  79
ENDBRANCH  72  74
ENDBRANCH  71  72
ENDBRANCH   1  71
TORSDOF 14
ENDMDL
MODEL 3
REMARK VINA RESULT:     -10.9      1.256      2.250
REMARK SMILES O=C(OCCOC(=O)[C@H]1CC[C@@H](CNc2ncccn2)O1)c1ccc(-c2c3nc(c(-c4c(F)c(F)c(F)c(F)c4F)c4ccc([nH]4)c(-c4c(F)c(F)c(F)c(F)c4F)c4nc(c(-c5c(F)c(F)c(F)c(F)c5F)c5ccc2[nH]5)C=C4)C=C3)cc1
REMARK SMILES IDX 5 1 4 2 3 3 2 4 1 5 22 6 23 7 84 8 24 9 83 10 25 11 26 12
REMARK SMILES IDX 27 13 77 14 28 15 82 16 76 17 78 18 29 19 81 20 75 21 74 22
REMARK SMILES IDX 30 24 62 25 42 26 61 27 43 28 46 29 60 30 79 31 44 32 45 33
REMARK SMILES IDX 59 35 80 36 47 37 31 38 32 39 40 40 33 41 34 42 38 43 41 44
REMARK SMILES IDX 35 45 36 46 39 47 37 48 63 49 64 50 72 51 65 52 66 53 70 54
REMARK SMILES IDX 73 55 67 56 68 57 71 58 69 59 48 60 49 61 57 62 50 63 51 64
REMARK SMILES IDX 55 65 58 66 52 67 53 68 56 69 54 70 6 71 7 72 8 73 9 74
REMARK SMILES IDX 10 75 21 76 11 77 12 78 13 79 14 80 15 82 16 83 20 84 17 85
REMARK SMILES IDX 19 86 18 87
REMARK H PARENT 78 23 46 34 14 81
REMARK Flexibility Score: inf
ROOT
ATOM      1  C   UNL A   1      31.401  31.609  26.769  1.00  0.00     0.274 C 
ENDROOT
BRANCH   1   2
ATOM      2  C   UNL A   1      31.807  33.085  26.715  1.00  0.00     0.275 C 
BRANCH   2   3
ATOM      3  O   UNL A   1      32.616  33.488  27.838  1.00  0.00    -0.458 OA
BRANCH   3   4
ATOM      4  C   UNL A   1      33.924  33.850  27.847  1.00  0.00     0.338 C 
ATOM      5  O   UNL A   1      34.291  34.792  27.149  1.00  0.00    -0.246 OA
BRANCH   4   6
ATOM      6  C   UNL A   1      34.980  33.021  28.511  1.00  0.00     0.060 A 
ATOM      7  C   UNL A   1      34.796  31.755  29.077  1.00  0.00     0.016 A 
ATOM      8  C   UNL A   1      36.277  33.571  28.537  1.00  0.00     0.016 A 
ATOM      9  C   UNL A   1      35.879  31.013  29.561  1.00  0.00     0.010 A 
ATOM     10  C   UNL A   1      37.363  32.843  29.036  1.00  0.00     0.010 A 
ATOM     11  C   UNL A   1      37.166  31.551  29.540  1.00  0.00    -0.014 A 
BRANCH  11  12
ATOM     12  C   UNL A   1      38.260  30.843  30.234  1.00  0.00     0.031 A 
ATOM     13  C   UNL A   1      38.509  31.207  31.662  1.00  0.00     0.074 A 
ATOM     14  C   UNL A   1      38.987  29.892  29.624  1.00  0.00     0.049 A 
ATOM     15  N   UNL A   1      39.403  30.749  32.493  1.00  0.00    -0.248 NA
ATOM     16  C   UNL A   1      37.608  32.222  32.233  1.00  0.00     0.031 C 
ATOM     17  C   UNL A   1      38.770  29.411  28.264  1.00  0.00     0.029 A 
ATOM     18  N   UNL A   1      40.069  29.171  30.062  1.00  0.00    -0.354 N 
ATOM     19  C   UNL A   1      39.165  31.410  33.688  1.00  0.00     0.074 A 
ATOM     20  C   UNL A   1      38.076  32.333  33.463  1.00  0.00     0.031 C 
ATOM     21  C   UNL A   1      39.729  28.520  27.952  1.00  0.00     0.029 A 
ATOM     22  C   UNL A   1      40.626  28.372  29.094  1.00  0.00     0.049 A 
ATOM     23  H   UNL A   1      40.414  29.222  30.983  1.00  0.00     0.167 HD
ATOM     24  C   UNL A   1      39.798  31.250  34.871  1.00  0.00     0.037 A 
ATOM     25  C   UNL A   1      41.746  27.623  29.129  1.00  0.00     0.037 A 
ATOM     26  C   UNL A   1      40.912  30.365  35.058  1.00  0.00     0.049 A 
ATOM     27  C   UNL A   1      42.513  27.544  30.425  1.00  0.00     0.074 A 
ATOM     28  C   UNL A   1      41.648  30.130  36.202  1.00  0.00     0.029 A 
ATOM     29  N   UNL A   1      41.470  29.589  34.048  1.00  0.00    -0.354 N 
ATOM     30  N   UNL A   1      42.258  28.132  31.569  1.00  0.00    -0.248 NA
ATOM     31  C   UNL A   1      43.705  26.685  30.447  1.00  0.00     0.031 C 
ATOM     32  C   UNL A   1      42.695  29.264  35.867  1.00  0.00     0.029 A 
ATOM     33  C   UNL A   1      42.567  28.902  34.533  1.00  0.00     0.049 A 
ATOM     34  H   UNL A   1      41.135  29.537  33.124  1.00  0.00     0.167 HD
ATOM     35  C   UNL A   1      43.229  27.690  32.457  1.00  0.00     0.074 A 
ATOM     36  C   UNL A   1      44.084  26.784  31.715  1.00  0.00     0.031 C 
ATOM     37  C   UNL A   1      43.391  27.995  33.769  1.00  0.00     0.037 A 
BRANCH  24  38
ATOM     38  C   UNL A   1      39.323  32.110  36.004  1.00  0.00     0.064 A 
ATOM     39  C   UNL A   1      39.878  33.377  36.253  1.00  0.00     0.173 A 
ATOM     40  C   UNL A   1      38.363  31.626  36.903  1.00  0.00     0.173 A 
ATOM     41  F   UNL A   1      40.821  33.874  35.439  1.00  0.00    -0.203 F 
ATOM     42  C   UNL A   1      39.532  34.098  37.394  1.00  0.00     0.198 A 
ATOM     43  C   UNL A   1      37.993  32.366  38.023  1.00  0.00     0.198 A 
ATOM     44  F   UNL A   1      37.805  30.421  36.714  1.00  0.00    -0.203 F 
ATOM     45  F   UNL A   1      40.143  35.260  37.660  1.00  0.00    -0.200 F 
ATOM     46  C   UNL A   1      38.590  33.591  38.277  1.00  0.00     0.200 A 
ATOM     47  F   UNL A   1      37.080  31.877  38.873  1.00  0.00    -0.200 F 
ATOM     48  F   UNL A   1      38.274  34.275  39.385  1.00  0.00    -0.200 F 
ENDBRANCH  24  38
BRANCH  25  49
ATOM     49  C   UNL A   1      42.202  26.908  27.907  1.00  0.00     0.064 A 
ATOM     50  C   UNL A   1      43.055  27.514  26.975  1.00  0.00     0.173 A 
ATOM     51  C   UNL A   1      41.799  25.587  27.652  1.00  0.00     0.173 A 
ATOM     52  F   UNL A   1      43.456  28.780  27.159  1.00  0.00    -0.203 F 
ATOM     53  C   UNL A   1      43.481  26.833  25.834  1.00  0.00     0.198 A 
ATOM     54  C   UNL A   1      42.242  24.899  26.523  1.00  0.00     0.198 A 
ATOM     55  F   UNL A   1      40.984  24.957  28.510  1.00  0.00    -0.203 F 
ATOM     56  F   UNL A   1      44.273  27.448  24.945  1.00  0.00    -0.200 F 
ATOM     57  C   UNL A   1      43.079  25.524  25.612  1.00  0.00     0.200 A 
ATOM     58  F   UNL A   1      41.862  23.630  26.322  1.00  0.00    -0.200 F 
ATOM     59  F   UNL A   1      43.496  24.867  24.522  1.00  0.00    -0.200 F 
ENDBRANCH  25  49
BRANCH  37  60
ATOM     60  C   UNL A   1      44.504  27.315  34.509  1.00  0.00     0.064 A 
ATOM     61  C   UNL A   1      44.333  26.060  35.108  1.00  0.00     0.173 A 
ATOM     62  C   UNL A   1      45.788  27.882  34.516  1.00  0.00     0.173 A 
ATOM     63  F   UNL A   1      43.121  25.485  35.139  1.00  0.00    -0.203 F 
ATOM     64  C   UNL A   1      45.410  25.395  35.686  1.00  0.00     0.198 A 
ATOM     65  C   UNL A   1      46.868  27.200  35.066  1.00  0.00     0.198 A 
ATOM     66  F   UNL A   1      46.002  29.079  33.949  1.00  0.00    -0.203 F 
ATOM     67  F   UNL A   1      45.223  24.204  36.272  1.00  0.00    -0.200 F 
ATOM     68  C   UNL A   1      46.678  25.957  35.652  1.00  0.00     0.200 A 
ATOM     69  F   UNL A   1      48.094  27.736  35.014  1.00  0.00    -0.200 F 
ATOM     70  F   UNL A   1      47.719  25.300  36.181  1.00  0.00    -0.200 F 
ENDBRANCH  37  60
ENDBRANCH  11  12
ENDBRANCH   4   6
ENDBRANCH   3   4
ENDBRANCH   2   3
ENDBRANCH   1   2
BRANCH   1  71
ATOM     71  O   UNL A   1      32.279  30.789  25.983  1.00  0.00    -0.460 OA
BRANCH  71  72
ATOM     72  C   UNL A   1      32.603  29.575  26.528  1.00  0.00     0.335 C 
ATOM     73  O   UNL A   1      32.126  29.122  27.555  1.00  0.00    -0.249 OA
BRANCH  72  74
ATOM     74  C   UNL A   1      33.605  28.845  25.621  1.00  0.00     0.228 C 
ATOM     75  C   UNL A   1      33.497  27.340  25.677  1.00  0.00     0.047 C 
ATOM     76  O   UNL A   1      33.425  29.215  24.248  1.00  0.00    -0.361 OA
ATOM     77  C   UNL A   1      32.477  27.068  24.611  1.00  0.00     0.037 C 
ATOM     78  C   UNL A   1      32.798  28.118  23.552  1.00  0.00     0.138 C 
BRANCH  78  79
ATOM     79  C   UNL A   1      31.596  28.624  22.728  1.00  0.00     0.148 C 
BRANCH  79  80
ATOM     80  N   UNL A   1      30.448  28.919  23.571  1.00  0.00    -0.352 N 
ATOM     81  H   UNL A   1      30.307  28.480  24.440  1.00  0.00     0.163 HD
BRANCH  80  82
ATOM     82  C   UNL A   1      29.570  29.858  23.066  1.00  0.00     0.222 A 
ATOM     83  N   UNL A   1      29.357  30.932  23.839  1.00  0.00    -0.222 NA
ATOM     84  N   UNL A   1      29.065  29.708  21.835  1.00  0.00    -0.222 NA
ATOM     85  C   UNL A   1      28.634  31.931  23.296  1.00  0.00     0.117 A 
ATOM     86  C   UNL A   1      28.326  30.718  21.348  1.00  0.00     0.117 A 
ATOM     87  C   UNL A   1      28.086  31.878  22.039  1.00  0.00     0.040 A 
ENDBRANCH  80  82
ENDBRANCH  79  80
ENDBRANCH  78  79
ENDBRANCH  72  74
ENDBRANCH  71  72
ENDBRANCH   1  71
TORSDOF 14
ENDMDL
