MODEL 1
REMARK VINA RESULT:     -13.7      0.000      0.000
REMARK SMILES CC1(C)[C@@]2(C(=O)OCCOC(=O)c3ccc(-c4c5nc(c(-c6c(F)c(F)c(F)c(F)c6F)c6ccc([nH]6)c(-c6c(F)c(F)c(F)c(F)c6F)c6nc(c(-c7c(F)c(F)c(F)c(F)c7F)c7ccc4[nH]7)C=C6)C=C5)cc3)CC[C@]1(C)/C(=N/NC(=O)c1ccc(Cl)cc1)C2
REMARK SMILES IDX 8 1 7 2 5 3 6 4 4 5 1 6 2 7 3 8 78 9 76 10 92 11 77 12 79 13
REMARK SMILES IDX 80 14 81 15 82 16 83 17 84 19 85 20 86 21 91 22 87 23 90 24
REMARK SMILES IDX 88 25 89 26 9 27 10 28 11 29 12 30 13 31 14 32 75 33 15 34
REMARK SMILES IDX 74 35 16 36 17 37 18 38 68 39 19 40 73 41 67 42 69 43 20 44
REMARK SMILES IDX 72 45 66 46 65 47 21 49 53 50 33 51 52 52 34 53 37 54 51 55
REMARK SMILES IDX 70 56 35 57 36 58 50 60 71 61 38 62 22 63 23 64 31 65 24 66
REMARK SMILES IDX 25 67 29 68 32 69 26 70 27 71 30 72 28 73 54 74 55 75 63 76
REMARK SMILES IDX 56 77 57 78 61 79 64 80 58 81 59 82 62 83 60 84 39 85 40 86
REMARK SMILES IDX 48 87 41 88 42 89 46 90 49 91 43 92 44 93 47 94 45 95
REMARK H PARENT 82 18 69 48 37 59
REMARK Flexibility Score: inf
ROOT
ATOM      1  C   UNL A   1      33.052  29.137  24.092  1.00  0.00     0.274 C 
ENDROOT
BRANCH   1   2
ATOM      2  O   UNL A   1      33.729  27.902  24.420  1.00  0.00    -0.462 OA
BRANCH   2   3
ATOM      3  C   UNL A   1      33.564  26.832  23.592  1.00  0.00     0.313 C 
ATOM      4  O   UNL A   1      33.609  26.879  22.370  1.00  0.00    -0.252 OA
BRANCH   3   5
ATOM      5  C   UNL A   1      33.184  25.585  24.373  1.00  0.00     0.079 C 
ATOM      6  C   UNL A   1      30.594  25.693  24.102  1.00  0.00     0.013 C 
ATOM      7  C   UNL A   1      31.861  24.820  24.071  1.00  0.00    -0.008 C 
ATOM      8  C   UNL A   1      31.848  24.017  22.748  1.00  0.00     0.013 C 
ATOM      9  C   UNL A   1      32.056  23.883  25.316  1.00  0.00     0.014 C 
ATOM     10  C   UNL A   1      33.017  26.003  25.871  1.00  0.00     0.021 C 
ATOM     11  C   UNL A   1      34.235  24.455  24.293  1.00  0.00     0.073 C 
ATOM     12  C   UNL A   1      32.215  24.851  26.497  1.00  0.00     0.014 C 
ATOM     13  C   UNL A   1      31.013  22.805  25.523  1.00  0.00     0.018 C 
ATOM     14  C   UNL A   1      33.499  23.388  25.053  1.00  0.00     0.046 C 
ATOM     15  N   UNL A   1      33.871  22.209  25.434  1.00  0.00    -0.181 NA
BRANCH  15  16
ATOM     16  N   UNL A   1      35.058  21.619  25.137  1.00  0.00    -0.243 N 
ATOM     17  C   UNL A   1      35.515  20.327  25.000  1.00  0.00     0.271 C 
ATOM     18  H   UNL A   1      35.771  22.281  24.981  1.00  0.00     0.194 HD
ATOM     19  O   UNL A   1      36.721  20.121  24.853  1.00  0.00    -0.267 OA
BRANCH  17  20
ATOM     20  C   UNL A   1      34.626  19.156  24.992  1.00  0.00     0.041 A 
ATOM     21  C   UNL A   1      35.182  17.923  24.608  1.00  0.00     0.015 A 
ATOM     22  C   UNL A   1      33.286  19.237  25.388  1.00  0.00     0.015 A 
ATOM     23  C   UNL A   1      34.426  16.756  24.715  1.00  0.00     0.021 A 
ATOM     24  C   UNL A   1      32.529  18.063  25.479  1.00  0.00     0.021 A 
ATOM     25  C   UNL A   1      33.109  16.829  25.166  1.00  0.00     0.041 A 
ATOM     26  Cl  UNL A   1      32.206  15.381  25.383  1.00  0.00    -0.084 Cl
ENDBRANCH  17  20
ENDBRANCH  15  16
ENDBRANCH   3   5
ENDBRANCH   2   3
ENDBRANCH   1   2
BRANCH   1  27
ATOM     27  C   UNL A   1      31.930  29.391  25.100  1.00  0.00     0.275 C 
BRANCH  27  28
ATOM     28  O   UNL A   1      32.544  29.519  26.391  1.00  0.00    -0.458 OA
BRANCH  28  29
ATOM     29  C   UNL A   1      32.897  30.758  26.796  1.00  0.00     0.338 C 
ATOM     30  O   UNL A   1      32.231  31.779  26.743  1.00  0.00    -0.246 OA
BRANCH  29  31
ATOM     31  C   UNL A   1      34.218  30.655  27.451  1.00  0.00     0.060 A 
ATOM     32  C   UNL A   1      34.686  29.392  27.805  1.00  0.00     0.016 A 
ATOM     33  C   UNL A   1      34.945  31.782  27.824  1.00  0.00     0.016 A 
ATOM     34  C   UNL A   1      35.813  29.247  28.598  1.00  0.00     0.010 A 
ATOM     35  C   UNL A   1      36.159  31.624  28.512  1.00  0.00     0.010 A 
ATOM     36  C   UNL A   1      36.602  30.351  28.922  1.00  0.00    -0.014 A 
BRANCH  36  37
ATOM     37  C   UNL A   1      37.865  30.160  29.691  1.00  0.00     0.031 A 
ATOM     38  C   UNL A   1      39.007  29.392  29.090  1.00  0.00     0.074 A 
ATOM     39  C   UNL A   1      38.017  30.696  30.922  1.00  0.00     0.049 A 
ATOM     40  N   UNL A   1      40.033  28.838  29.683  1.00  0.00    -0.248 NA
ATOM     41  C   UNL A   1      38.989  29.214  27.630  1.00  0.00     0.031 C 
ATOM     42  C   UNL A   1      37.051  31.555  31.611  1.00  0.00     0.029 A 
ATOM     43  N   UNL A   1      39.060  30.606  31.815  1.00  0.00    -0.354 N 
ATOM     44  C   UNL A   1      40.725  28.163  28.688  1.00  0.00     0.074 A 
ATOM     45  C   UNL A   1      40.031  28.414  27.443  1.00  0.00     0.031 C 
ATOM     46  C   UNL A   1      37.571  31.971  32.772  1.00  0.00     0.029 A 
ATOM     47  C   UNL A   1      38.834  31.283  32.990  1.00  0.00     0.049 A 
ATOM     48  H   UNL A   1      39.888  30.107  31.629  1.00  0.00     0.167 HD
ATOM     49  C   UNL A   1      41.826  27.385  28.820  1.00  0.00     0.037 A 
ATOM     50  C   UNL A   1      39.513  31.283  34.152  1.00  0.00     0.037 A 
ATOM     51  C   UNL A   1      42.553  27.219  30.051  1.00  0.00     0.049 A 
ATOM     52  C   UNL A   1      40.694  30.371  34.298  1.00  0.00     0.074 A 
ATOM     53  C   UNL A   1      43.683  26.458  30.295  1.00  0.00     0.029 A 
ATOM     54  N   UNL A   1      42.235  27.855  31.242  1.00  0.00    -0.354 N 
ATOM     55  N   UNL A   1      41.254  29.599  33.400  1.00  0.00    -0.248 NA
ATOM     56  C   UNL A   1      41.298  30.283  35.634  1.00  0.00     0.031 C 
ATOM     57  C   UNL A   1      44.033  26.613  31.642  1.00  0.00     0.029 A 
ATOM     58  C   UNL A   1      43.139  27.495  32.228  1.00  0.00     0.049 A 
ATOM     59  H   UNL A   1      41.478  28.472  31.368  1.00  0.00     0.167 HD
ATOM     60  C   UNL A   1      42.262  28.917  34.063  1.00  0.00     0.074 A 
ATOM     61  C   UNL A   1      42.259  29.392  35.433  1.00  0.00     0.031 C 
ATOM     62  C   UNL A   1      43.104  27.969  33.586  1.00  0.00     0.037 A 
BRANCH  49  63
ATOM     63  C   UNL A   1      42.271  26.600  27.624  1.00  0.00     0.064 A 
ATOM     64  C   UNL A   1      43.253  27.068  26.741  1.00  0.00     0.173 A 
ATOM     65  C   UNL A   1      41.726  25.327  27.389  1.00  0.00     0.173 A 
ATOM     66  F   UNL A   1      43.791  28.284  26.914  1.00  0.00    -0.203 F 
ATOM     67  C   UNL A   1      43.664  26.295  25.657  1.00  0.00     0.198 A 
ATOM     68  C   UNL A   1      42.154  24.549  26.316  1.00  0.00     0.198 A 
ATOM     69  F   UNL A   1      40.783  24.834  28.207  1.00  0.00    -0.203 F 
ATOM     70  F   UNL A   1      44.580  26.774  24.804  1.00  0.00    -0.200 F 
ATOM     71  C   UNL A   1      43.119  25.035  25.449  1.00  0.00     0.200 A 
ATOM     72  F   UNL A   1      41.632  23.330  26.124  1.00  0.00    -0.200 F 
ATOM     73  F   UNL A   1      43.522  24.292  24.409  1.00  0.00    -0.200 F 
ENDBRANCH  49  63
BRANCH  50  74
ATOM     74  C   UNL A   1      39.013  32.088  35.298  1.00  0.00     0.064 A 
ATOM     75  C   UNL A   1      38.247  31.498  36.311  1.00  0.00     0.173 A 
ATOM     76  C   UNL A   1      39.322  33.452  35.421  1.00  0.00     0.173 A 
ATOM     77  F   UNL A   1      37.900  30.206  36.222  1.00  0.00    -0.203 F 
ATOM     78  C   UNL A   1      37.820  32.240  37.410  1.00  0.00     0.198 A 
ATOM     79  C   UNL A   1      38.921  34.183  36.535  1.00  0.00     0.198 A 
ATOM     80  F   UNL A   1      40.045  34.065  34.474  1.00  0.00    -0.203 F 
ATOM     81  F   UNL A   1      37.067  31.660  38.355  1.00  0.00    -0.200 F 
ATOM     82  C   UNL A   1      38.167  33.578  37.528  1.00  0.00     0.200 A 
ATOM     83  F   UNL A   1      39.275  35.471  36.652  1.00  0.00    -0.200 F 
ATOM     84  F   UNL A   1      37.775  34.284  38.597  1.00  0.00    -0.200 F 
ENDBRANCH  50  74
BRANCH  62  85
ATOM     85  C   UNL A   1      44.084  27.388  34.555  1.00  0.00     0.064 A 
ATOM     86  C   UNL A   1      45.297  28.034  34.833  1.00  0.00     0.173 A 
ATOM     87  C   UNL A   1      43.799  26.191  35.227  1.00  0.00     0.173 A 
ATOM     88  F   UNL A   1      45.618  29.171  34.198  1.00  0.00    -0.203 F 
ATOM     89  C   UNL A   1      46.200  27.491  35.743  1.00  0.00     0.198 A 
ATOM     90  C   UNL A   1      44.696  25.662  36.149  1.00  0.00     0.198 A 
ATOM     91  F   UNL A   1      42.650  25.540  34.989  1.00  0.00    -0.203 F 
ATOM     92  F   UNL A   1      47.369  28.104  35.970  1.00  0.00    -0.200 F 
ATOM     93  C   UNL A   1      45.896  26.309  36.403  1.00  0.00     0.200 A 
ATOM     94  F   UNL A   1      44.400  24.522  36.789  1.00  0.00    -0.200 F 
ATOM     95  F   UNL A   1      46.766  25.788  37.279  1.00  0.00    -0.200 F 
ENDBRANCH  62  85
ENDBRANCH  36  37
ENDBRANCH  29  31
ENDBRANCH  28  29
ENDBRANCH  27  28
ENDBRANCH   1  27
TORSDOF 13
ENDMDL
MODEL 2
REMARK VINA RESULT:     -13.7      1.064      2.491
REMARK SMILES CC1(C)[C@@]2(C(=O)OCCOC(=O)c3ccc(-c4c5nc(c(-c6c(F)c(F)c(F)c(F)c6F)c6ccc([nH]6)c(-c6c(F)c(F)c(F)c(F)c6F)c6nc(c(-c7c(F)c(F)c(F)c(F)c7F)c7ccc4[nH]7)C=C6)C=C5)cc3)CC[C@]1(C)/C(=N/NC(=O)c1ccc(Cl)cc1)C2
REMARK SMILES IDX 8 1 7 2 5 3 6 4 4 5 1 6 2 7 3 8 78 9 76 10 92 11 77 12 79 13
REMARK SMILES IDX 80 14 81 15 82 16 83 17 84 19 85 20 86 21 91 22 87 23 90 24
REMARK SMILES IDX 88 25 89 26 9 27 10 28 11 29 12 30 13 31 14 32 75 33 15 34
REMARK SMILES IDX 74 35 16 36 17 37 18 38 68 39 19 40 73 41 67 42 69 43 20 44
REMARK SMILES IDX 72 45 66 46 65 47 21 49 53 50 33 51 52 52 34 53 37 54 51 55
REMARK SMILES IDX 70 56 35 57 36 58 50 60 71 61 38 62 22 63 23 64 31 65 24 66
REMARK SMILES IDX 25 67 29 68 32 69 26 70 27 71 30 72 28 73 54 74 55 75 63 76
REMARK SMILES IDX 56 77 57 78 61 79 64 80 58 81 59 82 62 83 60 84 39 85 40 86
REMARK SMILES IDX 48 87 41 88 42 89 46 90 49 91 43 92 44 93 47 94 45 95
REMARK H PARENT 82 18 69 48 37 59
REMARK Flexibility Score: inf
ROOT
ATOM      1  C   UNL A   1      31.770  28.452  27.253  1.00  0.00     0.274 C 
ENDROOT
BRANCH   1   2
ATOM      2  O   UNL A   1      32.238  27.183  26.742  1.00  0.00    -0.462 OA
BRANCH   2   3
ATOM      3  C   UNL A   1      31.330  26.332  26.186  1.00  0.00     0.313 C 
ATOM      4  O   UNL A   1      30.215  26.109  26.636  1.00  0.00    -0.252 OA
BRANCH   3   5
ATOM      5  C   UNL A   1      31.925  25.589  25.002  1.00  0.00     0.079 C 
ATOM      6  C   UNL A   1      30.953  27.041  23.067  1.00  0.00     0.013 C 
ATOM      7  C   UNL A   1      32.180  26.313  23.646  1.00  0.00    -0.008 C 
ATOM      8  C   UNL A   1      33.365  27.308  23.640  1.00  0.00     0.013 C 
ATOM      9  C   UNL A   1      32.552  24.963  22.934  1.00  0.00     0.014 C 
ATOM     10  C   UNL A   1      30.924  24.451  24.612  1.00  0.00     0.021 C 
ATOM     11  C   UNL A   1      33.302  24.954  25.292  1.00  0.00     0.073 C 
ATOM     12  C   UNL A   1      31.339  24.056  23.186  1.00  0.00     0.014 C 
ATOM     13  C   UNL A   1      32.977  25.057  21.484  1.00  0.00     0.018 C 
ATOM     14  C   UNL A   1      33.619  24.428  23.920  1.00  0.00     0.046 C 
ATOM     15  N   UNL A   1      34.599  23.698  23.497  1.00  0.00    -0.181 NA
BRANCH  15  16
ATOM     16  N   UNL A   1      35.662  23.292  24.240  1.00  0.00    -0.243 N 
ATOM     17  C   UNL A   1      35.964  22.198  25.021  1.00  0.00     0.271 C 
ATOM     18  H   UNL A   1      36.400  23.944  24.216  1.00  0.00     0.194 HD
ATOM     19  O   UNL A   1      36.997  22.198  25.693  1.00  0.00    -0.267 OA
BRANCH  17  20
ATOM     20  C   UNL A   1      35.122  20.994  25.079  1.00  0.00     0.041 A 
ATOM     21  C   UNL A   1      33.785  21.157  25.479  1.00  0.00     0.015 A 
ATOM     22  C   UNL A   1      35.604  19.732  24.712  1.00  0.00     0.015 A 
ATOM     23  C   UNL A   1      32.904  20.076  25.420  1.00  0.00     0.021 A 
ATOM     24  C   UNL A   1      34.718  18.649  24.667  1.00  0.00     0.021 A 
ATOM     25  C   UNL A   1      33.371  18.832  24.997  1.00  0.00     0.041 A 
ATOM     26  Cl  UNL A   1      32.266  17.523  24.837  1.00  0.00    -0.084 Cl
ENDBRANCH  17  20
ENDBRANCH  15  16
ENDBRANCH   3   5
ENDBRANCH   2   3
ENDBRANCH   1   2
BRANCH   1  27
ATOM     27  C   UNL A   1      31.890  29.520  26.165  1.00  0.00     0.275 C 
BRANCH  27  28
ATOM     28  O   UNL A   1      33.236  30.016  26.208  1.00  0.00    -0.458 OA
BRANCH  28  29
ATOM     29  C   UNL A   1      33.478  31.107  26.966  1.00  0.00     0.338 C 
ATOM     30  O   UNL A   1      32.729  32.046  27.184  1.00  0.00    -0.246 OA
BRANCH  29  31
ATOM     31  C   UNL A   1      34.794  30.920  27.613  1.00  0.00     0.060 A 
ATOM     32  C   UNL A   1      35.145  29.642  28.042  1.00  0.00     0.016 A 
ATOM     33  C   UNL A   1      35.630  31.993  27.907  1.00  0.00     0.016 A 
ATOM     34  C   UNL A   1      36.265  29.441  28.832  1.00  0.00     0.010 A 
ATOM     35  C   UNL A   1      36.833  31.763  28.592  1.00  0.00     0.010 A 
ATOM     36  C   UNL A   1      37.160  30.482  29.078  1.00  0.00    -0.014 A 
BRANCH  36  37
ATOM     37  C   UNL A   1      38.411  30.220  29.846  1.00  0.00     0.031 A 
ATOM     38  C   UNL A   1      39.504  29.382  29.247  1.00  0.00     0.074 A 
ATOM     39  C   UNL A   1      38.598  30.751  31.074  1.00  0.00     0.049 A 
ATOM     40  N   UNL A   1      40.497  28.771  29.840  1.00  0.00    -0.248 NA
ATOM     41  C   UNL A   1      39.473  29.198  27.787  1.00  0.00     0.031 C 
ATOM     42  C   UNL A   1      37.686  31.670  31.760  1.00  0.00     0.029 A 
ATOM     43  N   UNL A   1      39.635  30.604  31.965  1.00  0.00    -0.354 N 
ATOM     44  C   UNL A   1      41.145  28.051  28.847  1.00  0.00     0.074 A 
ATOM     45  C   UNL A   1      40.464  28.337  27.602  1.00  0.00     0.031 C 
ATOM     46  C   UNL A   1      38.232  32.060  32.918  1.00  0.00     0.029 A 
ATOM     47  C   UNL A   1      39.452  31.298  33.137  1.00  0.00     0.049 A 
ATOM     48  H   UNL A   1      40.431  30.055  31.780  1.00  0.00     0.167 HD
ATOM     49  C   UNL A   1      42.198  27.209  28.981  1.00  0.00     0.037 A 
ATOM     50  C   UNL A   1      40.133  31.264  34.298  1.00  0.00     0.037 A 
ATOM     51  C   UNL A   1      42.917  27.006  30.211  1.00  0.00     0.049 A 
ATOM     52  C   UNL A   1      41.258  30.284  34.446  1.00  0.00     0.074 A 
ATOM     53  C   UNL A   1      43.999  26.180  30.457  1.00  0.00     0.029 A 
ATOM     54  N   UNL A   1      42.639  27.666  31.400  1.00  0.00    -0.354 N 
ATOM     55  N   UNL A   1      41.769  29.475  33.551  1.00  0.00    -0.248 NA
ATOM     56  C   UNL A   1      41.858  30.166  35.781  1.00  0.00     0.031 C 
ATOM     57  C   UNL A   1      44.361  26.321  31.802  1.00  0.00     0.029 A 
ATOM     58  C   UNL A   1      43.523  27.258  32.386  1.00  0.00     0.049 A 
ATOM     59  H   UNL A   1      41.921  28.328  31.525  1.00  0.00     0.167 HD
ATOM     60  C   UNL A   1      42.736  28.738  34.216  1.00  0.00     0.074 A 
ATOM     61  C   UNL A   1      42.764  29.218  35.583  1.00  0.00     0.031 C 
ATOM     62  C   UNL A   1      43.519  27.739  33.741  1.00  0.00     0.037 A 
BRANCH  49  63
ATOM     63  C   UNL A   1      42.593  26.394  27.788  1.00  0.00     0.064 A 
ATOM     64  C   UNL A   1      42.002  25.159  27.491  1.00  0.00     0.173 A 
ATOM     65  C   UNL A   1      43.562  26.891  26.900  1.00  0.00     0.173 A 
ATOM     66  F   UNL A   1      41.085  24.635  28.318  1.00  0.00    -0.203 F 
ATOM     67  C   UNL A   1      42.375  24.444  26.355  1.00  0.00     0.198 A 
ATOM     68  C   UNL A   1      43.916  26.183  25.755  1.00  0.00     0.198 A 
ATOM     69  F   UNL A   1      44.157  28.069  27.139  1.00  0.00    -0.203 F 
ATOM     70  F   UNL A   1      41.821  23.250  26.106  1.00  0.00    -0.200 F 
ATOM     71  C   UNL A   1      43.325  24.959  25.485  1.00  0.00     0.200 A 
ATOM     72  F   UNL A   1      44.829  26.688  24.913  1.00  0.00    -0.200 F 
ATOM     73  F   UNL A   1      43.677  24.272  24.389  1.00  0.00    -0.200 F 
ENDBRANCH  49  63
BRANCH  50  74
ATOM     74  C   UNL A   1      39.685  32.102  35.441  1.00  0.00     0.064 A 
ATOM     75  C   UNL A   1      40.198  33.392  35.631  1.00  0.00     0.173 A 
ATOM     76  C   UNL A   1      38.710  31.647  36.342  1.00  0.00     0.173 A 
ATOM     77  F   UNL A   1      41.154  33.859  34.815  1.00  0.00    -0.203 F 
ATOM     78  C   UNL A   1      39.744  34.197  36.673  1.00  0.00     0.198 A 
ATOM     79  C   UNL A   1      38.234  32.465  37.363  1.00  0.00     0.198 A 
ATOM     80  F   UNL A   1      38.193  30.417  36.208  1.00  0.00    -0.203 F 
ATOM     81  F   UNL A   1      40.267  35.418  36.851  1.00  0.00    -0.200 F 
ATOM     82  C   UNL A   1      38.753  33.739  37.530  1.00  0.00     0.200 A 
ATOM     83  F   UNL A   1      37.265  32.022  38.176  1.00  0.00    -0.200 F 
ATOM     84  F   UNL A   1      38.300  34.524  38.517  1.00  0.00    -0.200 F 
ENDBRANCH  50  74
BRANCH  62  85
ATOM     85  C   UNL A   1      44.465  27.106  34.712  1.00  0.00     0.064 A 
ATOM     86  C   UNL A   1      44.112  25.943  35.411  1.00  0.00     0.173 A 
ATOM     87  C   UNL A   1      45.738  27.650  34.927  1.00  0.00     0.173 A 
ATOM     88  F   UNL A   1      42.897  25.400  35.250  1.00  0.00    -0.203 F 
ATOM     89  C   UNL A   1      45.001  25.354  36.306  1.00  0.00     0.198 A 
ATOM     90  C   UNL A   1      46.630  27.048  35.808  1.00  0.00     0.198 A 
ATOM     91  F   UNL A   1      46.115  28.763  34.279  1.00  0.00    -0.203 F 
ATOM     92  F   UNL A   1      44.634  24.263  36.992  1.00  0.00    -0.200 F 
ATOM     93  C   UNL A   1      46.260  25.905  36.500  1.00  0.00     0.200 A 
ATOM     94  F   UNL A   1      47.848  27.579  35.992  1.00  0.00    -0.200 F 
ATOM     95  F   UNL A   1      47.114  25.336  37.362  1.00  0.00    -0.200 F 
ENDBRANCH  62  85
ENDBRANCH  36  37
ENDBRANCH  29  31
ENDBRANCH  28  29
ENDBRANCH  27  28
ENDBRANCH   1  27
TORSDOF 13
ENDMDL
MODEL 3
REMARK VINA RESULT:     -13.6      1.481      2.299
REMARK SMILES CC1(C)[C@@]2(C(=O)OCCOC(=O)c3ccc(-c4c5nc(c(-c6c(F)c(F)c(F)c(F)c6F)c6ccc([nH]6)c(-c6c(F)c(F)c(F)c(F)c6F)c6nc(c(-c7c(F)c(F)c(F)c(F)c7F)c7ccc4[nH]7)C=C6)C=C5)cc3)CC[C@]1(C)/C(=N/NC(=O)c1ccc(Cl)cc1)C2
REMARK SMILES IDX 8 1 7 2 5 3 6 4 4 5 1 6 2 7 3 8 78 9 76 10 92 11 77 12 79 13
REMARK SMILES IDX 80 14 81 15 82 16 83 17 84 19 85 20 86 21 91 22 87 23 90 24
REMARK SMILES IDX 88 25 89 26 9 27 10 28 11 29 12 30 13 31 14 32 75 33 15 34
REMARK SMILES IDX 74 35 16 36 17 37 18 38 68 39 19 40 73 41 67 42 69 43 20 44
REMARK SMILES IDX 72 45 66 46 65 47 21 49 53 50 33 51 52 52 34 53 37 54 51 55
REMARK SMILES IDX 70 56 35 57 36 58 50 60 71 61 38 62 22 63 23 64 31 65 24 66
REMARK SMILES IDX 25 67 29 68 32 69 26 70 27 71 30 72 28 73 54 74 55 75 63 76
REMARK SMILES IDX 56 77 57 78 61 79 64 80 58 81 59 82 62 83 60 84 39 85 40 86
REMARK SMILES IDX 48 87 41 88 42 89 46 90 49 91 43 92 44 93 47 94 45 95
REMARK H PARENT 82 18 69 48 37 59
REMARK Flexibility Score: inf
ROOT
ATOM      1  C   UNL A   1      31.513  28.549  26.522  1.00  0.00     0.274 C 
ENDROOT
BRANCH   1   2
ATOM      2  O   UNL A   1      31.051  27.401  25.773  1.00  0.00    -0.462 OA
BRANCH   2   3
ATOM      3  C   UNL A   1      31.482  26.164  26.150  1.00  0.00     0.313 C 
ATOM      4  O   UNL A   1      31.781  25.846  27.293  1.00  0.00    -0.252 OA
BRANCH   3   5
ATOM      5  C   UNL A   1      31.671  25.256  24.946  1.00  0.00     0.079 C 
ATOM      6  C   UNL A   1      33.103  26.839  23.450  1.00  0.00     0.013 C 
ATOM      7  C   UNL A   1      32.901  25.417  24.005  1.00  0.00    -0.008 C 
ATOM      8  C   UNL A   1      34.252  24.946  24.595  1.00  0.00     0.013 C 
ATOM      9  C   UNL A   1      32.321  24.378  22.981  1.00  0.00     0.014 C 
ATOM     10  C   UNL A   1      30.458  25.493  23.987  1.00  0.00     0.021 C 
ATOM     11  C   UNL A   1      31.731  23.754  25.301  1.00  0.00     0.073 C 
ATOM     12  C   UNL A   1      30.927  24.921  22.639  1.00  0.00     0.014 C 
ATOM     13  C   UNL A   1      33.184  24.058  21.778  1.00  0.00     0.018 C 
ATOM     14  C   UNL A   1      32.028  23.197  23.938  1.00  0.00     0.046 C 
ATOM     15  N   UNL A   1      32.108  21.975  23.520  1.00  0.00    -0.181 NA
BRANCH  15  16
ATOM     16  N   UNL A   1      32.011  20.865  24.298  1.00  0.00    -0.243 N 
ATOM     17  C   UNL A   1      32.875  20.116  25.065  1.00  0.00     0.271 C 
ATOM     18  H   UNL A   1      31.094  20.506  24.317  1.00  0.00     0.194 HD
ATOM     19  O   UNL A   1      32.487  19.052  25.553  1.00  0.00    -0.267 OA
BRANCH  17  20
ATOM     20  C   UNL A   1      34.253  20.531  25.365  1.00  0.00     0.041 A 
ATOM     21  C   UNL A   1      35.295  19.795  24.776  1.00  0.00     0.015 A 
ATOM     22  C   UNL A   1      34.536  21.642  26.169  1.00  0.00     0.015 A 
ATOM     23  C   UNL A   1      36.615  20.226  24.911  1.00  0.00     0.021 A 
ATOM     24  C   UNL A   1      35.864  22.061  26.312  1.00  0.00     0.021 A 
ATOM     25  C   UNL A   1      36.891  21.366  25.664  1.00  0.00     0.041 A 
ATOM     26  Cl  UNL A   1      38.507  21.949  25.756  1.00  0.00    -0.084 Cl
ENDBRANCH  17  20
ENDBRANCH  15  16
ENDBRANCH   3   5
ENDBRANCH   2   3
ENDBRANCH   1   2
BRANCH   1  27
ATOM     27  C   UNL A   1      31.840  29.692  25.560  1.00  0.00     0.275 C 
BRANCH  27  28
ATOM     28  O   UNL A   1      33.161  30.151  25.885  1.00  0.00    -0.458 OA
BRANCH  28  29
ATOM     29  C   UNL A   1      33.276  31.113  26.826  1.00  0.00     0.338 C 
ATOM     30  O   UNL A   1      32.433  31.926  27.170  1.00  0.00    -0.246 OA
BRANCH  29  31
ATOM     31  C   UNL A   1      34.589  30.942  27.483  1.00  0.00     0.060 A 
ATOM     32  C   UNL A   1      34.962  29.664  27.896  1.00  0.00     0.016 A 
ATOM     33  C   UNL A   1      35.401  32.027  27.802  1.00  0.00     0.016 A 
ATOM     34  C   UNL A   1      36.078  29.473  28.694  1.00  0.00     0.010 A 
ATOM     35  C   UNL A   1      36.602  31.810  28.495  1.00  0.00     0.010 A 
ATOM     36  C   UNL A   1      36.950  30.528  28.965  1.00  0.00    -0.014 A 
BRANCH  36  37
ATOM     37  C   UNL A   1      38.198  30.279  29.741  1.00  0.00     0.031 A 
ATOM     38  C   UNL A   1      39.314  29.472  29.140  1.00  0.00     0.074 A 
ATOM     39  C   UNL A   1      38.363  30.795  30.979  1.00  0.00     0.049 A 
ATOM     40  N   UNL A   1      40.312  28.871  29.734  1.00  0.00    -0.248 NA
ATOM     41  C   UNL A   1      39.300  29.310  27.677  1.00  0.00     0.031 C 
ATOM     42  C   UNL A   1      37.426  31.685  31.669  1.00  0.00     0.029 A 
ATOM     43  N   UNL A   1      39.395  30.654  31.877  1.00  0.00    -0.354 N 
ATOM     44  C   UNL A   1      40.984  28.180  28.736  1.00  0.00     0.074 A 
ATOM     45  C   UNL A   1      40.310  28.471  27.489  1.00  0.00     0.031 C 
ATOM     46  C   UNL A   1      37.954  32.067  32.839  1.00  0.00     0.029 A 
ATOM     47  C   UNL A   1      39.187  31.327  33.058  1.00  0.00     0.049 A 
ATOM     48  H   UNL A   1      40.203  30.124  31.692  1.00  0.00     0.167 HD
ATOM     49  C   UNL A   1      42.052  27.357  28.867  1.00  0.00     0.037 A 
ATOM     50  C   UNL A   1      39.856  31.288  34.225  1.00  0.00     0.037 A 
ATOM     51  C   UNL A   1      42.763  27.149  30.102  1.00  0.00     0.049 A 
ATOM     52  C   UNL A   1      40.999  30.328  34.369  1.00  0.00     0.074 A 
ATOM     53  C   UNL A   1      43.859  26.340  30.346  1.00  0.00     0.029 A 
ATOM     54  N   UNL A   1      42.461  27.785  31.298  1.00  0.00    -0.354 N 
ATOM     55  N   UNL A   1      41.535  29.543  33.467  1.00  0.00    -0.248 NA
ATOM     56  C   UNL A   1      41.589  30.202  35.708  1.00  0.00     0.031 C 
ATOM     57  C   UNL A   1      44.205  26.468  31.696  1.00  0.00     0.029 A 
ATOM     58  C   UNL A   1      43.343  27.379  32.286  1.00  0.00     0.049 A 
ATOM     59  H   UNL A   1      41.729  28.430  31.425  1.00  0.00     0.167 HD
ATOM     60  C   UNL A   1      42.510  28.815  34.130  1.00  0.00     0.074 A 
ATOM     61  C   UNL A   1      42.516  29.275  35.505  1.00  0.00     0.031 C 
ATOM     62  C   UNL A   1      43.317  27.839  33.648  1.00  0.00     0.037 A 
BRANCH  49  63
ATOM     63  C   UNL A   1      42.475  26.567  27.666  1.00  0.00     0.064 A 
ATOM     64  C   UNL A   1      43.478  27.007  26.793  1.00  0.00     0.173 A 
ATOM     65  C   UNL A   1      41.884  25.318  27.416  1.00  0.00     0.173 A 
ATOM     66  F   UNL A   1      44.060  28.200  26.981  1.00  0.00    -0.203 F 
ATOM     67  C   UNL A   1      43.866  26.230  25.703  1.00  0.00     0.198 A 
ATOM     68  C   UNL A   1      42.289  24.535  26.338  1.00  0.00     0.198 A 
ATOM     69  F   UNL A   1      40.919  24.852  28.224  1.00  0.00    -0.203 F 
ATOM     70  F   UNL A   1      44.804  26.682  24.860  1.00  0.00    -0.200 F 
ATOM     71  C   UNL A   1      43.276  24.993  25.481  1.00  0.00     0.200 A 
ATOM     72  F   UNL A   1      41.723  23.338  26.131  1.00  0.00    -0.200 F 
ATOM     73  F   UNL A   1      43.657  24.245  24.435  1.00  0.00    -0.200 F 
ENDBRANCH  49  63
BRANCH  50  74
ATOM     74  C   UNL A   1      39.381  32.100  35.376  1.00  0.00     0.064 A 
ATOM     75  C   UNL A   1      38.500  31.560  36.321  1.00  0.00     0.173 A 
ATOM     76  C   UNL A   1      39.825  33.417  35.573  1.00  0.00     0.173 A 
ATOM     77  F   UNL A   1      38.023  30.318  36.159  1.00  0.00    -0.203 F 
ATOM     78  C   UNL A   1      38.091  32.303  37.427  1.00  0.00     0.198 A 
ATOM     79  C   UNL A   1      39.441  34.146  36.695  1.00  0.00     0.198 A 
ATOM     80  F   UNL A   1      40.663  33.982  34.692  1.00  0.00    -0.203 F 
ATOM     81  F   UNL A   1      37.229  31.775  38.305  1.00  0.00    -0.200 F 
ATOM     82  C   UNL A   1      38.572  33.590  37.620  1.00  0.00     0.200 A 
ATOM     83  F   UNL A   1      39.924  35.382  36.884  1.00  0.00    -0.200 F 
ATOM     84  F   UNL A   1      38.197  34.295  38.695  1.00  0.00    -0.200 F 
ENDBRANCH  50  74
BRANCH  62  85
ATOM     85  C   UNL A   1      44.266  27.209  34.618  1.00  0.00     0.064 A 
ATOM     86  C   UNL A   1      43.925  26.037  35.306  1.00  0.00     0.173 A 
ATOM     87  C   UNL A   1      45.531  27.768  34.844  1.00  0.00     0.173 A 
ATOM     88  F   UNL A   1      42.717  25.480  35.134  1.00  0.00    -0.203 F 
ATOM     89  C   UNL A   1      44.816  25.452  36.201  1.00  0.00     0.198 A 
ATOM     90  C   UNL A   1      46.426  27.170  35.725  1.00  0.00     0.198 A 
ATOM     91  F   UNL A   1      45.897  28.891  34.207  1.00  0.00    -0.203 F 
ATOM     92  F   UNL A   1      44.459  24.351  36.876  1.00  0.00    -0.200 F 
ATOM     93  C   UNL A   1      46.066  26.016  36.405  1.00  0.00     0.200 A 
ATOM     94  F   UNL A   1      47.636  27.714  35.920  1.00  0.00    -0.200 F 
ATOM     95  F   UNL A   1      46.924  25.451  37.267  1.00  0.00    -0.200 F 
ENDBRANCH  62  85
ENDBRANCH  36  37
ENDBRANCH  29  31
ENDBRANCH  28  29
ENDBRANCH  27  28
ENDBRANCH   1  27
TORSDOF 13
ENDMDL
