MODEL 1
REMARK VINA RESULT:     -10.5      0.000      0.000
REMARK SMILES C[C@H]([NH2+]CCc1ccccc1)[C@@H](C)C(=O)OCCOC(=O)c1ccc(-c2c3nc(c(-c4c(F)c(F)c(F)c(F)c4F)c4ccc([nH]4)c(-c4c(F)c(F)c(F)c(F)c4F)c4nc(c(-c5c(F)c(F)c(F)c(F)c5F)c5ccc2[nH]5)C=C4)C=C3)cc1
REMARK SMILES IDX 16 1 14 2 15 3 12 4 13 5 2 6 1 7 3 8 4 11 5 12 6 13 7 14
REMARK SMILES IDX 11 15 8 16 10 17 9 18 17 19 18 20 19 21 20 22 21 23 22 24
REMARK SMILES IDX 23 25 84 26 24 27 83 28 25 29 26 30 27 31 77 32 28 33 82 34
REMARK SMILES IDX 76 35 78 36 29 37 81 38 75 39 74 40 30 42 62 43 42 44 61 45
REMARK SMILES IDX 43 46 46 47 60 48 79 49 44 50 45 51 59 53 80 54 47 55 31 56
REMARK SMILES IDX 32 57 40 58 33 59 34 60 38 61 41 62 35 63 36 64 39 65 37 66
REMARK SMILES IDX 63 67 64 68 72 69 65 70 66 71 70 72 73 73 67 74 68 75 71 76
REMARK SMILES IDX 69 77 48 78 49 79 57 80 50 81 51 82 55 83 58 84 52 85 53 86
REMARK SMILES IDX 56 87 54 88
REMARK H PARENT 3 9 3 10 78 41 46 52
REMARK Flexibility Score: inf
ROOT
ATOM      1  O   UNL A   1      32.510  28.528  25.009  1.00  0.00    -0.462 OA
ENDROOT
BRANCH   1   2
ATOM      2  C   UNL A   1      33.464  27.567  25.104  1.00  0.00     0.314 C 
ATOM      3  O   UNL A   1      34.114  27.325  26.116  1.00  0.00    -0.252 OA
BRANCH   2   4
ATOM      4  C   UNL A   1      33.709  26.827  23.799  1.00  0.00     0.154 C 
ATOM      5  C   UNL A   1      33.628  27.876  22.685  1.00  0.00     0.026 C 
BRANCH   4   6
ATOM      6  C   UNL A   1      32.786  25.609  23.556  1.00  0.00     0.193 C 
ATOM      7  C   UNL A   1      32.610  25.248  22.074  1.00  0.00     0.076 C 
BRANCH   6   8
ATOM      8  N   UNL A   1      31.452  25.721  24.165  1.00  0.00    -0.343 N 
ATOM      9  H   UNL A   1      31.472  26.515  24.806  1.00  0.00     0.346 HD
ATOM     10  H   UNL A   1      31.285  24.817  24.607  1.00  0.00     0.346 HD
BRANCH   8  11
ATOM     11  C   UNL A   1      30.316  25.915  23.255  1.00  0.00     0.265 C 
BRANCH  11  12
ATOM     12  C   UNL A   1      29.246  26.837  23.876  1.00  0.00     0.097 C 
BRANCH  12  13
ATOM     13  C   UNL A   1      29.063  28.143  23.135  1.00  0.00    -0.042 A 
ATOM     14  C   UNL A   1      30.138  28.758  22.485  1.00  0.00     0.004 A 
ATOM     15  C   UNL A   1      27.811  28.776  23.129  1.00  0.00     0.004 A 
ATOM     16  C   UNL A   1      29.966  29.996  21.859  1.00  0.00     0.000 A 
ATOM     17  C   UNL A   1      27.645  30.019  22.522  1.00  0.00     0.000 A 
ATOM     18  C   UNL A   1      28.724  30.630  21.888  1.00  0.00     0.000 A 
ENDBRANCH  12  13
ENDBRANCH  11  12
ENDBRANCH   8  11
ENDBRANCH   6   8
ENDBRANCH   4   6
ENDBRANCH   2   4
ENDBRANCH   1   2
BRANCH   1  19
ATOM     19  C   UNL A   1      31.764  28.787  26.217  1.00  0.00     0.274 C 
BRANCH  19  20
ATOM     20  C   UNL A   1      31.740  30.284  26.524  1.00  0.00     0.275 C 
BRANCH  20  21
ATOM     21  O   UNL A   1      33.038  30.847  26.266  1.00  0.00    -0.458 OA
BRANCH  21  22
ATOM     22  C   UNL A   1      33.454  31.789  27.141  1.00  0.00     0.338 C 
ATOM     23  O   UNL A   1      32.913  32.849  27.399  1.00  0.00    -0.246 OA
BRANCH  22  24
ATOM     24  C   UNL A   1      34.715  31.353  27.770  1.00  0.00     0.060 A 
ATOM     25  C   UNL A   1      34.907  30.021  28.150  1.00  0.00     0.016 A 
ATOM     26  C   UNL A   1      35.682  32.312  28.073  1.00  0.00     0.016 A 
ATOM     27  C   UNL A   1      36.037  29.656  28.879  1.00  0.00     0.010 A 
ATOM     28  C   UNL A   1      36.845  31.934  28.746  1.00  0.00     0.010 A 
ATOM     29  C   UNL A   1      37.019  30.608  29.182  1.00  0.00    -0.014 A 
BRANCH  29  30
ATOM     30  C   UNL A   1      38.209  30.236  29.987  1.00  0.00     0.031 A 
ATOM     31  C   UNL A   1      39.239  29.302  29.414  1.00  0.00     0.074 A 
ATOM     32  C   UNL A   1      38.365  30.729  31.228  1.00  0.00     0.049 A 
ATOM     33  N   UNL A   1      40.279  28.756  29.995  1.00  0.00    -0.248 NA
ATOM     34  C   UNL A   1      39.072  28.923  28.003  1.00  0.00     0.031 C 
ATOM     35  C   UNL A   1      37.454  31.666  31.887  1.00  0.00     0.029 A 
ATOM     36  N   UNL A   1      39.348  30.507  32.161  1.00  0.00    -0.354 N 
ATOM     37  C   UNL A   1      40.867  27.945  29.033  1.00  0.00     0.074 A 
ATOM     38  C   UNL A   1      40.065  28.061  27.834  1.00  0.00     0.031 C 
ATOM     39  C   UNL A   1      37.927  31.950  33.110  1.00  0.00     0.029 A 
ATOM     40  C   UNL A   1      39.143  31.175  33.342  1.00  0.00     0.049 A 
ATOM     41  H   UNL A   1      40.124  29.923  31.999  1.00  0.00     0.167 HD
ATOM     42  C   UNL A   1      41.976  27.175  29.144  1.00  0.00     0.037 A 
ATOM     43  C   UNL A   1      39.842  31.146  34.492  1.00  0.00     0.037 A 
ATOM     44  C   UNL A   1      42.790  27.083  30.327  1.00  0.00     0.049 A 
ATOM     45  C   UNL A   1      41.061  30.273  34.592  1.00  0.00     0.074 A 
ATOM     46  C   UNL A   1      43.935  26.334  30.534  1.00  0.00     0.029 A 
ATOM     47  N   UNL A   1      42.547  27.774  31.505  1.00  0.00    -0.354 N 
ATOM     48  N   UNL A   1      41.593  29.488  33.687  1.00  0.00    -0.248 NA
ATOM     49  C   UNL A   1      41.773  30.278  35.877  1.00  0.00     0.031 C 
ATOM     50  C   UNL A   1      44.372  26.553  31.847  1.00  0.00     0.029 A 
ATOM     51  C   UNL A   1      43.518  27.466  32.444  1.00  0.00     0.049 A 
ATOM     52  H   UNL A   1      41.796  28.393  31.652  1.00  0.00     0.167 HD
ATOM     53  C   UNL A   1      42.707  28.917  34.285  1.00  0.00     0.074 A 
ATOM     54  C   UNL A   1      42.787  29.460  35.625  1.00  0.00     0.031 C 
ATOM     55  C   UNL A   1      43.581  28.017  33.772  1.00  0.00     0.037 A 
BRANCH  42  56
ATOM     56  C   UNL A   1      42.361  26.347  27.953  1.00  0.00     0.064 A 
ATOM     57  C   UNL A   1      41.800  25.084  27.720  1.00  0.00     0.173 A 
ATOM     58  C   UNL A   1      43.283  26.841  27.017  1.00  0.00     0.173 A 
ATOM     59  F   UNL A   1      40.926  24.562  28.594  1.00  0.00    -0.203 F 
ATOM     60  C   UNL A   1      42.163  24.335  26.603  1.00  0.00     0.198 A 
ATOM     61  C   UNL A   1      43.627  26.100  25.890  1.00  0.00     0.198 A 
ATOM     62  F   UNL A   1      43.846  28.046  27.194  1.00  0.00    -0.203 F 
ATOM     63  F   UNL A   1      41.644  23.113  26.419  1.00  0.00    -0.200 F 
ATOM     64  C   UNL A   1      43.070  24.845  25.687  1.00  0.00     0.200 A 
ATOM     65  F   UNL A   1      44.496  26.599  25.001  1.00  0.00    -0.200 F 
ATOM     66  F   UNL A   1      43.416  24.125  24.610  1.00  0.00    -0.200 F 
ENDBRANCH  42  56
BRANCH  43  67
ATOM     67  C   UNL A   1      39.398  31.969  35.645  1.00  0.00     0.064 A 
ATOM     68  C   UNL A   1      39.889  33.267  35.832  1.00  0.00     0.173 A 
ATOM     69  C   UNL A   1      38.470  31.478  36.575  1.00  0.00     0.173 A 
ATOM     70  F   UNL A   1      40.796  33.769  34.982  1.00  0.00    -0.203 F 
ATOM     71  C   UNL A   1      39.475  34.043  36.914  1.00  0.00     0.198 A 
ATOM     72  C   UNL A   1      38.038  32.262  37.641  1.00  0.00     0.198 A 
ATOM     73  F   UNL A   1      37.972  30.241  36.438  1.00  0.00    -0.203 F 
ATOM     74  F   UNL A   1      39.986  35.268  37.091  1.00  0.00    -0.200 F 
ATOM     75  C   UNL A   1      38.544  33.542  37.812  1.00  0.00     0.200 A 
ATOM     76  F   UNL A   1      37.130  31.780  38.501  1.00  0.00    -0.200 F 
ATOM     77  F   UNL A   1      38.142  34.290  38.848  1.00  0.00    -0.200 F 
ENDBRANCH  43  67
BRANCH  55  78
ATOM     78  C   UNL A   1      44.713  27.590  34.659  1.00  0.00     0.064 A 
ATOM     79  C   UNL A   1      45.926  28.292  34.687  1.00  0.00     0.173 A 
ATOM     80  C   UNL A   1      44.576  26.473  35.496  1.00  0.00     0.173 A 
ATOM     81  F   UNL A   1      46.109  29.357  33.891  1.00  0.00    -0.203 F 
ATOM     82  C   UNL A   1      46.974  27.874  35.502  1.00  0.00     0.198 A 
ATOM     83  C   UNL A   1      45.617  26.072  36.328  1.00  0.00     0.198 A 
ATOM     84  F   UNL A   1      43.433  25.772  35.507  1.00  0.00    -0.203 F 
ATOM     85  F   UNL A   1      48.141  28.530  35.479  1.00  0.00    -0.200 F 
ATOM     86  C   UNL A   1      46.817  26.766  36.324  1.00  0.00     0.200 A 
ATOM     87  F   UNL A   1      45.464  25.007  37.126  1.00  0.00    -0.200 F 
ATOM     88  F   UNL A   1      47.829  26.364  37.105  1.00  0.00    -0.200 F 
ENDBRANCH  55  78
ENDBRANCH  29  30
ENDBRANCH  22  24
ENDBRANCH  21  22
ENDBRANCH  20  21
ENDBRANCH  19  20
ENDBRANCH   1  19
TORSDOF 16
ENDMDL
MODEL 2
REMARK VINA RESULT:     -10.4      2.995      8.961
REMARK SMILES C[C@H]([NH2+]CCc1ccccc1)[C@@H](C)C(=O)OCCOC(=O)c1ccc(-c2c3nc(c(-c4c(F)c(F)c(F)c(F)c4F)c4ccc([nH]4)c(-c4c(F)c(F)c(F)c(F)c4F)c4nc(c(-c5c(F)c(F)c(F)c(F)c5F)c5ccc2[nH]5)C=C4)C=C3)cc1
REMARK SMILES IDX 16 1 14 2 15 3 12 4 13 5 2 6 1 7 3 8 4 11 5 12 6 13 7 14
REMARK SMILES IDX 11 15 8 16 10 17 9 18 17 19 18 20 19 21 20 22 21 23 22 24
REMARK SMILES IDX 23 25 84 26 24 27 83 28 25 29 26 30 27 31 77 32 28 33 82 34
REMARK SMILES IDX 76 35 78 36 29 37 81 38 75 39 74 40 30 42 62 43 42 44 61 45
REMARK SMILES IDX 43 46 46 47 60 48 79 49 44 50 45 51 59 53 80 54 47 55 31 56
REMARK SMILES IDX 32 57 40 58 33 59 34 60 38 61 41 62 35 63 36 64 39 65 37 66
REMARK SMILES IDX 63 67 64 68 72 69 65 70 66 71 70 72 73 73 67 74 68 75 71 76
REMARK SMILES IDX 69 77 48 78 49 79 57 80 50 81 51 82 55 83 58 84 52 85 53 86
REMARK SMILES IDX 56 87 54 88
REMARK H PARENT 3 9 3 10 78 41 46 52
REMARK Flexibility Score: inf
ROOT
ATOM      1  O   UNL A   1      32.912  34.639  28.577  1.00  0.00    -0.462 OA
ENDROOT
BRANCH   1   2
ATOM      2  C   UNL A   1      34.145  34.186  28.233  1.00  0.00     0.314 C 
ATOM      3  O   UNL A   1      34.776  34.556  27.248  1.00  0.00    -0.252 OA
BRANCH   2   4
ATOM      4  C   UNL A   1      34.674  33.108  29.164  1.00  0.00     0.154 C 
ATOM      5  C   UNL A   1      35.872  33.720  29.897  1.00  0.00     0.026 C 
BRANCH   4   6
ATOM      6  C   UNL A   1      35.004  31.760  28.480  1.00  0.00     0.193 C 
ATOM      7  C   UNL A   1      36.495  31.570  28.166  1.00  0.00     0.076 C 
BRANCH   6   8
ATOM      8  N   UNL A   1      34.237  31.492  27.253  1.00  0.00    -0.343 N 
ATOM      9  H   UNL A   1      34.907  31.304  26.507  1.00  0.00     0.346 HD
ATOM     10  H   UNL A   1      33.660  32.321  27.114  1.00  0.00     0.346 HD
BRANCH   8  11
ATOM     11  C   UNL A   1      33.290  30.371  27.289  1.00  0.00     0.265 C 
BRANCH  11  12
ATOM     12  C   UNL A   1      34.019  29.012  27.219  1.00  0.00     0.097 C 
BRANCH  12  13
ATOM     13  C   UNL A   1      33.168  27.893  26.664  1.00  0.00    -0.042 A 
ATOM     14  C   UNL A   1      31.789  27.855  26.894  1.00  0.00     0.004 A 
ATOM     15  C   UNL A   1      33.767  26.849  25.942  1.00  0.00     0.004 A 
ATOM     16  C   UNL A   1      31.027  26.780  26.427  1.00  0.00     0.000 A 
ATOM     17  C   UNL A   1      33.010  25.768  25.496  1.00  0.00     0.000 A 
ATOM     18  C   UNL A   1      31.640  25.733  25.740  1.00  0.00     0.000 A 
ENDBRANCH  12  13
ENDBRANCH  11  12
ENDBRANCH   8  11
ENDBRANCH   6   8
ENDBRANCH   4   6
ENDBRANCH   2   4
ENDBRANCH   1   2
BRANCH   1  19
ATOM     19  C   UNL A   1      32.784  36.073  28.686  1.00  0.00     0.274 C 
BRANCH  19  20
ATOM     20  C   UNL A   1      32.990  36.523  30.132  1.00  0.00     0.275 C 
BRANCH  20  21
ATOM     21  O   UNL A   1      32.442  35.537  31.024  1.00  0.00    -0.458 OA
BRANCH  21  22
ATOM     22  C   UNL A   1      32.572  35.802  32.343  1.00  0.00     0.338 C 
ATOM     23  O   UNL A   1      31.849  36.499  33.032  1.00  0.00    -0.246 OA
BRANCH  22  24
ATOM     24  C   UNL A   1      33.765  35.111  32.867  1.00  0.00     0.060 A 
ATOM     25  C   UNL A   1      35.011  35.745  32.892  1.00  0.00     0.016 A 
ATOM     26  C   UNL A   1      33.653  33.773  33.249  1.00  0.00     0.016 A 
ATOM     27  C   UNL A   1      36.154  35.030  33.247  1.00  0.00     0.010 A 
ATOM     28  C   UNL A   1      34.788  33.076  33.667  1.00  0.00     0.010 A 
ATOM     29  C   UNL A   1      36.053  33.689  33.640  1.00  0.00    -0.014 A 
BRANCH  29  30
ATOM     30  C   UNL A   1      37.269  32.911  33.986  1.00  0.00     0.031 A 
ATOM     31  C   UNL A   1      37.977  33.166  35.288  1.00  0.00     0.074 A 
ATOM     32  C   UNL A   1      37.740  31.982  33.136  1.00  0.00     0.049 A 
ATOM     33  N   UNL A   1      39.117  32.688  35.721  1.00  0.00    -0.248 NA
ATOM     34  C   UNL A   1      37.320  34.090  36.225  1.00  0.00     0.031 C 
ATOM     35  C   UNL A   1      37.130  31.620  31.857  1.00  0.00     0.029 A 
ATOM     36  N   UNL A   1      38.847  31.174  33.218  1.00  0.00    -0.354 N 
ATOM     37  C   UNL A   1      39.330  33.278  36.959  1.00  0.00     0.074 A 
ATOM     38  C   UNL A   1      38.207  34.157  37.208  1.00  0.00     0.031 C 
ATOM     39  C   UNL A   1      37.860  30.652  31.281  1.00  0.00     0.029 A 
ATOM     40  C   UNL A   1      39.017  30.365  32.124  1.00  0.00     0.049 A 
ATOM     41  H   UNL A   1      39.460  31.176  33.989  1.00  0.00     0.167 HD
ATOM     42  C   UNL A   1      40.369  33.100  37.811  1.00  0.00     0.037 A 
ATOM     43  C   UNL A   1      40.009  29.507  31.820  1.00  0.00     0.037 A 
ATOM     44  C   UNL A   1      41.470  32.204  37.577  1.00  0.00     0.049 A 
ATOM     45  C   UNL A   1      41.156  29.339  32.777  1.00  0.00     0.074 A 
ATOM     46  C   UNL A   1      42.567  31.951  38.383  1.00  0.00     0.029 A 
ATOM     47  N   UNL A   1      41.608  31.402  36.453  1.00  0.00    -0.354 N 
ATOM     48  N   UNL A   1      41.363  29.922  33.931  1.00  0.00    -0.248 NA
ATOM     49  C   UNL A   1      42.212  28.396  32.382  1.00  0.00     0.031 C 
ATOM     50  C   UNL A   1      43.382  31.015  37.733  1.00  0.00     0.029 A 
ATOM     51  C   UNL A   1      42.773  30.659  36.541  1.00  0.00     0.049 A 
ATOM     52  H   UNL A   1      40.970  31.367  35.703  1.00  0.00     0.167 HD
ATOM     53  C   UNL A   1      42.561  29.410  34.409  1.00  0.00     0.074 A 
ATOM     54  C   UNL A   1      43.027  28.453  33.427  1.00  0.00     0.031 C 
ATOM     55  C   UNL A   1      43.219  29.711  35.554  1.00  0.00     0.037 A 
BRANCH  42  56
ATOM     56  C   UNL A   1      40.374  33.916  39.070  1.00  0.00     0.064 A 
ATOM     57  C   UNL A   1      39.729  33.479  40.235  1.00  0.00     0.173 A 
ATOM     58  C   UNL A   1      41.062  35.139  39.117  1.00  0.00     0.173 A 
ATOM     59  F   UNL A   1      39.045  32.325  40.235  1.00  0.00    -0.203 F 
ATOM     60  C   UNL A   1      39.754  34.246  41.397  1.00  0.00     0.198 A 
ATOM     61  C   UNL A   1      41.104  35.892  40.287  1.00  0.00     0.198 A 
ATOM     62  F   UNL A   1      41.698  35.599  38.030  1.00  0.00    -0.203 F 
ATOM     63  F   UNL A   1      39.097  33.828  42.489  1.00  0.00    -0.200 F 
ATOM     64  C   UNL A   1      40.446  35.447  41.425  1.00  0.00     0.200 A 
ATOM     65  F   UNL A   1      41.782  37.048  40.315  1.00  0.00    -0.200 F 
ATOM     66  F   UNL A   1      40.472  36.182  42.546  1.00  0.00    -0.200 F 
ENDBRANCH  42  56
BRANCH  43  67
ATOM     67  C   UNL A   1      39.961  28.746  30.547  1.00  0.00     0.064 A 
ATOM     68  C   UNL A   1      39.322  27.501  30.478  1.00  0.00     0.173 A 
ATOM     69  C   UNL A   1      40.544  29.250  29.375  1.00  0.00     0.173 A 
ATOM     70  F   UNL A   1      38.773  26.969  31.579  1.00  0.00    -0.203 F 
ATOM     71  C   UNL A   1      39.276  26.783  29.283  1.00  0.00     0.198 A 
ATOM     72  C   UNL A   1      40.475  28.544  28.177  1.00  0.00     0.198 A 
ATOM     73  F   UNL A   1      41.167  30.437  29.392  1.00  0.00    -0.203 F 
ATOM     74  F   UNL A   1      38.690  25.578  29.252  1.00  0.00    -0.200 F 
ATOM     75  C   UNL A   1      39.845  27.309  28.134  1.00  0.00     0.200 A 
ATOM     76  F   UNL A   1      41.017  29.059  27.065  1.00  0.00    -0.200 F 
ATOM     77  F   UNL A   1      39.794  26.621  26.985  1.00  0.00    -0.200 F 
ENDBRANCH  43  67
BRANCH  55  78
ATOM     78  C   UNL A   1      44.499  28.973  35.814  1.00  0.00     0.064 A 
ATOM     79  C   UNL A   1      44.515  27.759  36.514  1.00  0.00     0.173 A 
ATOM     80  C   UNL A   1      45.720  29.484  35.349  1.00  0.00     0.173 A 
ATOM     81  F   UNL A   1      43.373  27.240  36.993  1.00  0.00    -0.203 F 
ATOM     82  C   UNL A   1      45.712  27.093  36.763  1.00  0.00     0.198 A 
ATOM     83  C   UNL A   1      46.912  28.804  35.579  1.00  0.00     0.198 A 
ATOM     84  F   UNL A   1      45.755  30.641  34.672  1.00  0.00    -0.203 F 
ATOM     85  F   UNL A   1      45.710  25.959  37.475  1.00  0.00    -0.200 F 
ATOM     86  C   UNL A   1      46.909  27.615  36.293  1.00  0.00     0.200 A 
ATOM     87  F   UNL A   1      48.067  29.304  35.119  1.00  0.00    -0.200 F 
ATOM     88  F   UNL A   1      48.060  26.975  36.538  1.00  0.00    -0.200 F 
ENDBRANCH  55  78
ENDBRANCH  29  30
ENDBRANCH  22  24
ENDBRANCH  21  22
ENDBRANCH  20  21
ENDBRANCH  19  20
ENDBRANCH   1  19
TORSDOF 16
ENDMDL
MODEL 3
REMARK VINA RESULT:     -10.3      2.913      8.872
REMARK SMILES C[C@H]([NH2+]CCc1ccccc1)[C@@H](C)C(=O)OCCOC(=O)c1ccc(-c2c3nc(c(-c4c(F)c(F)c(F)c(F)c4F)c4ccc([nH]4)c(-c4c(F)c(F)c(F)c(F)c4F)c4nc(c(-c5c(F)c(F)c(F)c(F)c5F)c5ccc2[nH]5)C=C4)C=C3)cc1
REMARK SMILES IDX 16 1 14 2 15 3 12 4 13 5 2 6 1 7 3 8 4 11 5 12 6 13 7 14
REMARK SMILES IDX 11 15 8 16 10 17 9 18 17 19 18 20 19 21 20 22 21 23 22 24
REMARK SMILES IDX 23 25 84 26 24 27 83 28 25 29 26 30 27 31 77 32 28 33 82 34
REMARK SMILES IDX 76 35 78 36 29 37 81 38 75 39 74 40 30 42 62 43 42 44 61 45
REMARK SMILES IDX 43 46 46 47 60 48 79 49 44 50 45 51 59 53 80 54 47 55 31 56
REMARK SMILES IDX 32 57 40 58 33 59 34 60 38 61 41 62 35 63 36 64 39 65 37 66
REMARK SMILES IDX 63 67 64 68 72 69 65 70 66 71 70 72 73 73 67 74 68 75 71 76
REMARK SMILES IDX 69 77 48 78 49 79 57 80 50 81 51 82 55 83 58 84 52 85 53 86
REMARK SMILES IDX 56 87 54 88
REMARK H PARENT 3 9 3 10 78 41 46 52
REMARK Flexibility Score: inf
ROOT
ATOM      1  O   UNL A   1      32.895  34.604  28.539  1.00  0.00    -0.462 OA
ENDROOT
BRANCH   1   2
ATOM      2  C   UNL A   1      34.119  34.128  28.195  1.00  0.00     0.314 C 
ATOM      3  O   UNL A   1      34.747  34.467  27.197  1.00  0.00    -0.252 OA
BRANCH   2   4
ATOM      4  C   UNL A   1      34.644  33.066  29.147  1.00  0.00     0.154 C 
ATOM      5  C   UNL A   1      35.777  33.720  29.943  1.00  0.00     0.026 C 
BRANCH   4   6
ATOM      6  C   UNL A   1      35.062  31.736  28.475  1.00  0.00     0.193 C 
ATOM      7  C   UNL A   1      36.566  31.634  28.180  1.00  0.00     0.076 C 
BRANCH   6   8
ATOM      8  N   UNL A   1      34.328  31.417  27.240  1.00  0.00    -0.343 N 
ATOM      9  H   UNL A   1      35.017  31.191  26.522  1.00  0.00     0.346 HD
ATOM     10  H   UNL A   1      33.762  32.244  27.047  1.00  0.00     0.346 HD
BRANCH   8  11
ATOM     11  C   UNL A   1      33.370  30.306  27.301  1.00  0.00     0.265 C 
BRANCH  11  12
ATOM     12  C   UNL A   1      34.087  28.940  27.274  1.00  0.00     0.097 C 
BRANCH  12  13
ATOM     13  C   UNL A   1      33.876  28.166  25.993  1.00  0.00    -0.042 A 
ATOM     14  C   UNL A   1      33.752  28.827  24.765  1.00  0.00     0.004 A 
ATOM     15  C   UNL A   1      33.757  26.769  26.029  1.00  0.00     0.004 A 
ATOM     16  C   UNL A   1      33.494  28.100  23.599  1.00  0.00     0.000 A 
ATOM     17  C   UNL A   1      33.479  26.048  24.870  1.00  0.00     0.000 A 
ATOM     18  C   UNL A   1      33.346  26.715  23.654  1.00  0.00     0.000 A 
ENDBRANCH  12  13
ENDBRANCH  11  12
ENDBRANCH   8  11
ENDBRANCH   6   8
ENDBRANCH   4   6
ENDBRANCH   2   4
ENDBRANCH   1   2
BRANCH   1  19
ATOM     19  C   UNL A   1      32.807  36.035  28.704  1.00  0.00     0.274 C 
BRANCH  19  20
ATOM     20  C   UNL A   1      33.135  36.432  30.143  1.00  0.00     0.275 C 
BRANCH  20  21
ATOM     21  O   UNL A   1      32.510  35.506  31.049  1.00  0.00    -0.458 OA
BRANCH  21  22
ATOM     22  C   UNL A   1      32.654  35.784  32.364  1.00  0.00     0.338 C 
ATOM     23  O   UNL A   1      31.941  36.490  33.053  1.00  0.00    -0.246 OA
BRANCH  22  24
ATOM     24  C   UNL A   1      33.851  35.095  32.883  1.00  0.00     0.060 A 
ATOM     25  C   UNL A   1      35.082  35.753  32.965  1.00  0.00     0.016 A 
ATOM     26  C   UNL A   1      33.761  33.740  33.202  1.00  0.00     0.016 A 
ATOM     27  C   UNL A   1      36.232  35.048  33.313  1.00  0.00     0.010 A 
ATOM     28  C   UNL A   1      34.902  33.048  33.613  1.00  0.00     0.010 A 
ATOM     29  C   UNL A   1      36.153  33.689  33.642  1.00  0.00    -0.014 A 
BRANCH  29  30
ATOM     30  C   UNL A   1      37.378  32.921  33.980  1.00  0.00     0.031 A 
ATOM     31  C   UNL A   1      38.077  33.163  35.289  1.00  0.00     0.074 A 
ATOM     32  C   UNL A   1      37.866  32.014  33.115  1.00  0.00     0.049 A 
ATOM     33  N   UNL A   1      39.222  32.692  35.718  1.00  0.00    -0.248 NA
ATOM     34  C   UNL A   1      37.403  34.061  36.239  1.00  0.00     0.031 C 
ATOM     35  C   UNL A   1      37.265  31.666  31.827  1.00  0.00     0.029 A 
ATOM     36  N   UNL A   1      38.983  31.219  33.188  1.00  0.00    -0.354 N 
ATOM     37  C   UNL A   1      39.421  33.264  36.968  1.00  0.00     0.074 A 
ATOM     38  C   UNL A   1      38.286  34.123  37.227  1.00  0.00     0.031 C 
ATOM     39  C   UNL A   1      38.011  30.718  31.238  1.00  0.00     0.029 A 
ATOM     40  C   UNL A   1      39.169  30.432  32.081  1.00  0.00     0.049 A 
ATOM     41  H   UNL A   1      39.592  31.216  33.962  1.00  0.00     0.167 HD
ATOM     42  C   UNL A   1      40.459  33.086  37.821  1.00  0.00     0.037 A 
ATOM     43  C   UNL A   1      40.174  29.594  31.766  1.00  0.00     0.037 A 
ATOM     44  C   UNL A   1      41.573  32.208  37.576  1.00  0.00     0.049 A 
ATOM     45  C   UNL A   1      41.320  29.424  32.725  1.00  0.00     0.074 A 
ATOM     46  C   UNL A   1      42.670  31.957  38.382  1.00  0.00     0.029 A 
ATOM     47  N   UNL A   1      41.727  31.429  36.439  1.00  0.00    -0.354 N 
ATOM     48  N   UNL A   1      41.513  29.990  33.891  1.00  0.00    -0.248 NA
ATOM     49  C   UNL A   1      42.390  28.503  32.318  1.00  0.00     0.031 C 
ATOM     50  C   UNL A   1      43.501  31.044  37.720  1.00  0.00     0.029 A 
ATOM     51  C   UNL A   1      42.902  30.700  36.519  1.00  0.00     0.049 A 
ATOM     52  H   UNL A   1      41.093  31.398  35.685  1.00  0.00     0.167 HD
ATOM     53  C   UNL A   1      42.716  29.486  34.364  1.00  0.00     0.074 A 
ATOM     54  C   UNL A   1      43.199  28.553  33.368  1.00  0.00     0.031 C 
ATOM     55  C   UNL A   1      43.366  29.776  35.518  1.00  0.00     0.037 A 
BRANCH  42  56
ATOM     56  C   UNL A   1      40.448  33.878  39.094  1.00  0.00     0.064 A 
ATOM     57  C   UNL A   1      41.084  35.123  39.194  1.00  0.00     0.173 A 
ATOM     58  C   UNL A   1      39.764  33.396  40.221  1.00  0.00     0.173 A 
ATOM     59  F   UNL A   1      41.764  35.619  38.150  1.00  0.00    -0.203 F 
ATOM     60  C   UNL A   1      41.054  35.849  40.383  1.00  0.00     0.198 A 
ATOM     61  C   UNL A   1      39.716  34.134  41.400  1.00  0.00     0.198 A 
ATOM     62  F   UNL A   1      39.137  32.211  40.176  1.00  0.00    -0.203 F 
ATOM     63  F   UNL A   1      41.701  37.019  40.470  1.00  0.00    -0.200 F 
ATOM     64  C   UNL A   1      40.365  35.357  41.482  1.00  0.00     0.200 A 
ATOM     65  F   UNL A   1      39.043  33.661  42.459  1.00  0.00    -0.200 F 
ATOM     66  F   UNL A   1      40.334  36.058  42.624  1.00  0.00    -0.200 F 
ENDBRANCH  42  56
BRANCH  43  67
ATOM     67  C   UNL A   1      40.142  28.855  30.480  1.00  0.00     0.064 A 
ATOM     68  C   UNL A   1      40.761  29.376  29.336  1.00  0.00     0.173 A 
ATOM     69  C   UNL A   1      39.501  27.613  30.369  1.00  0.00     0.173 A 
ATOM     70  F   UNL A   1      41.365  30.573  29.389  1.00  0.00    -0.203 F 
ATOM     71  C   UNL A   1      40.733  28.686  28.126  1.00  0.00     0.198 A 
ATOM     72  C   UNL A   1      39.494  26.912  29.166  1.00  0.00     0.198 A 
ATOM     73  F   UNL A   1      38.894  27.073  31.436  1.00  0.00    -0.203 F 
ATOM     74  F   UNL A   1      41.301  29.223  27.038  1.00  0.00    -0.200 F 
ATOM     75  C   UNL A   1      40.106  27.452  28.044  1.00  0.00     0.200 A 
ATOM     76  F   UNL A   1      38.897  25.714  29.092  1.00  0.00    -0.200 F 
ATOM     77  F   UNL A   1      40.084  26.786  26.882  1.00  0.00    -0.200 F 
ENDBRANCH  43  67
BRANCH  55  78
ATOM     78  C   UNL A   1      44.654  29.051  35.770  1.00  0.00     0.064 A 
ATOM     79  C   UNL A   1      45.884  29.579  35.356  1.00  0.00     0.173 A 
ATOM     80  C   UNL A   1      44.656  27.820  36.442  1.00  0.00     0.173 A 
ATOM     81  F   UNL A   1      45.930  30.746  34.694  1.00  0.00    -0.203 F 
ATOM     82  C   UNL A   1      47.071  28.888  35.582  1.00  0.00     0.198 A 
ATOM     83  C   UNL A   1      45.847  27.142  36.688  1.00  0.00     0.198 A 
ATOM     84  F   UNL A   1      43.504  27.276  36.861  1.00  0.00    -0.203 F 
ATOM     85  F   UNL A   1      48.231  29.388  35.136  1.00  0.00    -0.200 F 
ATOM     86  C   UNL A   1      47.052  27.672  36.250  1.00  0.00     0.200 A 
ATOM     87  F   UNL A   1      45.828  25.971  37.339  1.00  0.00    -0.200 F 
ATOM     88  F   UNL A   1      48.195  27.006  36.463  1.00  0.00    -0.200 F 
ENDBRANCH  55  78
ENDBRANCH  29  30
ENDBRANCH  22  24
ENDBRANCH  21  22
ENDBRANCH  20  21
ENDBRANCH  19  20
ENDBRANCH   1  19
TORSDOF 16
ENDMDL
