MODEL 1
REMARK VINA RESULT:     -13.6      0.000      0.000
REMARK SMILES CC(=O)Nc1cc(NC(C)=O)cc(C(=O)Nc2ccc(Br)cc2C(=O)OCCOC(=O)c2ccc(-c3c4nc(c(-c5c(F)c(F)c(F)c(F)c5F)c5ccc([nH]5)c(-c5c(F)c(F)c(F)c(F)c5F)c5nc(c(-c6c(F)c(F)c(F)c(F)c6F)c6ccc3[nH]6)C=C5)C=C4)cc2)c1
REMARK SMILES IDX 27 1 26 2 24 3 25 4 23 5 17 6 18 7 19 8 22 9 20 10 21 11
REMARK SMILES IDX 16 12 14 13 15 14 13 16 5 17 6 18 95 19 7 20 12 21 4 22 1 23
REMARK SMILES IDX 2 24 3 25 8 27 9 28 10 30 11 31 28 32 29 33 30 34 31 35
REMARK SMILES IDX 32 36 33 37 94 38 34 39 93 40 35 41 36 42 37 43 87 44 38 45
REMARK SMILES IDX 92 46 86 47 88 48 39 49 91 50 85 51 84 52 40 54 72 55 52 56
REMARK SMILES IDX 71 57 53 58 56 59 70 60 89 61 54 62 55 63 69 65 90 66 57 67
REMARK SMILES IDX 41 68 42 69 50 70 43 71 44 72 48 73 51 74 45 75 46 76 49 77
REMARK SMILES IDX 47 78 73 79 74 80 82 81 75 82 76 83 80 84 83 85 77 86 78 87
REMARK SMILES IDX 81 88 79 89 58 90 59 91 67 92 60 93 61 94 65 95 68 96 62 97
REMARK SMILES IDX 63 98 66 99 64 100
REMARK H PARENT 16 15 4 26 8 29 88 53 56 64
REMARK Flexibility Score: inf
ROOT
ATOM      1  C   UNL A   1      36.833  22.204  23.725  1.00  0.00     0.275 C 
ENDROOT
BRANCH   1   2
ATOM      2  O   UNL A   1      36.310  23.351  24.431  1.00  0.00    -0.458 OA
BRANCH   2   3
ATOM      3  C   UNL A   1      35.218  23.068  25.175  1.00  0.00     0.340 C 
ATOM      4  O   UNL A   1      35.101  23.292  26.365  1.00  0.00    -0.246 OA
BRANCH   3   5
ATOM      5  C   UNL A   1      34.135  22.426  24.410  1.00  0.00     0.084 A 
ATOM      6  C   UNL A   1      33.529  23.008  23.288  1.00  0.00     0.056 A 
ATOM      7  C   UNL A   1      32.492  22.306  22.645  1.00  0.00     0.028 A 
ATOM      8  C   UNL A   1      32.175  20.992  23.005  1.00  0.00     0.018 A 
ATOM      9  C   UNL A   1      33.783  21.118  24.788  1.00  0.00     0.033 A 
ATOM     10  C   UNL A   1      32.843  20.394  24.063  1.00  0.00     0.018 A 
ATOM     11  Br  UNL A   1      32.528  18.580  24.485  1.00  0.00    -0.051 Br
BRANCH   6  12
ATOM     12  N   UNL A   1      33.888  24.231  22.686  1.00  0.00    -0.321 N 
ATOM     13  C   UNL A   1      33.214  25.425  22.518  1.00  0.00     0.255 C 
ATOM     14  O   UNL A   1      33.647  26.234  21.697  1.00  0.00    -0.269 OA
ATOM     15  H   UNL A   1      34.799  24.236  22.311  1.00  0.00     0.170 HD
BRANCH  13  16
ATOM     16  C   UNL A   1      32.033  25.816  23.344  1.00  0.00     0.044 A 
ATOM     17  C   UNL A   1      30.493  25.414  25.164  1.00  0.00     0.044 A 
ATOM     18  C   UNL A   1      29.627  26.370  24.609  1.00  0.00     0.052 A 
ATOM     19  C   UNL A   1      31.743  25.217  24.580  1.00  0.00     0.040 A 
ATOM     20  C   UNL A   1      29.961  27.085  23.457  1.00  0.00     0.044 A 
ATOM     21  C   UNL A   1      31.165  26.787  22.816  1.00  0.00     0.040 A 
BRANCH  17  22
ATOM     22  N   UNL A   1      29.926  24.589  26.156  1.00  0.00    -0.326 N 
ATOM     23  C   UNL A   1      31.852  23.323  27.097  1.00  0.00     0.114 C 
ATOM     24  C   UNL A   1      30.385  23.531  26.876  1.00  0.00     0.221 C 
ATOM     25  O   UNL A   1      29.561  22.762  27.380  1.00  0.00    -0.275 OA
ATOM     26  H   UNL A   1      28.998  24.832  26.374  1.00  0.00     0.169 HD
ENDBRANCH  17  22
BRANCH  20  27
ATOM     27  N   UNL A   1      29.124  28.065  22.876  1.00  0.00    -0.326 N 
ATOM     28  C   UNL A   1      29.159  29.430  23.101  1.00  0.00     0.221 C 
ATOM     29  H   UNL A   1      28.442  27.741  22.244  1.00  0.00     0.169 HD
ATOM     30  C   UNL A   1      28.163  30.202  22.272  1.00  0.00     0.114 C 
ATOM     31  O   UNL A   1      29.904  30.029  23.870  1.00  0.00    -0.275 OA
ENDBRANCH  20  27
ENDBRANCH  13  16
ENDBRANCH   6  12
ENDBRANCH   3   5
ENDBRANCH   2   3
ENDBRANCH   1   2
BRANCH   1  32
ATOM     32  C   UNL A   1      37.469  21.155  24.645  1.00  0.00     0.275 C 
BRANCH  32  33
ATOM     33  O   UNL A   1      37.865  21.699  25.920  1.00  0.00    -0.458 OA
BRANCH  33  34
ATOM     34  C   UNL A   1      39.173  21.548  26.221  1.00  0.00     0.338 C 
ATOM     35  O   UNL A   1      39.878  20.578  25.988  1.00  0.00    -0.246 OA
BRANCH  34  36
ATOM     36  C   UNL A   1      39.727  22.765  26.834  1.00  0.00     0.060 A 
ATOM     37  C   UNL A   1      39.302  24.004  26.360  1.00  0.00     0.016 A 
ATOM     38  C   UNL A   1      40.822  22.692  27.690  1.00  0.00     0.016 A 
ATOM     39  C   UNL A   1      40.028  25.152  26.619  1.00  0.00     0.010 A 
ATOM     40  C   UNL A   1      41.476  23.872  28.065  1.00  0.00     0.010 A 
ATOM     41  C   UNL A   1      41.100  25.108  27.508  1.00  0.00    -0.014 A 
BRANCH  41  42
ATOM     42  C   UNL A   1      41.815  26.365  27.837  1.00  0.00     0.031 A 
ATOM     43  C   UNL A   1      41.134  27.420  28.656  1.00  0.00     0.074 A 
ATOM     44  C   UNL A   1      43.083  26.538  27.415  1.00  0.00     0.049 A 
ATOM     45  N   UNL A   1      41.487  28.661  28.865  1.00  0.00    -0.248 NA
ATOM     46  C   UNL A   1      39.880  27.031  29.324  1.00  0.00     0.031 C 
ATOM     47  C   UNL A   1      43.882  25.545  26.691  1.00  0.00     0.029 A 
ATOM     48  N   UNL A   1      43.927  27.613  27.534  1.00  0.00    -0.354 N 
ATOM     49  C   UNL A   1      40.474  29.217  29.636  1.00  0.00     0.074 A 
ATOM     50  C   UNL A   1      39.492  28.179  29.862  1.00  0.00     0.031 C 
ATOM     51  C   UNL A   1      45.100  26.046  26.449  1.00  0.00     0.029 A 
ATOM     52  C   UNL A   1      45.130  27.430  26.895  1.00  0.00     0.049 A 
ATOM     53  H   UNL A   1      43.695  28.434  28.026  1.00  0.00     0.167 HD
ATOM     54  C   UNL A   1      40.383  30.487  30.097  1.00  0.00     0.037 A 
ATOM     55  C   UNL A   1      46.121  28.302  26.634  1.00  0.00     0.037 A 
ATOM     56  C   UNL A   1      41.401  31.485  29.896  1.00  0.00     0.049 A 
ATOM     57  C   UNL A   1      45.958  29.721  27.094  1.00  0.00     0.074 A 
ATOM     58  C   UNL A   1      41.422  32.798  30.331  1.00  0.00     0.029 A 
ATOM     59  N   UNL A   1      42.588  31.273  29.205  1.00  0.00    -0.354 N 
ATOM     60  N   UNL A   1      44.976  30.264  27.771  1.00  0.00    -0.248 NA
ATOM     61  C   UNL A   1      47.032  30.656  26.737  1.00  0.00     0.031 C 
ATOM     62  C   UNL A   1      42.594  33.396  29.856  1.00  0.00     0.029 A 
ATOM     63  C   UNL A   1      43.333  32.441  29.177  1.00  0.00     0.049 A 
ATOM     64  H   UNL A   1      42.858  30.419  28.796  1.00  0.00     0.167 HD
ATOM     65  C   UNL A   1      45.317  31.597  27.936  1.00  0.00     0.074 A 
ATOM     66  C   UNL A   1      46.611  31.775  27.308  1.00  0.00     0.031 C 
ATOM     67  C   UNL A   1      44.621  32.587  28.546  1.00  0.00     0.037 A 
BRANCH  54  68
ATOM     68  C   UNL A   1      39.126  30.885  30.814  1.00  0.00     0.064 A 
ATOM     69  C   UNL A   1      38.007  31.395  30.141  1.00  0.00     0.173 A 
ATOM     70  C   UNL A   1      39.028  30.708  32.204  1.00  0.00     0.173 A 
ATOM     71  F   UNL A   1      38.051  31.599  28.815  1.00  0.00    -0.203 F 
ATOM     72  C   UNL A   1      36.845  31.733  30.834  1.00  0.00     0.198 A 
ATOM     73  C   UNL A   1      37.857  31.017  32.889  1.00  0.00     0.198 A 
ATOM     74  F   UNL A   1      40.068  30.221  32.899  1.00  0.00    -0.203 F 
ATOM     75  F   UNL A   1      35.802  32.259  30.176  1.00  0.00    -0.200 F 
ATOM     76  C   UNL A   1      36.768  31.534  32.204  1.00  0.00     0.200 A 
ATOM     77  F   UNL A   1      37.780  30.812  34.211  1.00  0.00    -0.200 F 
ATOM     78  F   UNL A   1      35.645  31.847  32.867  1.00  0.00    -0.200 F 
ENDBRANCH  54  68
BRANCH  55  79
ATOM     79  C   UNL A   1      47.300  27.872  25.836  1.00  0.00     0.064 A 
ATOM     80  C   UNL A   1      48.494  27.487  26.456  1.00  0.00     0.173 A 
ATOM     81  C   UNL A   1      47.256  27.841  24.432  1.00  0.00     0.173 A 
ATOM     82  F   UNL A   1      48.597  27.524  27.794  1.00  0.00    -0.203 F 
ATOM     83  C   UNL A   1      49.605  27.107  25.706  1.00  0.00     0.198 A 
ATOM     84  C   UNL A   1      48.355  27.425  23.684  1.00  0.00     0.198 A 
ATOM     85  F   UNL A   1      46.139  28.203  23.784  1.00  0.00    -0.203 F 
ATOM     86  F   UNL A   1      50.754  26.798  26.323  1.00  0.00    -0.200 F 
ATOM     87  C   UNL A   1      49.532  27.068  24.321  1.00  0.00     0.200 A 
ATOM     88  F   UNL A   1      48.273  27.376  22.347  1.00  0.00    -0.200 F 
ATOM     89  F   UNL A   1      50.600  26.700  23.601  1.00  0.00    -0.200 F 
ENDBRANCH  55  79
BRANCH  67  90
ATOM     90  C   UNL A   1      45.266  33.941  28.586  1.00  0.00     0.064 A 
ATOM     91  C   UNL A   1      46.148  34.304  29.614  1.00  0.00     0.173 A 
ATOM     92  C   UNL A   1      45.020  34.873  27.566  1.00  0.00     0.173 A 
ATOM     93  F   UNL A   1      46.399  33.454  30.621  1.00  0.00    -0.203 F 
ATOM     94  C   UNL A   1      46.741  35.563  29.632  1.00  0.00     0.198 A 
ATOM     95  C   UNL A   1      45.641  36.117  27.570  1.00  0.00     0.198 A 
ATOM     96  F   UNL A   1      44.188  34.570  26.559  1.00  0.00    -0.203 F 
ATOM     97  F   UNL A   1      47.539  35.909  30.651  1.00  0.00    -0.200 F 
ATOM     98  C   UNL A   1      46.494  36.465  28.607  1.00  0.00     0.200 A 
ATOM     99  F   UNL A   1      45.414  36.980  26.571  1.00  0.00    -0.200 F 
ATOM    100  F   UNL A   1      47.073  37.673  28.622  1.00  0.00    -0.200 F 
ENDBRANCH  67  90
ENDBRANCH  41  42
ENDBRANCH  34  36
ENDBRANCH  33  34
ENDBRANCH  32  33
ENDBRANCH   1  32
TORSDOF 15
ENDMDL
MODEL 2
REMARK VINA RESULT:     -13.6      1.532      3.046
REMARK SMILES CC(=O)Nc1cc(NC(C)=O)cc(C(=O)Nc2ccc(Br)cc2C(=O)OCCOC(=O)c2ccc(-c3c4nc(c(-c5c(F)c(F)c(F)c(F)c5F)c5ccc([nH]5)c(-c5c(F)c(F)c(F)c(F)c5F)c5nc(c(-c6c(F)c(F)c(F)c(F)c6F)c6ccc3[nH]6)C=C5)C=C4)cc2)c1
REMARK SMILES IDX 27 1 26 2 24 3 25 4 23 5 17 6 18 7 19 8 22 9 20 10 21 11
REMARK SMILES IDX 16 12 14 13 15 14 13 16 5 17 6 18 95 19 7 20 12 21 4 22 1 23
REMARK SMILES IDX 2 24 3 25 8 27 9 28 10 30 11 31 28 32 29 33 30 34 31 35
REMARK SMILES IDX 32 36 33 37 94 38 34 39 93 40 35 41 36 42 37 43 87 44 38 45
REMARK SMILES IDX 92 46 86 47 88 48 39 49 91 50 85 51 84 52 40 54 72 55 52 56
REMARK SMILES IDX 71 57 53 58 56 59 70 60 89 61 54 62 55 63 69 65 90 66 57 67
REMARK SMILES IDX 41 68 42 69 50 70 43 71 44 72 48 73 51 74 45 75 46 76 49 77
REMARK SMILES IDX 47 78 73 79 74 80 82 81 75 82 76 83 80 84 83 85 77 86 78 87
REMARK SMILES IDX 81 88 79 89 58 90 59 91 67 92 60 93 61 94 65 95 68 96 62 97
REMARK SMILES IDX 63 98 66 99 64 100
REMARK H PARENT 16 15 4 26 8 29 88 53 56 64
REMARK Flexibility Score: inf
ROOT
ATOM      1  C   UNL A   1      35.807  22.213  23.874  1.00  0.00     0.275 C 
ENDROOT
BRANCH   1   2
ATOM      2  O   UNL A   1      34.972  22.569  24.998  1.00  0.00    -0.458 OA
BRANCH   2   3
ATOM      3  C   UNL A   1      33.798  21.901  25.022  1.00  0.00     0.340 C 
ATOM      4  O   UNL A   1      33.672  20.694  24.929  1.00  0.00    -0.246 OA
BRANCH   3   5
ATOM      5  C   UNL A   1      32.623  22.781  25.161  1.00  0.00     0.084 A 
ATOM      6  C   UNL A   1      32.341  23.839  24.286  1.00  0.00     0.056 A 
ATOM      7  C   UNL A   1      31.196  24.621  24.526  1.00  0.00     0.028 A 
ATOM      8  C   UNL A   1      30.268  24.264  25.511  1.00  0.00     0.018 A 
ATOM      9  C   UNL A   1      31.703  22.452  26.173  1.00  0.00     0.033 A 
ATOM     10  C   UNL A   1      30.516  23.163  26.316  1.00  0.00     0.018 A 
ATOM     11  Br  UNL A   1      29.221  22.582  27.563  1.00  0.00    -0.051 Br
BRANCH   6  12
ATOM     12  N   UNL A   1      33.070  24.183  23.130  1.00  0.00    -0.321 N 
ATOM     13  C   UNL A   1      33.156  25.346  22.390  1.00  0.00     0.255 C 
ATOM     14  O   UNL A   1      33.636  25.289  21.258  1.00  0.00    -0.269 OA
ATOM     15  H   UNL A   1      33.628  23.450  22.780  1.00  0.00     0.170 HD
BRANCH  13  16
ATOM     16  C   UNL A   1      32.772  26.685  22.931  1.00  0.00     0.044 A 
ATOM     17  C   UNL A   1      31.561  28.770  22.765  1.00  0.00     0.044 A 
ATOM     18  C   UNL A   1      32.383  29.299  23.772  1.00  0.00     0.052 A 
ATOM     19  C   UNL A   1      31.695  27.426  22.421  1.00  0.00     0.040 A 
ATOM     20  C   UNL A   1      33.367  28.531  24.398  1.00  0.00     0.044 A 
ATOM     21  C   UNL A   1      33.569  27.222  23.956  1.00  0.00     0.040 A 
BRANCH  17  22
ATOM     22  N   UNL A   1      30.803  29.715  22.045  1.00  0.00    -0.326 N 
ATOM     23  C   UNL A   1      28.540  29.625  23.078  1.00  0.00     0.114 C 
ATOM     24  C   UNL A   1      29.475  29.996  21.967  1.00  0.00     0.221 C 
ATOM     25  O   UNL A   1      29.059  30.601  20.975  1.00  0.00    -0.275 OA
ATOM     26  H   UNL A   1      31.354  30.298  21.475  1.00  0.00     0.169 HD
ENDBRANCH  17  22
BRANCH  20  27
ATOM     27  N   UNL A   1      34.204  29.022  25.426  1.00  0.00    -0.326 N 
ATOM     28  C   UNL A   1      34.039  28.847  26.790  1.00  0.00     0.221 C 
ATOM     29  H   UNL A   1      34.988  29.545  25.142  1.00  0.00     0.169 HD
ATOM     30  C   UNL A   1      35.149  29.452  27.612  1.00  0.00     0.114 C 
ATOM     31  O   UNL A   1      33.117  28.261  27.349  1.00  0.00    -0.275 OA
ENDBRANCH  20  27
ENDBRANCH  13  16
ENDBRANCH   6  12
ENDBRANCH   3   5
ENDBRANCH   2   3
ENDBRANCH   1   2
BRANCH   1  32
ATOM     32  C   UNL A   1      37.185  21.674  24.279  1.00  0.00     0.275 C 
BRANCH  32  33
ATOM     33  O   UNL A   1      37.451  21.830  25.688  1.00  0.00    -0.458 OA
BRANCH  33  34
ATOM     34  C   UNL A   1      38.736  21.623  26.049  1.00  0.00     0.338 C 
ATOM     35  O   UNL A   1      39.413  20.629  25.834  1.00  0.00    -0.246 OA
BRANCH  34  36
ATOM     36  C   UNL A   1      39.306  22.807  26.709  1.00  0.00     0.060 A 
ATOM     37  C   UNL A   1      38.901  24.069  26.282  1.00  0.00     0.016 A 
ATOM     38  C   UNL A   1      40.398  22.685  27.564  1.00  0.00     0.016 A 
ATOM     39  C   UNL A   1      39.643  25.196  26.586  1.00  0.00     0.010 A 
ATOM     40  C   UNL A   1      41.069  23.840  27.984  1.00  0.00     0.010 A 
ATOM     41  C   UNL A   1      40.712  25.103  27.474  1.00  0.00    -0.014 A 
BRANCH  41  42
ATOM     42  C   UNL A   1      41.443  26.335  27.853  1.00  0.00     0.031 A 
ATOM     43  C   UNL A   1      40.751  27.403  28.645  1.00  0.00     0.074 A 
ATOM     44  C   UNL A   1      42.736  26.475  27.499  1.00  0.00     0.049 A 
ATOM     45  N   UNL A   1      41.128  28.632  28.884  1.00  0.00    -0.248 NA
ATOM     46  C   UNL A   1      39.454  27.045  29.243  1.00  0.00     0.031 C 
ATOM     47  C   UNL A   1      43.544  25.465  26.808  1.00  0.00     0.029 A 
ATOM     48  N   UNL A   1      43.604  27.524  27.672  1.00  0.00    -0.354 N 
ATOM     49  C   UNL A   1      40.093  29.210  29.606  1.00  0.00     0.074 A 
ATOM     50  C   UNL A   1      39.071  28.200  29.771  1.00  0.00     0.031 C 
ATOM     51  C   UNL A   1      44.787  25.933  26.635  1.00  0.00     0.029 A 
ATOM     52  C   UNL A   1      44.833  27.311  27.096  1.00  0.00     0.049 A 
ATOM     53  H   UNL A   1      43.369  28.347  28.160  1.00  0.00     0.167 HD
ATOM     54  C   UNL A   1      40.014  30.478  30.074  1.00  0.00     0.037 A 
ATOM     55  C   UNL A   1      45.860  28.156  26.895  1.00  0.00     0.037 A 
ATOM     56  C   UNL A   1      41.069  31.448  29.936  1.00  0.00     0.049 A 
ATOM     57  C   UNL A   1      45.715  29.576  27.360  1.00  0.00     0.074 A 
ATOM     58  C   UNL A   1      41.104  32.757  30.385  1.00  0.00     0.029 A 
ATOM     59  N   UNL A   1      42.284  31.207  29.307  1.00  0.00    -0.354 N 
ATOM     60  N   UNL A   1      44.714  30.142  27.990  1.00  0.00    -0.248 NA
ATOM     61  C   UNL A   1      46.832  30.482  27.068  1.00  0.00     0.031 C 
ATOM     62  C   UNL A   1      42.317  33.324  29.978  1.00  0.00     0.029 A 
ATOM     63  C   UNL A   1      43.063  32.353  29.329  1.00  0.00     0.049 A 
ATOM     64  H   UNL A   1      42.551  30.350  28.904  1.00  0.00     0.167 HD
ATOM     65  C   UNL A   1      45.084  31.463  28.185  1.00  0.00     0.074 A 
ATOM     66  C   UNL A   1      46.413  31.608  27.627  1.00  0.00     0.031 C 
ATOM     67  C   UNL A   1      44.386  32.467  28.767  1.00  0.00     0.037 A 
BRANCH  54  68
ATOM     68  C   UNL A   1      38.732  30.908  30.729  1.00  0.00     0.064 A 
ATOM     69  C   UNL A   1      38.553  30.878  32.119  1.00  0.00     0.173 A 
ATOM     70  C   UNL A   1      37.678  31.402  29.944  1.00  0.00     0.173 A 
ATOM     71  F   UNL A   1      39.522  30.401  32.915  1.00  0.00    -0.203 F 
ATOM     72  C   UNL A   1      37.359  31.307  32.697  1.00  0.00     0.198 A 
ATOM     73  C   UNL A   1      36.499  31.858  30.525  1.00  0.00     0.198 A 
ATOM     74  F   UNL A   1      37.796  31.455  28.608  1.00  0.00    -0.203 F 
ATOM     75  F   UNL A   1      37.193  31.231  34.025  1.00  0.00    -0.200 F 
ATOM     76  C   UNL A   1      36.338  31.806  31.901  1.00  0.00     0.200 A 
ATOM     77  F   UNL A   1      35.520  32.351  29.755  1.00  0.00    -0.200 F 
ATOM     78  F   UNL A   1      35.196  32.231  32.460  1.00  0.00    -0.200 F 
ENDBRANCH  54  68
BRANCH  55  79
ATOM     79  C   UNL A   1      47.067  27.699  26.156  1.00  0.00     0.064 A 
ATOM     80  C   UNL A   1      48.198  27.228  26.833  1.00  0.00     0.173 A 
ATOM     81  C   UNL A   1      47.114  27.727  24.752  1.00  0.00     0.173 A 
ATOM     82  F   UNL A   1      48.214  27.206  28.175  1.00  0.00    -0.203 F 
ATOM     83  C   UNL A   1      49.336  26.822  26.139  1.00  0.00     0.198 A 
ATOM     84  C   UNL A   1      48.238  27.285  24.058  1.00  0.00     0.198 A 
ATOM     85  F   UNL A   1      46.061  28.171  24.050  1.00  0.00    -0.203 F 
ATOM     86  F   UNL A   1      50.425  26.429  26.814  1.00  0.00    -0.200 F 
ATOM     87  C   UNL A   1      49.352  26.843  24.753  1.00  0.00     0.200 A 
ATOM     88  F   UNL A   1      48.242  27.294  22.718  1.00  0.00    -0.200 F 
ATOM     89  F   UNL A   1      50.446  26.450  24.087  1.00  0.00    -0.200 F 
ENDBRANCH  55  79
BRANCH  67  90
ATOM     90  C   UNL A   1      45.066  33.801  28.854  1.00  0.00     0.064 A 
ATOM     91  C   UNL A   1      44.895  34.779  27.863  1.00  0.00     0.173 A 
ATOM     92  C   UNL A   1      45.872  34.114  29.959  1.00  0.00     0.173 A 
ATOM     93  F   UNL A   1      44.149  34.519  26.779  1.00  0.00    -0.203 F 
ATOM     94  C   UNL A   1      45.530  36.013  27.963  1.00  0.00     0.198 A 
ATOM     95  C   UNL A   1      46.477  35.361  30.071  1.00  0.00     0.198 A 
ATOM     96  F   UNL A   1      46.062  33.214  30.935  1.00  0.00    -0.203 F 
ATOM     97  F   UNL A   1      45.396  36.913  26.980  1.00  0.00    -0.200 F 
ATOM     98  C   UNL A   1      46.313  36.306  29.070  1.00  0.00     0.200 A 
ATOM     99  F   UNL A   1      47.220  35.649  31.149  1.00  0.00    -0.200 F 
ATOM    100  F   UNL A   1      46.916  37.499  29.168  1.00  0.00    -0.200 F 
ENDBRANCH  67  90
ENDBRANCH  41  42
ENDBRANCH  34  36
ENDBRANCH  33  34
ENDBRANCH  32  33
ENDBRANCH   1  32
TORSDOF 15
ENDMDL
MODEL 3
REMARK VINA RESULT:     -13.6      4.288      9.675
REMARK SMILES CC(=O)Nc1cc(NC(C)=O)cc(C(=O)Nc2ccc(Br)cc2C(=O)OCCOC(=O)c2ccc(-c3c4nc(c(-c5c(F)c(F)c(F)c(F)c5F)c5ccc([nH]5)c(-c5c(F)c(F)c(F)c(F)c5F)c5nc(c(-c6c(F)c(F)c(F)c(F)c6F)c6ccc3[nH]6)C=C5)C=C4)cc2)c1
REMARK SMILES IDX 27 1 26 2 24 3 25 4 23 5 17 6 18 7 19 8 22 9 20 10 21 11
REMARK SMILES IDX 16 12 14 13 15 14 13 16 5 17 6 18 95 19 7 20 12 21 4 22 1 23
REMARK SMILES IDX 2 24 3 25 8 27 9 28 10 30 11 31 28 32 29 33 30 34 31 35
REMARK SMILES IDX 32 36 33 37 94 38 34 39 93 40 35 41 36 42 37 43 87 44 38 45
REMARK SMILES IDX 92 46 86 47 88 48 39 49 91 50 85 51 84 52 40 54 72 55 52 56
REMARK SMILES IDX 71 57 53 58 56 59 70 60 89 61 54 62 55 63 69 65 90 66 57 67
REMARK SMILES IDX 41 68 42 69 50 70 43 71 44 72 48 73 51 74 45 75 46 76 49 77
REMARK SMILES IDX 47 78 73 79 74 80 82 81 75 82 76 83 80 84 83 85 77 86 78 87
REMARK SMILES IDX 81 88 79 89 58 90 59 91 67 92 60 93 61 94 65 95 68 96 62 97
REMARK SMILES IDX 63 98 66 99 64 100
REMARK H PARENT 16 15 4 26 8 29 88 53 56 64
REMARK Flexibility Score: inf
ROOT
ATOM      1  C   UNL A   1      32.580  28.405  27.612  1.00  0.00     0.275 C 
ENDROOT
BRANCH   1   2
ATOM      2  O   UNL A   1      32.011  27.236  26.984  1.00  0.00    -0.458 OA
BRANCH   2   3
ATOM      3  C   UNL A   1      32.167  27.221  25.642  1.00  0.00     0.340 C 
ATOM      4  O   UNL A   1      33.234  27.261  25.058  1.00  0.00    -0.246 OA
BRANCH   3   5
ATOM      5  C   UNL A   1      30.894  27.166  24.901  1.00  0.00     0.084 A 
ATOM      6  C   UNL A   1      29.882  26.234  25.171  1.00  0.00     0.056 A 
ATOM      7  C   UNL A   1      28.713  26.268  24.387  1.00  0.00     0.028 A 
ATOM      8  C   UNL A   1      28.486  27.299  23.469  1.00  0.00     0.018 A 
ATOM      9  C   UNL A   1      30.672  28.177  23.949  1.00  0.00     0.033 A 
ATOM     10  C   UNL A   1      29.460  28.266  23.273  1.00  0.00     0.018 A 
ATOM     11  Br  UNL A   1      29.126  29.740  22.139  1.00  0.00    -0.051 Br
BRANCH   6  12
ATOM     12  N   UNL A   1      29.884  25.274  26.203  1.00  0.00    -0.321 N 
ATOM     13  C   UNL A   1      30.367  23.982  26.277  1.00  0.00     0.255 C 
ATOM     14  O   UNL A   1      29.977  23.261  27.195  1.00  0.00    -0.269 OA
ATOM     15  H   UNL A   1      29.458  25.585  27.034  1.00  0.00     0.170 HD
BRANCH  13  16
ATOM     16  C   UNL A   1      31.404  23.446  25.345  1.00  0.00     0.044 A 
ATOM     17  C   UNL A   1      33.511  22.337  24.930  1.00  0.00     0.044 A 
ATOM     18  C   UNL A   1      33.470  22.808  23.608  1.00  0.00     0.052 A 
ATOM     19  C   UNL A   1      32.421  22.575  25.765  1.00  0.00     0.040 A 
ATOM     20  C   UNL A   1      32.394  23.555  23.126  1.00  0.00     0.044 A 
ATOM     21  C   UNL A   1      31.366  23.887  24.011  1.00  0.00     0.040 A 
BRANCH  17  22
ATOM     22  N   UNL A   1      34.757  21.834  25.354  1.00  0.00    -0.326 N 
ATOM     23  C   UNL A   1      36.148  23.858  25.759  1.00  0.00     0.114 C 
ATOM     24  C   UNL A   1      35.988  22.387  25.526  1.00  0.00     0.221 C 
ATOM     25  O   UNL A   1      36.972  21.643  25.525  1.00  0.00    -0.275 OA
ATOM     26  H   UNL A   1      34.731  20.875  25.572  1.00  0.00     0.169 HD
ENDBRANCH  17  22
BRANCH  20  27
ATOM     27  N   UNL A   1      32.308  24.034  21.798  1.00  0.00    -0.326 N 
ATOM     28  C   UNL A   1      32.931  25.155  21.276  1.00  0.00     0.221 C 
ATOM     29  H   UNL A   1      31.744  23.516  21.180  1.00  0.00     0.169 HD
ATOM     30  C   UNL A   1      32.676  25.352  19.802  1.00  0.00     0.114 C 
ATOM     31  O   UNL A   1      33.643  25.950  21.882  1.00  0.00    -0.275 OA
ENDBRANCH  20  27
ENDBRANCH  13  16
ENDBRANCH   6  12
ENDBRANCH   3   5
ENDBRANCH   2   3
ENDBRANCH   1   2
BRANCH   1  32
ATOM     32  C   UNL A   1      32.084  29.727  27.013  1.00  0.00     0.275 C 
BRANCH  32  33
ATOM     33  O   UNL A   1      33.151  30.520  26.454  1.00  0.00    -0.458 OA
BRANCH  33  34
ATOM     34  C   UNL A   1      33.614  31.499  27.262  1.00  0.00     0.338 C 
ATOM     35  O   UNL A   1      33.013  32.496  27.634  1.00  0.00    -0.246 OA
BRANCH  34  36
ATOM     36  C   UNL A   1      34.973  31.203  27.739  1.00  0.00     0.060 A 
ATOM     37  C   UNL A   1      35.270  29.906  28.148  1.00  0.00     0.016 A 
ATOM     38  C   UNL A   1      35.869  32.235  28.009  1.00  0.00     0.016 A 
ATOM     39  C   UNL A   1      36.377  29.643  28.934  1.00  0.00     0.010 A 
ATOM     40  C   UNL A   1      37.060  31.944  28.686  1.00  0.00     0.010 A 
ATOM     41  C   UNL A   1      37.308  30.649  29.178  1.00  0.00    -0.014 A 
BRANCH  41  42
ATOM     42  C   UNL A   1      38.531  30.327  29.953  1.00  0.00     0.031 A 
ATOM     43  C   UNL A   1      39.578  29.433  29.360  1.00  0.00     0.074 A 
ATOM     44  C   UNL A   1      38.701  30.862  31.178  1.00  0.00     0.049 A 
ATOM     45  N   UNL A   1      40.596  28.854  29.940  1.00  0.00    -0.248 NA
ATOM     46  C   UNL A   1      39.460  29.142  27.921  1.00  0.00     0.031 C 
ATOM     47  C   UNL A   1      37.796  31.818  31.822  1.00  0.00     0.029 A 
ATOM     48  N   UNL A   1      39.696  30.678  32.105  1.00  0.00    -0.354 N 
ATOM     49  C   UNL A   1      41.204  28.086  28.956  1.00  0.00     0.074 A 
ATOM     50  C   UNL A   1      40.445  28.272  27.740  1.00  0.00     0.031 C 
ATOM     51  C   UNL A   1      38.284  32.152  33.024  1.00  0.00     0.029 A 
ATOM     52  C   UNL A   1      39.470  31.350  33.283  1.00  0.00     0.049 A 
ATOM     53  H   UNL A   1      40.492  30.121  31.944  1.00  0.00     0.167 HD
ATOM     54  C   UNL A   1      42.294  27.292  29.077  1.00  0.00     0.037 A 
ATOM     55  C   UNL A   1      40.104  31.273  34.466  1.00  0.00     0.037 A 
ATOM     56  C   UNL A   1      43.059  27.164  30.291  1.00  0.00     0.049 A 
ATOM     57  C   UNL A   1      41.264  30.330  34.591  1.00  0.00     0.074 A 
ATOM     58  C   UNL A   1      44.190  26.402  30.524  1.00  0.00     0.029 A 
ATOM     59  N   UNL A   1      42.772  27.828  31.477  1.00  0.00    -0.354 N 
ATOM     60  N   UNL A   1      41.805  29.557  33.680  1.00  0.00    -0.248 NA
ATOM     61  C   UNL A   1      41.892  30.229  35.914  1.00  0.00     0.031 C 
ATOM     62  C   UNL A   1      44.553  26.561  31.865  1.00  0.00     0.029 A 
ATOM     63  C   UNL A   1      43.687  27.468  32.453  1.00  0.00     0.049 A 
ATOM     64  H   UNL A   1      42.028  28.460  31.605  1.00  0.00     0.167 HD
ATOM     65  C   UNL A   1      42.844  28.892  34.311  1.00  0.00     0.074 A 
ATOM     66  C   UNL A   1      42.873  29.370  35.678  1.00  0.00     0.031 C 
ATOM     67  C   UNL A   1      43.693  27.964  33.807  1.00  0.00     0.037 A 
BRANCH  54  68
ATOM     68  C   UNL A   1      42.695  26.462  27.892  1.00  0.00     0.064 A 
ATOM     69  C   UNL A   1      42.148  25.195  27.644  1.00  0.00     0.173 A 
ATOM     70  C   UNL A   1      43.615  26.971  26.961  1.00  0.00     0.173 A 
ATOM     71  F   UNL A   1      41.277  24.654  28.509  1.00  0.00    -0.203 F 
ATOM     72  C   UNL A   1      42.524  24.460  26.520  1.00  0.00     0.198 A 
ATOM     73  C   UNL A   1      43.964  26.248  25.824  1.00  0.00     0.198 A 
ATOM     74  F   UNL A   1      44.167  28.180  27.147  1.00  0.00    -0.203 F 
ATOM     75  F   UNL A   1      42.020  23.233  26.325  1.00  0.00    -0.200 F 
ATOM     76  C   UNL A   1      43.422  24.991  25.608  1.00  0.00     0.200 A 
ATOM     77  F   UNL A   1      44.823  26.769  24.937  1.00  0.00    -0.200 F 
ATOM     78  F   UNL A   1      43.771  24.288  24.521  1.00  0.00    -0.200 F 
ENDBRANCH  54  68
BRANCH  55  79
ATOM     79  C   UNL A   1      39.602  32.049  35.632  1.00  0.00     0.064 A 
ATOM     80  C   UNL A   1      40.112  33.318  35.932  1.00  0.00     0.173 A 
ATOM     81  C   UNL A   1      38.603  31.534  36.473  1.00  0.00     0.173 A 
ATOM     82  F   UNL A   1      41.087  33.845  35.175  1.00  0.00    -0.203 F 
ATOM     83  C   UNL A   1      39.657  34.033  37.038  1.00  0.00     0.198 A 
ATOM     84  C   UNL A   1      38.122  32.265  37.556  1.00  0.00     0.198 A 
ATOM     85  F   UNL A   1      38.080  30.321  36.235  1.00  0.00    -0.203 F 
ATOM     86  F   UNL A   1      40.201  35.221  37.335  1.00  0.00    -0.200 F 
ATOM     87  C   UNL A   1      38.657  33.510  37.844  1.00  0.00     0.200 A 
ATOM     88  F   UNL A   1      37.145  31.760  38.322  1.00  0.00    -0.200 F 
ATOM     89  F   UNL A   1      38.219  34.200  38.906  1.00  0.00    -0.200 F 
ENDBRANCH  55  79
BRANCH  67  90
ATOM     90  C   UNL A   1      44.743  27.433  34.738  1.00  0.00     0.064 A 
ATOM     91  C   UNL A   1      45.978  28.077  34.897  1.00  0.00     0.173 A 
ATOM     92  C   UNL A   1      44.495  26.282  35.502  1.00  0.00     0.173 A 
ATOM     93  F   UNL A   1      46.268  29.169  34.173  1.00  0.00    -0.203 F 
ATOM     94  C   UNL A   1      46.938  27.573  35.769  1.00  0.00     0.198 A 
ATOM     95  C   UNL A   1      45.444  25.802  36.397  1.00  0.00     0.198 A 
ATOM     96  F   UNL A   1      43.326  25.634  35.389  1.00  0.00    -0.203 F 
ATOM     97  F   UNL A   1      48.132  28.174  35.866  1.00  0.00    -0.200 F 
ATOM     98  C   UNL A   1      46.668  26.441  36.524  1.00  0.00     0.200 A 
ATOM     99  F   UNL A   1      45.175  24.717  37.138  1.00  0.00    -0.200 F 
ATOM    100  F   UNL A   1      47.590  25.963  37.369  1.00  0.00    -0.200 F 
ENDBRANCH  67  90
ENDBRANCH  41  42
ENDBRANCH  34  36
ENDBRANCH  33  34
ENDBRANCH  32  33
ENDBRANCH   1  32
TORSDOF 15
ENDMDL
