MODEL 1
REMARK VINA RESULT:     -12.2      0.000      0.000
REMARK SMILES O=C(OCCOC(=O)c1ccc(C[N@@H+]2CCN3C(=O)NC[C@@H]3C2)nc1)c1ccc(-c2c3nc(c(-c4c(F)c(F)c(F)c(F)c4F)c4ccc([nH]4)c(-c4c(F)c(F)c(F)c(F)c4F)c4nc(c(-c5c(F)c(F)c(F)c(F)c5F)c5ccc2[nH]5)C=C4)C=C3)cc1
REMARK SMILES IDX 4 1 3 2 2 3 1 4 26 5 27 6 88 7 28 8 87 9 29 10 30 11 31 12
REMARK SMILES IDX 81 13 32 14 86 15 80 16 82 17 33 18 85 19 79 20 78 21 34 23
REMARK SMILES IDX 66 24 46 25 65 26 47 27 50 28 64 29 83 30 48 31 49 32 63 34
REMARK SMILES IDX 84 35 51 36 35 37 36 38 44 39 37 40 38 41 42 42 45 43 39 44
REMARK SMILES IDX 40 45 43 46 41 47 67 48 68 49 76 50 69 51 70 52 74 53 77 54
REMARK SMILES IDX 71 55 72 56 75 57 73 58 52 59 53 60 61 61 54 62 55 63 59 64
REMARK SMILES IDX 62 65 56 66 57 67 60 68 58 69 5 70 6 71 7 72 8 73 9 74 10 75
REMARK SMILES IDX 25 76 11 77 24 78 12 79 13 80 14 81 15 82 23 83 16 85 22 86
REMARK SMILES IDX 17 87 21 88 18 89 20 90 19 91
REMARK H PARENT 82 22 50 33 14 84 20 92
REMARK Flexibility Score: inf
ROOT
ATOM      1  C   UNL A   1      43.862  22.154  25.059  1.00  0.00     0.275 C 
ENDROOT
BRANCH   1   2
ATOM      2  O   UNL A   1      43.438  23.484  24.709  1.00  0.00    -0.458 OA
BRANCH   2   3
ATOM      3  C   UNL A   1      43.986  24.672  25.056  1.00  0.00     0.338 C 
ATOM      4  O   UNL A   1      45.098  24.968  24.625  1.00  0.00    -0.246 OA
BRANCH   3   5
ATOM      5  C   UNL A   1      43.394  25.568  26.098  1.00  0.00     0.060 A 
ATOM      6  C   UNL A   1      43.834  26.852  26.425  1.00  0.00     0.016 A 
ATOM      7  C   UNL A   1      42.323  25.031  26.838  1.00  0.00     0.016 A 
ATOM      8  C   UNL A   1      43.200  27.597  27.425  1.00  0.00     0.010 A 
ATOM      9  C   UNL A   1      41.676  25.775  27.828  1.00  0.00     0.010 A 
ATOM     10  C   UNL A   1      42.124  27.062  28.138  1.00  0.00    -0.014 A 
BRANCH  10  11
ATOM     11  C   UNL A   1      41.588  27.790  29.309  1.00  0.00     0.031 A 
ATOM     12  C   UNL A   1      42.268  27.613  30.632  1.00  0.00     0.074 A 
ATOM     13  C   UNL A   1      40.545  28.630  29.185  1.00  0.00     0.049 A 
ATOM     14  N   UNL A   1      42.041  28.226  31.765  1.00  0.00    -0.248 NA
ATOM     15  C   UNL A   1      43.372  26.642  30.678  1.00  0.00     0.031 C 
ATOM     16  C   UNL A   1      39.858  28.938  27.935  1.00  0.00     0.029 A 
ATOM     17  N   UNL A   1      39.878  29.376  30.121  1.00  0.00    -0.354 N 
ATOM     18  C   UNL A   1      43.006  27.752  32.640  1.00  0.00     0.074 A 
ATOM     19  C   UNL A   1      43.768  26.743  31.937  1.00  0.00     0.031 C 
ATOM     20  C   UNL A   1      38.823  29.756  28.187  1.00  0.00     0.029 A 
ATOM     21  C   UNL A   1      38.799  30.058  29.614  1.00  0.00     0.049 A 
ATOM     22  H   UNL A   1      40.146  29.418  31.068  1.00  0.00     0.167 HD
ATOM     23  C   UNL A   1      43.261  28.154  33.907  1.00  0.00     0.037 A 
ATOM     24  C   UNL A   1      37.903  30.848  30.236  1.00  0.00     0.037 A 
ATOM     25  C   UNL A   1      42.472  29.126  34.612  1.00  0.00     0.049 A 
ATOM     26  C   UNL A   1      38.112  31.168  31.690  1.00  0.00     0.074 A 
ATOM     27  C   UNL A   1      42.632  29.605  35.898  1.00  0.00     0.029 A 
ATOM     28  N   UNL A   1      41.348  29.750  34.086  1.00  0.00    -0.354 N 
ATOM     29  N   UNL A   1      39.076  30.778  32.489  1.00  0.00    -0.248 NA
ATOM     30  C   UNL A   1      37.140  32.071  32.318  1.00  0.00     0.031 C 
ATOM     31  C   UNL A   1      41.575  30.483  36.167  1.00  0.00     0.029 A 
ATOM     32  C   UNL A   1      40.784  30.587  35.033  1.00  0.00     0.049 A 
ATOM     33  H   UNL A   1      41.003  29.616  33.173  1.00  0.00     0.167 HD
ATOM     34  C   UNL A   1      38.862  31.429  33.694  1.00  0.00     0.074 A 
ATOM     35  C   UNL A   1      37.665  32.230  33.525  1.00  0.00     0.031 C 
ATOM     36  C   UNL A   1      39.600  31.386  34.831  1.00  0.00     0.037 A 
BRANCH  23  37
ATOM     37  C   UNL A   1      44.434  27.515  34.587  1.00  0.00     0.064 A 
ATOM     38  C   UNL A   1      45.722  28.067  34.490  1.00  0.00     0.173 A 
ATOM     39  C   UNL A   1      44.285  26.312  35.290  1.00  0.00     0.173 A 
ATOM     40  F   UNL A   1      45.920  29.204  33.807  1.00  0.00    -0.203 F 
ATOM     41  C   UNL A   1      46.823  27.414  35.036  1.00  0.00     0.198 A 
ATOM     42  C   UNL A   1      45.385  25.675  35.856  1.00  0.00     0.198 A 
ATOM     43  F   UNL A   1      43.075  25.743  35.408  1.00  0.00    -0.203 F 
ATOM     44  F   UNL A   1      48.052  27.923  34.872  1.00  0.00    -0.200 F 
ATOM     45  C   UNL A   1      46.654  26.218  35.718  1.00  0.00     0.200 A 
ATOM     46  F   UNL A   1      45.222  24.521  36.518  1.00  0.00    -0.200 F 
ATOM     47  F   UNL A   1      47.717  25.581  36.228  1.00  0.00    -0.200 F 
ENDBRANCH  23  37
BRANCH  24  48
ATOM     48  C   UNL A   1      36.766  31.424  29.472  1.00  0.00     0.064 A 
ATOM     49  C   UNL A   1      36.747  32.776  29.105  1.00  0.00     0.173 A 
ATOM     50  C   UNL A   1      35.678  30.627  29.084  1.00  0.00     0.173 A 
ATOM     51  F   UNL A   1      37.760  33.580  29.461  1.00  0.00    -0.203 F 
ATOM     52  C   UNL A   1      35.676  33.315  28.395  1.00  0.00     0.198 A 
ATOM     53  C   UNL A   1      34.616  31.163  28.358  1.00  0.00     0.198 A 
ATOM     54  F   UNL A   1      35.654  29.324  29.399  1.00  0.00    -0.203 F 
ATOM     55  F   UNL A   1      35.670  34.617  28.080  1.00  0.00    -0.200 F 
ATOM     56  C   UNL A   1      34.613  32.507  28.019  1.00  0.00     0.200 A 
ATOM     57  F   UNL A   1      33.599  30.375  27.984  1.00  0.00    -0.200 F 
ATOM     58  F   UNL A   1      33.586  33.024  27.330  1.00  0.00    -0.200 F 
ENDBRANCH  24  48
BRANCH  36  59
ATOM     59  C   UNL A   1      39.168  32.272  35.961  1.00  0.00     0.064 A 
ATOM     60  C   UNL A   1      38.297  31.821  36.962  1.00  0.00     0.173 A 
ATOM     61  C   UNL A   1      39.672  33.578  36.063  1.00  0.00     0.173 A 
ATOM     62  F   UNL A   1      37.776  30.586  36.896  1.00  0.00    -0.203 F 
ATOM     63  C   UNL A   1      37.931  32.653  38.016  1.00  0.00     0.198 A 
ATOM     64  C   UNL A   1      39.326  34.396  37.132  1.00  0.00     0.198 A 
ATOM     65  F   UNL A   1      40.511  34.054  35.129  1.00  0.00    -0.203 F 
ATOM     66  F   UNL A   1      37.063  32.216  38.939  1.00  0.00    -0.200 F 
ATOM     67  C   UNL A   1      38.451  33.936  38.104  1.00  0.00     0.200 A 
ATOM     68  F   UNL A   1      39.838  35.632  37.223  1.00  0.00    -0.200 F 
ATOM     69  F   UNL A   1      38.103  34.731  39.125  1.00  0.00    -0.200 F 
ENDBRANCH  36  59
ENDBRANCH  10  11
ENDBRANCH   3   5
ENDBRANCH   2   3
ENDBRANCH   1   2
BRANCH   1  70
ATOM     70  C   UNL A   1      42.877  21.408  25.962  1.00  0.00     0.275 C 
BRANCH  70  71
ATOM     71  O   UNL A   1      41.509  21.726  25.669  1.00  0.00    -0.458 OA
BRANCH  71  72
ATOM     72  C   UNL A   1      40.722  21.894  26.764  1.00  0.00     0.339 C 
ATOM     73  O   UNL A   1      41.059  21.830  27.932  1.00  0.00    -0.246 OA
BRANCH  72  74
ATOM     74  C   UNL A   1      39.393  22.326  26.327  1.00  0.00     0.078 A 
ATOM     75  C   UNL A   1      38.925  23.624  26.505  1.00  0.00     0.019 A 
ATOM     76  C   UNL A   1      38.553  21.388  25.751  1.00  0.00     0.127 A 
ATOM     77  C   UNL A   1      37.625  23.928  26.108  1.00  0.00     0.031 A 
ATOM     78  N   UNL A   1      37.267  21.648  25.413  1.00  0.00    -0.254 NA
ATOM     79  C   UNL A   1      36.816  22.916  25.588  1.00  0.00     0.095 A 
BRANCH  79  80
ATOM     80  C   UNL A   1      35.414  23.249  25.093  1.00  0.00     0.319 C 
BRANCH  80  81
ATOM     81  N   UNL A   1      34.521  23.866  26.092  1.00  0.00    -0.327 N 
ATOM     82  C   UNL A   1      34.098  22.922  27.153  1.00  0.00     0.284 C 
ATOM     83  C   UNL A   1      33.412  24.620  25.469  1.00  0.00     0.289 C 
ATOM     84  H   UNL A   1      35.075  24.569  26.583  1.00  0.00     0.348 HD
ATOM     85  C   UNL A   1      32.612  22.512  27.199  1.00  0.00     0.183 C 
ATOM     86  C   UNL A   1      32.233  24.874  26.413  1.00  0.00     0.161 C 
ATOM     87  N   UNL A   1      31.725  23.627  26.952  1.00  0.00    -0.309 N 
ATOM     88  C   UNL A   1      31.005  25.466  25.716  1.00  0.00     0.148 C 
ATOM     89  C   UNL A   1      30.349  23.550  26.878  1.00  0.00     0.318 C 
ATOM     90  N   UNL A   1      29.905  24.696  26.237  1.00  0.00    -0.336 N 
ATOM     91  O   UNL A   1      29.634  22.635  27.246  1.00  0.00    -0.249 OA
ATOM     92  H   UNL A   1      28.959  24.951  26.150  1.00  0.00     0.165 HD
ENDBRANCH  80  81
ENDBRANCH  79  80
ENDBRANCH  72  74
ENDBRANCH  71  72
ENDBRANCH  70  71
ENDBRANCH   1  70
TORSDOF 13
ENDMDL
MODEL 2
REMARK VINA RESULT:     -12.2      0.188      1.612
REMARK SMILES O=C(OCCOC(=O)c1ccc(C[N@@H+]2CCN3C(=O)NC[C@@H]3C2)nc1)c1ccc(-c2c3nc(c(-c4c(F)c(F)c(F)c(F)c4F)c4ccc([nH]4)c(-c4c(F)c(F)c(F)c(F)c4F)c4nc(c(-c5c(F)c(F)c(F)c(F)c5F)c5ccc2[nH]5)C=C4)C=C3)cc1
REMARK SMILES IDX 4 1 3 2 2 3 1 4 26 5 27 6 88 7 28 8 87 9 29 10 30 11 31 12
REMARK SMILES IDX 81 13 32 14 86 15 80 16 82 17 33 18 85 19 79 20 78 21 34 23
REMARK SMILES IDX 66 24 46 25 65 26 47 27 50 28 64 29 83 30 48 31 49 32 63 34
REMARK SMILES IDX 84 35 51 36 35 37 36 38 44 39 37 40 38 41 42 42 45 43 39 44
REMARK SMILES IDX 40 45 43 46 41 47 67 48 68 49 76 50 69 51 70 52 74 53 77 54
REMARK SMILES IDX 71 55 72 56 75 57 73 58 52 59 53 60 61 61 54 62 55 63 59 64
REMARK SMILES IDX 62 65 56 66 57 67 60 68 58 69 5 70 6 71 7 72 8 73 9 74 10 75
REMARK SMILES IDX 25 76 11 77 24 78 12 79 13 80 14 81 15 82 23 83 16 85 22 86
REMARK SMILES IDX 17 87 21 88 18 89 20 90 19 91
REMARK H PARENT 82 22 50 33 14 84 20 92
REMARK Flexibility Score: inf
ROOT
ATOM      1  C   UNL A   1      43.896  21.992  25.448  1.00  0.00     0.275 C 
ENDROOT
BRANCH   1   2
ATOM      2  O   UNL A   1      43.465  23.260  24.924  1.00  0.00    -0.458 OA
BRANCH   2   3
ATOM      3  C   UNL A   1      43.967  24.495  25.160  1.00  0.00     0.338 C 
ATOM      4  O   UNL A   1      45.024  24.825  24.626  1.00  0.00    -0.246 OA
BRANCH   3   5
ATOM      5  C   UNL A   1      43.404  25.419  26.193  1.00  0.00     0.060 A 
ATOM      6  C   UNL A   1      43.949  26.642  26.589  1.00  0.00     0.016 A 
ATOM      7  C   UNL A   1      42.239  24.975  26.850  1.00  0.00     0.016 A 
ATOM      8  C   UNL A   1      43.332  27.421  27.574  1.00  0.00     0.010 A 
ATOM      9  C   UNL A   1      41.609  25.755  27.824  1.00  0.00     0.010 A 
ATOM     10  C   UNL A   1      42.165  26.980  28.202  1.00  0.00    -0.014 A 
BRANCH  10  11
ATOM     11  C   UNL A   1      41.631  27.727  29.363  1.00  0.00     0.031 A 
ATOM     12  C   UNL A   1      42.304  27.559  30.691  1.00  0.00     0.074 A 
ATOM     13  C   UNL A   1      40.599  28.577  29.225  1.00  0.00     0.049 A 
ATOM     14  N   UNL A   1      42.080  28.187  31.815  1.00  0.00    -0.248 NA
ATOM     15  C   UNL A   1      43.398  26.576  30.752  1.00  0.00     0.031 C 
ATOM     16  C   UNL A   1      39.919  28.877  27.969  1.00  0.00     0.029 A 
ATOM     17  N   UNL A   1      39.935  29.340  30.150  1.00  0.00    -0.354 N 
ATOM     18  C   UNL A   1      43.036  27.712  32.700  1.00  0.00     0.074 A 
ATOM     19  C   UNL A   1      43.790  26.688  32.011  1.00  0.00     0.031 C 
ATOM     20  C   UNL A   1      38.893  29.710  28.207  1.00  0.00     0.029 A 
ATOM     21  C   UNL A   1      38.866  30.028  29.631  1.00  0.00     0.049 A 
ATOM     22  H   UNL A   1      40.200  29.391  31.097  1.00  0.00     0.167 HD
ATOM     23  C   UNL A   1      43.291  28.127  33.963  1.00  0.00     0.037 A 
ATOM     24  C   UNL A   1      37.976  30.835  30.240  1.00  0.00     0.037 A 
ATOM     25  C   UNL A   1      42.509  29.115  34.653  1.00  0.00     0.049 A 
ATOM     26  C   UNL A   1      38.183  31.170  31.691  1.00  0.00     0.074 A 
ATOM     27  C   UNL A   1      42.670  29.607  35.935  1.00  0.00     0.029 A 
ATOM     28  N   UNL A   1      41.394  29.745  34.115  1.00  0.00    -0.354 N 
ATOM     29  N   UNL A   1      39.139  30.778  32.498  1.00  0.00    -0.248 NA
ATOM     30  C   UNL A   1      37.218  32.090  32.304  1.00  0.00     0.031 C 
ATOM     31  C   UNL A   1      41.620  30.500  36.189  1.00  0.00     0.029 A 
ATOM     32  C   UNL A   1      40.835  30.599  35.051  1.00  0.00     0.049 A 
ATOM     33  H   UNL A   1      41.052  29.604  33.203  1.00  0.00     0.167 HD
ATOM     34  C   UNL A   1      38.928  31.446  33.695  1.00  0.00     0.074 A 
ATOM     35  C   UNL A   1      37.740  32.258  33.511  1.00  0.00     0.031 C 
ATOM     36  C   UNL A   1      39.661  31.408  34.835  1.00  0.00     0.037 A 
BRANCH  23  37
ATOM     37  C   UNL A   1      44.453  27.483  34.655  1.00  0.00     0.064 A 
ATOM     38  C   UNL A   1      44.294  26.308  35.409  1.00  0.00     0.173 A 
ATOM     39  C   UNL A   1      45.725  28.073  34.618  1.00  0.00     0.173 A 
ATOM     40  F   UNL A   1      43.091  25.720  35.494  1.00  0.00    -0.203 F 
ATOM     41  C   UNL A   1      45.354  25.773  36.133  1.00  0.00     0.198 A 
ATOM     42  C   UNL A   1      46.789  27.520  35.324  1.00  0.00     0.198 A 
ATOM     43  F   UNL A   1      45.928  29.197  33.915  1.00  0.00    -0.203 F 
ATOM     44  F   UNL A   1      45.161  24.691  36.901  1.00  0.00    -0.200 F 
ATOM     45  C   UNL A   1      46.601  26.379  36.091  1.00  0.00     0.200 A 
ATOM     46  F   UNL A   1      47.994  28.104  35.281  1.00  0.00    -0.200 F 
ATOM     47  F   UNL A   1      47.617  25.874  36.804  1.00  0.00    -0.200 F 
ENDBRANCH  23  37
BRANCH  24  48
ATOM     48  C   UNL A   1      36.849  31.414  29.465  1.00  0.00     0.064 A 
ATOM     49  C   UNL A   1      35.752  30.631  29.079  1.00  0.00     0.173 A 
ATOM     50  C   UNL A   1      36.841  32.770  29.102  1.00  0.00     0.173 A 
ATOM     51  F   UNL A   1      35.717  29.328  29.393  1.00  0.00    -0.203 F 
ATOM     52  C   UNL A   1      34.700  31.177  28.345  1.00  0.00     0.198 A 
ATOM     53  C   UNL A   1      35.780  33.318  28.384  1.00  0.00     0.198 A 
ATOM     54  F   UNL A   1      37.861  33.565  29.458  1.00  0.00    -0.203 F 
ATOM     55  F   UNL A   1      33.677  30.399  27.966  1.00  0.00    -0.200 F 
ATOM     56  C   UNL A   1      34.714  32.520  28.001  1.00  0.00     0.200 A 
ATOM     57  F   UNL A   1      35.791  34.620  28.068  1.00  0.00    -0.200 F 
ATOM     58  F   UNL A   1      33.698  33.045  27.302  1.00  0.00    -0.200 F 
ENDBRANCH  24  48
BRANCH  36  59
ATOM     59  C   UNL A   1      39.234  32.312  35.952  1.00  0.00     0.064 A 
ATOM     60  C   UNL A   1      38.333  31.891  36.940  1.00  0.00     0.173 A 
ATOM     61  C   UNL A   1      39.773  33.604  36.058  1.00  0.00     0.173 A 
ATOM     62  F   UNL A   1      37.778  30.671  36.870  1.00  0.00    -0.203 F 
ATOM     63  C   UNL A   1      37.971  32.738  37.983  1.00  0.00     0.198 A 
ATOM     64  C   UNL A   1      39.431  34.437  37.117  1.00  0.00     0.198 A 
ATOM     65  F   UNL A   1      40.641  34.050  35.137  1.00  0.00    -0.203 F 
ATOM     66  F   UNL A   1      37.076  32.331  38.893  1.00  0.00    -0.200 F 
ATOM     67  C   UNL A   1      38.526  34.006  38.075  1.00  0.00     0.200 A 
ATOM     68  F   UNL A   1      39.976  35.658  37.210  1.00  0.00    -0.200 F 
ATOM     69  F   UNL A   1      38.183  34.816  39.085  1.00  0.00    -0.200 F 
ENDBRANCH  36  59
ENDBRANCH  10  11
ENDBRANCH   3   5
ENDBRANCH   2   3
ENDBRANCH   1   2
BRANCH   1  70
ATOM     70  C   UNL A   1      42.766  21.153  26.050  1.00  0.00     0.275 C 
BRANCH  70  71
ATOM     71  O   UNL A   1      41.467  21.683  25.751  1.00  0.00    -0.458 OA
BRANCH  71  72
ATOM     72  C   UNL A   1      40.579  21.611  26.777  1.00  0.00     0.339 C 
ATOM     73  O   UNL A   1      40.811  21.314  27.935  1.00  0.00    -0.246 OA
BRANCH  72  74
ATOM     74  C   UNL A   1      39.281  22.103  26.313  1.00  0.00     0.078 A 
ATOM     75  C   UNL A   1      38.846  23.406  26.530  1.00  0.00     0.019 A 
ATOM     76  C   UNL A   1      38.434  21.217  25.668  1.00  0.00     0.127 A 
ATOM     77  C   UNL A   1      37.571  23.767  26.100  1.00  0.00     0.031 A 
ATOM     78  N   UNL A   1      37.170  21.531  25.295  1.00  0.00    -0.254 NA
ATOM     79  C   UNL A   1      36.751  22.805  25.508  1.00  0.00     0.095 A 
BRANCH  79  80
ATOM     80  C   UNL A   1      35.380  23.202  24.980  1.00  0.00     0.319 C 
BRANCH  80  81
ATOM     81  N   UNL A   1      34.499  23.879  25.950  1.00  0.00    -0.327 N 
ATOM     82  C   UNL A   1      34.126  23.014  27.095  1.00  0.00     0.284 C 
ATOM     83  C   UNL A   1      33.356  24.556  25.300  1.00  0.00     0.289 C 
ATOM     84  H   UNL A   1      35.049  24.630  26.368  1.00  0.00     0.348 HD
ATOM     85  C   UNL A   1      32.652  22.578  27.216  1.00  0.00     0.183 C 
ATOM     86  C   UNL A   1      32.197  24.860  26.254  1.00  0.00     0.161 C 
ATOM     87  N   UNL A   1      31.733  23.651  26.905  1.00  0.00    -0.309 N 
ATOM     88  C   UNL A   1      30.938  25.368  25.546  1.00  0.00     0.148 C 
ATOM     89  C   UNL A   1      30.357  23.539  26.876  1.00  0.00     0.318 C 
ATOM     90  N   UNL A   1      29.871  24.620  26.158  1.00  0.00    -0.336 N 
ATOM     91  O   UNL A   1      29.674  22.642  27.336  1.00  0.00    -0.249 OA
ATOM     92  H   UNL A   1      28.916  24.847  26.078  1.00  0.00     0.165 HD
ENDBRANCH  80  81
ENDBRANCH  79  80
ENDBRANCH  72  74
ENDBRANCH  71  72
ENDBRANCH  70  71
ENDBRANCH   1  70
TORSDOF 13
ENDMDL
MODEL 3
REMARK VINA RESULT:     -12.1      3.552      8.680
REMARK SMILES O=C(OCCOC(=O)c1ccc(C[N@@H+]2CCN3C(=O)NC[C@@H]3C2)nc1)c1ccc(-c2c3nc(c(-c4c(F)c(F)c(F)c(F)c4F)c4ccc([nH]4)c(-c4c(F)c(F)c(F)c(F)c4F)c4nc(c(-c5c(F)c(F)c(F)c(F)c5F)c5ccc2[nH]5)C=C4)C=C3)cc1
REMARK SMILES IDX 4 1 3 2 2 3 1 4 26 5 27 6 88 7 28 8 87 9 29 10 30 11 31 12
REMARK SMILES IDX 81 13 32 14 86 15 80 16 82 17 33 18 85 19 79 20 78 21 34 23
REMARK SMILES IDX 66 24 46 25 65 26 47 27 50 28 64 29 83 30 48 31 49 32 63 34
REMARK SMILES IDX 84 35 51 36 35 37 36 38 44 39 37 40 38 41 42 42 45 43 39 44
REMARK SMILES IDX 40 45 43 46 41 47 67 48 68 49 76 50 69 51 70 52 74 53 77 54
REMARK SMILES IDX 71 55 72 56 75 57 73 58 52 59 53 60 61 61 54 62 55 63 59 64
REMARK SMILES IDX 62 65 56 66 57 67 60 68 58 69 5 70 6 71 7 72 8 73 9 74 10 75
REMARK SMILES IDX 25 76 11 77 24 78 12 79 13 80 14 81 15 82 23 83 16 85 22 86
REMARK SMILES IDX 17 87 21 88 18 89 20 90 19 91
REMARK H PARENT 82 22 50 33 14 84 20 92
REMARK Flexibility Score: inf
ROOT
ATOM      1  C   UNL A   1      31.986  33.017  26.623  1.00  0.00     0.275 C 
ENDROOT
BRANCH   1   2
ATOM      2  O   UNL A   1      32.579  33.617  27.788  1.00  0.00    -0.458 OA
BRANCH   2   3
ATOM      3  C   UNL A   1      33.845  34.063  27.966  1.00  0.00     0.338 C 
ATOM      4  O   UNL A   1      34.163  35.160  27.511  1.00  0.00    -0.246 OA
BRANCH   3   5
ATOM      5  C   UNL A   1      34.939  33.209  28.523  1.00  0.00     0.060 A 
ATOM      6  C   UNL A   1      34.780  31.966  29.139  1.00  0.00     0.016 A 
ATOM      7  C   UNL A   1      36.239  33.745  28.450  1.00  0.00     0.016 A 
ATOM      8  C   UNL A   1      35.884  31.257  29.627  1.00  0.00     0.010 A 
ATOM      9  C   UNL A   1      37.348  33.036  28.922  1.00  0.00     0.010 A 
ATOM     10  C   UNL A   1      37.171  31.790  29.529  1.00  0.00    -0.014 A 
BRANCH  10  11
ATOM     11  C   UNL A   1      38.297  31.113  30.210  1.00  0.00     0.031 A 
ATOM     12  C   UNL A   1      38.593  31.477  31.633  1.00  0.00     0.074 A 
ATOM     13  C   UNL A   1      39.010  30.158  29.589  1.00  0.00     0.049 A 
ATOM     14  N   UNL A   1      39.456  30.945  32.459  1.00  0.00    -0.248 NA
ATOM     15  C   UNL A   1      37.788  32.564  32.214  1.00  0.00     0.031 C 
ATOM     16  C   UNL A   1      38.761  29.669  28.237  1.00  0.00     0.029 A 
ATOM     17  N   UNL A   1      40.092  29.429  30.010  1.00  0.00    -0.354 N 
ATOM     18  C   UNL A   1      39.260  31.596  33.668  1.00  0.00     0.074 A 
ATOM     19  C   UNL A   1      38.258  32.616  33.450  1.00  0.00     0.031 C 
ATOM     20  C   UNL A   1      39.702  28.769  27.909  1.00  0.00     0.029 A 
ATOM     21  C   UNL A   1      40.599  28.592  29.046  1.00  0.00     0.049 A 
ATOM     22  H   UNL A   1      40.469  29.499  30.917  1.00  0.00     0.167 HD
ATOM     23  C   UNL A   1      39.835  31.335  34.864  1.00  0.00     0.037 A 
ATOM     24  C   UNL A   1      41.663  27.767  29.088  1.00  0.00     0.037 A 
ATOM     25  C   UNL A   1      40.861  30.349  35.061  1.00  0.00     0.049 A 
ATOM     26  C   UNL A   1      42.393  27.599  30.391  1.00  0.00     0.074 A 
ATOM     27  C   UNL A   1      41.521  30.004  36.225  1.00  0.00     0.029 A 
ATOM     28  N   UNL A   1      41.394  29.564  34.047  1.00  0.00    -0.354 N 
ATOM     29  N   UNL A   1      42.148  28.160  31.551  1.00  0.00    -0.248 NA
ATOM     30  C   UNL A   1      43.517  26.654  30.406  1.00  0.00     0.031 C 
ATOM     31  C   UNL A   1      42.489  29.043  35.905  1.00  0.00     0.029 A 
ATOM     32  C   UNL A   1      42.399  28.756  34.552  1.00  0.00     0.049 A 
ATOM     33  H   UNL A   1      41.101  29.579  33.107  1.00  0.00     0.167 HD
ATOM     34  C   UNL A   1      43.045  27.596  32.446  1.00  0.00     0.074 A 
ATOM     35  C   UNL A   1      43.851  26.659  31.689  1.00  0.00     0.031 C 
ATOM     36  C   UNL A   1      43.175  27.819  33.778  1.00  0.00     0.037 A 
BRANCH  23  37
ATOM     37  C   UNL A   1      39.361  32.155  36.025  1.00  0.00     0.064 A 
ATOM     38  C   UNL A   1      39.944  33.397  36.328  1.00  0.00     0.173 A 
ATOM     39  C   UNL A   1      38.358  31.674  36.879  1.00  0.00     0.173 A 
ATOM     40  F   UNL A   1      40.924  33.888  35.555  1.00  0.00    -0.203 F 
ATOM     41  C   UNL A   1      39.571  34.104  37.467  1.00  0.00     0.198 A 
ATOM     42  C   UNL A   1      37.970  32.397  38.003  1.00  0.00     0.198 A 
ATOM     43  F   UNL A   1      37.772  30.492  36.634  1.00  0.00    -0.203 F 
ATOM     44  F   UNL A   1      40.190  35.253  37.774  1.00  0.00    -0.200 F 
ATOM     45  C   UNL A   1      38.585  33.604  38.304  1.00  0.00     0.200 A 
ATOM     46  F   UNL A   1      37.015  31.915  38.810  1.00  0.00    -0.200 F 
ATOM     47  F   UNL A   1      38.239  34.277  39.410  1.00  0.00    -0.200 F 
ENDBRANCH  23  37
BRANCH  24  48
ATOM     48  C   UNL A   1      42.059  27.006  27.875  1.00  0.00     0.064 A 
ATOM     49  C   UNL A   1      42.990  27.523  26.964  1.00  0.00     0.173 A 
ATOM     50  C   UNL A   1      41.520  25.739  27.608  1.00  0.00     0.173 A 
ATOM     51  F   UNL A   1      43.527  28.734  27.171  1.00  0.00    -0.203 F 
ATOM     52  C   UNL A   1      43.354  26.809  25.823  1.00  0.00     0.198 A 
ATOM     53  C   UNL A   1      41.898  25.019  26.476  1.00  0.00     0.198 A 
ATOM     54  F   UNL A   1      40.634  25.194  28.455  1.00  0.00    -0.203 F 
ATOM     55  F   UNL A   1      44.226  27.339  24.954  1.00  0.00    -0.200 F 
ATOM     56  C   UNL A   1      42.810  25.557  25.582  1.00  0.00     0.200 A 
ATOM     57  F   UNL A   1      41.381  23.802  26.255  1.00  0.00    -0.200 F 
ATOM     58  F   UNL A   1      43.165  24.869  24.488  1.00  0.00    -0.200 F 
ENDBRANCH  24  48
BRANCH  36  59
ATOM     59  C   UNL A   1      44.188  26.993  34.512  1.00  0.00     0.064 A 
ATOM     60  C   UNL A   1      45.496  27.449  34.730  1.00  0.00     0.173 A 
ATOM     61  C   UNL A   1      43.827  25.745  35.044  1.00  0.00     0.173 A 
ATOM     62  F   UNL A   1      45.892  28.627  34.224  1.00  0.00    -0.203 F 
ATOM     63  C   UNL A   1      46.411  26.676  35.437  1.00  0.00     0.198 A 
ATOM     64  C   UNL A   1      44.736  24.989  35.775  1.00  0.00     0.198 A 
ATOM     65  F   UNL A   1      42.586  25.268  34.864  1.00  0.00    -0.203 F 
ATOM     66  F   UNL A   1      47.669  27.112  35.597  1.00  0.00    -0.200 F 
ATOM     67  C   UNL A   1      46.029  25.452  35.966  1.00  0.00     0.200 A 
ATOM     68  F   UNL A   1      44.363  23.811  36.295  1.00  0.00    -0.200 F 
ATOM     69  F   UNL A   1      46.911  24.715  36.654  1.00  0.00    -0.200 F 
ENDBRANCH  36  59
ENDBRANCH  10  11
ENDBRANCH   3   5
ENDBRANCH   2   3
ENDBRANCH   1   2
BRANCH   1  70
ATOM     70  C   UNL A   1      31.408  31.621  26.871  1.00  0.00     0.275 C 
BRANCH  70  71
ATOM     71  O   UNL A   1      32.253  30.577  26.368  1.00  0.00    -0.458 OA
BRANCH  71  72
ATOM     72  C   UNL A   1      31.634  29.708  25.526  1.00  0.00     0.339 C 
ATOM     73  O   UNL A   1      30.872  29.978  24.615  1.00  0.00    -0.246 OA
BRANCH  72  74
ATOM     74  C   UNL A   1      32.146  28.360  25.780  1.00  0.00     0.078 A 
ATOM     75  C   UNL A   1      33.417  27.949  25.390  1.00  0.00     0.019 A 
ATOM     76  C   UNL A   1      31.309  27.444  26.396  1.00  0.00     0.127 A 
ATOM     77  C   UNL A   1      33.795  26.629  25.625  1.00  0.00     0.031 A 
ATOM     78  N   UNL A   1      31.637  26.142  26.580  1.00  0.00    -0.254 NA
ATOM     79  C   UNL A   1      32.878  25.747  26.199  1.00  0.00     0.095 A 
BRANCH  79  80
ATOM     80  C   UNL A   1      33.301  24.319  26.517  1.00  0.00     0.319 C 
BRANCH  80  81
ATOM     81  N   UNL A   1      33.344  23.401  25.363  1.00  0.00    -0.327 N 
ATOM     82  C   UNL A   1      32.015  22.841  25.019  1.00  0.00     0.284 C 
ATOM     83  C   UNL A   1      34.418  22.392  25.484  1.00  0.00     0.289 C 
ATOM     84  H   UNL A   1      33.600  23.965  24.552  1.00  0.00     0.348 HD
ATOM     85  C   UNL A   1      31.792  21.332  25.241  1.00  0.00     0.183 C 
ATOM     86  C   UNL A   1      34.217  21.168  24.584  1.00  0.00     0.161 C 
ATOM     87  N   UNL A   1      32.936  20.541  24.844  1.00  0.00    -0.309 N 
ATOM     88  C   UNL A   1      35.210  20.035  24.859  1.00  0.00     0.148 C 
ATOM     89  C   UNL A   1      33.044  19.171  24.978  1.00  0.00     0.318 C 
ATOM     90  N   UNL A   1      34.389  18.852  24.880  1.00  0.00    -0.336 N 
ATOM     91  O   UNL A   1      32.151  18.373  25.198  1.00  0.00    -0.249 OA
ATOM     92  H   UNL A   1      34.739  17.933  24.830  1.00  0.00     0.165 HD
ENDBRANCH  80  81
ENDBRANCH  79  80
ENDBRANCH  72  74
ENDBRANCH  71  72
ENDBRANCH  70  71
ENDBRANCH   1  70
TORSDOF 13
ENDMDL
