MODEL 1
REMARK VINA RESULT:     -10.9      0.000      0.000
REMARK SMILES Nc1cc(F)c([C@H]([NH3+])C(=O)OCCOC(=O)c2ccc(-c3c4nc(c(-c5c(F)c(F)c(F)c(F)c5F)c5ccc([nH]5)c(-c5c(F)c(F)c(F)c(F)c5F)c5nc(c(-c6c(F)c(F)c(F)c(F)c6F)c6ccc3[nH]6)C=C5)C=C4)cc2)cc1F
REMARK SMILES IDX 12 1 11 2 9 3 10 4 7 5 6 6 2 7 3 8 81 9 4 10 80 11 82 12
REMARK SMILES IDX 5 13 1 14 8 17 13 21 14 22 15 23 16 24 17 25 18 26 79 27
REMARK SMILES IDX 19 28 78 29 20 30 21 31 22 32 72 33 23 34 77 35 71 36 73 37
REMARK SMILES IDX 24 38 76 39 70 40 69 41 25 43 57 44 37 45 56 46 38 47 41 48
REMARK SMILES IDX 55 49 74 50 39 51 40 52 54 54 75 55 42 56 26 57 27 58 35 59
REMARK SMILES IDX 28 60 29 61 33 62 36 63 30 64 31 65 34 66 32 67 58 68 59 69
REMARK SMILES IDX 67 70 60 71 61 72 65 73 68 74 62 75 63 76 66 77 64 78 43 79
REMARK SMILES IDX 44 80 52 81 45 82 46 83 50 84 53 85 47 86 48 87 51 88 49 89
REMARK H PARENT 1 15 1 16 8 18 8 19 8 20 73 42 41 53
REMARK Flexibility Score: inf
ROOT
ATOM      1  C   UNL A   1      44.373  20.392  25.030  1.00  0.00     0.274 C 
ENDROOT
BRANCH   1   2
ATOM      2  O   UNL A   1      42.937  20.287  25.046  1.00  0.00    -0.457 OA
BRANCH   2   3
ATOM      3  C   UNL A   1      42.426  19.323  25.872  1.00  0.00     0.369 C 
ATOM      4  O   UNL A   1      42.657  18.125  25.751  1.00  0.00    -0.245 OA
BRANCH   3   5
ATOM      5  C   UNL A   1      41.592  19.936  27.025  1.00  0.00     0.326 C 
BRANCH   5   6
ATOM      6  C   UNL A   1      40.434  20.789  26.551  1.00  0.00     0.060 A 
ATOM      7  C   UNL A   1      38.153  22.273  25.726  1.00  0.00     0.071 A 
ATOM      8  C   UNL A   1      38.289  20.935  25.375  1.00  0.00     0.068 A 
ATOM      9  C   UNL A   1      39.175  22.863  26.481  1.00  0.00     0.146 A 
ATOM     10  C   UNL A   1      39.397  20.206  25.807  1.00  0.00     0.135 A 
ATOM     11  C   UNL A   1      40.292  22.140  26.901  1.00  0.00     0.055 A 
ATOM     12  F   UNL A   1      39.075  24.154  26.832  1.00  0.00    -0.205 F 
ATOM     13  F   UNL A   1      39.433  18.901  25.511  1.00  0.00    -0.206 F 
BRANCH   7  14
ATOM     14  N   UNL A   1      37.085  23.020  25.249  1.00  0.00    -0.396 N 
ATOM     15  H   UNL A   1      36.343  22.574  24.779  1.00  0.00     0.156 HD
ATOM     16  H   UNL A   1      37.067  23.996  25.382  1.00  0.00     0.156 HD
ENDBRANCH   7  14
ENDBRANCH   5   6
BRANCH   5  17
ATOM     17  N   UNL A   1      42.482  20.622  28.001  1.00  0.00    -0.342 N 
ATOM     18  H   UNL A   1      42.962  21.394  27.539  1.00  0.00     0.345 HD
ATOM     19  H   UNL A   1      43.170  19.959  28.359  1.00  0.00     0.345 HD
ATOM     20  H   UNL A   1      41.924  20.984  28.774  1.00  0.00     0.345 HD
ENDBRANCH   5  17
ENDBRANCH   3   5
ENDBRANCH   2   3
ENDBRANCH   1   2
BRANCH   1  21
ATOM     21  C   UNL A   1      44.856  21.749  25.564  1.00  0.00     0.275 C 
BRANCH  21  22
ATOM     22  O   UNL A   1      43.775  22.665  25.825  1.00  0.00    -0.458 OA
BRANCH  22  23
ATOM     23  C   UNL A   1      44.023  23.968  25.541  1.00  0.00     0.338 C 
ATOM     24  O   UNL A   1      44.473  24.420  24.505  1.00  0.00    -0.246 OA
BRANCH  23  25
ATOM     25  C   UNL A   1      43.487  24.817  26.623  1.00  0.00     0.060 A 
ATOM     26  C   UNL A   1      42.586  24.328  27.567  1.00  0.00     0.016 A 
ATOM     27  C   UNL A   1      43.933  26.142  26.697  1.00  0.00     0.016 A 
ATOM     28  C   UNL A   1      42.111  25.182  28.568  1.00  0.00     0.010 A 
ATOM     29  C   UNL A   1      43.459  26.994  27.690  1.00  0.00     0.010 A 
ATOM     30  C   UNL A   1      42.536  26.522  28.629  1.00  0.00    -0.014 A 
BRANCH  30  31
ATOM     31  C   UNL A   1      42.056  27.423  29.703  1.00  0.00     0.031 A 
ATOM     32  C   UNL A   1      40.832  28.268  29.507  1.00  0.00     0.074 A 
ATOM     33  C   UNL A   1      42.756  27.496  30.850  1.00  0.00     0.049 A 
ATOM     34  N   UNL A   1      40.227  29.051  30.365  1.00  0.00    -0.248 NA
ATOM     35  C   UNL A   1      40.211  28.245  28.174  1.00  0.00     0.031 C 
ATOM     36  C   UNL A   1      43.999  26.773  31.119  1.00  0.00     0.029 A 
ATOM     37  N   UNL A   1      42.522  28.203  32.001  1.00  0.00    -0.354 N 
ATOM     38  C   UNL A   1      39.145  29.594  29.685  1.00  0.00     0.074 A 
ATOM     39  C   UNL A   1      39.211  29.103  28.325  1.00  0.00     0.031 C 
ATOM     40  C   UNL A   1      44.397  27.042  32.371  1.00  0.00     0.029 A 
ATOM     41  C   UNL A   1      43.451  27.971  32.984  1.00  0.00     0.049 A 
ATOM     42  H   UNL A   1      41.761  28.818  32.111  1.00  0.00     0.167 HD
ATOM     43  C   UNL A   1      38.171  30.403  30.165  1.00  0.00     0.037 A 
ATOM     44  C   UNL A   1      43.521  28.442  34.243  1.00  0.00     0.037 A 
ATOM     45  C   UNL A   1      38.120  30.891  31.520  1.00  0.00     0.049 A 
ATOM     46  C   UNL A   1      42.439  29.359  34.744  1.00  0.00     0.074 A 
ATOM     47  C   UNL A   1      37.146  31.673  32.118  1.00  0.00     0.029 A 
ATOM     48  N   UNL A   1      39.089  30.654  32.484  1.00  0.00    -0.354 N 
ATOM     49  N   UNL A   1      41.365  29.785  34.126  1.00  0.00    -0.248 NA
ATOM     50  C   UNL A   1      42.573  29.851  36.122  1.00  0.00     0.031 C 
ATOM     51  C   UNL A   1      37.551  31.951  33.427  1.00  0.00     0.029 A 
ATOM     52  C   UNL A   1      38.751  31.298  33.663  1.00  0.00     0.049 A 
ATOM     53  H   UNL A   1      39.897  30.107  32.349  1.00  0.00     0.167 HD
ATOM     54  C   UNL A   1      40.688  30.582  35.039  1.00  0.00     0.074 A 
ATOM     55  C   UNL A   1      41.460  30.560  36.264  1.00  0.00     0.031 C 
ATOM     56  C   UNL A   1      39.532  31.270  34.874  1.00  0.00     0.037 A 
BRANCH  43  57
ATOM     57  C   UNL A   1      37.061  30.795  29.234  1.00  0.00     0.064 A 
ATOM     58  C   UNL A   1      36.070  29.876  28.857  1.00  0.00     0.173 A 
ATOM     59  C   UNL A   1      36.932  32.118  28.783  1.00  0.00     0.173 A 
ATOM     60  F   UNL A   1      36.147  28.598  29.258  1.00  0.00    -0.203 F 
ATOM     61  C   UNL A   1      35.002  30.261  28.052  1.00  0.00     0.198 A 
ATOM     62  C   UNL A   1      35.848  32.507  28.001  1.00  0.00     0.198 A 
ATOM     63  F   UNL A   1      37.845  33.041  29.123  1.00  0.00    -0.203 F 
ATOM     64  F   UNL A   1      34.083  29.358  27.683  1.00  0.00    -0.200 F 
ATOM     65  C   UNL A   1      34.885  31.578  27.633  1.00  0.00     0.200 A 
ATOM     66  F   UNL A   1      35.726  33.784  27.613  1.00  0.00    -0.200 F 
ATOM     67  F   UNL A   1      33.845  31.952  26.876  1.00  0.00    -0.200 F 
ENDBRANCH  43  57
BRANCH  44  68
ATOM     68  C   UNL A   1      44.630  28.003  35.129  1.00  0.00     0.064 A 
ATOM     69  C   UNL A   1      45.799  28.767  35.245  1.00  0.00     0.173 A 
ATOM     70  C   UNL A   1      44.532  26.836  35.901  1.00  0.00     0.173 A 
ATOM     71  F   UNL A   1      45.946  29.882  34.514  1.00  0.00    -0.203 F 
ATOM     72  C   UNL A   1      46.833  28.376  36.093  1.00  0.00     0.198 A 
ATOM     73  C   UNL A   1      45.554  26.462  36.770  1.00  0.00     0.198 A 
ATOM     74  F   UNL A   1      43.431  26.075  35.831  1.00  0.00    -0.203 F 
ATOM     75  F   UNL A   1      47.954  29.108  36.162  1.00  0.00    -0.200 F 
ATOM     76  C   UNL A   1      46.706  27.228  36.862  1.00  0.00     0.200 A 
ATOM     77  F   UNL A   1      45.421  25.361  37.524  1.00  0.00    -0.200 F 
ATOM     78  F   UNL A   1      47.694  26.861  37.688  1.00  0.00    -0.200 F 
ENDBRANCH  44  68
BRANCH  56  79
ATOM     79  C   UNL A   1      39.024  32.063  36.044  1.00  0.00     0.064 A 
ATOM     80  C   UNL A   1      38.191  31.484  37.013  1.00  0.00     0.173 A 
ATOM     81  C   UNL A   1      39.436  33.391  36.240  1.00  0.00     0.173 A 
ATOM     82  F   UNL A   1      37.760  30.222  36.865  1.00  0.00    -0.203 F 
ATOM     83  C   UNL A   1      37.778  32.210  38.127  1.00  0.00     0.198 A 
ATOM     84  C   UNL A   1      39.046  34.103  37.370  1.00  0.00     0.198 A 
ATOM     85  F   UNL A   1      40.239  33.989  35.347  1.00  0.00    -0.203 F 
ATOM     86  F   UNL A   1      36.954  31.648  39.021  1.00  0.00    -0.200 F 
ATOM     87  C   UNL A   1      38.213  33.513  38.310  1.00  0.00     0.200 A 
ATOM     88  F   UNL A   1      39.481  35.356  37.554  1.00  0.00    -0.200 F 
ATOM     89  F   UNL A   1      37.830  34.203  39.393  1.00  0.00    -0.200 F 
ENDBRANCH  56  79
ENDBRANCH  30  31
ENDBRANCH  23  25
ENDBRANCH  22  23
ENDBRANCH  21  22
ENDBRANCH   1  21
TORSDOF 14
ENDMDL
MODEL 2
REMARK VINA RESULT:     -10.9      1.564      2.368
REMARK SMILES Nc1cc(F)c([C@H]([NH3+])C(=O)OCCOC(=O)c2ccc(-c3c4nc(c(-c5c(F)c(F)c(F)c(F)c5F)c5ccc([nH]5)c(-c5c(F)c(F)c(F)c(F)c5F)c5nc(c(-c6c(F)c(F)c(F)c(F)c6F)c6ccc3[nH]6)C=C5)C=C4)cc2)cc1F
REMARK SMILES IDX 12 1 11 2 9 3 10 4 7 5 6 6 2 7 3 8 81 9 4 10 80 11 82 12
REMARK SMILES IDX 5 13 1 14 8 17 13 21 14 22 15 23 16 24 17 25 18 26 79 27
REMARK SMILES IDX 19 28 78 29 20 30 21 31 22 32 72 33 23 34 77 35 71 36 73 37
REMARK SMILES IDX 24 38 76 39 70 40 69 41 25 43 57 44 37 45 56 46 38 47 41 48
REMARK SMILES IDX 55 49 74 50 39 51 40 52 54 54 75 55 42 56 26 57 27 58 35 59
REMARK SMILES IDX 28 60 29 61 33 62 36 63 30 64 31 65 34 66 32 67 58 68 59 69
REMARK SMILES IDX 67 70 60 71 61 72 65 73 68 74 62 75 63 76 66 77 64 78 43 79
REMARK SMILES IDX 44 80 52 81 45 82 46 83 50 84 53 85 47 86 48 87 51 88 49 89
REMARK H PARENT 1 15 1 16 8 18 8 19 8 20 73 42 41 53
REMARK Flexibility Score: inf
ROOT
ATOM      1  C   UNL A   1      46.169  23.088  24.443  1.00  0.00     0.274 C 
ENDROOT
BRANCH   1   2
ATOM      2  O   UNL A   1      46.449  21.942  25.269  1.00  0.00    -0.457 OA
BRANCH   2   3
ATOM      3  C   UNL A   1      46.278  20.725  24.666  1.00  0.00     0.369 C 
ATOM      4  O   UNL A   1      47.145  19.860  24.613  1.00  0.00    -0.245 OA
BRANCH   3   5
ATOM      5  C   UNL A   1      44.834  20.543  24.134  1.00  0.00     0.326 C 
BRANCH   5   6
ATOM      6  C   UNL A   1      43.822  20.233  25.217  1.00  0.00     0.060 A 
ATOM      7  C   UNL A   1      42.048  19.590  27.345  1.00  0.00     0.071 A 
ATOM      8  C   UNL A   1      42.907  18.627  26.825  1.00  0.00     0.068 A 
ATOM      9  C   UNL A   1      42.078  20.871  26.779  1.00  0.00     0.146 A 
ATOM     10  C   UNL A   1      43.792  18.958  25.800  1.00  0.00     0.135 A 
ATOM     11  C   UNL A   1      42.953  21.200  25.743  1.00  0.00     0.055 A 
ATOM     12  F   UNL A   1      41.259  21.822  27.256  1.00  0.00    -0.205 F 
ATOM     13  F   UNL A   1      44.653  18.014  25.398  1.00  0.00    -0.206 F 
BRANCH   7  14
ATOM     14  N   UNL A   1      41.122  19.253  28.322  1.00  0.00    -0.396 N 
ATOM     15  H   UNL A   1      40.268  19.741  28.379  1.00  0.00     0.156 HD
ATOM     16  H   UNL A   1      41.317  18.526  28.957  1.00  0.00     0.156 HD
ENDBRANCH   7  14
ENDBRANCH   5   6
BRANCH   5  17
ATOM     17  N   UNL A   1      44.817  19.577  23.002  1.00  0.00    -0.342 N 
ATOM     18  H   UNL A   1      44.228  19.942  22.253  1.00  0.00     0.345 HD
ATOM     19  H   UNL A   1      44.446  18.683  23.322  1.00  0.00     0.345 HD
ATOM     20  H   UNL A   1      45.766  19.446  22.653  1.00  0.00     0.345 HD
ENDBRANCH   5  17
ENDBRANCH   3   5
ENDBRANCH   2   3
ENDBRANCH   1   2
BRANCH   1  21
ATOM     21  C   UNL A   1      45.959  24.360  25.277  1.00  0.00     0.275 C 
BRANCH  21  22
ATOM     22  O   UNL A   1      44.918  25.207  24.754  1.00  0.00    -0.458 OA
BRANCH  22  23
ATOM     23  C   UNL A   1      43.648  24.824  25.035  1.00  0.00     0.338 C 
ATOM     24  O   UNL A   1      43.033  23.900  24.535  1.00  0.00    -0.246 OA
BRANCH  23  25
ATOM     25  C   UNL A   1      43.149  25.587  26.197  1.00  0.00     0.060 A 
ATOM     26  C   UNL A   1      42.289  25.020  27.136  1.00  0.00     0.016 A 
ATOM     27  C   UNL A   1      43.587  26.907  26.349  1.00  0.00     0.016 A 
ATOM     28  C   UNL A   1      41.848  25.794  28.215  1.00  0.00     0.010 A 
ATOM     29  C   UNL A   1      43.146  27.679  27.421  1.00  0.00     0.010 A 
ATOM     30  C   UNL A   1      42.265  27.130  28.358  1.00  0.00    -0.014 A 
BRANCH  30  31
ATOM     31  C   UNL A   1      41.821  27.945  29.512  1.00  0.00     0.031 A 
ATOM     32  C   UNL A   1      40.609  28.825  29.412  1.00  0.00     0.074 A 
ATOM     33  C   UNL A   1      42.541  27.908  30.648  1.00  0.00     0.049 A 
ATOM     34  N   UNL A   1      40.035  29.543  30.344  1.00  0.00    -0.248 NA
ATOM     35  C   UNL A   1      39.966  28.926  28.093  1.00  0.00     0.031 C 
ATOM     36  C   UNL A   1      43.775  27.143  30.832  1.00  0.00     0.029 A 
ATOM     37  N   UNL A   1      42.340  28.518  31.859  1.00  0.00    -0.354 N 
ATOM     38  C   UNL A   1      38.952  30.160  29.733  1.00  0.00     0.074 A 
ATOM     39  C   UNL A   1      38.985  29.786  28.336  1.00  0.00     0.031 C 
ATOM     40  C   UNL A   1      44.200  27.298  32.095  1.00  0.00     0.029 A 
ATOM     41  C   UNL A   1      43.282  28.187  32.802  1.00  0.00     0.049 A 
ATOM     42  H   UNL A   1      41.593  29.135  32.035  1.00  0.00     0.167 HD
ATOM     43  C   UNL A   1      38.002  30.943  30.298  1.00  0.00     0.037 A 
ATOM     44  C   UNL A   1      43.383  28.548  34.094  1.00  0.00     0.037 A 
ATOM     45  C   UNL A   1      37.983  31.314  31.690  1.00  0.00     0.049 A 
ATOM     46  C   UNL A   1      42.327  29.438  34.692  1.00  0.00     0.074 A 
ATOM     47  C   UNL A   1      37.035  32.060  32.370  1.00  0.00     0.029 A 
ATOM     48  N   UNL A   1      38.964  30.979  32.612  1.00  0.00    -0.354 N 
ATOM     49  N   UNL A   1      41.251  29.934  34.132  1.00  0.00    -0.248 NA
ATOM     50  C   UNL A   1      42.494  29.810  36.103  1.00  0.00     0.031 C 
ATOM     51  C   UNL A   1      37.468  32.219  33.690  1.00  0.00     0.029 A 
ATOM     52  C   UNL A   1      38.659  31.527  33.848  1.00  0.00     0.049 A 
ATOM     53  H   UNL A   1      39.760  30.432  32.417  1.00  0.00     0.167 HD
ATOM     54  C   UNL A   1      40.605  30.662  35.121  1.00  0.00     0.074 A 
ATOM     55  C   UNL A   1      41.398  30.523  36.325  1.00  0.00     0.031 C 
ATOM     56  C   UNL A   1      39.460  31.383  35.037  1.00  0.00     0.037 A 
BRANCH  43  57
ATOM     57  C   UNL A   1      36.883  31.432  29.424  1.00  0.00     0.064 A 
ATOM     58  C   UNL A   1      35.841  30.578  29.032  1.00  0.00     0.173 A 
ATOM     59  C   UNL A   1      36.801  32.781  29.047  1.00  0.00     0.173 A 
ATOM     60  F   UNL A   1      35.872  29.279  29.363  1.00  0.00    -0.203 F 
ATOM     61  C   UNL A   1      34.768  31.052  28.282  1.00  0.00     0.198 A 
ATOM     62  C   UNL A   1      35.713  33.258  28.321  1.00  0.00     0.198 A 
ATOM     63  F   UNL A   1      37.765  33.644  29.405  1.00  0.00    -0.203 F 
ATOM     64  F   UNL A   1      33.799  30.211  27.896  1.00  0.00    -0.200 F 
ATOM     65  C   UNL A   1      34.699  32.393  27.936  1.00  0.00     0.200 A 
ATOM     66  F   UNL A   1      35.638  34.558  28.004  1.00  0.00    -0.200 F 
ATOM     67  F   UNL A   1      33.655  32.852  27.233  1.00  0.00    -0.200 F 
ENDBRANCH  43  57
BRANCH  44  68
ATOM     68  C   UNL A   1      44.498  28.017  34.919  1.00  0.00     0.064 A 
ATOM     69  C   UNL A   1      45.697  28.731  35.048  1.00  0.00     0.173 A 
ATOM     70  C   UNL A   1      44.378  26.807  35.619  1.00  0.00     0.173 A 
ATOM     71  F   UNL A   1      45.864  29.884  34.384  1.00  0.00    -0.203 F 
ATOM     72  C   UNL A   1      46.738  28.252  35.841  1.00  0.00     0.198 A 
ATOM     73  C   UNL A   1      45.409  26.344  36.434  1.00  0.00     0.198 A 
ATOM     74  F   UNL A   1      43.249  26.090  35.534  1.00  0.00    -0.203 F 
ATOM     75  F   UNL A   1      47.886  28.938  35.922  1.00  0.00    -0.200 F 
ATOM     76  C   UNL A   1      46.590  27.063  36.540  1.00  0.00     0.200 A 
ATOM     77  F   UNL A   1      45.256  25.203  37.121  1.00  0.00    -0.200 F 
ATOM     78  F   UNL A   1      47.586  26.610  37.313  1.00  0.00    -0.200 F 
ENDBRANCH  44  68
BRANCH  56  79
ATOM     79  C   UNL A   1      38.987  32.082  36.279  1.00  0.00     0.064 A 
ATOM     80  C   UNL A   1      39.349  33.409  36.553  1.00  0.00     0.173 A 
ATOM     81  C   UNL A   1      38.103  31.445  37.165  1.00  0.00     0.173 A 
ATOM     82  F   UNL A   1      40.202  34.057  35.745  1.00  0.00    -0.203 F 
ATOM     83  C   UNL A   1      38.853  34.068  37.675  1.00  0.00     0.198 A 
ATOM     84  C   UNL A   1      37.585  32.118  38.267  1.00  0.00     0.198 A 
ATOM     85  F   UNL A   1      37.719  30.179  36.943  1.00  0.00    -0.203 F 
ATOM     86  F   UNL A   1      39.240  35.324  37.936  1.00  0.00    -0.200 F 
ATOM     87  C   UNL A   1      37.965  33.427  38.525  1.00  0.00     0.200 A 
ATOM     88  F   UNL A   1      36.714  31.503  39.077  1.00  0.00    -0.200 F 
ATOM     89  F   UNL A   1      37.474  34.070  39.593  1.00  0.00    -0.200 F 
ENDBRANCH  56  79
ENDBRANCH  30  31
ENDBRANCH  23  25
ENDBRANCH  22  23
ENDBRANCH  21  22
ENDBRANCH   1  21
TORSDOF 14
ENDMDL
MODEL 3
REMARK VINA RESULT:     -10.8      6.069     12.174
REMARK SMILES Nc1cc(F)c([C@H]([NH3+])C(=O)OCCOC(=O)c2ccc(-c3c4nc(c(-c5c(F)c(F)c(F)c(F)c5F)c5ccc([nH]5)c(-c5c(F)c(F)c(F)c(F)c5F)c5nc(c(-c6c(F)c(F)c(F)c(F)c6F)c6ccc3[nH]6)C=C5)C=C4)cc2)cc1F
REMARK SMILES IDX 12 1 11 2 9 3 10 4 7 5 6 6 2 7 3 8 81 9 4 10 80 11 82 12
REMARK SMILES IDX 5 13 1 14 8 17 13 21 14 22 15 23 16 24 17 25 18 26 79 27
REMARK SMILES IDX 19 28 78 29 20 30 21 31 22 32 72 33 23 34 77 35 71 36 73 37
REMARK SMILES IDX 24 38 76 39 70 40 69 41 25 43 57 44 37 45 56 46 38 47 41 48
REMARK SMILES IDX 55 49 74 50 39 51 40 52 54 54 75 55 42 56 26 57 27 58 35 59
REMARK SMILES IDX 28 60 29 61 33 62 36 63 30 64 31 65 34 66 32 67 58 68 59 69
REMARK SMILES IDX 67 70 60 71 61 72 65 73 68 74 62 75 63 76 66 77 64 78 43 79
REMARK SMILES IDX 44 80 52 81 45 82 46 83 50 84 53 85 47 86 48 87 51 88 49 89
REMARK H PARENT 1 15 1 16 8 18 8 19 8 20 73 42 41 53
REMARK Flexibility Score: inf
ROOT
ATOM      1  C   UNL A   1      34.296  34.404  32.080  1.00  0.00     0.274 C 
ENDROOT
BRANCH   1   2
ATOM      2  O   UNL A   1      34.057  33.735  30.828  1.00  0.00    -0.457 OA
BRANCH   2   3
ATOM      3  C   UNL A   1      33.528  34.514  29.834  1.00  0.00     0.369 C 
ATOM      4  O   UNL A   1      32.658  35.358  30.018  1.00  0.00    -0.245 OA
BRANCH   3   5
ATOM      5  C   UNL A   1      34.219  34.258  28.471  1.00  0.00     0.326 C 
BRANCH   5   6
ATOM      6  C   UNL A   1      34.303  32.793  28.097  1.00  0.00     0.060 A 
ATOM      7  C   UNL A   1      34.395  30.082  27.242  1.00  0.00     0.071 A 
ATOM      8  C   UNL A   1      33.215  30.812  27.152  1.00  0.00     0.068 A 
ATOM      9  C   UNL A   1      35.523  30.720  27.777  1.00  0.00     0.146 A 
ATOM     10  C   UNL A   1      33.185  32.148  27.548  1.00  0.00     0.135 A 
ATOM     11  C   UNL A   1      35.491  32.053  28.188  1.00  0.00     0.055 A 
ATOM     12  F   UNL A   1      36.677  30.042  27.880  1.00  0.00    -0.205 F 
ATOM     13  F   UNL A   1      32.044  32.823  27.360  1.00  0.00    -0.206 F 
BRANCH   7  14
ATOM     14  N   UNL A   1      34.418  28.736  26.908  1.00  0.00    -0.396 N 
ATOM     15  H   UNL A   1      33.615  28.181  27.042  1.00  0.00     0.156 HD
ATOM     16  H   UNL A   1      35.237  28.334  26.535  1.00  0.00     0.156 HD
ENDBRANCH   7  14
ENDBRANCH   5   6
BRANCH   5  17
ATOM     17  N   UNL A   1      35.526  34.968  28.412  1.00  0.00    -0.342 N 
ATOM     18  H   UNL A   1      36.202  34.395  27.907  1.00  0.00     0.345 HD
ATOM     19  H   UNL A   1      35.863  35.140  29.358  1.00  0.00     0.345 HD
ATOM     20  H   UNL A   1      35.407  35.858  27.927  1.00  0.00     0.345 HD
ENDBRANCH   5  17
ENDBRANCH   3   5
ENDBRANCH   2   3
ENDBRANCH   1   2
BRANCH   1  21
ATOM     21  C   UNL A   1      34.626  33.414  33.207  1.00  0.00     0.275 C 
BRANCH  21  22
ATOM     22  O   UNL A   1      35.473  32.332  32.772  1.00  0.00    -0.458 OA
BRANCH  22  23
ATOM     23  C   UNL A   1      36.639  32.186  33.449  1.00  0.00     0.338 C 
ATOM     24  O   UNL A   1      36.798  32.235  34.654  1.00  0.00    -0.246 OA
BRANCH  23  25
ATOM     25  C   UNL A   1      37.701  31.762  32.514  1.00  0.00     0.060 A 
ATOM     26  C   UNL A   1      37.591  31.955  31.138  1.00  0.00     0.016 A 
ATOM     27  C   UNL A   1      38.851  31.175  33.053  1.00  0.00     0.016 A 
ATOM     28  C   UNL A   1      38.629  31.530  30.302  1.00  0.00     0.010 A 
ATOM     29  C   UNL A   1      39.883  30.749  32.222  1.00  0.00     0.010 A 
ATOM     30  C   UNL A   1      39.776  30.915  30.838  1.00  0.00    -0.014 A 
BRANCH  30  31
ATOM     31  C   UNL A   1      40.889  30.487  29.959  1.00  0.00     0.031 A 
ATOM     32  C   UNL A   1      41.990  31.440  29.595  1.00  0.00     0.074 A 
ATOM     33  C   UNL A   1      40.882  29.236  29.466  1.00  0.00     0.049 A 
ATOM     34  N   UNL A   1      43.079  31.211  28.904  1.00  0.00    -0.248 NA
ATOM     35  C   UNL A   1      41.847  32.831  30.050  1.00  0.00     0.031 C 
ATOM     36  C   UNL A   1      39.825  28.251  29.697  1.00  0.00     0.029 A 
ATOM     37  N   UNL A   1      41.789  28.577  28.677  1.00  0.00    -0.354 N 
ATOM     38  C   UNL A   1      43.761  32.420  28.862  1.00  0.00     0.074 A 
ATOM     39  C   UNL A   1      42.934  33.395  29.540  1.00  0.00     0.031 C 
ATOM     40  C   UNL A   1      40.163  27.100  29.098  1.00  0.00     0.029 A 
ATOM     41  C   UNL A   1      41.448  27.271  28.423  1.00  0.00     0.049 A 
ATOM     42  H   UNL A   1      42.606  28.999  28.325  1.00  0.00     0.167 HD
ATOM     43  C   UNL A   1      44.979  32.680  28.332  1.00  0.00     0.037 A 
ATOM     44  C   UNL A   1      42.106  26.318  27.739  1.00  0.00     0.037 A 
ATOM     45  C   UNL A   1      45.791  31.702  27.653  1.00  0.00     0.049 A 
ATOM     46  C   UNL A   1      43.447  26.639  27.138  1.00  0.00     0.074 A 
ATOM     47  C   UNL A   1      47.063  31.853  27.126  1.00  0.00     0.029 A 
ATOM     48  N   UNL A   1      45.405  30.395  27.395  1.00  0.00    -0.354 N 
ATOM     49  N   UNL A   1      44.130  27.756  27.192  1.00  0.00    -0.248 NA
ATOM     50  C   UNL A   1      44.114  25.563  26.392  1.00  0.00     0.031 C 
ATOM     51  C   UNL A   1      47.425  30.654  26.507  1.00  0.00     0.029 A 
ATOM     52  C   UNL A   1      46.402  29.737  26.693  1.00  0.00     0.049 A 
ATOM     53  H   UNL A   1      44.549  29.994  27.672  1.00  0.00     0.167 HD
ATOM     54  C   UNL A   1      45.310  27.517  26.501  1.00  0.00     0.074 A 
ATOM     55  C   UNL A   1      45.262  26.139  26.059  1.00  0.00     0.031 C 
ATOM     56  C   UNL A   1      46.338  28.365  26.255  1.00  0.00     0.037 A 
BRANCH  43  57
ATOM     57  C   UNL A   1      45.531  34.068  28.484  1.00  0.00     0.064 A 
ATOM     58  C   UNL A   1      46.386  34.398  29.547  1.00  0.00     0.173 A 
ATOM     59  C   UNL A   1      45.278  35.054  27.517  1.00  0.00     0.173 A 
ATOM     60  F   UNL A   1      46.658  33.494  30.500  1.00  0.00    -0.203 F 
ATOM     61  C   UNL A   1      46.953  35.666  29.646  1.00  0.00     0.198 A 
ATOM     62  C   UNL A   1      45.870  36.311  27.604  1.00  0.00     0.198 A 
ATOM     63  F   UNL A   1      44.478  34.789  26.474  1.00  0.00    -0.203 F 
ATOM     64  F   UNL A   1      47.744  35.965  30.686  1.00  0.00    -0.200 F 
ATOM     65  C   UNL A   1      46.704  36.617  28.670  1.00  0.00     0.200 A 
ATOM     66  F   UNL A   1      45.643  37.225  26.650  1.00  0.00    -0.200 F 
ATOM     67  F   UNL A   1      47.268  37.830  28.754  1.00  0.00    -0.200 F 
ENDBRANCH  43  57
BRANCH  44  68
ATOM     68  C   UNL A   1      41.524  24.955  27.638  1.00  0.00     0.064 A 
ATOM     69  C   UNL A   1      40.426  24.704  26.805  1.00  0.00     0.173 A 
ATOM     70  C   UNL A   1      42.071  23.872  28.342  1.00  0.00     0.173 A 
ATOM     71  F   UNL A   1      39.857  25.711  26.125  1.00  0.00    -0.203 F 
ATOM     72  C   UNL A   1      39.890  23.423  26.685  1.00  0.00     0.198 A 
ATOM     73  C   UNL A   1      41.553  22.586  28.200  1.00  0.00     0.198 A 
ATOM     74  F   UNL A   1      43.127  24.058  29.147  1.00  0.00    -0.203 F 
ATOM     75  F   UNL A   1      38.820  23.216  25.906  1.00  0.00    -0.200 F 
ATOM     76  C   UNL A   1      40.460  22.364  27.376  1.00  0.00     0.200 A 
ATOM     77  F   UNL A   1      42.116  21.562  28.856  1.00  0.00    -0.200 F 
ATOM     78  F   UNL A   1      39.954  21.129  27.249  1.00  0.00    -0.200 F 
ENDBRANCH  44  68
BRANCH  56  79
ATOM     79  C   UNL A   1      47.503  27.834  25.470  1.00  0.00     0.064 A 
ATOM     80  C   UNL A   1      47.496  27.826  24.068  1.00  0.00     0.173 A 
ATOM     81  C   UNL A   1      48.668  27.401  26.124  1.00  0.00     0.173 A 
ATOM     82  F   UNL A   1      46.402  28.217  23.396  1.00  0.00    -0.203 F 
ATOM     83  C   UNL A   1      48.606  27.391  23.349  1.00  0.00     0.198 A 
ATOM     84  C   UNL A   1      49.786  26.996  25.402  1.00  0.00     0.198 A 
ATOM     85  F   UNL A   1      48.729  27.397  27.464  1.00  0.00    -0.203 F 
ATOM     86  F   UNL A   1      48.564  27.358  22.010  1.00  0.00    -0.200 F 
ATOM     87  C   UNL A   1      49.753  26.987  24.016  1.00  0.00     0.200 A 
ATOM     88  F   UNL A   1      50.899  26.623  26.047  1.00  0.00    -0.200 F 
ATOM     89  F   UNL A   1      50.827  26.587  23.322  1.00  0.00    -0.200 F 
ENDBRANCH  56  79
ENDBRANCH  30  31
ENDBRANCH  23  25
ENDBRANCH  22  23
ENDBRANCH  21  22
ENDBRANCH   1  21
TORSDOF 14
ENDMDL
