MODEL 1
REMARK VINA RESULT:     -11.4      0.000      0.000
REMARK SMILES CC[C@](C)(NC(=O)c1cccc2ncccc12)C(=O)OCCOC(=O)c1ccc(-c2c3nc(c(-c4c(F)c(F)c(F)c(F)c4F)c4ccc([nH]4)c(-c4c(F)c(F)c(F)c(F)c4F)c4nc(c(-c5c(F)c(F)c(F)c(F)c5F)c5ccc2[nH]5)C=C4)C=C3)cc1
REMARK SMILES IDX 21 1 20 2 18 3 19 4 3 5 4 6 2 7 1 8 5 9 6 10 7 12 8 13 9 14
REMARK SMILES IDX 17 15 10 16 12 17 16 18 11 19 13 20 15 21 14 22 22 23 23 24
REMARK SMILES IDX 24 25 25 26 26 27 27 28 88 29 28 30 87 31 29 32 30 33 31 34
REMARK SMILES IDX 81 35 32 36 86 37 80 38 82 39 33 40 85 41 79 42 78 43 34 45
REMARK SMILES IDX 66 46 46 47 65 48 47 49 50 50 64 51 83 52 48 53 49 54 63 56
REMARK SMILES IDX 84 57 51 58 35 59 36 60 44 61 37 62 38 63 42 64 45 65 39 66
REMARK SMILES IDX 40 67 43 68 41 69 67 70 68 71 76 72 69 73 70 74 74 75 77 76
REMARK SMILES IDX 71 77 72 78 75 79 73 80 52 81 53 82 61 83 54 84 55 85 59 86
REMARK SMILES IDX 62 87 56 88 57 89 60 90 58 91
REMARK H PARENT 5 11 82 44 50 55
REMARK Flexibility Score: inf
ROOT
ATOM      1  C   UNL A   1      42.202  20.023  26.833  1.00  0.00     0.274 C 
ENDROOT
BRANCH   1   2
ATOM      2  O   UNL A   1      43.009  20.441  25.710  1.00  0.00    -0.460 OA
BRANCH   2   3
ATOM      3  C   UNL A   1      43.636  19.462  25.016  1.00  0.00     0.331 C 
ATOM      4  O   UNL A   1      43.280  18.286  25.051  1.00  0.00    -0.249 OA
BRANCH   3   5
ATOM      5  C   UNL A   1      44.913  19.935  24.248  1.00  0.00     0.135 C 
ATOM      6  C   UNL A   1      45.205  18.912  23.132  1.00  0.00     0.047 C 
BRANCH   5   7
ATOM      7  C   UNL A   1      46.102  19.928  25.266  1.00  0.00     0.037 C 
ATOM      8  C   UNL A   1      46.710  18.580  25.640  1.00  0.00     0.007 C 
ENDBRANCH   5   7
BRANCH   5   9
ATOM      9  N   UNL A   1      44.939  21.309  23.644  1.00  0.00    -0.336 N 
ATOM     10  C   UNL A   1      44.465  22.452  24.259  1.00  0.00     0.252 C 
ATOM     11  H   UNL A   1      45.324  21.403  22.743  1.00  0.00     0.165 HD
ATOM     12  O   UNL A   1      43.334  22.846  23.994  1.00  0.00    -0.269 OA
BRANCH  10  13
ATOM     13  C   UNL A   1      45.442  23.286  25.025  1.00  0.00     0.049 A 
ATOM     14  C   UNL A   1      46.474  23.900  24.295  1.00  0.00     0.014 A 
ATOM     15  C   UNL A   1      45.349  23.481  26.437  1.00  0.00     0.013 A 
ATOM     16  C   UNL A   1      47.461  24.621  24.948  1.00  0.00     0.003 A 
ATOM     17  C   UNL A   1      46.378  24.202  27.086  1.00  0.00     0.071 A 
ATOM     18  C   UNL A   1      44.331  22.972  27.280  1.00  0.00     0.013 A 
ATOM     19  C   UNL A   1      47.408  24.749  26.333  1.00  0.00     0.029 A 
ATOM     20  N   UNL A   1      46.434  24.380  28.417  1.00  0.00    -0.256 NA
ATOM     21  C   UNL A   1      44.379  23.158  28.657  1.00  0.00     0.021 A 
ATOM     22  C   UNL A   1      45.448  23.856  29.173  1.00  0.00     0.112 A 
ENDBRANCH  10  13
ENDBRANCH   5   9
ENDBRANCH   3   5
ENDBRANCH   2   3
ENDBRANCH   1   2
BRANCH   1  23
ATOM     23  C   UNL A   1      40.696  20.112  26.553  1.00  0.00     0.275 C 
BRANCH  23  24
ATOM     24  O   UNL A   1      40.047  21.177  27.274  1.00  0.00    -0.458 OA
BRANCH  24  25
ATOM     25  C   UNL A   1      39.456  22.106  26.499  1.00  0.00     0.338 C 
ATOM     26  O   UNL A   1      38.620  21.931  25.624  1.00  0.00    -0.246 OA
BRANCH  25  27
ATOM     27  C   UNL A   1      39.798  23.449  26.946  1.00  0.00     0.060 A 
ATOM     28  C   UNL A   1      40.720  23.547  27.987  1.00  0.00     0.016 A 
ATOM     29  C   UNL A   1      39.178  24.579  26.419  1.00  0.00     0.016 A 
ATOM     30  C   UNL A   1      41.058  24.781  28.502  1.00  0.00     0.010 A 
ATOM     31  C   UNL A   1      39.552  25.832  26.903  1.00  0.00     0.010 A 
ATOM     32  C   UNL A   1      40.515  25.932  27.924  1.00  0.00    -0.014 A 
BRANCH  32  33
ATOM     33  C   UNL A   1      41.087  27.232  28.303  1.00  0.00     0.031 A 
ATOM     34  C   UNL A   1      40.246  28.269  28.966  1.00  0.00     0.074 A 
ATOM     35  C   UNL A   1      42.394  27.428  28.050  1.00  0.00     0.049 A 
ATOM     36  N   UNL A   1      40.556  29.499  29.274  1.00  0.00    -0.248 NA
ATOM     37  C   UNL A   1      38.876  27.878  29.329  1.00  0.00     0.031 C 
ATOM     38  C   UNL A   1      43.289  26.434  27.445  1.00  0.00     0.029 A 
ATOM     39  N   UNL A   1      43.202  28.508  28.271  1.00  0.00    -0.354 N 
ATOM     40  C   UNL A   1      39.412  30.043  29.838  1.00  0.00     0.074 A 
ATOM     41  C   UNL A   1      38.401  29.008  29.838  1.00  0.00     0.031 C 
ATOM     42  C   UNL A   1      44.524  26.946  27.361  1.00  0.00     0.029 A 
ATOM     43  C   UNL A   1      44.491  28.322  27.837  1.00  0.00     0.049 A 
ATOM     44  H   UNL A   1      42.891  29.338  28.699  1.00  0.00     0.167 HD
ATOM     45  C   UNL A   1      39.239  31.304  30.297  1.00  0.00     0.037 A 
ATOM     46  C   UNL A   1      45.519  29.186  27.791  1.00  0.00     0.037 A 
ATOM     47  C   UNL A   1      40.275  32.304  30.289  1.00  0.00     0.049 A 
ATOM     48  C   UNL A   1      45.283  30.583  28.285  1.00  0.00     0.074 A 
ATOM     49  C   UNL A   1      40.216  33.617  30.720  1.00  0.00     0.029 A 
ATOM     50  N   UNL A   1      41.567  32.093  29.825  1.00  0.00    -0.354 N 
ATOM     51  N   UNL A   1      44.190  31.105  28.787  1.00  0.00    -0.248 NA
ATOM     52  C   UNL A   1      46.412  31.515  28.189  1.00  0.00     0.031 C 
ATOM     53  C   UNL A   1      41.463  34.209  30.484  1.00  0.00     0.029 A 
ATOM     54  C   UNL A   1      42.311  33.255  29.942  1.00  0.00     0.049 A 
ATOM     55  H   UNL A   1      41.906  31.241  29.465  1.00  0.00     0.167 HD
ATOM     56  C   UNL A   1      44.493  32.427  29.066  1.00  0.00     0.074 A 
ATOM     57  C   UNL A   1      45.886  32.618  28.707  1.00  0.00     0.031 C 
ATOM     58  C   UNL A   1      43.693  33.402  29.563  1.00  0.00     0.037 A 
BRANCH  45  59
ATOM     59  C   UNL A   1      37.877  31.680  30.795  1.00  0.00     0.064 A 
ATOM     60  C   UNL A   1      36.826  31.987  29.917  1.00  0.00     0.173 A 
ATOM     61  C   UNL A   1      37.612  31.707  32.171  1.00  0.00     0.173 A 
ATOM     62  F   UNL A   1      37.034  31.994  28.592  1.00  0.00    -0.203 F 
ATOM     63  C   UNL A   1      35.565  32.325  30.402  1.00  0.00     0.198 A 
ATOM     64  C   UNL A   1      36.344  32.024  32.653  1.00  0.00     0.198 A 
ATOM     65  F   UNL A   1      38.583  31.422  33.052  1.00  0.00    -0.203 F 
ATOM     66  F   UNL A   1      34.584  32.651  29.549  1.00  0.00    -0.200 F 
ATOM     67  C   UNL A   1      35.323  32.337  31.768  1.00  0.00     0.200 A 
ATOM     68  F   UNL A   1      36.111  32.029  33.973  1.00  0.00    -0.200 F 
ATOM     69  F   UNL A   1      34.107  32.657  32.234  1.00  0.00    -0.200 F 
ENDBRANCH  45  59
BRANCH  46  70
ATOM     70  C   UNL A   1      46.823  28.759  27.225  1.00  0.00     0.064 A 
ATOM     71  C   UNL A   1      47.928  28.518  28.052  1.00  0.00     0.173 A 
ATOM     72  C   UNL A   1      46.985  28.557  25.845  1.00  0.00     0.173 A 
ATOM     73  F   UNL A   1      47.829  28.714  29.374  1.00  0.00    -0.203 F 
ATOM     74  C   UNL A   1      49.148  28.104  27.520  1.00  0.00     0.198 A 
ATOM     75  C   UNL A   1      48.196  28.114  25.317  1.00  0.00     0.198 A 
ATOM     76  F   UNL A   1      45.958  28.768  25.009  1.00  0.00    -0.203 F 
ATOM     77  F   UNL A   1      50.199  27.916  28.328  1.00  0.00    -0.200 F 
ATOM     78  C   UNL A   1      49.278  27.895  26.154  1.00  0.00     0.200 A 
ATOM     79  F   UNL A   1      48.311  27.896  24.001  1.00  0.00    -0.200 F 
ATOM     80  F   UNL A   1      50.448  27.486  25.645  1.00  0.00    -0.200 F 
ENDBRANCH  46  70
BRANCH  58  81
ATOM     81  C   UNL A   1      44.320  34.750  29.736  1.00  0.00     0.064 A 
ATOM     82  C   UNL A   1      44.263  35.714  28.720  1.00  0.00     0.173 A 
ATOM     83  C   UNL A   1      44.964  35.084  30.936  1.00  0.00     0.173 A 
ATOM     84  F   UNL A   1      43.674  35.427  27.550  1.00  0.00    -0.203 F 
ATOM     85  C   UNL A   1      44.849  36.963  28.893  1.00  0.00     0.198 A 
ATOM     86  C   UNL A   1      45.529  36.342  31.112  1.00  0.00     0.198 A 
ATOM     87  F   UNL A   1      45.041  34.192  31.935  1.00  0.00    -0.203 F 
ATOM     88  F   UNL A   1      44.823  37.856  27.893  1.00  0.00    -0.200 F 
ATOM     89  C   UNL A   1      45.477  37.278  30.089  1.00  0.00     0.200 A 
ATOM     90  F   UNL A   1      46.129  36.649  32.270  1.00  0.00    -0.200 F 
ATOM     91  F   UNL A   1      46.040  38.483  30.253  1.00  0.00    -0.200 F 
ENDBRANCH  58  81
ENDBRANCH  32  33
ENDBRANCH  25  27
ENDBRANCH  24  25
ENDBRANCH  23  24
ENDBRANCH   1  23
TORSDOF 14
ENDMDL
MODEL 2
REMARK VINA RESULT:     -11.4      5.579     11.117
REMARK SMILES CC[C@](C)(NC(=O)c1cccc2ncccc12)C(=O)OCCOC(=O)c1ccc(-c2c3nc(c(-c4c(F)c(F)c(F)c(F)c4F)c4ccc([nH]4)c(-c4c(F)c(F)c(F)c(F)c4F)c4nc(c(-c5c(F)c(F)c(F)c(F)c5F)c5ccc2[nH]5)C=C4)C=C3)cc1
REMARK SMILES IDX 21 1 20 2 18 3 19 4 3 5 4 6 2 7 1 8 5 9 6 10 7 12 8 13 9 14
REMARK SMILES IDX 17 15 10 16 12 17 16 18 11 19 13 20 15 21 14 22 22 23 23 24
REMARK SMILES IDX 24 25 25 26 26 27 27 28 88 29 28 30 87 31 29 32 30 33 31 34
REMARK SMILES IDX 81 35 32 36 86 37 80 38 82 39 33 40 85 41 79 42 78 43 34 45
REMARK SMILES IDX 66 46 46 47 65 48 47 49 50 50 64 51 83 52 48 53 49 54 63 56
REMARK SMILES IDX 84 57 51 58 35 59 36 60 44 61 37 62 38 63 42 64 45 65 39 66
REMARK SMILES IDX 40 67 43 68 41 69 67 70 68 71 76 72 69 73 70 74 74 75 77 76
REMARK SMILES IDX 71 77 72 78 75 79 73 80 52 81 53 82 61 83 54 84 55 85 59 86
REMARK SMILES IDX 62 87 56 88 57 89 60 90 58 91
REMARK H PARENT 5 11 82 44 50 55
REMARK Flexibility Score: inf
ROOT
ATOM      1  C   UNL A   1      31.331  29.667  24.947  1.00  0.00     0.274 C 
ENDROOT
BRANCH   1   2
ATOM      2  O   UNL A   1      30.979  28.269  25.040  1.00  0.00    -0.460 OA
BRANCH   2   3
ATOM      3  C   UNL A   1      31.145  27.526  23.920  1.00  0.00     0.331 C 
ATOM      4  O   UNL A   1      30.653  27.832  22.836  1.00  0.00    -0.249 OA
BRANCH   3   5
ATOM      5  C   UNL A   1      31.929  26.192  24.146  1.00  0.00     0.135 C 
ATOM      6  C   UNL A   1      31.403  25.544  25.443  1.00  0.00     0.047 C 
BRANCH   5   7
ATOM      7  C   UNL A   1      33.437  26.562  24.340  1.00  0.00     0.037 C 
ATOM      8  C   UNL A   1      33.965  26.674  25.766  1.00  0.00     0.007 C 
ENDBRANCH   5   7
BRANCH   5   9
ATOM      9  N   UNL A   1      31.930  25.149  23.067  1.00  0.00    -0.336 N 
ATOM     10  C   UNL A   1      33.042  24.443  22.650  1.00  0.00     0.252 C 
ATOM     11  H   UNL A   1      31.073  24.952  22.623  1.00  0.00     0.165 HD
ATOM     12  O   UNL A   1      33.655  24.826  21.658  1.00  0.00    -0.269 OA
BRANCH  10  13
ATOM     13  C   UNL A   1      33.298  23.112  23.280  1.00  0.00     0.049 A 
ATOM     14  C   UNL A   1      32.305  22.129  23.129  1.00  0.00     0.014 A 
ATOM     15  C   UNL A   1      34.495  22.817  24.001  1.00  0.00     0.013 A 
ATOM     16  C   UNL A   1      32.437  20.899  23.754  1.00  0.00     0.003 A 
ATOM     17  C   UNL A   1      34.600  21.563  24.648  1.00  0.00     0.071 A 
ATOM     18  C   UNL A   1      35.596  23.692  24.176  1.00  0.00     0.013 A 
ATOM     19  C   UNL A   1      33.573  20.639  24.515  1.00  0.00     0.029 A 
ATOM     20  N   UNL A   1      35.645  21.209  25.415  1.00  0.00    -0.256 NA
ATOM     21  C   UNL A   1      36.683  23.328  24.963  1.00  0.00     0.021 A 
ATOM     22  C   UNL A   1      36.656  22.089  25.563  1.00  0.00     0.112 A 
ENDBRANCH  10  13
ENDBRANCH   5   9
ENDBRANCH   3   5
ENDBRANCH   2   3
ENDBRANCH   1   2
BRANCH   1  23
ATOM     23  C   UNL A   1      31.884  30.234  26.261  1.00  0.00     0.275 C 
BRANCH  23  24
ATOM     24  O   UNL A   1      33.212  30.776  26.131  1.00  0.00    -0.458 OA
BRANCH  24  25
ATOM     25  C   UNL A   1      33.600  31.571  27.146  1.00  0.00     0.338 C 
ATOM     26  O   UNL A   1      32.984  32.501  27.647  1.00  0.00    -0.246 OA
BRANCH  25  27
ATOM     27  C   UNL A   1      34.829  31.078  27.751  1.00  0.00     0.060 A 
ATOM     28  C   UNL A   1      35.824  32.021  28.005  1.00  0.00     0.016 A 
ATOM     29  C   UNL A   1      35.039  29.723  27.990  1.00  0.00     0.016 A 
ATOM     30  C   UNL A   1      37.037  31.628  28.530  1.00  0.00     0.010 A 
ATOM     31  C   UNL A   1      36.246  29.325  28.565  1.00  0.00     0.010 A 
ATOM     32  C   UNL A   1      37.231  30.284  28.861  1.00  0.00    -0.014 A 
BRANCH  32  33
ATOM     33  C   UNL A   1      38.416  29.933  29.659  1.00  0.00     0.031 A 
ATOM     34  C   UNL A   1      39.462  29.025  29.110  1.00  0.00     0.074 A 
ATOM     35  C   UNL A   1      38.521  30.486  30.882  1.00  0.00     0.049 A 
ATOM     36  N   UNL A   1      40.512  28.531  29.707  1.00  0.00    -0.248 NA
ATOM     37  C   UNL A   1      39.310  28.613  27.707  1.00  0.00     0.031 C 
ATOM     38  C   UNL A   1      37.554  31.424  31.464  1.00  0.00     0.029 A 
ATOM     39  N   UNL A   1      39.478  30.355  31.850  1.00  0.00    -0.354 N 
ATOM     40  C   UNL A   1      41.131  27.722  28.767  1.00  0.00     0.074 A 
ATOM     41  C   UNL A   1      40.345  27.797  27.554  1.00  0.00     0.031 C 
ATOM     42  C   UNL A   1      37.977  31.796  32.680  1.00  0.00     0.029 A 
ATOM     43  C   UNL A   1      39.201  31.070  32.989  1.00  0.00     0.049 A 
ATOM     44  H   UNL A   1      40.285  29.802  31.741  1.00  0.00     0.167 HD
ATOM     45  C   UNL A   1      42.252  26.981  28.927  1.00  0.00     0.037 A 
ATOM     46  C   UNL A   1      39.848  31.100  34.167  1.00  0.00     0.037 A 
ATOM     47  C   UNL A   1      43.013  26.941  30.148  1.00  0.00     0.049 A 
ATOM     48  C   UNL A   1      41.071  30.245  34.317  1.00  0.00     0.074 A 
ATOM     49  C   UNL A   1      44.160  26.222  30.433  1.00  0.00     0.029 A 
ATOM     50  N   UNL A   1      42.699  27.662  31.294  1.00  0.00    -0.354 N 
ATOM     51  N   UNL A   1      41.637  29.455  33.436  1.00  0.00    -0.248 NA
ATOM     52  C   UNL A   1      41.735  30.268  35.625  1.00  0.00     0.031 C 
ATOM     53  C   UNL A   1      44.519  26.482  31.761  1.00  0.00     0.029 A 
ATOM     54  C   UNL A   1      43.619  27.392  32.293  1.00  0.00     0.049 A 
ATOM     55  H   UNL A   1      41.934  28.276  31.382  1.00  0.00     0.167 HD
ATOM     56  C   UNL A   1      42.721  28.883  34.079  1.00  0.00     0.074 A 
ATOM     57  C   UNL A   1      42.753  29.444  35.417  1.00  0.00     0.031 C 
ATOM     58  C   UNL A   1      43.606  27.967  33.614  1.00  0.00     0.037 A 
BRANCH  45  59
ATOM     59  C   UNL A   1      42.685  26.122  27.778  1.00  0.00     0.064 A 
ATOM     60  C   UNL A   1      42.122  24.860  27.542  1.00  0.00     0.173 A 
ATOM     61  C   UNL A   1      43.663  26.583  26.884  1.00  0.00     0.173 A 
ATOM     62  F   UNL A   1      41.197  24.366  28.379  1.00  0.00    -0.203 F 
ATOM     63  C   UNL A   1      42.534  24.083  26.461  1.00  0.00     0.198 A 
ATOM     64  C   UNL A   1      44.058  25.813  25.792  1.00  0.00     0.198 A 
ATOM     65  F   UNL A   1      44.234  27.783  27.066  1.00  0.00    -0.203 F 
ATOM     66  F   UNL A   1      42.009  22.864  26.274  1.00  0.00    -0.200 F 
ATOM     67  C   UNL A   1      43.496  24.562  25.585  1.00  0.00     0.200 A 
ATOM     68  F   UNL A   1      44.983  26.281  24.943  1.00  0.00    -0.200 F 
ATOM     69  F   UNL A   1      43.888  23.816  24.542  1.00  0.00    -0.200 F 
ENDBRANCH  45  59
BRANCH  46  70
ATOM     70  C   UNL A   1      39.321  31.927  35.282  1.00  0.00     0.064 A 
ATOM     71  C   UNL A   1      39.622  33.291  35.376  1.00  0.00     0.173 A 
ATOM     72  C   UNL A   1      38.483  31.374  36.263  1.00  0.00     0.173 A 
ATOM     73  F   UNL A   1      40.432  33.862  34.473  1.00  0.00    -0.203 F 
ATOM     74  C   UNL A   1      39.115  34.070  36.415  1.00  0.00     0.198 A 
ATOM     75  C   UNL A   1      37.952  32.159  37.284  1.00  0.00     0.198 A 
ATOM     76  F   UNL A   1      38.159  30.074  36.217  1.00  0.00    -0.203 F 
ATOM     77  F   UNL A   1      39.448  35.364  36.504  1.00  0.00    -0.200 F 
ATOM     78  C   UNL A   1      38.275  33.505  37.364  1.00  0.00     0.200 A 
ATOM     79  F   UNL A   1      37.127  31.612  38.187  1.00  0.00    -0.200 F 
ATOM     80  F   UNL A   1      37.780  34.256  38.357  1.00  0.00    -0.200 F 
ENDBRANCH  46  70
BRANCH  58  81
ATOM     81  C   UNL A   1      44.670  27.529  34.571  1.00  0.00     0.064 A 
ATOM     82  C   UNL A   1      45.885  28.220  34.672  1.00  0.00     0.173 A 
ATOM     83  C   UNL A   1      44.462  26.422  35.406  1.00  0.00     0.173 A 
ATOM     84  F   UNL A   1      46.131  29.272  33.877  1.00  0.00    -0.203 F 
ATOM     85  C   UNL A   1      46.867  27.804  35.565  1.00  0.00     0.198 A 
ATOM     86  C   UNL A   1      45.438  26.023  36.313  1.00  0.00     0.198 A 
ATOM     87  F   UNL A   1      43.313  25.732  35.342  1.00  0.00    -0.203 F 
ATOM     88  F   UNL A   1      48.040  28.450  35.615  1.00  0.00    -0.200 F 
ATOM     89  C   UNL A   1      46.640  26.710  36.387  1.00  0.00     0.200 A 
ATOM     90  F   UNL A   1      45.216  24.971  37.113  1.00  0.00    -0.200 F 
ATOM     91  F   UNL A   1      47.588  26.311  37.247  1.00  0.00    -0.200 F 
ENDBRANCH  58  81
ENDBRANCH  32  33
ENDBRANCH  25  27
ENDBRANCH  24  25
ENDBRANCH  23  24
ENDBRANCH   1  23
TORSDOF 14
ENDMDL
MODEL 3
REMARK VINA RESULT:     -11.4      3.814      6.866
REMARK SMILES CC[C@](C)(NC(=O)c1cccc2ncccc12)C(=O)OCCOC(=O)c1ccc(-c2c3nc(c(-c4c(F)c(F)c(F)c(F)c4F)c4ccc([nH]4)c(-c4c(F)c(F)c(F)c(F)c4F)c4nc(c(-c5c(F)c(F)c(F)c(F)c5F)c5ccc2[nH]5)C=C4)C=C3)cc1
REMARK SMILES IDX 21 1 20 2 18 3 19 4 3 5 4 6 2 7 1 8 5 9 6 10 7 12 8 13 9 14
REMARK SMILES IDX 17 15 10 16 12 17 16 18 11 19 13 20 15 21 14 22 22 23 23 24
REMARK SMILES IDX 24 25 25 26 26 27 27 28 88 29 28 30 87 31 29 32 30 33 31 34
REMARK SMILES IDX 81 35 32 36 86 37 80 38 82 39 33 40 85 41 79 42 78 43 34 45
REMARK SMILES IDX 66 46 46 47 65 48 47 49 50 50 64 51 83 52 48 53 49 54 63 56
REMARK SMILES IDX 84 57 51 58 35 59 36 60 44 61 37 62 38 63 42 64 45 65 39 66
REMARK SMILES IDX 40 67 43 68 41 69 67 70 68 71 76 72 69 73 70 74 74 75 77 76
REMARK SMILES IDX 71 77 72 78 75 79 73 80 52 81 53 82 61 83 54 84 55 85 59 86
REMARK SMILES IDX 62 87 56 88 57 89 60 90 58 91
REMARK H PARENT 5 11 82 44 50 55
REMARK Flexibility Score: inf
ROOT
ATOM      1  C   UNL A   1      35.672  20.395  24.998  1.00  0.00     0.274 C 
ENDROOT
BRANCH   1   2
ATOM      2  O   UNL A   1      35.064  21.595  24.470  1.00  0.00    -0.460 OA
BRANCH   2   3
ATOM      3  C   UNL A   1      33.738  21.753  24.693  1.00  0.00     0.331 C 
ATOM      4  O   UNL A   1      32.918  20.859  24.495  1.00  0.00    -0.249 OA
BRANCH   3   5
ATOM      5  C   UNL A   1      33.326  23.197  25.125  1.00  0.00     0.135 C 
ATOM      6  C   UNL A   1      33.905  24.187  24.092  1.00  0.00     0.047 C 
BRANCH   5   7
ATOM      7  C   UNL A   1      33.985  23.476  26.517  1.00  0.00     0.037 C 
ATOM      8  C   UNL A   1      33.919  22.375  27.570  1.00  0.00     0.007 C 
ENDBRANCH   5   7
BRANCH   5   9
ATOM      9  N   UNL A   1      31.874  23.520  25.321  1.00  0.00    -0.336 N 
ATOM     10  C   UNL A   1      31.391  24.552  26.103  1.00  0.00     0.252 C 
ATOM     11  H   UNL A   1      31.215  22.954  24.857  1.00  0.00     0.165 HD
ATOM     12  O   UNL A   1      31.031  24.312  27.251  1.00  0.00    -0.269 OA
BRANCH  10  13
ATOM     13  C   UNL A   1      31.102  25.857  25.432  1.00  0.00     0.049 A 
ATOM     14  C   UNL A   1      29.981  25.909  24.588  1.00  0.00     0.014 A 
ATOM     15  C   UNL A   1      31.906  27.020  25.630  1.00  0.00     0.013 A 
ATOM     16  C   UNL A   1      29.698  27.061  23.870  1.00  0.00     0.003 A 
ATOM     17  C   UNL A   1      31.613  28.178  24.873  1.00  0.00     0.071 A 
ATOM     18  C   UNL A   1      33.023  27.121  26.496  1.00  0.00     0.013 A 
ATOM     19  C   UNL A   1      30.525  28.172  24.011  1.00  0.00     0.029 A 
ATOM     20  N   UNL A   1      32.347  29.303  24.922  1.00  0.00    -0.256 NA
ATOM     21  C   UNL A   1      33.783  28.283  26.556  1.00  0.00     0.021 A 
ATOM     22  C   UNL A   1      33.412  29.335  25.748  1.00  0.00     0.112 A 
ENDBRANCH  10  13
ENDBRANCH   5   9
ENDBRANCH   3   5
ENDBRANCH   2   3
ENDBRANCH   1   2
BRANCH   1  23
ATOM     23  C   UNL A   1      37.205  20.443  24.981  1.00  0.00     0.275 C 
BRANCH  23  24
ATOM     24  O   UNL A   1      37.742  21.644  25.565  1.00  0.00    -0.458 OA
BRANCH  24  25
ATOM     25  C   UNL A   1      38.961  21.507  26.121  1.00  0.00     0.338 C 
ATOM     26  O   UNL A   1      39.662  20.505  26.151  1.00  0.00    -0.246 OA
BRANCH  25  27
ATOM     27  C   UNL A   1      39.480  22.794  26.560  1.00  0.00     0.060 A 
ATOM     28  C   UNL A   1      40.509  22.766  27.500  1.00  0.00     0.016 A 
ATOM     29  C   UNL A   1      38.926  23.996  26.129  1.00  0.00     0.016 A 
ATOM     30  C   UNL A   1      41.022  23.943  28.005  1.00  0.00     0.010 A 
ATOM     31  C   UNL A   1      39.472  25.190  26.600  1.00  0.00     0.010 A 
ATOM     32  C   UNL A   1      40.540  25.160  27.515  1.00  0.00    -0.014 A 
BRANCH  32  33
ATOM     33  C   UNL A   1      41.276  26.385  27.862  1.00  0.00     0.031 A 
ATOM     34  C   UNL A   1      40.631  27.457  28.673  1.00  0.00     0.074 A 
ATOM     35  C   UNL A   1      42.551  26.478  27.441  1.00  0.00     0.049 A 
ATOM     36  N   UNL A   1      41.092  28.638  28.983  1.00  0.00    -0.248 NA
ATOM     37  C   UNL A   1      39.290  27.168  29.205  1.00  0.00     0.031 C 
ATOM     38  C   UNL A   1      43.261  25.442  26.682  1.00  0.00     0.029 A 
ATOM     39  N   UNL A   1      43.478  27.472  27.591  1.00  0.00    -0.354 N 
ATOM     40  C   UNL A   1      40.089  29.250  29.718  1.00  0.00     0.074 A 
ATOM     41  C   UNL A   1      38.995  28.308  29.817  1.00  0.00     0.031 C 
ATOM     42  C   UNL A   1      44.516  25.848  26.449  1.00  0.00     0.029 A 
ATOM     43  C   UNL A   1      44.675  27.196  26.977  1.00  0.00     0.049 A 
ATOM     44  H   UNL A   1      43.304  28.303  28.089  1.00  0.00     0.167 HD
ATOM     45  C   UNL A   1      40.096  30.496  30.245  1.00  0.00     0.037 A 
ATOM     46  C   UNL A   1      45.764  27.969  26.825  1.00  0.00     0.037 A 
ATOM     47  C   UNL A   1      41.210  31.402  30.134  1.00  0.00     0.049 A 
ATOM     48  C   UNL A   1      45.727  29.354  27.400  1.00  0.00     0.074 A 
ATOM     49  C   UNL A   1      41.332  32.691  30.618  1.00  0.00     0.029 A 
ATOM     50  N   UNL A   1      42.405  31.102  29.489  1.00  0.00    -0.354 N 
ATOM     51  N   UNL A   1      44.763  29.944  28.066  1.00  0.00    -0.248 NA
ATOM     52  C   UNL A   1      46.914  30.188  27.186  1.00  0.00     0.031 C 
ATOM     53  C   UNL A   1      42.586  33.183  30.238  1.00  0.00     0.029 A 
ATOM     54  C   UNL A   1      43.262  32.188  29.549  1.00  0.00     0.049 A 
ATOM     55  H   UNL A   1      42.612  30.243  29.054  1.00  0.00     0.167 HD
ATOM     56  C   UNL A   1      45.222  31.218  28.351  1.00  0.00     0.074 A 
ATOM     57  C   UNL A   1      46.567  31.305  27.813  1.00  0.00     0.031 C 
ATOM     58  C   UNL A   1      44.589  32.233  28.990  1.00  0.00     0.037 A 
BRANCH  45  59
ATOM     59  C   UNL A   1      38.853  30.964  30.938  1.00  0.00     0.064 A 
ATOM     60  C   UNL A   1      38.702  30.875  32.329  1.00  0.00     0.173 A 
ATOM     61  C   UNL A   1      37.806  31.534  30.199  1.00  0.00     0.173 A 
ATOM     62  F   UNL A   1      39.666  30.319  33.079  1.00  0.00    -0.203 F 
ATOM     63  C   UNL A   1      37.540  31.325  32.953  1.00  0.00     0.198 A 
ATOM     64  C   UNL A   1      36.656  32.003  30.828  1.00  0.00     0.198 A 
ATOM     65  F   UNL A   1      37.901  31.641  28.865  1.00  0.00    -0.203 F 
ATOM     66  F   UNL A   1      37.401  31.198  34.281  1.00  0.00    -0.200 F 
ATOM     67  C   UNL A   1      36.522  31.894  32.204  1.00  0.00     0.200 A 
ATOM     68  F   UNL A   1      35.675  32.558  30.102  1.00  0.00    -0.200 F 
ATOM     69  F   UNL A   1      35.407  32.332  32.806  1.00  0.00    -0.200 F 
ENDBRANCH  45  59
BRANCH  46  70
ATOM     70  C   UNL A   1      46.936  27.459  26.070  1.00  0.00     0.064 A 
ATOM     71  C   UNL A   1      47.027  27.620  24.681  1.00  0.00     0.173 A 
ATOM     72  C   UNL A   1      48.002  26.822  26.724  1.00  0.00     0.173 A 
ATOM     73  F   UNL A   1      46.027  28.206  24.008  1.00  0.00    -0.203 F 
ATOM     74  C   UNL A   1      48.134  27.153  23.974  1.00  0.00     0.198 A 
ATOM     75  C   UNL A   1      49.122  26.383  26.021  1.00  0.00     0.198 A 
ATOM     76  F   UNL A   1      47.967  26.648  28.053  1.00  0.00    -0.203 F 
ATOM     77  F   UNL A   1      48.181  27.286  22.643  1.00  0.00    -0.200 F 
ATOM     78  C   UNL A   1      49.184  26.542  24.646  1.00  0.00     0.200 A 
ATOM     79  F   UNL A   1      50.140  25.810  26.677  1.00  0.00    -0.200 F 
ATOM     80  F   UNL A   1      50.252  26.103  23.967  1.00  0.00    -0.200 F 
ENDBRANCH  46  70
BRANCH  58  81
ATOM     81  C   UNL A   1      45.357  33.510  29.128  1.00  0.00     0.064 A 
ATOM     82  C   UNL A   1      45.278  34.514  28.152  1.00  0.00     0.173 A 
ATOM     83  C   UNL A   1      46.160  33.738  30.255  1.00  0.00     0.173 A 
ATOM     84  F   UNL A   1      44.538  34.326  27.050  1.00  0.00    -0.203 F 
ATOM     85  C   UNL A   1      45.996  35.697  28.290  1.00  0.00     0.198 A 
ATOM     86  C   UNL A   1      46.857  34.932  30.399  1.00  0.00     0.198 A 
ATOM     87  F   UNL A   1      46.263  32.805  31.213  1.00  0.00    -0.203 F 
ATOM     88  F   UNL A   1      45.944  36.626  27.325  1.00  0.00    -0.200 F 
ATOM     89  C   UNL A   1      46.780  35.907  29.416  1.00  0.00     0.200 A 
ATOM     90  F   UNL A   1      47.609  35.139  31.489  1.00  0.00    -0.200 F 
ATOM     91  F   UNL A   1      47.470  37.048  29.547  1.00  0.00    -0.200 F 
ENDBRANCH  58  81
ENDBRANCH  32  33
ENDBRANCH  25  27
ENDBRANCH  24  25
ENDBRANCH  23  24
ENDBRANCH   1  23
TORSDOF 14
ENDMDL
