MODEL 1
REMARK VINA RESULT:     -12.2      0.000      0.000
REMARK SMILES CC1=C(C)C[C@@H](C(=O)N[C@H](C)C(C)(C)C)[C@@H](C(=O)OCCOC(=O)c2ccc(-c3c4nc(c(-c5c(F)c(F)c(F)c(F)c5F)c5ccc([nH]5)c(-c5c(F)c(F)c(F)c(F)c5F)c5nc(c(-c6c(F)c(F)c(F)c(F)c6F)c6ccc3[nH]6)C=C5)C=C4)cc2)C1
REMARK SMILES IDX 20 1 19 2 17 3 18 4 16 5 1 6 2 7 3 8 88 9 4 10 5 11 6 12
REMARK SMILES IDX 7 13 8 14 9 15 10 17 11 18 12 19 13 20 14 21 15 22 21 23
REMARK SMILES IDX 22 24 23 25 24 26 25 27 26 28 87 29 27 30 86 31 28 32 29 33
REMARK SMILES IDX 30 34 80 35 31 36 85 37 79 38 81 39 32 40 84 41 78 42 77 43
REMARK SMILES IDX 33 45 65 46 45 47 64 48 46 49 49 50 63 51 82 52 47 53 48 54
REMARK SMILES IDX 62 56 83 57 50 58 34 59 35 60 43 61 36 62 37 63 41 64 44 65
REMARK SMILES IDX 38 66 39 67 42 68 40 69 66 70 67 71 75 72 68 73 69 74 73 75
REMARK SMILES IDX 76 76 70 77 71 78 74 79 72 80 51 81 52 82 60 83 53 84 54 85
REMARK SMILES IDX 58 86 61 87 55 88 56 89 59 90 57 91
REMARK H PARENT 9 16 81 44 49 55
REMARK Flexibility Score: inf
ROOT
ATOM      1  C   UNL A   1      31.590  28.550  24.708  1.00  0.00     0.274 C 
ENDROOT
BRANCH   1   2
ATOM      2  O   UNL A   1      30.954  27.263  24.940  1.00  0.00    -0.462 OA
BRANCH   2   3
ATOM      3  C   UNL A   1      31.638  26.282  25.552  1.00  0.00     0.310 C 
ATOM      4  O   UNL A   1      31.238  25.755  26.589  1.00  0.00    -0.252 OA
BRANCH   3   5
ATOM      5  C   UNL A   1      33.048  25.953  24.999  1.00  0.00     0.116 C 
ATOM      6  C   UNL A   1      36.156  23.629  25.967  1.00  0.00     0.039 C 
ATOM      7  C   UNL A   1      35.171  24.377  25.096  1.00  0.00    -0.073 C 
ATOM      8  C   UNL A   1      35.060  24.098  23.779  1.00  0.00    -0.074 C 
ATOM      9  C   UNL A   1      34.246  25.387  25.803  1.00  0.00     0.046 C 
ATOM     10  C   UNL A   1      35.900  23.109  23.009  1.00  0.00     0.039 C 
ATOM     11  C   UNL A   1      34.022  24.784  22.945  1.00  0.00     0.045 C 
ATOM     12  C   UNL A   1      32.773  25.172  23.718  1.00  0.00     0.097 C 
BRANCH  12  13
ATOM     13  C   UNL A   1      31.701  24.080  23.849  1.00  0.00     0.224 C 
ATOM     14  O   UNL A   1      30.538  24.330  23.517  1.00  0.00    -0.275 OA
ATOM     15  N   UNL A   1      31.942  22.870  24.460  1.00  0.00    -0.353 N 
ATOM     16  H   UNL A   1      31.424  22.679  25.275  1.00  0.00     0.163 HD
BRANCH  15  17
ATOM     17  C   UNL A   1      32.892  21.829  24.024  1.00  0.00     0.084 C 
ATOM     18  C   UNL A   1      32.163  21.070  22.892  1.00  0.00     0.031 C 
BRANCH  17  19
ATOM     19  C   UNL A   1      33.461  20.812  25.129  1.00  0.00    -0.018 C 
ATOM     20  C   UNL A   1      32.617  19.512  25.044  1.00  0.00     0.013 C 
ATOM     21  C   UNL A   1      34.901  20.247  24.973  1.00  0.00     0.013 C 
ATOM     22  C   UNL A   1      33.330  21.418  26.543  1.00  0.00     0.013 C 
ENDBRANCH  17  19
ENDBRANCH  15  17
ENDBRANCH  12  13
ENDBRANCH   3   5
ENDBRANCH   2   3
ENDBRANCH   1   2
BRANCH   1  23
ATOM     23  C   UNL A   1      31.808  29.313  26.017  1.00  0.00     0.275 C 
BRANCH  23  24
ATOM     24  O   UNL A   1      33.154  29.801  26.062  1.00  0.00    -0.458 OA
BRANCH  24  25
ATOM     25  C   UNL A   1      33.317  30.915  26.812  1.00  0.00     0.338 C 
ATOM     26  O   UNL A   1      32.482  31.777  27.048  1.00  0.00    -0.246 OA
BRANCH  25  27
ATOM     27  C   UNL A   1      34.570  30.759  27.568  1.00  0.00     0.060 A 
ATOM     28  C   UNL A   1      34.943  29.453  27.910  1.00  0.00     0.016 A 
ATOM     29  C   UNL A   1      35.418  31.838  27.830  1.00  0.00     0.016 A 
ATOM     30  C   UNL A   1      36.196  29.206  28.446  1.00  0.00     0.010 A 
ATOM     31  C   UNL A   1      36.650  31.600  28.431  1.00  0.00     0.010 A 
ATOM     32  C   UNL A   1      37.035  30.283  28.738  1.00  0.00    -0.014 A 
BRANCH  32  33
ATOM     33  C   UNL A   1      38.202  30.039  29.599  1.00  0.00     0.031 A 
ATOM     34  C   UNL A   1      39.265  29.137  29.055  1.00  0.00     0.074 A 
ATOM     35  C   UNL A   1      38.320  30.646  30.790  1.00  0.00     0.049 A 
ATOM     36  N   UNL A   1      40.342  28.678  29.629  1.00  0.00    -0.248 NA
ATOM     37  C   UNL A   1      39.082  28.688  27.662  1.00  0.00     0.031 C 
ATOM     38  C   UNL A   1      37.371  31.607  31.349  1.00  0.00     0.029 A 
ATOM     39  N   UNL A   1      39.296  30.534  31.744  1.00  0.00    -0.354 N 
ATOM     40  C   UNL A   1      40.950  27.870  28.678  1.00  0.00     0.074 A 
ATOM     41  C   UNL A   1      40.119  27.885  27.497  1.00  0.00     0.031 C 
ATOM     42  C   UNL A   1      37.804  31.986  32.564  1.00  0.00     0.029 A 
ATOM     43  C   UNL A   1      39.031  31.257  32.880  1.00  0.00     0.049 A 
ATOM     44  H   UNL A   1      40.107  29.990  31.627  1.00  0.00     0.167 HD
ATOM     45  C   UNL A   1      42.104  27.176  28.795  1.00  0.00     0.037 A 
ATOM     46  C   UNL A   1      39.697  31.283  34.049  1.00  0.00     0.037 A 
ATOM     47  C   UNL A   1      42.907  27.181  29.987  1.00  0.00     0.049 A 
ATOM     48  C   UNL A   1      40.939  30.437  34.182  1.00  0.00     0.074 A 
ATOM     49  C   UNL A   1      44.089  26.513  30.236  1.00  0.00     0.029 A 
ATOM     50  N   UNL A   1      42.593  27.897  31.137  1.00  0.00    -0.354 N 
ATOM     51  N   UNL A   1      41.508  29.655  33.294  1.00  0.00    -0.248 NA
ATOM     52  C   UNL A   1      41.631  30.477  35.476  1.00  0.00     0.031 C 
ATOM     53  C   UNL A   1      44.462  26.779  31.558  1.00  0.00     0.029 A 
ATOM     54  C   UNL A   1      43.550  27.668  32.110  1.00  0.00     0.049 A 
ATOM     55  H   UNL A   1      41.808  28.480  31.243  1.00  0.00     0.167 HD
ATOM     56  C   UNL A   1      42.638  29.132  33.909  1.00  0.00     0.074 A 
ATOM     57  C   UNL A   1      42.680  29.701  35.242  1.00  0.00     0.031 C 
ATOM     58  C   UNL A   1      43.559  28.261  33.424  1.00  0.00     0.037 A 
BRANCH  45  59
ATOM     59  C   UNL A   1      42.514  26.321  27.632  1.00  0.00     0.064 A 
ATOM     60  C   UNL A   1      41.983  25.038  27.424  1.00  0.00     0.173 A 
ATOM     61  C   UNL A   1      43.467  26.791  26.717  1.00  0.00     0.173 A 
ATOM     62  F   UNL A   1      41.089  24.529  28.286  1.00  0.00    -0.203 F 
ATOM     63  C   UNL A   1      42.413  24.250  26.360  1.00  0.00     0.198 A 
ATOM     64  C   UNL A   1      43.870  26.012  25.636  1.00  0.00     0.198 A 
ATOM     65  F   UNL A   1      44.017  28.004  26.875  1.00  0.00    -0.203 F 
ATOM     66  F   UNL A   1      41.937  23.004  26.216  1.00  0.00    -0.200 F 
ATOM     67  C   UNL A   1      43.349  24.739  25.463  1.00  0.00     0.200 A 
ATOM     68  F   UNL A   1      44.770  26.491  24.766  1.00  0.00    -0.200 F 
ATOM     69  F   UNL A   1      43.759  23.980  24.437  1.00  0.00    -0.200 F 
ENDBRANCH  45  59
BRANCH  46  70
ATOM     70  C   UNL A   1      39.191  32.103  35.183  1.00  0.00     0.064 A 
ATOM     71  C   UNL A   1      39.476  33.472  35.274  1.00  0.00     0.173 A 
ATOM     72  C   UNL A   1      38.422  31.530  36.207  1.00  0.00     0.173 A 
ATOM     73  F   UNL A   1      40.229  34.064  34.335  1.00  0.00    -0.203 F 
ATOM     74  C   UNL A   1      39.028  34.232  36.354  1.00  0.00     0.198 A 
ATOM     75  C   UNL A   1      37.947  32.298  37.270  1.00  0.00     0.198 A 
ATOM     76  F   UNL A   1      38.123  30.223  36.174  1.00  0.00    -0.203 F 
ATOM     77  F   UNL A   1      39.359  35.527  36.442  1.00  0.00    -0.200 F 
ATOM     78  C   UNL A   1      38.258  33.646  37.347  1.00  0.00     0.200 A 
ATOM     79  F   UNL A   1      37.194  31.729  38.222  1.00  0.00    -0.200 F 
ATOM     80  F   UNL A   1      37.826  34.378  38.383  1.00  0.00    -0.200 F 
ENDBRANCH  46  70
BRANCH  58  81
ATOM     81  C   UNL A   1      44.709  27.914  34.324  1.00  0.00     0.064 A 
ATOM     82  C   UNL A   1      45.888  28.672  34.344  1.00  0.00     0.173 A 
ATOM     83  C   UNL A   1      44.607  26.829  35.209  1.00  0.00     0.173 A 
ATOM     84  F   UNL A   1      46.037  29.712  33.510  1.00  0.00    -0.203 F 
ATOM     85  C   UNL A   1      46.938  28.335  35.193  1.00  0.00     0.198 A 
ATOM     86  C   UNL A   1      45.644  26.518  36.082  1.00  0.00     0.198 A 
ATOM     87  F   UNL A   1      43.495  26.080  35.237  1.00  0.00    -0.203 F 
ATOM     88  F   UNL A   1      48.079  29.037  35.154  1.00  0.00    -0.200 F 
ATOM     89  C   UNL A   1      46.812  27.264  36.066  1.00  0.00     0.200 A 
ATOM     90  F   UNL A   1      45.512  25.497  36.940  1.00  0.00    -0.200 F 
ATOM     91  F   UNL A   1      47.822  26.947  36.888  1.00  0.00    -0.200 F 
ENDBRANCH  58  81
ENDBRANCH  32  33
ENDBRANCH  25  27
ENDBRANCH  24  25
ENDBRANCH  23  24
ENDBRANCH   1  23
TORSDOF 14
ENDMDL
MODEL 2
REMARK VINA RESULT:     -12.1      2.008      8.264
REMARK SMILES CC1=C(C)C[C@@H](C(=O)N[C@H](C)C(C)(C)C)[C@@H](C(=O)OCCOC(=O)c2ccc(-c3c4nc(c(-c5c(F)c(F)c(F)c(F)c5F)c5ccc([nH]5)c(-c5c(F)c(F)c(F)c(F)c5F)c5nc(c(-c6c(F)c(F)c(F)c(F)c6F)c6ccc3[nH]6)C=C5)C=C4)cc2)C1
REMARK SMILES IDX 20 1 19 2 17 3 18 4 16 5 1 6 2 7 3 8 88 9 4 10 5 11 6 12
REMARK SMILES IDX 7 13 8 14 9 15 10 17 11 18 12 19 13 20 14 21 15 22 21 23
REMARK SMILES IDX 22 24 23 25 24 26 25 27 26 28 87 29 27 30 86 31 28 32 29 33
REMARK SMILES IDX 30 34 80 35 31 36 85 37 79 38 81 39 32 40 84 41 78 42 77 43
REMARK SMILES IDX 33 45 65 46 45 47 64 48 46 49 49 50 63 51 82 52 47 53 48 54
REMARK SMILES IDX 62 56 83 57 50 58 34 59 35 60 43 61 36 62 37 63 41 64 44 65
REMARK SMILES IDX 38 66 39 67 42 68 40 69 66 70 67 71 75 72 68 73 69 74 73 75
REMARK SMILES IDX 76 76 70 77 71 78 74 79 72 80 51 81 52 82 60 83 53 84 54 85
REMARK SMILES IDX 58 86 61 87 55 88 56 89 59 90 57 91
REMARK H PARENT 9 16 81 44 49 55
REMARK Flexibility Score: inf
ROOT
ATOM      1  C   UNL A   1      31.406  31.708  26.897  1.00  0.00     0.274 C 
ENDROOT
BRANCH   1   2
ATOM      2  O   UNL A   1      31.973  30.739  25.974  1.00  0.00    -0.462 OA
BRANCH   2   3
ATOM      3  C   UNL A   1      33.016  29.984  26.357  1.00  0.00     0.310 C 
ATOM      4  O   UNL A   1      34.142  30.455  26.510  1.00  0.00    -0.252 OA
BRANCH   3   5
ATOM      5  C   UNL A   1      32.790  28.453  26.433  1.00  0.00     0.116 C 
ATOM      6  C   UNL A   1      29.781  25.863  25.944  1.00  0.00     0.039 C 
ATOM      7  C   UNL A   1      31.192  26.406  25.923  1.00  0.00    -0.073 C 
ATOM      8  C   UNL A   1      32.159  25.794  25.204  1.00  0.00    -0.074 C 
ATOM      9  C   UNL A   1      31.438  27.730  26.671  1.00  0.00     0.046 C 
ATOM     10  C   UNL A   1      32.004  24.514  24.420  1.00  0.00     0.039 C 
ATOM     11  C   UNL A   1      33.531  26.388  25.121  1.00  0.00     0.045 C 
ATOM     12  C   UNL A   1      33.551  27.904  25.231  1.00  0.00     0.097 C 
BRANCH  12  13
ATOM     13  C   UNL A   1      33.323  28.672  23.921  1.00  0.00     0.224 C 
ATOM     14  O   UNL A   1      34.288  28.923  23.191  1.00  0.00    -0.275 OA
ATOM     15  N   UNL A   1      32.109  29.229  23.586  1.00  0.00    -0.353 N 
ATOM     16  H   UNL A   1      32.085  30.210  23.500  1.00  0.00     0.163 HD
BRANCH  15  17
ATOM     17  C   UNL A   1      30.842  28.515  23.339  1.00  0.00     0.084 C 
ATOM     18  C   UNL A   1      31.188  27.438  22.285  1.00  0.00     0.031 C 
BRANCH  17  19
ATOM     19  C   UNL A   1      29.563  29.374  22.890  1.00  0.00    -0.018 C 
ATOM     20  C   UNL A   1      29.476  30.607  23.829  1.00  0.00     0.013 C 
ATOM     21  C   UNL A   1      29.558  30.059  21.494  1.00  0.00     0.013 C 
ATOM     22  C   UNL A   1      28.273  28.536  23.021  1.00  0.00     0.013 C 
ENDBRANCH  17  19
ENDBRANCH  15  17
ENDBRANCH  12  13
ENDBRANCH   3   5
ENDBRANCH   2   3
ENDBRANCH   1   2
BRANCH   1  23
ATOM     23  C   UNL A   1      32.184  33.026  26.878  1.00  0.00     0.275 C 
BRANCH  23  24
ATOM     24  O   UNL A   1      32.913  33.164  28.102  1.00  0.00    -0.458 OA
BRANCH  24  25
ATOM     25  C   UNL A   1      34.001  33.964  28.015  1.00  0.00     0.338 C 
ATOM     26  O   UNL A   1      34.019  35.164  27.776  1.00  0.00    -0.246 OA
BRANCH  25  27
ATOM     27  C   UNL A   1      35.140  33.222  28.578  1.00  0.00     0.060 A 
ATOM     28  C   UNL A   1      34.857  31.994  29.188  1.00  0.00     0.016 A 
ATOM     29  C   UNL A   1      36.461  33.649  28.407  1.00  0.00     0.016 A 
ATOM     30  C   UNL A   1      35.888  31.150  29.565  1.00  0.00     0.010 A 
ATOM     31  C   UNL A   1      37.497  32.832  28.846  1.00  0.00     0.010 A 
ATOM     32  C   UNL A   1      37.207  31.585  29.426  1.00  0.00    -0.014 A 
BRANCH  32  33
ATOM     33  C   UNL A   1      38.262  30.834  30.124  1.00  0.00     0.031 A 
ATOM     34  C   UNL A   1      38.458  31.138  31.575  1.00  0.00     0.074 A 
ATOM     35  C   UNL A   1      38.970  29.887  29.490  1.00  0.00     0.049 A 
ATOM     36  N   UNL A   1      39.367  30.701  32.402  1.00  0.00    -0.248 NA
ATOM     37  C   UNL A   1      37.489  32.072  32.178  1.00  0.00     0.031 C 
ATOM     38  C   UNL A   1      38.775  29.470  28.102  1.00  0.00     0.029 A 
ATOM     39  N   UNL A   1      40.000  29.106  29.940  1.00  0.00    -0.354 N 
ATOM     40  C   UNL A   1      39.094  31.324  33.612  1.00  0.00     0.074 A 
ATOM     41  C   UNL A   1      37.949  32.180  33.413  1.00  0.00     0.031 C 
ATOM     42  C   UNL A   1      39.676  28.517  27.806  1.00  0.00     0.029 A 
ATOM     43  C   UNL A   1      40.534  28.297  28.968  1.00  0.00     0.049 A 
ATOM     44  H   UNL A   1      40.326  29.122  30.868  1.00  0.00     0.167 HD
ATOM     45  C   UNL A   1      39.754  31.187  34.784  1.00  0.00     0.037 A 
ATOM     46  C   UNL A   1      41.619  27.503  29.020  1.00  0.00     0.037 A 
ATOM     47  C   UNL A   1      40.893  30.326  34.948  1.00  0.00     0.049 A 
ATOM     48  C   UNL A   1      42.386  27.427  30.317  1.00  0.00     0.074 A 
ATOM     49  C   UNL A   1      41.656  30.107  36.077  1.00  0.00     0.029 A 
ATOM     50  N   UNL A   1      41.434  29.544  33.933  1.00  0.00    -0.354 N 
ATOM     51  N   UNL A   1      42.146  28.029  31.459  1.00  0.00    -0.248 NA
ATOM     52  C   UNL A   1      43.574  26.565  30.334  1.00  0.00     0.031 C 
ATOM     53  C   UNL A   1      42.694  29.235  35.732  1.00  0.00     0.029 A 
ATOM     54  C   UNL A   1      42.537  28.856  34.406  1.00  0.00     0.049 A 
ATOM     55  H   UNL A   1      41.083  29.488  33.015  1.00  0.00     0.167 HD
ATOM     56  C   UNL A   1      43.131  27.598  32.337  1.00  0.00     0.074 A 
ATOM     57  C   UNL A   1      43.963  26.671  31.596  1.00  0.00     0.031 C 
ATOM     58  C   UNL A   1      43.336  27.935  33.636  1.00  0.00     0.037 A 
BRANCH  45  59
ATOM     59  C   UNL A   1      39.292  32.027  35.938  1.00  0.00     0.064 A 
ATOM     60  C   UNL A   1      39.790  33.320  36.167  1.00  0.00     0.173 A 
ATOM     61  C   UNL A   1      38.342  31.523  36.838  1.00  0.00     0.173 A 
ATOM     62  F   UNL A   1      40.722  33.839  35.353  1.00  0.00    -0.203 F 
ATOM     63  C   UNL A   1      39.374  34.061  37.270  1.00  0.00     0.198 A 
ATOM     64  C   UNL A   1      37.904  32.281  37.920  1.00  0.00     0.198 A 
ATOM     65  F   UNL A   1      37.842  30.289  36.673  1.00  0.00    -0.203 F 
ATOM     66  F   UNL A   1      39.909  35.269  37.503  1.00  0.00    -0.200 F 
ATOM     67  C   UNL A   1      38.427  33.546  38.140  1.00  0.00     0.200 A 
ATOM     68  F   UNL A   1      36.983  31.782  38.756  1.00  0.00    -0.200 F 
ATOM     69  F   UNL A   1      38.025  34.262  39.199  1.00  0.00    -0.200 F 
ENDBRANCH  45  59
BRANCH  46  70
ATOM     70  C   UNL A   1      42.058  26.751  27.814  1.00  0.00     0.064 A 
ATOM     71  C   UNL A   1      41.579  25.462  27.546  1.00  0.00     0.173 A 
ATOM     72  C   UNL A   1      42.978  27.303  26.909  1.00  0.00     0.173 A 
ATOM     73  F   UNL A   1      40.717  24.878  28.392  1.00  0.00    -0.203 F 
ATOM     74  C   UNL A   1      42.016  24.746  26.432  1.00  0.00     0.198 A 
ATOM     75  C   UNL A   1      43.390  26.599  25.778  1.00  0.00     0.198 A 
ATOM     76  F   UNL A   1      43.474  28.531  27.118  1.00  0.00    -0.203 F 
ATOM     77  F   UNL A   1      41.580  23.496  26.228  1.00  0.00    -0.200 F 
ATOM     78  C   UNL A   1      42.915  25.318  25.545  1.00  0.00     0.200 A 
ATOM     79  F   UNL A   1      44.251  27.161  24.919  1.00  0.00    -0.200 F 
ATOM     80  F   UNL A   1      43.333  24.631  24.474  1.00  0.00    -0.200 F 
ENDBRANCH  46  70
BRANCH  58  81
ATOM     81  C   UNL A   1      44.473  27.258  34.344  1.00  0.00     0.064 A 
ATOM     82  C   UNL A   1      44.317  26.018  34.979  1.00  0.00     0.173 A 
ATOM     83  C   UNL A   1      45.749  27.845  34.347  1.00  0.00     0.173 A 
ATOM     84  F   UNL A   1      43.116  25.422  35.012  1.00  0.00    -0.203 F 
ATOM     85  C   UNL A   1      45.389  25.407  35.623  1.00  0.00     0.198 A 
ATOM     86  C   UNL A   1      46.826  27.212  34.959  1.00  0.00     0.198 A 
ATOM     87  F   UNL A   1      45.953  29.025  33.743  1.00  0.00    -0.203 F 
ATOM     88  F   UNL A   1      45.204  24.250  36.274  1.00  0.00    -0.200 F 
ATOM     89  C   UNL A   1      46.643  26.000  35.605  1.00  0.00     0.200 A 
ATOM     90  F   UNL A   1      48.041  27.777  34.922  1.00  0.00    -0.200 F 
ATOM     91  F   UNL A   1      47.675  25.405  36.219  1.00  0.00    -0.200 F 
ENDBRANCH  58  81
ENDBRANCH  32  33
ENDBRANCH  25  27
ENDBRANCH  24  25
ENDBRANCH  23  24
ENDBRANCH   1  23
TORSDOF 14
ENDMDL
MODEL 3
REMARK VINA RESULT:     -12.1      0.997      2.204
REMARK SMILES CC1=C(C)C[C@@H](C(=O)N[C@H](C)C(C)(C)C)[C@@H](C(=O)OCCOC(=O)c2ccc(-c3c4nc(c(-c5c(F)c(F)c(F)c(F)c5F)c5ccc([nH]5)c(-c5c(F)c(F)c(F)c(F)c5F)c5nc(c(-c6c(F)c(F)c(F)c(F)c6F)c6ccc3[nH]6)C=C5)C=C4)cc2)C1
REMARK SMILES IDX 20 1 19 2 17 3 18 4 16 5 1 6 2 7 3 8 88 9 4 10 5 11 6 12
REMARK SMILES IDX 7 13 8 14 9 15 10 17 11 18 12 19 13 20 14 21 15 22 21 23
REMARK SMILES IDX 22 24 23 25 24 26 25 27 26 28 87 29 27 30 86 31 28 32 29 33
REMARK SMILES IDX 30 34 80 35 31 36 85 37 79 38 81 39 32 40 84 41 78 42 77 43
REMARK SMILES IDX 33 45 65 46 45 47 64 48 46 49 49 50 63 51 82 52 47 53 48 54
REMARK SMILES IDX 62 56 83 57 50 58 34 59 35 60 43 61 36 62 37 63 41 64 44 65
REMARK SMILES IDX 38 66 39 67 42 68 40 69 66 70 67 71 75 72 68 73 69 74 73 75
REMARK SMILES IDX 76 76 70 77 71 78 74 79 72 80 51 81 52 82 60 83 53 84 54 85
REMARK SMILES IDX 58 86 61 87 55 88 56 89 59 90 57 91
REMARK H PARENT 9 16 81 44 49 55
REMARK Flexibility Score: inf
ROOT
ATOM      1  C   UNL A   1      32.977  29.318  24.420  1.00  0.00     0.274 C 
ENDROOT
BRANCH   1   2
ATOM      2  O   UNL A   1      32.175  28.384  23.648  1.00  0.00    -0.462 OA
BRANCH   2   3
ATOM      3  C   UNL A   1      32.680  27.183  23.321  1.00  0.00     0.310 C 
ATOM      4  O   UNL A   1      33.750  27.064  22.726  1.00  0.00    -0.252 OA
BRANCH   3   5
ATOM      5  C   UNL A   1      31.777  25.946  23.567  1.00  0.00     0.116 C 
ATOM      6  C   UNL A   1      31.902  21.999  22.932  1.00  0.00     0.039 C 
ATOM      7  C   UNL A   1      31.570  23.309  23.612  1.00  0.00    -0.073 C 
ATOM      8  C   UNL A   1      31.147  23.336  24.895  1.00  0.00    -0.074 C 
ATOM      9  C   UNL A   1      31.835  24.596  22.807  1.00  0.00     0.046 C 
ATOM     10  C   UNL A   1      30.888  22.132  25.768  1.00  0.00     0.039 C 
ATOM     11  C   UNL A   1      30.905  24.643  25.585  1.00  0.00     0.045 C 
ATOM     12  C   UNL A   1      31.786  25.774  25.082  1.00  0.00     0.097 C 
BRANCH  12  13
ATOM     13  C   UNL A   1      33.173  25.882  25.733  1.00  0.00     0.224 C 
ATOM     14  O   UNL A   1      33.384  26.770  26.565  1.00  0.00    -0.275 OA
ATOM     15  N   UNL A   1      34.247  25.122  25.326  1.00  0.00    -0.353 N 
ATOM     16  H   UNL A   1      35.014  25.613  24.951  1.00  0.00     0.163 HD
BRANCH  15  17
ATOM     17  C   UNL A   1      34.373  23.654  25.395  1.00  0.00     0.084 C 
ATOM     18  C   UNL A   1      34.328  23.318  26.904  1.00  0.00     0.031 C 
BRANCH  17  19
ATOM     19  C   UNL A   1      35.642  22.969  24.688  1.00  0.00    -0.018 C 
ATOM     20  C   UNL A   1      35.545  23.266  23.168  1.00  0.00     0.013 C 
ATOM     21  C   UNL A   1      37.068  23.496  25.008  1.00  0.00     0.013 C 
ATOM     22  C   UNL A   1      35.629  21.441  24.915  1.00  0.00     0.013 C 
ENDBRANCH  17  19
ENDBRANCH  15  17
ENDBRANCH  12  13
ENDBRANCH   3   5
ENDBRANCH   2   3
ENDBRANCH   1   2
BRANCH   1  23
ATOM     23  C   UNL A   1      32.139  30.040  25.478  1.00  0.00     0.275 C 
BRANCH  23  24
ATOM     24  O   UNL A   1      32.846  30.043  26.723  1.00  0.00    -0.458 OA
BRANCH  24  25
ATOM     25  C   UNL A   1      33.295  31.261  27.105  1.00  0.00     0.338 C 
ATOM     26  O   UNL A   1      32.672  32.313  27.103  1.00  0.00    -0.246 OA
BRANCH  25  27
ATOM     27  C   UNL A   1      34.558  31.057  27.833  1.00  0.00     0.060 A 
ATOM     28  C   UNL A   1      34.833  29.755  28.270  1.00  0.00     0.016 A 
ATOM     29  C   UNL A   1      35.503  32.076  27.978  1.00  0.00     0.016 A 
ATOM     30  C   UNL A   1      36.079  29.443  28.786  1.00  0.00     0.010 A 
ATOM     31  C   UNL A   1      36.732  31.780  28.559  1.00  0.00     0.010 A 
ATOM     32  C   UNL A   1      37.016  30.464  28.963  1.00  0.00    -0.014 A 
BRANCH  32  33
ATOM     33  C   UNL A   1      38.190  30.189  29.805  1.00  0.00     0.031 A 
ATOM     34  C   UNL A   1      39.245  29.301  29.223  1.00  0.00     0.074 A 
ATOM     35  C   UNL A   1      38.321  30.757  31.013  1.00  0.00     0.049 A 
ATOM     36  N   UNL A   1      40.325  28.820  29.773  1.00  0.00    -0.248 NA
ATOM     37  C   UNL A   1      39.048  28.896  27.819  1.00  0.00     0.031 C 
ATOM     38  C   UNL A   1      37.381  31.703  31.610  1.00  0.00     0.029 A 
ATOM     39  N   UNL A   1      39.305  30.612  31.954  1.00  0.00    -0.354 N 
ATOM     40  C   UNL A   1      40.922  28.040  28.792  1.00  0.00     0.074 A 
ATOM     41  C   UNL A   1      40.080  28.095  27.619  1.00  0.00     0.031 C 
ATOM     42  C   UNL A   1      37.826  32.042  32.833  1.00  0.00     0.029 A 
ATOM     43  C   UNL A   1      39.053  31.300  33.115  1.00  0.00     0.049 A 
ATOM     44  H   UNL A   1      40.113  30.069  31.813  1.00  0.00     0.167 HD
ATOM     45  C   UNL A   1      42.074  27.338  28.876  1.00  0.00     0.037 A 
ATOM     46  C   UNL A   1      39.729  31.287  34.278  1.00  0.00     0.037 A 
ATOM     47  C   UNL A   1      42.887  27.304  30.060  1.00  0.00     0.049 A 
ATOM     48  C   UNL A   1      40.969  30.433  34.373  1.00  0.00     0.074 A 
ATOM     49  C   UNL A   1      44.069  26.624  30.278  1.00  0.00     0.029 A 
ATOM     50  N   UNL A   1      42.587  27.984  31.235  1.00  0.00    -0.354 N 
ATOM     51  N   UNL A   1      41.527  29.677  33.456  1.00  0.00    -0.248 NA
ATOM     52  C   UNL A   1      41.672  30.430  35.661  1.00  0.00     0.031 C 
ATOM     53  C   UNL A   1      44.455  26.847  31.604  1.00  0.00     0.029 A 
ATOM     54  C   UNL A   1      43.552  27.721  32.191  1.00  0.00     0.049 A 
ATOM     55  H   UNL A   1      41.804  28.566  31.366  1.00  0.00     0.167 HD
ATOM     56  C   UNL A   1      42.661  29.131  34.045  1.00  0.00     0.074 A 
ATOM     57  C   UNL A   1      42.716  29.658  35.394  1.00  0.00     0.031 C 
ATOM     58  C   UNL A   1      43.574  28.273  33.524  1.00  0.00     0.037 A 
BRANCH  45  59
ATOM     59  C   UNL A   1      42.471  26.520  27.684  1.00  0.00     0.064 A 
ATOM     60  C   UNL A   1      41.924  25.250  27.434  1.00  0.00     0.173 A 
ATOM     61  C   UNL A   1      43.426  27.009  26.781  1.00  0.00     0.173 A 
ATOM     62  F   UNL A   1      41.028  24.722  28.281  1.00  0.00    -0.203 F 
ATOM     63  C   UNL A   1      42.342  24.494  26.342  1.00  0.00     0.198 A 
ATOM     64  C   UNL A   1      43.816  26.263  25.672  1.00  0.00     0.198 A 
ATOM     65  F   UNL A   1      43.989  28.211  26.978  1.00  0.00    -0.203 F 
ATOM     66  F   UNL A   1      41.851  23.259  26.158  1.00  0.00    -0.200 F 
ATOM     67  C   UNL A   1      43.280  25.003  25.458  1.00  0.00     0.200 A 
ATOM     68  F   UNL A   1      44.718  26.762  24.816  1.00  0.00    -0.200 F 
ATOM     69  F   UNL A   1      43.678  24.275  24.406  1.00  0.00    -0.200 F 
ENDBRANCH  45  59
BRANCH  46  70
ATOM     70  C   UNL A   1      39.236  32.073  35.442  1.00  0.00     0.064 A 
ATOM     71  C   UNL A   1      39.599  33.414  35.620  1.00  0.00     0.173 A 
ATOM     72  C   UNL A   1      38.401  31.492  36.409  1.00  0.00     0.173 A 
ATOM     73  F   UNL A   1      40.417  34.010  34.738  1.00  0.00    -0.203 F 
ATOM     74  C   UNL A   1      39.163  34.139  36.728  1.00  0.00     0.198 A 
ATOM     75  C   UNL A   1      37.939  32.228  37.499  1.00  0.00     0.198 A 
ATOM     76  F   UNL A   1      38.026  30.210  36.292  1.00  0.00    -0.203 F 
ATOM     77  F   UNL A   1      39.568  35.405  36.899  1.00  0.00    -0.200 F 
ATOM     78  C   UNL A   1      38.327  33.548  37.663  1.00  0.00     0.200 A 
ATOM     79  F   UNL A   1      37.123  31.654  38.394  1.00  0.00    -0.200 F 
ATOM     80  F   UNL A   1      37.906  34.246  38.726  1.00  0.00    -0.200 F 
ENDBRANCH  46  70
BRANCH  58  81
ATOM     81  C   UNL A   1      44.731  27.893  34.402  1.00  0.00     0.064 A 
ATOM     82  C   UNL A   1      44.696  26.755  35.220  1.00  0.00     0.173 A 
ATOM     83  C   UNL A   1      45.906  28.661  34.388  1.00  0.00     0.173 A 
ATOM     84  F   UNL A   1      43.592  25.996  35.276  1.00  0.00    -0.203 F 
ATOM     85  C   UNL A   1      45.785  26.419  36.020  1.00  0.00     0.198 A 
ATOM     86  C   UNL A   1      47.005  28.300  35.161  1.00  0.00     0.198 A 
ATOM     87  F   UNL A   1      45.994  29.752  33.613  1.00  0.00    -0.203 F 
ATOM     88  F   UNL A   1      45.708  25.361  36.839  1.00  0.00    -0.200 F 
ATOM     89  C   UNL A   1      46.939  27.186  35.983  1.00  0.00     0.200 A 
ATOM     90  F   UNL A   1      48.128  29.030  35.107  1.00  0.00    -0.200 F 
ATOM     91  F   UNL A   1      47.989  26.856  36.749  1.00  0.00    -0.200 F 
ENDBRANCH  58  81
ENDBRANCH  32  33
ENDBRANCH  25  27
ENDBRANCH  24  25
ENDBRANCH  23  24
ENDBRANCH   1  23
TORSDOF 14
ENDMDL
