MODEL 1
REMARK VINA RESULT:     -11.5      0.000      0.000
REMARK SMILES O=C(OCCOC(=O)c1cccnc1C(=O)Nc1ccc([N+](=O)[O-])cc1)c1ccc(-c2c3nc(c(-c4c(F)c(F)c(F)c(F)c4F)c4ccc([nH]4)c(-c4c(F)c(F)c(F)c(F)c4F)c4nc(c(-c5c(F)c(F)c(F)c(F)c5F)c5ccc2[nH]5)C=C4)C=C3)cc1
REMARK SMILES IDX 5 1 4 2 3 3 2 4 1 5 27 6 28 7 89 8 29 9 88 10 30 11 31 12
REMARK SMILES IDX 32 13 82 14 33 15 87 16 81 17 83 18 34 19 86 20 80 21 79 22
REMARK SMILES IDX 35 24 67 25 47 26 66 27 48 28 51 29 65 30 84 31 49 32 50 33
REMARK SMILES IDX 64 35 85 36 52 37 36 38 37 39 45 40 38 41 39 42 43 43 46 44
REMARK SMILES IDX 40 45 41 46 44 47 42 48 68 49 69 50 77 51 70 52 71 53 75 54
REMARK SMILES IDX 78 55 72 56 73 57 76 58 74 59 53 60 54 61 62 62 55 63 56 64
REMARK SMILES IDX 60 65 63 66 57 67 58 68 61 69 59 70 6 71 7 72 8 73 9 74
REMARK SMILES IDX 10 75 14 76 11 77 13 78 12 79 15 80 16 81 17 82 18 84 19 85
REMARK SMILES IDX 26 86 20 87 25 88 21 89 22 90 23 91 24 92
REMARK H PARENT 83 23 51 34 17 83
REMARK Flexibility Score: inf
ROOT
ATOM      1  C   UNL A   1      34.371  34.516  27.686  1.00  0.00     0.275 C 
ENDROOT
BRANCH   1   2
ATOM      2  C   UNL A   1      33.617  33.169  27.806  1.00  0.00     0.275 C 
BRANCH   2   3
ATOM      3  O   UNL A   1      34.359  32.036  28.326  1.00  0.00    -0.458 OA
BRANCH   3   4
ATOM      4  C   UNL A   1      34.616  30.884  27.640  1.00  0.00     0.338 C 
ATOM      5  O   UNL A   1      33.831  30.378  26.864  1.00  0.00    -0.246 OA
BRANCH   4   6
ATOM      6  C   UNL A   1      35.828  30.172  28.081  1.00  0.00     0.060 A 
ATOM      7  C   UNL A   1      36.944  30.113  27.251  1.00  0.00     0.016 A 
ATOM      8  C   UNL A   1      35.888  29.701  29.398  1.00  0.00     0.016 A 
ATOM      9  C   UNL A   1      38.176  29.797  27.804  1.00  0.00     0.010 A 
ATOM     10  C   UNL A   1      37.115  29.337  29.944  1.00  0.00     0.010 A 
ATOM     11  C   UNL A   1      38.267  29.431  29.155  1.00  0.00    -0.014 A 
BRANCH  11  12
ATOM     12  C   UNL A   1      39.557  28.903  29.624  1.00  0.00     0.031 A 
ATOM     13  C   UNL A   1      40.200  29.649  30.741  1.00  0.00     0.074 A 
ATOM     14  C   UNL A   1      40.062  27.739  29.183  1.00  0.00     0.049 A 
ATOM     15  N   UNL A   1      41.171  29.267  31.519  1.00  0.00    -0.248 NA
ATOM     16  C   UNL A   1      39.593  30.942  31.104  1.00  0.00     0.031 C 
ATOM     17  C   UNL A   1      39.425  26.854  28.217  1.00  0.00     0.029 A 
ATOM     18  N   UNL A   1      41.231  27.097  29.492  1.00  0.00    -0.354 N 
ATOM     19  C   UNL A   1      41.199  30.200  32.538  1.00  0.00     0.074 A 
ATOM     20  C   UNL A   1      40.200  31.203  32.249  1.00  0.00     0.031 C 
ATOM     21  C   UNL A   1      40.262  25.842  27.919  1.00  0.00     0.029 A 
ATOM     22  C   UNL A   1      41.474  25.992  28.713  1.00  0.00     0.049 A 
ATOM     23  H   UNL A   1      41.839  27.399  30.204  1.00  0.00     0.167 HD
ATOM     24  C   UNL A   1      41.978  30.188  33.637  1.00  0.00     0.037 A 
ATOM     25  C   UNL A   1      42.570  25.212  28.655  1.00  0.00     0.037 A 
ATOM     26  C   UNL A   1      43.062  29.270  33.819  1.00  0.00     0.049 A 
ATOM     27  C   UNL A   1      43.637  25.440  29.693  1.00  0.00     0.074 A 
ATOM     28  C   UNL A   1      43.994  29.221  34.834  1.00  0.00     0.029 A 
ATOM     29  N   UNL A   1      43.393  28.273  32.909  1.00  0.00    -0.354 N 
ATOM     30  N   UNL A   1      43.626  26.271  30.708  1.00  0.00    -0.248 NA
ATOM     31  C   UNL A   1      44.846  24.612  29.608  1.00  0.00     0.031 C 
ATOM     32  C   UNL A   1      44.935  28.240  34.499  1.00  0.00     0.029 A 
ATOM     33  C   UNL A   1      44.560  27.646  33.302  1.00  0.00     0.049 A 
ATOM     34  H   UNL A   1      42.873  28.047  32.104  1.00  0.00     0.167 HD
ATOM     35  C   UNL A   1      44.791  26.029  31.417  1.00  0.00     0.074 A 
ATOM     36  C   UNL A   1      45.498  24.982  30.703  1.00  0.00     0.031 C 
ATOM     37  C   UNL A   1      45.229  26.603  32.565  1.00  0.00     0.037 A 
BRANCH  24  38
ATOM     38  C   UNL A   1      41.696  31.245  34.648  1.00  0.00     0.064 A 
ATOM     39  C   UNL A   1      40.637  31.109  35.559  1.00  0.00     0.173 A 
ATOM     40  C   UNL A   1      42.426  32.439  34.650  1.00  0.00     0.173 A 
ATOM     41  F   UNL A   1      39.882  29.999  35.558  1.00  0.00    -0.203 F 
ATOM     42  C   UNL A   1      40.311  32.144  36.430  1.00  0.00     0.198 A 
ATOM     43  C   UNL A   1      42.104  33.467  35.529  1.00  0.00     0.198 A 
ATOM     44  F   UNL A   1      43.421  32.622  33.769  1.00  0.00    -0.203 F 
ATOM     45  F   UNL A   1      39.266  32.016  37.260  1.00  0.00    -0.200 F 
ATOM     46  C   UNL A   1      41.044  33.322  36.414  1.00  0.00     0.200 A 
ATOM     47  F   UNL A   1      42.799  34.612  35.501  1.00  0.00    -0.200 F 
ATOM     48  F   UNL A   1      40.717  34.326  37.238  1.00  0.00    -0.200 F 
ENDBRANCH  24  38
BRANCH  25  49
ATOM     49  C   UNL A   1      42.738  24.202  27.577  1.00  0.00     0.064 A 
ATOM     50  C   UNL A   1      42.362  22.862  27.743  1.00  0.00     0.173 A 
ATOM     51  C   UNL A   1      43.370  24.550  26.371  1.00  0.00     0.173 A 
ATOM     52  F   UNL A   1      41.770  22.470  28.880  1.00  0.00    -0.203 F 
ATOM     53  C   UNL A   1      42.644  21.906  26.765  1.00  0.00     0.198 A 
ATOM     54  C   UNL A   1      43.634  23.598  25.387  1.00  0.00     0.198 A 
ATOM     55  F   UNL A   1      43.749  25.819  26.153  1.00  0.00    -0.203 F 
ATOM     56  F   UNL A   1      42.326  20.621  26.976  1.00  0.00    -0.200 F 
ATOM     57  C   UNL A   1      43.284  22.273  25.591  1.00  0.00     0.200 A 
ATOM     58  F   UNL A   1      44.248  23.963  24.254  1.00  0.00    -0.200 F 
ATOM     59  F   UNL A   1      43.575  21.351  24.664  1.00  0.00    -0.200 F 
ENDBRANCH  25  49
BRANCH  37  60
ATOM     60  C   UNL A   1      46.512  26.087  33.135  1.00  0.00     0.064 A 
ATOM     61  C   UNL A   1      46.532  25.032  34.056  1.00  0.00     0.173 A 
ATOM     62  C   UNL A   1      47.736  26.613  32.697  1.00  0.00     0.173 A 
ATOM     63  F   UNL A   1      45.383  24.514  34.515  1.00  0.00    -0.203 F 
ATOM     64  C   UNL A   1      47.738  24.525  34.527  1.00  0.00     0.198 A 
ATOM     65  C   UNL A   1      48.940  26.085  33.148  1.00  0.00     0.198 A 
ATOM     66  F   UNL A   1      47.762  27.623  31.813  1.00  0.00    -0.203 F 
ATOM     67  F   UNL A   1      47.738  23.538  35.433  1.00  0.00    -0.200 F 
ATOM     68  C   UNL A   1      48.940  25.043  34.065  1.00  0.00     0.200 A 
ATOM     69  F   UNL A   1      50.099  26.576  32.691  1.00  0.00    -0.200 F 
ATOM     70  F   UNL A   1      50.101  24.541  34.507  1.00  0.00    -0.200 F 
ENDBRANCH  37  60
ENDBRANCH  11  12
ENDBRANCH   4   6
ENDBRANCH   3   4
ENDBRANCH   2   3
ENDBRANCH   1   2
BRANCH   1  71
ATOM     71  O   UNL A   1      34.442  35.209  28.949  1.00  0.00    -0.458 OA
BRANCH  71  72
ATOM     72  C   UNL A   1      33.283  35.665  29.480  1.00  0.00     0.340 C 
ATOM     73  O   UNL A   1      32.286  35.992  28.862  1.00  0.00    -0.246 OA
BRANCH  72  74
ATOM     74  C   UNL A   1      33.441  35.845  30.928  1.00  0.00     0.091 A 
ATOM     75  C   UNL A   1      32.996  37.104  31.377  1.00  0.00     0.020 A 
ATOM     76  C   UNL A   1      34.133  35.027  31.815  1.00  0.00     0.142 A 
ATOM     77  C   UNL A   1      33.409  37.605  32.602  1.00  0.00     0.021 A 
ATOM     78  N   UNL A   1      34.524  35.527  33.037  1.00  0.00    -0.250 NA
ATOM     79  C   UNL A   1      34.203  36.795  33.377  1.00  0.00     0.112 A 
BRANCH  76  80
ATOM     80  C   UNL A   1      34.645  33.604  31.653  1.00  0.00     0.275 C 
ATOM     81  O   UNL A   1      33.965  32.698  32.148  1.00  0.00    -0.267 OA
ATOM     82  N   UNL A   1      35.564  33.218  30.680  1.00  0.00    -0.321 N 
ATOM     83  H   UNL A   1      35.203  32.597  30.007  1.00  0.00     0.170 HD
BRANCH  82  84
ATOM     84  C   UNL A   1      36.912  33.559  30.487  1.00  0.00     0.042 A 
ATOM     85  C   UNL A   1      37.663  34.180  31.483  1.00  0.00     0.033 A 
ATOM     86  C   UNL A   1      37.492  33.457  29.245  1.00  0.00     0.033 A 
ATOM     87  C   UNL A   1      38.997  34.566  31.232  1.00  0.00     0.088 A 
ATOM     88  C   UNL A   1      38.821  33.750  28.972  1.00  0.00     0.088 A 
ATOM     89  C   UNL A   1      39.580  34.310  29.983  1.00  0.00     0.269 A 
BRANCH  89  90
ATOM     90  N   UNL A   1      40.962  34.692  29.687  1.00  0.00     0.062 N 
ATOM     91  O   UNL A   1      41.153  35.471  28.747  1.00  0.00    -0.258 OA
ATOM     92  O   UNL A   1      41.856  34.197  30.391  1.00  0.00    -0.258 OA
ENDBRANCH  89  90
ENDBRANCH  82  84
ENDBRANCH  76  80
ENDBRANCH  72  74
ENDBRANCH  71  72
ENDBRANCH   1  71
TORSDOF 14
ENDMDL
MODEL 2
REMARK VINA RESULT:     -11.1      3.850      6.718
REMARK SMILES O=C(OCCOC(=O)c1cccnc1C(=O)Nc1ccc([N+](=O)[O-])cc1)c1ccc(-c2c3nc(c(-c4c(F)c(F)c(F)c(F)c4F)c4ccc([nH]4)c(-c4c(F)c(F)c(F)c(F)c4F)c4nc(c(-c5c(F)c(F)c(F)c(F)c5F)c5ccc2[nH]5)C=C4)C=C3)cc1
REMARK SMILES IDX 5 1 4 2 3 3 2 4 1 5 27 6 28 7 89 8 29 9 88 10 30 11 31 12
REMARK SMILES IDX 32 13 82 14 33 15 87 16 81 17 83 18 34 19 86 20 80 21 79 22
REMARK SMILES IDX 35 24 67 25 47 26 66 27 48 28 51 29 65 30 84 31 49 32 50 33
REMARK SMILES IDX 64 35 85 36 52 37 36 38 37 39 45 40 38 41 39 42 43 43 46 44
REMARK SMILES IDX 40 45 41 46 44 47 42 48 68 49 69 50 77 51 70 52 71 53 75 54
REMARK SMILES IDX 78 55 72 56 73 57 76 58 74 59 53 60 54 61 62 62 55 63 56 64
REMARK SMILES IDX 60 65 63 66 57 67 58 68 61 69 59 70 6 71 7 72 8 73 9 74
REMARK SMILES IDX 10 75 14 76 11 77 13 78 12 79 15 80 16 81 17 82 18 84 19 85
REMARK SMILES IDX 26 86 20 87 25 88 21 89 22 90 23 91 24 92
REMARK H PARENT 83 23 51 34 17 83
REMARK Flexibility Score: inf
ROOT
ATOM      1  C   UNL A   1      32.122  30.387  26.330  1.00  0.00     0.275 C 
ENDROOT
BRANCH   1   2
ATOM      2  C   UNL A   1      33.053  31.205  27.258  1.00  0.00     0.275 C 
BRANCH   2   3
ATOM      3  O   UNL A   1      32.882  32.645  27.268  1.00  0.00    -0.458 OA
BRANCH   3   4
ATOM      4  C   UNL A   1      33.348  33.485  28.238  1.00  0.00     0.338 C 
ATOM      5  O   UNL A   1      32.887  34.590  28.445  1.00  0.00    -0.246 OA
BRANCH   4   6
ATOM      6  C   UNL A   1      34.604  33.046  28.872  1.00  0.00     0.060 A 
ATOM      7  C   UNL A   1      34.569  32.279  30.032  1.00  0.00     0.016 A 
ATOM      8  C   UNL A   1      35.810  33.278  28.201  1.00  0.00     0.016 A 
ATOM      9  C   UNL A   1      35.696  31.557  30.395  1.00  0.00     0.010 A 
ATOM     10  C   UNL A   1      36.957  32.591  28.589  1.00  0.00     0.010 A 
ATOM     11  C   UNL A   1      36.884  31.695  29.661  1.00  0.00    -0.014 A 
BRANCH  11  12
ATOM     12  C   UNL A   1      38.095  31.074  30.219  1.00  0.00     0.031 A 
ATOM     13  C   UNL A   1      38.519  31.561  31.561  1.00  0.00     0.074 A 
ATOM     14  C   UNL A   1      38.704  30.029  29.634  1.00  0.00     0.049 A 
ATOM     15  N   UNL A   1      39.359  31.018  32.394  1.00  0.00    -0.248 NA
ATOM     16  C   UNL A   1      37.818  32.749  32.082  1.00  0.00     0.031 C 
ATOM     17  C   UNL A   1      38.267  29.374  28.409  1.00  0.00     0.029 A 
ATOM     18  N   UNL A   1      39.826  29.332  29.994  1.00  0.00    -0.354 N 
ATOM     19  C   UNL A   1      39.186  31.711  33.576  1.00  0.00     0.074 A 
ATOM     20  C   UNL A   1      38.217  32.757  33.342  1.00  0.00     0.031 C 
ATOM     21  C   UNL A   1      39.174  28.447  28.050  1.00  0.00     0.029 A 
ATOM     22  C   UNL A   1      40.232  28.419  29.052  1.00  0.00     0.049 A 
ATOM     23  H   UNL A   1      40.297  29.473  30.846  1.00  0.00     0.167 HD
ATOM     24  C   UNL A   1      39.771  31.462  34.764  1.00  0.00     0.037 A 
ATOM     25  C   UNL A   1      41.346  27.665  29.016  1.00  0.00     0.037 A 
ATOM     26  C   UNL A   1      40.839  30.522  34.929  1.00  0.00     0.049 A 
ATOM     27  C   UNL A   1      42.218  27.662  30.245  1.00  0.00     0.074 A 
ATOM     28  C   UNL A   1      41.590  30.253  36.053  1.00  0.00     0.029 A 
ATOM     29  N   UNL A   1      41.350  29.741  33.898  1.00  0.00    -0.354 N 
ATOM     30  N   UNL A   1      42.011  28.256  31.396  1.00  0.00    -0.248 NA
ATOM     31  C   UNL A   1      43.451  26.867  30.193  1.00  0.00     0.031 C 
ATOM     32  C   UNL A   1      42.606  29.363  35.683  1.00  0.00     0.029 A 
ATOM     33  C   UNL A   1      42.454  29.040  34.342  1.00  0.00     0.049 A 
ATOM     34  H   UNL A   1      40.978  29.694  32.987  1.00  0.00     0.167 HD
ATOM     35  C   UNL A   1      43.049  27.864  32.224  1.00  0.00     0.074 A 
ATOM     36  C   UNL A   1      43.899  26.991  31.436  1.00  0.00     0.031 C 
ATOM     37  C   UNL A   1      43.271  28.177  33.525  1.00  0.00     0.037 A 
BRANCH  24  38
ATOM     38  C   UNL A   1      39.290  32.279  35.913  1.00  0.00     0.064 A 
ATOM     39  C   UNL A   1      39.841  33.541  36.182  1.00  0.00     0.173 A 
ATOM     40  C   UNL A   1      38.342  31.763  36.803  1.00  0.00     0.173 A 
ATOM     41  F   UNL A   1      40.789  34.051  35.380  1.00  0.00    -0.203 F 
ATOM     42  C   UNL A   1      39.465  34.255  37.317  1.00  0.00     0.198 A 
ATOM     43  C   UNL A   1      37.960  32.484  37.930  1.00  0.00     0.198 A 
ATOM     44  F   UNL A   1      37.820  30.545  36.601  1.00  0.00    -0.203 F 
ATOM     45  F   UNL A   1      40.036  35.437  37.584  1.00  0.00    -0.200 F 
ATOM     46  C   UNL A   1      38.525  33.725  38.189  1.00  0.00     0.200 A 
ATOM     47  F   UNL A   1      37.067  31.964  38.783  1.00  0.00    -0.200 F 
ATOM     48  F   UNL A   1      38.178  34.402  39.292  1.00  0.00    -0.200 F 
ENDBRANCH  24  38
BRANCH  25  49
ATOM     49  C   UNL A   1      41.724  26.908  27.794  1.00  0.00     0.064 A 
ATOM     50  C   UNL A   1      41.393  25.558  27.617  1.00  0.00     0.173 A 
ATOM     51  C   UNL A   1      42.515  27.514  26.801  1.00  0.00     0.173 A 
ATOM     52  F   UNL A   1      40.655  24.925  28.541  1.00  0.00    -0.203 F 
ATOM     53  C   UNL A   1      41.866  24.835  26.521  1.00  0.00     0.198 A 
ATOM     54  C   UNL A   1      42.971  26.796  25.697  1.00  0.00     0.198 A 
ATOM     55  F   UNL A   1      42.861  28.805  26.913  1.00  0.00    -0.203 F 
ATOM     56  F   UNL A   1      41.582  23.530  26.409  1.00  0.00    -0.200 F 
ATOM     57  C   UNL A   1      42.658  25.452  25.564  1.00  0.00     0.200 A 
ATOM     58  F   UNL A   1      43.731  27.401  24.775  1.00  0.00    -0.200 F 
ATOM     59  F   UNL A   1      43.131  24.751  24.525  1.00  0.00    -0.200 F 
ENDBRANCH  25  49
BRANCH  37  60
ATOM     60  C   UNL A   1      44.458  27.546  34.182  1.00  0.00     0.064 A 
ATOM     61  C   UNL A   1      44.400  26.249  34.708  1.00  0.00     0.173 A 
ATOM     62  C   UNL A   1      45.683  28.227  34.221  1.00  0.00     0.173 A 
ATOM     63  F   UNL A   1      43.242  25.571  34.709  1.00  0.00    -0.203 F 
ATOM     64  C   UNL A   1      45.530  25.657  35.258  1.00  0.00     0.198 A 
ATOM     65  C   UNL A   1      46.818  27.621  34.745  1.00  0.00     0.198 A 
ATOM     66  F   UNL A   1      45.782  29.471  33.725  1.00  0.00    -0.203 F 
ATOM     67  F   UNL A   1      45.449  24.428  35.788  1.00  0.00    -0.200 F 
ATOM     68  C   UNL A   1      46.740  26.337  35.267  1.00  0.00     0.200 A 
ATOM     69  F   UNL A   1      47.987  28.273  34.740  1.00  0.00    -0.200 F 
ATOM     70  F   UNL A   1      47.832  25.757  35.782  1.00  0.00    -0.200 F 
ENDBRANCH  37  60
ENDBRANCH  11  12
ENDBRANCH   4   6
ENDBRANCH   3   4
ENDBRANCH   2   3
ENDBRANCH   1   2
BRANCH   1  71
ATOM     71  O   UNL A   1      32.596  29.036  26.146  1.00  0.00    -0.458 OA
BRANCH  71  72
ATOM     72  C   UNL A   1      33.122  28.715  24.941  1.00  0.00     0.340 C 
ATOM     73  O   UNL A   1      33.381  29.489  24.038  1.00  0.00    -0.246 OA
BRANCH  72  74
ATOM     74  C   UNL A   1      33.213  27.255  24.816  1.00  0.00     0.091 A 
ATOM     75  C   UNL A   1      33.592  26.623  26.016  1.00  0.00     0.020 A 
ATOM     76  C   UNL A   1      33.165  26.498  23.650  1.00  0.00     0.142 A 
ATOM     77  C   UNL A   1      34.102  25.334  26.007  1.00  0.00     0.021 A 
ATOM     78  N   UNL A   1      33.656  25.212  23.654  1.00  0.00    -0.250 NA
ATOM     79  C   UNL A   1      34.150  24.685  24.796  1.00  0.00     0.112 A 
BRANCH  76  80
ATOM     80  C   UNL A   1      32.708  26.871  22.248  1.00  0.00     0.275 C 
ATOM     81  O   UNL A   1      33.461  26.579  21.312  1.00  0.00    -0.267 OA
ATOM     82  N   UNL A   1      31.382  27.130  21.908  1.00  0.00    -0.321 N 
ATOM     83  H   UNL A   1      30.988  26.477  21.287  1.00  0.00     0.170 HD
BRANCH  82  84
ATOM     84  C   UNL A   1      30.508  28.158  22.297  1.00  0.00     0.042 A 
ATOM     85  C   UNL A   1      29.356  27.903  23.037  1.00  0.00     0.033 A 
ATOM     86  C   UNL A   1      30.662  29.433  21.808  1.00  0.00     0.033 A 
ATOM     87  C   UNL A   1      28.468  28.952  23.356  1.00  0.00     0.088 A 
ATOM     88  C   UNL A   1      29.859  30.511  22.157  1.00  0.00     0.088 A 
ATOM     89  C   UNL A   1      28.750  30.262  22.944  1.00  0.00     0.269 A 
BRANCH  89  90
ATOM     90  N   UNL A   1      27.854  31.376  23.259  1.00  0.00     0.062 N 
ATOM     91  O   UNL A   1      26.879  31.141  23.981  1.00  0.00    -0.258 OA
ATOM     92  O   UNL A   1      28.123  32.484  22.768  1.00  0.00    -0.258 OA
ENDBRANCH  89  90
ENDBRANCH  82  84
ENDBRANCH  76  80
ENDBRANCH  72  74
ENDBRANCH  71  72
ENDBRANCH   1  71
TORSDOF 14
ENDMDL
MODEL 3
REMARK VINA RESULT:     -10.9      6.750     12.371
REMARK SMILES O=C(OCCOC(=O)c1cccnc1C(=O)Nc1ccc([N+](=O)[O-])cc1)c1ccc(-c2c3nc(c(-c4c(F)c(F)c(F)c(F)c4F)c4ccc([nH]4)c(-c4c(F)c(F)c(F)c(F)c4F)c4nc(c(-c5c(F)c(F)c(F)c(F)c5F)c5ccc2[nH]5)C=C4)C=C3)cc1
REMARK SMILES IDX 5 1 4 2 3 3 2 4 1 5 27 6 28 7 89 8 29 9 88 10 30 11 31 12
REMARK SMILES IDX 32 13 82 14 33 15 87 16 81 17 83 18 34 19 86 20 80 21 79 22
REMARK SMILES IDX 35 24 67 25 47 26 66 27 48 28 51 29 65 30 84 31 49 32 50 33
REMARK SMILES IDX 64 35 85 36 52 37 36 38 37 39 45 40 38 41 39 42 43 43 46 44
REMARK SMILES IDX 40 45 41 46 44 47 42 48 68 49 69 50 77 51 70 52 71 53 75 54
REMARK SMILES IDX 78 55 72 56 73 57 76 58 74 59 53 60 54 61 62 62 55 63 56 64
REMARK SMILES IDX 60 65 63 66 57 67 58 68 61 69 59 70 6 71 7 72 8 73 9 74
REMARK SMILES IDX 10 75 14 76 11 77 13 78 12 79 15 80 16 81 17 82 18 84 19 85
REMARK SMILES IDX 26 86 20 87 25 88 21 89 22 90 23 91 24 92
REMARK H PARENT 83 23 51 34 17 83
REMARK Flexibility Score: inf
ROOT
ATOM      1  C   UNL A   1      38.237  21.106  25.252  1.00  0.00     0.275 C 
ENDROOT
BRANCH   1   2
ATOM      2  C   UNL A   1      38.987  19.756  25.368  1.00  0.00     0.275 C 
BRANCH   2   3
ATOM      3  O   UNL A   1      40.056  19.672  26.345  1.00  0.00    -0.458 OA
BRANCH   3   4
ATOM      4  C   UNL A   1      41.380  19.866  26.080  1.00  0.00     0.338 C 
ATOM      5  O   UNL A   1      42.122  18.984  25.695  1.00  0.00    -0.246 OA
BRANCH   4   6
ATOM      6  C   UNL A   1      41.903  21.174  26.512  1.00  0.00     0.060 A 
ATOM      7  C   UNL A   1      42.243  22.137  25.566  1.00  0.00     0.016 A 
ATOM      8  C   UNL A   1      41.898  21.480  27.877  1.00  0.00     0.016 A 
ATOM      9  C   UNL A   1      42.354  23.460  25.965  1.00  0.00     0.010 A 
ATOM     10  C   UNL A   1      42.057  22.801  28.288  1.00  0.00     0.010 A 
ATOM     11  C   UNL A   1      42.240  23.797  27.323  1.00  0.00    -0.014 A 
BRANCH  11  12
ATOM     12  C   UNL A   1      42.580  25.175  27.705  1.00  0.00     0.031 A 
ATOM     13  C   UNL A   1      44.004  25.572  27.519  1.00  0.00     0.074 A 
ATOM     14  C   UNL A   1      41.648  26.076  28.059  1.00  0.00     0.049 A 
ATOM     15  N   UNL A   1      44.519  26.767  27.508  1.00  0.00    -0.248 NA
ATOM     16  C   UNL A   1      44.950  24.491  27.185  1.00  0.00     0.031 C 
ATOM     17  C   UNL A   1      40.213  25.831  28.108  1.00  0.00     0.029 A 
ATOM     18  N   UNL A   1      41.770  27.383  28.447  1.00  0.00    -0.354 N 
ATOM     19  C   UNL A   1      45.806  26.595  27.034  1.00  0.00     0.074 A 
ATOM     20  C   UNL A   1      46.021  25.180  26.834  1.00  0.00     0.031 C 
ATOM     21  C   UNL A   1      39.593  26.912  28.616  1.00  0.00     0.029 A 
ATOM     22  C   UNL A   1      40.592  27.938  28.885  1.00  0.00     0.049 A 
ATOM     23  H   UNL A   1      42.620  27.877  28.415  1.00  0.00     0.167 HD
ATOM     24  C   UNL A   1      46.712  27.554  26.761  1.00  0.00     0.037 A 
ATOM     25  C   UNL A   1      40.373  29.140  29.451  1.00  0.00     0.037 A 
ATOM     26  C   UNL A   1      46.527  28.929  27.114  1.00  0.00     0.049 A 
ATOM     27  C   UNL A   1      41.520  30.115  29.471  1.00  0.00     0.074 A 
ATOM     28  C   UNL A   1      47.410  29.981  26.991  1.00  0.00     0.029 A 
ATOM     29  N   UNL A   1      45.383  29.424  27.730  1.00  0.00    -0.354 N 
ATOM     30  N   UNL A   1      42.716  29.981  28.948  1.00  0.00    -0.248 NA
ATOM     31  C   UNL A   1      41.290  31.412  30.119  1.00  0.00     0.031 C 
ATOM     32  C   UNL A   1      46.827  31.098  27.603  1.00  0.00     0.029 A 
ATOM     33  C   UNL A   1      45.563  30.753  28.059  1.00  0.00     0.049 A 
ATOM     34  H   UNL A   1      44.565  28.904  27.904  1.00  0.00     0.167 HD
ATOM     35  C   UNL A   1      43.362  31.190  29.149  1.00  0.00     0.074 A 
ATOM     36  C   UNL A   1      42.428  32.043  29.860  1.00  0.00     0.031 C 
ATOM     37  C   UNL A   1      44.605  31.570  28.763  1.00  0.00     0.037 A 
BRANCH  24  38
ATOM     38  C   UNL A   1      47.976  27.095  26.120  1.00  0.00     0.064 A 
ATOM     39  C   UNL A   1      49.054  26.641  26.895  1.00  0.00     0.173 A 
ATOM     40  C   UNL A   1      48.146  27.193  24.735  1.00  0.00     0.173 A 
ATOM     41  F   UNL A   1      48.949  26.578  28.231  1.00  0.00    -0.203 F 
ATOM     42  C   UNL A   1      50.269  26.313  26.300  1.00  0.00     0.198 A 
ATOM     43  C   UNL A   1      49.358  26.854  24.142  1.00  0.00     0.198 A 
ATOM     44  F   UNL A   1      47.151  27.657  23.965  1.00  0.00    -0.203 F 
ATOM     45  F   UNL A   1      51.304  25.929  27.059  1.00  0.00    -0.200 F 
ATOM     46  C   UNL A   1      50.419  26.420  24.924  1.00  0.00     0.200 A 
ATOM     47  F   UNL A   1      49.509  26.976  22.817  1.00  0.00    -0.200 F 
ATOM     48  F   UNL A   1      51.595  26.125  24.354  1.00  0.00    -0.200 F 
ENDBRANCH  24  38
BRANCH  25  49
ATOM     49  C   UNL A   1      39.064  29.467  30.076  1.00  0.00     0.064 A 
ATOM     50  C   UNL A   1      38.057  30.155  29.386  1.00  0.00     0.173 A 
ATOM     51  C   UNL A   1      38.829  29.168  31.429  1.00  0.00     0.173 A 
ATOM     52  F   UNL A   1      38.234  30.481  28.097  1.00  0.00    -0.203 F 
ATOM     53  C   UNL A   1      36.887  30.562  30.030  1.00  0.00     0.198 A 
ATOM     54  C   UNL A   1      37.653  29.558  32.067  1.00  0.00     0.198 A 
ATOM     55  F   UNL A   1      39.755  28.507  32.141  1.00  0.00    -0.203 F 
ATOM     56  F   UNL A   1      35.967  31.270  29.360  1.00  0.00    -0.200 F 
ATOM     57  C   UNL A   1      36.688  30.268  31.371  1.00  0.00     0.200 A 
ATOM     58  F   UNL A   1      37.467  29.265  33.361  1.00  0.00    -0.200 F 
ATOM     59  F   UNL A   1      35.576  30.680  31.994  1.00  0.00    -0.200 F 
ENDBRANCH  25  49
BRANCH  37  60
ATOM     60  C   UNL A   1      45.011  32.976  29.072  1.00  0.00     0.064 A 
ATOM     61  C   UNL A   1      44.727  34.029  28.193  1.00  0.00     0.173 A 
ATOM     62  C   UNL A   1      45.629  33.276  30.294  1.00  0.00     0.173 A 
ATOM     63  F   UNL A   1      44.155  33.782  27.005  1.00  0.00    -0.203 F 
ATOM     64  C   UNL A   1      45.056  35.339  28.526  1.00  0.00     0.198 A 
ATOM     65  C   UNL A   1      45.931  34.589  30.636  1.00  0.00     0.198 A 
ATOM     66  F   UNL A   1      45.916  32.297  31.166  1.00  0.00    -0.203 F 
ATOM     67  F   UNL A   1      44.808  36.330  27.658  1.00  0.00    -0.200 F 
ATOM     68  C   UNL A   1      45.647  35.619  29.750  1.00  0.00     0.200 A 
ATOM     69  F   UNL A   1      46.487  34.860  31.823  1.00  0.00    -0.200 F 
ATOM     70  F   UNL A   1      45.948  36.883  30.076  1.00  0.00    -0.200 F 
ENDBRANCH  37  60
ENDBRANCH  11  12
ENDBRANCH   4   6
ENDBRANCH   3   4
ENDBRANCH   2   3
ENDBRANCH   1   2
BRANCH   1  71
ATOM     71  O   UNL A   1      36.822  20.919  25.039  1.00  0.00    -0.458 OA
BRANCH  71  72
ATOM     72  C   UNL A   1      36.139  21.926  24.445  1.00  0.00     0.340 C 
ATOM     73  O   UNL A   1      36.490  22.552  23.461  1.00  0.00    -0.246 OA
BRANCH  72  74
ATOM     74  C   UNL A   1      34.956  22.260  25.246  1.00  0.00     0.091 A 
ATOM     75  C   UNL A   1      35.271  22.967  26.423  1.00  0.00     0.020 A 
ATOM     76  C   UNL A   1      33.656  21.798  25.074  1.00  0.00     0.142 A 
ATOM     77  C   UNL A   1      34.370  23.027  27.475  1.00  0.00     0.021 A 
ATOM     78  N   UNL A   1      32.761  21.877  26.118  1.00  0.00    -0.250 NA
ATOM     79  C   UNL A   1      33.144  22.434  27.288  1.00  0.00     0.112 A 
BRANCH  76  80
ATOM     80  C   UNL A   1      33.003  21.099  23.890  1.00  0.00     0.275 C 
ATOM     81  O   UNL A   1      32.396  21.809  23.079  1.00  0.00    -0.267 OA
ATOM     82  N   UNL A   1      33.368  19.832  23.441  1.00  0.00    -0.321 N 
ATOM     83  H   UNL A   1      33.770  19.821  22.543  1.00  0.00     0.170 HD
BRANCH  82  84
ATOM     84  C   UNL A   1      33.264  18.568  24.044  1.00  0.00     0.042 A 
ATOM     85  C   UNL A   1      33.768  17.421  23.437  1.00  0.00     0.033 A 
ATOM     86  C   UNL A   1      32.502  18.389  25.173  1.00  0.00     0.033 A 
ATOM     87  C   UNL A   1      33.590  16.158  24.042  1.00  0.00     0.088 A 
ATOM     88  C   UNL A   1      32.365  17.182  25.845  1.00  0.00     0.088 A 
ATOM     89  C   UNL A   1      32.920  16.054  25.269  1.00  0.00     0.269 A 
BRANCH  89  90
ATOM     90  N   UNL A   1      32.720  14.763  25.928  1.00  0.00     0.062 N 
ATOM     91  O   UNL A   1      31.915  14.716  26.866  1.00  0.00    -0.258 OA
ATOM     92  O   UNL A   1      33.383  13.799  25.514  1.00  0.00    -0.258 OA
ENDBRANCH  89  90
ENDBRANCH  82  84
ENDBRANCH  76  80
ENDBRANCH  72  74
ENDBRANCH  71  72
ENDBRANCH   1  71
TORSDOF 14
ENDMDL
