MODEL 1
REMARK VINA RESULT:     -11.0      0.000      0.000
REMARK SMILES Cc1c(Cl)cccc1S(=O)(=O)N[C@H]1C=C[C@@H](C(=O)OCCOC(=O)c2ccc(-c3c4nc(c(-c5c(F)c(F)c(F)c(F)c5F)c5ccc([nH]5)c(-c5c(F)c(F)c(F)c(F)c5F)c5nc(c(-c6c(F)c(F)c(F)c(F)c6F)c6ccc3[nH]6)C=C5)C=C4)cc2)C1
REMARK SMILES IDX 20 1 19 2 17 3 18 4 16 5 13 6 14 7 88 8 15 9 12 10 9 12
REMARK SMILES IDX 10 13 11 14 8 15 1 16 2 17 3 18 4 19 5 20 7 21 6 22 21 23
REMARK SMILES IDX 22 24 23 25 24 26 25 27 26 28 87 29 27 30 86 31 28 32 29 33
REMARK SMILES IDX 30 34 80 35 31 36 85 37 79 38 81 39 32 40 84 41 78 42 77 43
REMARK SMILES IDX 33 45 65 46 45 47 64 48 46 49 49 50 63 51 82 52 47 53 48 54
REMARK SMILES IDX 62 56 83 57 50 58 34 59 35 60 43 61 36 62 37 63 41 64 44 65
REMARK SMILES IDX 38 66 39 67 42 68 40 69 66 70 67 71 75 72 68 73 69 74 73 75
REMARK SMILES IDX 76 76 70 77 71 78 74 79 72 80 51 81 52 82 60 83 53 84 54 85
REMARK SMILES IDX 58 86 61 87 55 88 56 89 59 90 57 91
REMARK H PARENT 12 11 81 44 49 55
REMARK Flexibility Score: inf
ROOT
ATOM      1  C   UNL A   1      33.717  33.979  28.085  1.00  0.00     0.274 C 
ENDROOT
BRANCH   1   2
ATOM      2  O   UNL A   1      34.082  35.029  29.006  1.00  0.00    -0.462 OA
BRANCH   2   3
ATOM      3  C   UNL A   1      33.057  35.734  29.548  1.00  0.00     0.312 C 
ATOM      4  O   UNL A   1      32.358  36.530  28.928  1.00  0.00    -0.252 OA
BRANCH   3   5
ATOM      5  C   UNL A   1      32.848  35.474  31.038  1.00  0.00     0.123 C 
ATOM      6  C   UNL A   1      34.361  35.293  32.983  1.00  0.00     0.093 C 
ATOM      7  C   UNL A   1      33.659  36.615  32.911  1.00  0.00    -0.011 C 
ATOM      8  C   UNL A   1      33.870  34.559  31.732  1.00  0.00     0.043 C 
ATOM      9  C   UNL A   1      32.861  36.727  31.846  1.00  0.00    -0.015 C 
BRANCH   6  10
ATOM     10  N   UNL A   1      35.789  35.572  32.916  1.00  0.00    -0.204 NA
ATOM     11  H   UNL A   1      35.963  35.977  31.996  1.00  0.00     0.142 HD
BRANCH  10  12
ATOM     12  S   UNL A   1      36.909  34.342  33.119  1.00  0.00     0.241 S 
ATOM     13  O   UNL A   1      36.173  33.103  33.270  1.00  0.00    -0.207 OA
ATOM     14  O   UNL A   1      37.820  34.805  34.140  1.00  0.00    -0.207 OA
BRANCH  12  15
ATOM     15  C   UNL A   1      37.856  34.243  31.609  1.00  0.00     0.086 A 
ATOM     16  C   UNL A   1      40.080  34.744  32.765  1.00  0.00     0.047 C 
ATOM     17  C   UNL A   1      39.256  34.424  31.549  1.00  0.00    -0.012 A 
ATOM     18  C   UNL A   1      39.866  34.330  30.279  1.00  0.00     0.045 A 
ATOM     19  Cl  UNL A   1      41.564  34.585  30.041  1.00  0.00    -0.084 Cl
ATOM     20  C   UNL A   1      39.126  34.007  29.135  1.00  0.00     0.021 A 
ATOM     21  C   UNL A   1      37.126  33.900  30.455  1.00  0.00     0.022 A 
ATOM     22  C   UNL A   1      37.760  33.773  29.225  1.00  0.00     0.003 A 
ENDBRANCH  12  15
ENDBRANCH  10  12
ENDBRANCH   6  10
ENDBRANCH   3   5
ENDBRANCH   2   3
ENDBRANCH   1   2
BRANCH   1  23
ATOM     23  C   UNL A   1      34.189  32.603  28.564  1.00  0.00     0.275 C 
BRANCH  23  24
ATOM     24  O   UNL A   1      34.807  31.850  27.506  1.00  0.00    -0.458 OA
BRANCH  24  25
ATOM     25  C   UNL A   1      34.819  30.511  27.694  1.00  0.00     0.338 C 
ATOM     26  O   UNL A   1      33.966  29.701  27.376  1.00  0.00    -0.246 OA
BRANCH  25  27
ATOM     27  C   UNL A   1      36.121  30.097  28.219  1.00  0.00     0.060 A 
ATOM     28  C   UNL A   1      37.223  30.194  27.370  1.00  0.00     0.016 A 
ATOM     29  C   UNL A   1      36.240  29.533  29.489  1.00  0.00     0.016 A 
ATOM     30  C   UNL A   1      38.466  29.740  27.786  1.00  0.00     0.010 A 
ATOM     31  C   UNL A   1      37.494  29.091  29.915  1.00  0.00     0.010 A 
ATOM     32  C   UNL A   1      38.612  29.198  29.068  1.00  0.00    -0.014 A 
BRANCH  32  33
ATOM     33  C   UNL A   1      39.953  28.775  29.522  1.00  0.00     0.031 A 
ATOM     34  C   UNL A   1      40.727  29.624  30.480  1.00  0.00     0.074 A 
ATOM     35  C   UNL A   1      40.450  27.611  29.068  1.00  0.00     0.049 A 
ATOM     36  N   UNL A   1      41.949  29.468  30.918  1.00  0.00    -0.248 NA
ATOM     37  C   UNL A   1      40.038  30.806  31.017  1.00  0.00     0.031 C 
ATOM     38  C   UNL A   1      39.748  26.690  28.172  1.00  0.00     0.029 A 
ATOM     39  N   UNL A   1      41.657  27.003  29.293  1.00  0.00    -0.354 N 
ATOM     40  C   UNL A   1      42.184  30.540  31.768  1.00  0.00     0.074 A 
ATOM     41  C   UNL A   1      40.983  31.348  31.773  1.00  0.00     0.031 C 
ATOM     42  C   UNL A   1      40.538  25.633  27.923  1.00  0.00     0.029 A 
ATOM     43  C   UNL A   1      41.818  25.834  28.592  1.00  0.00     0.049 A 
ATOM     44  H   UNL A   1      42.341  27.369  29.899  1.00  0.00     0.167 HD
ATOM     45  C   UNL A   1      43.306  30.816  32.474  1.00  0.00     0.037 A 
ATOM     46  C   UNL A   1      42.895  25.036  28.472  1.00  0.00     0.037 A 
ATOM     47  C   UNL A   1      44.488  29.993  32.456  1.00  0.00     0.049 A 
ATOM     48  C   UNL A   1      44.152  25.409  29.207  1.00  0.00     0.074 A 
ATOM     49  C   UNL A   1      45.676  30.171  33.143  1.00  0.00     0.029 A 
ATOM     50  N   UNL A   1      44.633  28.835  31.702  1.00  0.00    -0.354 N 
ATOM     51  N   UNL A   1      44.372  26.423  30.009  1.00  0.00    -0.248 NA
ATOM     52  C   UNL A   1      45.315  24.533  29.015  1.00  0.00     0.031 C 
ATOM     53  C   UNL A   1      46.556  29.151  32.766  1.00  0.00     0.029 A 
ATOM     54  C   UNL A   1      45.900  28.305  31.886  1.00  0.00     0.049 A 
ATOM     55  H   UNL A   1      43.937  28.447  31.125  1.00  0.00     0.167 HD
ATOM     56  C   UNL A   1      45.686  26.301  30.431  1.00  0.00     0.074 A 
ATOM     57  C   UNL A   1      46.212  25.101  29.808  1.00  0.00     0.031 C 
ATOM     58  C   UNL A   1      46.398  27.108  31.255  1.00  0.00     0.037 A 
BRANCH  45  59
ATOM     59  C   UNL A   1      43.324  32.074  33.291  1.00  0.00     0.064 A 
ATOM     60  C   UNL A   1      42.921  32.091  34.634  1.00  0.00     0.173 A 
ATOM     61  C   UNL A   1      43.782  33.276  32.729  1.00  0.00     0.173 A 
ATOM     62  F   UNL A   1      42.461  30.974  35.216  1.00  0.00    -0.203 F 
ATOM     63  C   UNL A   1      42.953  33.270  35.377  1.00  0.00     0.198 A 
ATOM     64  C   UNL A   1      43.839  34.446  33.483  1.00  0.00     0.198 A 
ATOM     65  F   UNL A   1      44.183  33.315  31.449  1.00  0.00    -0.203 F 
ATOM     66  F   UNL A   1      42.521  33.273  36.645  1.00  0.00    -0.200 F 
ATOM     67  C   UNL A   1      43.418  34.443  34.803  1.00  0.00     0.200 A 
ATOM     68  F   UNL A   1      44.300  35.576  32.928  1.00  0.00    -0.200 F 
ATOM     69  F   UNL A   1      43.453  35.575  35.521  1.00  0.00    -0.200 F 
ENDBRANCH  45  59
BRANCH  46  70
ATOM     70  C   UNL A   1      42.833  23.835  27.601  1.00  0.00     0.064 A 
ATOM     71  C   UNL A   1      43.144  23.913  26.238  1.00  0.00     0.173 A 
ATOM     72  C   UNL A   1      42.470  22.581  28.117  1.00  0.00     0.173 A 
ATOM     73  F   UNL A   1      43.474  25.094  25.694  1.00  0.00    -0.203 F 
ATOM     74  C   UNL A   1      43.083  22.786  25.420  1.00  0.00     0.198 A 
ATOM     75  C   UNL A   1      42.440  21.449  27.306  1.00  0.00     0.198 A 
ATOM     76  F   UNL A   1      42.164  22.451  29.416  1.00  0.00    -0.203 F 
ATOM     77  F   UNL A   1      43.347  22.897  24.111  1.00  0.00    -0.200 F 
ATOM     78  C   UNL A   1      42.740  21.554  25.956  1.00  0.00     0.200 A 
ATOM     79  F   UNL A   1      42.123  20.258  27.831  1.00  0.00    -0.200 F 
ATOM     80  F   UNL A   1      42.690  20.469  25.171  1.00  0.00    -0.200 F 
ENDBRANCH  46  70
BRANCH  58  81
ATOM     81  C   UNL A   1      47.812  26.704  31.550  1.00  0.00     0.064 A 
ATOM     82  C   UNL A   1      48.888  27.201  30.800  1.00  0.00     0.173 A 
ATOM     83  C   UNL A   1      48.095  25.848  32.625  1.00  0.00     0.173 A 
ATOM     84  F   UNL A   1      48.666  28.008  29.752  1.00  0.00    -0.203 F 
ATOM     85  C   UNL A   1      50.197  26.838  31.104  1.00  0.00     0.198 A 
ATOM     86  C   UNL A   1      49.407  25.511  32.945  1.00  0.00     0.198 A 
ATOM     87  F   UNL A   1      47.100  25.352  33.375  1.00  0.00    -0.203 F 
ATOM     88  F   UNL A   1      51.208  27.289  30.349  1.00  0.00    -0.200 F 
ATOM     89  C   UNL A   1      50.456  26.001  32.181  1.00  0.00     0.200 A 
ATOM     90  F   UNL A   1      49.656  24.714  33.991  1.00  0.00    -0.200 F 
ATOM     91  F   UNL A   1      51.718  25.662  32.478  1.00  0.00    -0.200 F 
ENDBRANCH  58  81
ENDBRANCH  32  33
ENDBRANCH  25  27
ENDBRANCH  24  25
ENDBRANCH  23  24
ENDBRANCH   1  23
TORSDOF 14
ENDMDL
MODEL 2
REMARK VINA RESULT:     -10.9      0.981      1.930
REMARK SMILES Cc1c(Cl)cccc1S(=O)(=O)N[C@H]1C=C[C@@H](C(=O)OCCOC(=O)c2ccc(-c3c4nc(c(-c5c(F)c(F)c(F)c(F)c5F)c5ccc([nH]5)c(-c5c(F)c(F)c(F)c(F)c5F)c5nc(c(-c6c(F)c(F)c(F)c(F)c6F)c6ccc3[nH]6)C=C5)C=C4)cc2)C1
REMARK SMILES IDX 20 1 19 2 17 3 18 4 16 5 13 6 14 7 88 8 15 9 12 10 9 12
REMARK SMILES IDX 10 13 11 14 8 15 1 16 2 17 3 18 4 19 5 20 7 21 6 22 21 23
REMARK SMILES IDX 22 24 23 25 24 26 25 27 26 28 87 29 27 30 86 31 28 32 29 33
REMARK SMILES IDX 30 34 80 35 31 36 85 37 79 38 81 39 32 40 84 41 78 42 77 43
REMARK SMILES IDX 33 45 65 46 45 47 64 48 46 49 49 50 63 51 82 52 47 53 48 54
REMARK SMILES IDX 62 56 83 57 50 58 34 59 35 60 43 61 36 62 37 63 41 64 44 65
REMARK SMILES IDX 38 66 39 67 42 68 40 69 66 70 67 71 75 72 68 73 69 74 73 75
REMARK SMILES IDX 76 76 70 77 71 78 74 79 72 80 51 81 52 82 60 83 53 84 54 85
REMARK SMILES IDX 58 86 61 87 55 88 56 89 59 90 57 91
REMARK H PARENT 12 11 81 44 49 55
REMARK Flexibility Score: inf
ROOT
ATOM      1  C   UNL A   1      33.841  34.144  28.062  1.00  0.00     0.274 C 
ENDROOT
BRANCH   1   2
ATOM      2  O   UNL A   1      34.087  35.073  29.140  1.00  0.00    -0.462 OA
BRANCH   2   3
ATOM      3  C   UNL A   1      33.019  35.794  29.566  1.00  0.00     0.312 C 
ATOM      4  O   UNL A   1      32.292  36.456  28.831  1.00  0.00    -0.252 OA
BRANCH   3   5
ATOM      5  C   UNL A   1      32.798  35.739  31.075  1.00  0.00     0.123 C 
ATOM      6  C   UNL A   1      34.301  35.624  33.033  1.00  0.00     0.093 C 
ATOM      7  C   UNL A   1      33.751  36.997  32.800  1.00  0.00    -0.011 C 
ATOM      8  C   UNL A   1      33.717  34.805  31.877  1.00  0.00     0.043 C 
ATOM      9  C   UNL A   1      32.960  37.071  31.727  1.00  0.00    -0.015 C 
BRANCH   6  10
ATOM     10  N   UNL A   1      35.750  35.730  32.937  1.00  0.00    -0.204 NA
ATOM     11  H   UNL A   1      35.958  36.017  31.981  1.00  0.00     0.142 HD
BRANCH  10  12
ATOM     12  S   UNL A   1      36.725  34.407  33.263  1.00  0.00     0.241 S 
ATOM     13  O   UNL A   1      35.858  33.263  33.457  1.00  0.00    -0.207 OA
ATOM     14  O   UNL A   1      37.643  34.839  34.293  1.00  0.00    -0.207 OA
BRANCH  12  15
ATOM     15  C   UNL A   1      37.712  34.112  31.805  1.00  0.00     0.086 A 
ATOM     16  C   UNL A   1      39.910  34.731  32.953  1.00  0.00     0.047 C 
ATOM     17  C   UNL A   1      39.116  34.271  31.763  1.00  0.00    -0.012 A 
ATOM     18  C   UNL A   1      39.758  34.015  30.532  1.00  0.00     0.045 A 
ATOM     19  Cl  UNL A   1      41.466  34.223  30.313  1.00  0.00    -0.084 Cl
ATOM     20  C   UNL A   1      39.046  33.560  29.416  1.00  0.00     0.021 A 
ATOM     21  C   UNL A   1      37.009  33.636  30.682  1.00  0.00     0.022 A 
ATOM     22  C   UNL A   1      37.675  33.352  29.495  1.00  0.00     0.003 A 
ENDBRANCH  12  15
ENDBRANCH  10  12
ENDBRANCH   6  10
ENDBRANCH   3   5
ENDBRANCH   2   3
ENDBRANCH   1   2
BRANCH   1  23
ATOM     23  C   UNL A   1      34.114  32.696  28.477  1.00  0.00     0.275 C 
BRANCH  23  24
ATOM     24  O   UNL A   1      34.796  31.962  27.443  1.00  0.00    -0.458 OA
BRANCH  24  25
ATOM     25  C   UNL A   1      34.791  30.620  27.604  1.00  0.00     0.338 C 
ATOM     26  O   UNL A   1      33.978  29.816  27.182  1.00  0.00    -0.246 OA
BRANCH  25  27
ATOM     27  C   UNL A   1      36.033  30.195  28.253  1.00  0.00     0.060 A 
ATOM     28  C   UNL A   1      37.206  30.238  27.499  1.00  0.00     0.016 A 
ATOM     29  C   UNL A   1      36.029  29.673  29.545  1.00  0.00     0.016 A 
ATOM     30  C   UNL A   1      38.397  29.772  28.036  1.00  0.00     0.010 A 
ATOM     31  C   UNL A   1      37.231  29.218  30.092  1.00  0.00     0.010 A 
ATOM     32  C   UNL A   1      38.419  29.271  29.342  1.00  0.00    -0.014 A 
BRANCH  32  33
ATOM     33  C   UNL A   1      39.705  28.834  29.923  1.00  0.00     0.031 A 
ATOM     34  C   UNL A   1      40.290  29.563  31.092  1.00  0.00     0.074 A 
ATOM     35  C   UNL A   1      40.325  27.767  29.390  1.00  0.00     0.049 A 
ATOM     36  N   UNL A   1      41.446  29.388  31.678  1.00  0.00    -0.248 NA
ATOM     37  C   UNL A   1      39.468  30.630  31.681  1.00  0.00     0.031 C 
ATOM     38  C   UNL A   1      39.807  26.961  28.283  1.00  0.00     0.029 A 
ATOM     39  N   UNL A   1      41.521  27.176  29.702  1.00  0.00    -0.354 N 
ATOM     40  C   UNL A   1      41.500  30.334  32.692  1.00  0.00     0.074 A 
ATOM     41  C   UNL A   1      40.268  31.090  32.634  1.00  0.00     0.031 C 
ATOM     42  C   UNL A   1      40.681  25.980  28.008  1.00  0.00     0.029 A 
ATOM     43  C   UNL A   1      41.842  26.127  28.878  1.00  0.00     0.049 A 
ATOM     44  H   UNL A   1      42.093  27.475  30.446  1.00  0.00     0.167 HD
ATOM     45  C   UNL A   1      42.497  30.544  33.585  1.00  0.00     0.037 A 
ATOM     46  C   UNL A   1      42.968  25.394  28.807  1.00  0.00     0.037 A 
ATOM     47  C   UNL A   1      43.714  29.774  33.626  1.00  0.00     0.049 A 
ATOM     48  C   UNL A   1      44.089  25.700  29.761  1.00  0.00     0.074 A 
ATOM     49  C   UNL A   1      44.783  29.893  34.497  1.00  0.00     0.029 A 
ATOM     50  N   UNL A   1      44.026  28.744  32.749  1.00  0.00    -0.354 N 
ATOM     51  N   UNL A   1      44.137  26.595  30.719  1.00  0.00    -0.248 NA
ATOM     52  C   UNL A   1      45.314  24.903  29.621  1.00  0.00     0.031 C 
ATOM     53  C   UNL A   1      45.762  28.970  34.115  1.00  0.00     0.029 A 
ATOM     54  C   UNL A   1      45.282  28.238  33.040  1.00  0.00     0.049 A 
ATOM     55  H   UNL A   1      43.440  28.419  32.028  1.00  0.00     0.167 HD
ATOM     56  C   UNL A   1      45.385  26.459  31.306  1.00  0.00     0.074 A 
ATOM     57  C   UNL A   1      46.058  25.382  30.608  1.00  0.00     0.031 C 
ATOM     58  C   UNL A   1      45.929  27.163  32.329  1.00  0.00     0.037 A 
BRANCH  45  59
ATOM     59  C   UNL A   1      42.330  31.671  34.562  1.00  0.00     0.064 A 
ATOM     60  C   UNL A   1      42.819  32.959  34.299  1.00  0.00     0.173 A 
ATOM     61  C   UNL A   1      41.642  31.465  35.768  1.00  0.00     0.173 A 
ATOM     62  F   UNL A   1      43.495  33.206  33.168  1.00  0.00    -0.203 F 
ATOM     63  C   UNL A   1      42.646  33.993  35.218  1.00  0.00     0.198 A 
ATOM     64  C   UNL A   1      41.448  32.507  36.672  1.00  0.00     0.198 A 
ATOM     65  F   UNL A   1      41.152  30.253  36.069  1.00  0.00    -0.203 F 
ATOM     66  F   UNL A   1      43.161  35.204  34.965  1.00  0.00    -0.200 F 
ATOM     67  C   UNL A   1      41.956  33.767  36.399  1.00  0.00     0.200 A 
ATOM     68  F   UNL A   1      40.770  32.289  37.807  1.00  0.00    -0.200 F 
ATOM     69  F   UNL A   1      41.786  34.764  37.278  1.00  0.00    -0.200 F 
ENDBRANCH  45  59
BRANCH  46  70
ATOM     70  C   UNL A   1      43.095  24.330  27.778  1.00  0.00     0.064 A 
ATOM     71  C   UNL A   1      42.689  23.016  28.041  1.00  0.00     0.173 A 
ATOM     72  C   UNL A   1      43.618  24.609  26.505  1.00  0.00     0.173 A 
ATOM     73  F   UNL A   1      42.204  22.696  29.251  1.00  0.00    -0.203 F 
ATOM     74  C   UNL A   1      42.811  22.018  27.077  1.00  0.00     0.198 A 
ATOM     75  C   UNL A   1      43.710  23.618  25.531  1.00  0.00     0.198 A 
ATOM     76  F   UNL A   1      44.020  25.851  26.201  1.00  0.00    -0.203 F 
ATOM     77  F   UNL A   1      42.452  20.761  27.368  1.00  0.00    -0.200 F 
ATOM     78  C   UNL A   1      43.313  22.321  25.820  1.00  0.00     0.200 A 
ATOM     79  F   UNL A   1      44.182  23.918  24.313  1.00  0.00    -0.200 F 
ATOM     80  F   UNL A   1      43.423  21.362  24.890  1.00  0.00    -0.200 F 
ENDBRANCH  46  70
BRANCH  58  81
ATOM     81  C   UNL A   1      47.309  26.772  32.768  1.00  0.00     0.064 A 
ATOM     82  C   UNL A   1      48.449  27.420  32.272  1.00  0.00     0.173 A 
ATOM     83  C   UNL A   1      47.488  25.767  33.732  1.00  0.00     0.173 A 
ATOM     84  F   UNL A   1      48.329  28.374  31.336  1.00  0.00    -0.203 F 
ATOM     85  C   UNL A   1      49.721  27.064  32.710  1.00  0.00     0.198 A 
ATOM     86  C   UNL A   1      48.759  25.434  34.190  1.00  0.00     0.198 A 
ATOM     87  F   UNL A   1      46.428  25.122  34.240  1.00  0.00    -0.203 F 
ATOM     88  F   UNL A   1      50.800  27.666  32.191  1.00  0.00    -0.200 F 
ATOM     89  C   UNL A   1      49.874  26.078  33.674  1.00  0.00     0.200 A 
ATOM     90  F   UNL A   1      48.905  24.491  35.129  1.00  0.00    -0.200 F 
ATOM     91  F   UNL A   1      51.099  25.743  34.103  1.00  0.00    -0.200 F 
ENDBRANCH  58  81
ENDBRANCH  32  33
ENDBRANCH  25  27
ENDBRANCH  24  25
ENDBRANCH  23  24
ENDBRANCH   1  23
TORSDOF 14
ENDMDL
MODEL 3
REMARK VINA RESULT:     -10.8      4.462     10.298
REMARK SMILES Cc1c(Cl)cccc1S(=O)(=O)N[C@H]1C=C[C@@H](C(=O)OCCOC(=O)c2ccc(-c3c4nc(c(-c5c(F)c(F)c(F)c(F)c5F)c5ccc([nH]5)c(-c5c(F)c(F)c(F)c(F)c5F)c5nc(c(-c6c(F)c(F)c(F)c(F)c6F)c6ccc3[nH]6)C=C5)C=C4)cc2)C1
REMARK SMILES IDX 20 1 19 2 17 3 18 4 16 5 13 6 14 7 88 8 15 9 12 10 9 12
REMARK SMILES IDX 10 13 11 14 8 15 1 16 2 17 3 18 4 19 5 20 7 21 6 22 21 23
REMARK SMILES IDX 22 24 23 25 24 26 25 27 26 28 87 29 27 30 86 31 28 32 29 33
REMARK SMILES IDX 30 34 80 35 31 36 85 37 79 38 81 39 32 40 84 41 78 42 77 43
REMARK SMILES IDX 33 45 65 46 45 47 64 48 46 49 49 50 63 51 82 52 47 53 48 54
REMARK SMILES IDX 62 56 83 57 50 58 34 59 35 60 43 61 36 62 37 63 41 64 44 65
REMARK SMILES IDX 38 66 39 67 42 68 40 69 66 70 67 71 75 72 68 73 69 74 73 75
REMARK SMILES IDX 76 76 70 77 71 78 74 79 72 80 51 81 52 82 60 83 53 84 54 85
REMARK SMILES IDX 58 86 61 87 55 88 56 89 59 90 57 91
REMARK H PARENT 12 11 81 44 49 55
REMARK Flexibility Score: inf
ROOT
ATOM      1  C   UNL A   1      32.737  31.934  27.445  1.00  0.00     0.274 C 
ENDROOT
BRANCH   1   2
ATOM      2  O   UNL A   1      34.045  31.373  27.688  1.00  0.00    -0.462 OA
BRANCH   2   3
ATOM      3  C   UNL A   1      34.257  30.119  27.212  1.00  0.00     0.312 C 
ATOM      4  O   UNL A   1      35.344  29.550  27.217  1.00  0.00    -0.252 OA
BRANCH   3   5
ATOM      5  C   UNL A   1      33.009  29.461  26.629  1.00  0.00     0.123 C 
ATOM      6  C   UNL A   1      32.622  27.644  24.999  1.00  0.00     0.093 C 
ATOM      7  C   UNL A   1      32.436  27.204  26.418  1.00  0.00    -0.011 C 
ATOM      8  C   UNL A   1      33.044  29.111  25.132  1.00  0.00     0.043 C 
ATOM      9  C   UNL A   1      32.670  28.175  27.304  1.00  0.00    -0.015 C 
BRANCH   6  10
ATOM     10  N   UNL A   1      33.691  26.826  24.442  1.00  0.00    -0.204 NA
ATOM     11  H   UNL A   1      34.214  27.426  23.804  1.00  0.00     0.142 HD
BRANCH  10  12
ATOM     12  S   UNL A   1      33.339  25.421  23.600  1.00  0.00     0.241 S 
ATOM     13  O   UNL A   1      33.919  25.547  22.279  1.00  0.00    -0.207 OA
ATOM     14  O   UNL A   1      31.923  25.197  23.782  1.00  0.00    -0.207 OA
BRANCH  12  15
ATOM     15  C   UNL A   1      34.170  24.084  24.443  1.00  0.00     0.086 A 
ATOM     16  C   UNL A   1      32.997  22.265  23.085  1.00  0.00     0.047 C 
ATOM     17  C   UNL A   1      33.964  22.719  24.141  1.00  0.00    -0.012 A 
ATOM     18  C   UNL A   1      34.683  21.773  24.904  1.00  0.00     0.045 A 
ATOM     19  Cl  UNL A   1      34.491  20.064  24.687  1.00  0.00    -0.084 Cl
ATOM     20  C   UNL A   1      35.610  22.170  25.876  1.00  0.00     0.021 A 
ATOM     21  C   UNL A   1      35.119  24.471  25.409  1.00  0.00     0.022 A 
ATOM     22  C   UNL A   1      35.843  23.518  26.116  1.00  0.00     0.003 A 
ENDBRANCH  12  15
ENDBRANCH  10  12
ENDBRANCH   6  10
ENDBRANCH   3   5
ENDBRANCH   2   3
ENDBRANCH   1   2
BRANCH   1  23
ATOM     23  C   UNL A   1      32.794  33.446  27.207  1.00  0.00     0.275 C 
BRANCH  23  24
ATOM     24  O   UNL A   1      32.283  34.185  28.331  1.00  0.00    -0.458 OA
BRANCH  24  25
ATOM     25  C   UNL A   1      33.119  35.130  28.816  1.00  0.00     0.338 C 
ATOM     26  O   UNL A   1      32.960  36.338  28.829  1.00  0.00    -0.246 OA
BRANCH  25  27
ATOM     27  C   UNL A   1      34.240  34.490  29.506  1.00  0.00     0.060 A 
ATOM     28  C   UNL A   1      35.518  34.680  28.981  1.00  0.00     0.016 A 
ATOM     29  C   UNL A   1      34.030  33.641  30.592  1.00  0.00     0.016 A 
ATOM     30  C   UNL A   1      36.607  34.033  29.545  1.00  0.00     0.010 A 
ATOM     31  C   UNL A   1      35.127  33.002  31.171  1.00  0.00     0.010 A 
ATOM     32  C   UNL A   1      36.420  33.200  30.653  1.00  0.00    -0.014 A 
BRANCH  32  33
ATOM     33  C   UNL A   1      37.596  32.564  31.283  1.00  0.00     0.031 A 
ATOM     34  C   UNL A   1      38.305  31.441  30.594  1.00  0.00     0.074 A 
ATOM     35  C   UNL A   1      38.018  33.025  32.473  1.00  0.00     0.049 A 
ATOM     36  N   UNL A   1      39.292  30.700  31.027  1.00  0.00    -0.248 NA
ATOM     37  C   UNL A   1      37.845  31.105  29.239  1.00  0.00     0.031 C 
ATOM     38  C   UNL A   1      37.423  34.149  33.198  1.00  0.00     0.029 A 
ATOM     39  N   UNL A   1      39.041  32.609  33.284  1.00  0.00    -0.354 N 
ATOM     40  C   UNL A   1      39.559  29.798  30.008  1.00  0.00     0.074 A 
ATOM     41  C   UNL A   1      38.622  30.073  28.940  1.00  0.00     0.031 C 
ATOM     42  C   UNL A   1      38.092  34.334  34.348  1.00  0.00     0.029 A 
ATOM     43  C   UNL A   1      39.119  33.305  34.465  1.00  0.00     0.049 A 
ATOM     44  H   UNL A   1      39.660  31.882  33.043  1.00  0.00     0.167 HD
ATOM     45  C   UNL A   1      40.505  28.828  29.978  1.00  0.00     0.037 A 
ATOM     46  C   UNL A   1      39.905  33.106  35.538  1.00  0.00     0.037 A 
ATOM     47  C   UNL A   1      41.430  28.576  31.053  1.00  0.00     0.049 A 
ATOM     48  C   UNL A   1      40.894  31.974  35.507  1.00  0.00     0.074 A 
ATOM     49  C   UNL A   1      42.437  27.628  31.122  1.00  0.00     0.029 A 
ATOM     50  N   UNL A   1      41.455  29.274  32.253  1.00  0.00    -0.354 N 
ATOM     51  N   UNL A   1      41.144  31.122  34.542  1.00  0.00    -0.248 NA
ATOM     52  C   UNL A   1      41.702  31.768  36.716  1.00  0.00     0.031 C 
ATOM     53  C   UNL A   1      43.036  27.719  32.383  1.00  0.00     0.029 A 
ATOM     54  C   UNL A   1      42.440  28.759  33.080  1.00  0.00     0.049 A 
ATOM     55  H   UNL A   1      40.862  30.025  32.481  1.00  0.00     0.167 HD
ATOM     56  C   UNL A   1      42.148  30.291  35.016  1.00  0.00     0.074 A 
ATOM     57  C   UNL A   1      42.473  30.753  36.351  1.00  0.00     0.031 C 
ATOM     58  C   UNL A   1      42.745  29.238  34.405  1.00  0.00     0.037 A 
BRANCH  45  59
ATOM     59  C   UNL A   1      40.560  27.946  28.765  1.00  0.00     0.064 A 
ATOM     60  C   UNL A   1      39.823  26.755  28.680  1.00  0.00     0.173 A 
ATOM     61  C   UNL A   1      41.339  28.315  27.657  1.00  0.00     0.173 A 
ATOM     62  F   UNL A   1      39.074  26.350  29.715  1.00  0.00    -0.203 F 
ATOM     63  C   UNL A   1      39.884  25.955  27.540  1.00  0.00     0.198 A 
ATOM     64  C   UNL A   1      41.375  27.527  26.509  1.00  0.00     0.198 A 
ATOM     65  F   UNL A   1      42.062  29.445  27.685  1.00  0.00    -0.203 F 
ATOM     66  F   UNL A   1      39.207  24.800  27.499  1.00  0.00    -0.200 F 
ATOM     67  C   UNL A   1      40.654  26.345  26.455  1.00  0.00     0.200 A 
ATOM     68  F   UNL A   1      42.111  27.911  25.458  1.00  0.00    -0.200 F 
ATOM     69  F   UNL A   1      40.706  25.577  25.358  1.00  0.00    -0.200 F 
ENDBRANCH  45  59
BRANCH  46  70
ATOM     70  C   UNL A   1      39.762  33.977  36.732  1.00  0.00     0.064 A 
ATOM     71  C   UNL A   1      38.931  33.614  37.798  1.00  0.00     0.173 A 
ATOM     72  C   UNL A   1      40.464  35.189  36.836  1.00  0.00     0.173 A 
ATOM     73  F   UNL A   1      38.222  32.476  37.736  1.00  0.00    -0.203 F 
ATOM     74  C   UNL A   1      38.795  34.433  38.917  1.00  0.00     0.198 A 
ATOM     75  C   UNL A   1      40.352  35.993  37.969  1.00  0.00     0.198 A 
ATOM     76  F   UNL A   1      41.275  35.584  35.844  1.00  0.00    -0.203 F 
ATOM     77  F   UNL A   1      37.961  34.080  39.905  1.00  0.00    -0.200 F 
ATOM     78  C   UNL A   1      39.511  35.617  39.006  1.00  0.00     0.200 A 
ATOM     79  F   UNL A   1      41.058  37.128  38.056  1.00  0.00    -0.200 F 
ATOM     80  F   UNL A   1      39.386  36.400  40.085  1.00  0.00    -0.200 F 
ENDBRANCH  46  70
BRANCH  58  81
ATOM     81  C   UNL A   1      43.827  28.533  35.167  1.00  0.00     0.064 A 
ATOM     82  C   UNL A   1      45.166  28.945  35.090  1.00  0.00     0.173 A 
ATOM     83  C   UNL A   1      43.514  27.463  36.019  1.00  0.00     0.173 A 
ATOM     84  F   UNL A   1      45.517  29.951  34.276  1.00  0.00    -0.203 F 
ATOM     85  C   UNL A   1      46.155  28.297  35.825  1.00  0.00     0.198 A 
ATOM     86  C   UNL A   1      44.501  26.838  36.775  1.00  0.00     0.198 A 
ATOM     87  F   UNL A   1      42.247  27.037  36.130  1.00  0.00    -0.203 F 
ATOM     88  F   UNL A   1      47.434  28.678  35.705  1.00  0.00    -0.200 F 
ATOM     89  C   UNL A   1      45.820  27.251  36.673  1.00  0.00     0.200 A 
ATOM     90  F   UNL A   1      44.174  25.836  37.602  1.00  0.00    -0.200 F 
ATOM     91  F   UNL A   1      46.773  26.635  37.387  1.00  0.00    -0.200 F 
ENDBRANCH  58  81
ENDBRANCH  32  33
ENDBRANCH  25  27
ENDBRANCH  24  25
ENDBRANCH  23  24
ENDBRANCH   1  23
TORSDOF 14
ENDMDL
