MODEL 1
REMARK VINA RESULT:     -11.4      0.000      0.000
REMARK SMILES O=C(COc1csc(C(=O)OCCOC(=O)c2ccc(-c3c4nc(c(-c5c(F)c(F)c(F)c(F)c5F)c5ccc([nH]5)c(-c5c(F)c(F)c(F)c(F)c5F)c5nc(c(-c6c(F)c(F)c(F)c(F)c6F)c6ccc3[nH]6)C=C5)C=C4)cc2)c1)Nc1nccs1
REMARK SMILES IDX 12 1 11 2 9 3 10 4 8 5 5 6 6 7 80 8 7 9 4 10 3 11 2 12 1 13
REMARK SMILES IDX 81 14 82 16 83 17 86 18 84 19 85 20 13 21 14 22 15 23 16 24
REMARK SMILES IDX 17 25 18 26 79 27 19 28 78 29 20 30 21 31 22 32 72 33 23 34
REMARK SMILES IDX 77 35 71 36 73 37 24 38 76 39 70 40 69 41 25 43 57 44 37 45
REMARK SMILES IDX 56 46 38 47 41 48 55 49 74 50 39 51 40 52 54 54 75 55 42 56
REMARK SMILES IDX 26 57 27 58 35 59 28 60 29 61 33 62 36 63 30 64 31 65 34 66
REMARK SMILES IDX 32 67 58 68 59 69 67 70 60 71 61 72 65 73 68 74 62 75 63 76
REMARK SMILES IDX 66 77 64 78 43 79 44 80 52 81 45 82 46 83 50 84 53 85 47 86
REMARK SMILES IDX 48 87 51 88 49 89
REMARK H PARENT 81 15 73 42 41 53
REMARK Flexibility Score: inf
ROOT
ATOM      1  C   UNL A   1      31.346  29.146  24.208  1.00  0.00     0.275 C 
ENDROOT
BRANCH   1   2
ATOM      2  O   UNL A   1      30.968  27.752  24.197  1.00  0.00    -0.458 OA
BRANCH   2   3
ATOM      3  C   UNL A   1      31.914  26.896  23.707  1.00  0.00     0.348 C 
ATOM      4  O   UNL A   1      32.399  26.990  22.587  1.00  0.00    -0.245 OA
BRANCH   3   5
ATOM      5  C   UNL A   1      32.308  25.918  24.711  1.00  0.00     0.116 A 
ATOM      6  C   UNL A   1      33.408  24.336  26.039  1.00  0.00     0.131 A 
ATOM      7  C   UNL A   1      32.122  24.233  26.508  1.00  0.00     0.112 A 
ATOM      8  C   UNL A   1      33.515  25.290  24.976  1.00  0.00     0.074 A 
ATOM      9  S   UNL A   1      31.112  25.430  25.850  1.00  0.00    -0.133 S 
BRANCH   6  10
ATOM     10  O   UNL A   1      34.464  23.715  26.623  1.00  0.00    -0.483 OA
BRANCH  10  11
ATOM     11  C   UNL A   1      34.158  22.455  27.208  1.00  0.00     0.329 C 
BRANCH  11  12
ATOM     12  C   UNL A   1      34.177  21.202  26.316  1.00  0.00     0.264 C 
ATOM     13  O   UNL A   1      35.215  20.866  25.752  1.00  0.00    -0.271 OA
ATOM     14  N   UNL A   1      32.959  20.558  26.252  1.00  0.00    -0.299 N 
ATOM     15  H   UNL A   1      32.236  20.843  26.857  1.00  0.00     0.172 HD
BRANCH  14  16
ATOM     16  C   UNL A   1      32.727  19.536  25.374  1.00  0.00     0.189 A 
ATOM     17  N   UNL A   1      32.700  18.246  25.589  1.00  0.00    -0.229 NA
ATOM     18  S   UNL A   1      32.528  20.035  23.750  1.00  0.00    -0.105 S 
ATOM     19  C   UNL A   1      32.534  17.582  24.391  1.00  0.00     0.125 A 
ATOM     20  C   UNL A   1      32.458  18.386  23.273  1.00  0.00     0.088 A 
ENDBRANCH  14  16
ENDBRANCH  11  12
ENDBRANCH  10  11
ENDBRANCH   6  10
ENDBRANCH   3   5
ENDBRANCH   2   3
ENDBRANCH   1   2
BRANCH   1  21
ATOM     21  C   UNL A   1      31.627  29.668  25.623  1.00  0.00     0.275 C 
BRANCH  21  22
ATOM     22  O   UNL A   1      32.986  30.123  25.778  1.00  0.00    -0.458 OA
BRANCH  22  23
ATOM     23  C   UNL A   1      33.179  31.002  26.787  1.00  0.00     0.338 C 
ATOM     24  O   UNL A   1      32.362  31.780  27.251  1.00  0.00    -0.246 OA
BRANCH  23  25
ATOM     25  C   UNL A   1      34.508  30.814  27.386  1.00  0.00     0.060 A 
ATOM     26  C   UNL A   1      34.916  29.504  27.614  1.00  0.00     0.016 A 
ATOM     27  C   UNL A   1      35.276  31.876  27.858  1.00  0.00     0.016 A 
ATOM     28  C   UNL A   1      36.057  29.230  28.357  1.00  0.00     0.010 A 
ATOM     29  C   UNL A   1      36.457  31.603  28.567  1.00  0.00     0.010 A 
ATOM     30  C   UNL A   1      36.845  30.277  28.843  1.00  0.00    -0.014 A 
BRANCH  30  31
ATOM     31  C   UNL A   1      38.037  29.970  29.679  1.00  0.00     0.031 A 
ATOM     32  C   UNL A   1      39.123  29.077  29.144  1.00  0.00     0.074 A 
ATOM     33  C   UNL A   1      38.170  30.527  30.899  1.00  0.00     0.049 A 
ATOM     34  N   UNL A   1      40.177  28.593  29.753  1.00  0.00    -0.248 NA
ATOM     35  C   UNL A   1      39.005  28.671  27.736  1.00  0.00     0.031 C 
ATOM     36  C   UNL A   1      37.226  31.465  31.507  1.00  0.00     0.029 A 
ATOM     37  N   UNL A   1      39.155  30.388  31.846  1.00  0.00    -0.354 N 
ATOM     38  C   UNL A   1      40.826  27.800  28.815  1.00  0.00     0.074 A 
ATOM     39  C   UNL A   1      40.038  27.850  27.602  1.00  0.00     0.031 C 
ATOM     40  C   UNL A   1      37.684  31.829  32.715  1.00  0.00     0.029 A 
ATOM     41  C   UNL A   1      38.912  31.095  32.999  1.00  0.00     0.049 A 
ATOM     42  H   UNL A   1      39.959  29.835  31.712  1.00  0.00     0.167 HD
ATOM     43  C   UNL A   1      41.977  27.098  28.955  1.00  0.00     0.037 A 
ATOM     44  C   UNL A   1      39.579  31.117  34.168  1.00  0.00     0.037 A 
ATOM     45  C   UNL A   1      42.772  27.076  30.157  1.00  0.00     0.049 A 
ATOM     46  C   UNL A   1      40.812  30.267  34.324  1.00  0.00     0.074 A 
ATOM     47  C   UNL A   1      43.954  26.398  30.400  1.00  0.00     0.029 A 
ATOM     48  N   UNL A   1      42.468  27.772  31.318  1.00  0.00    -0.354 N 
ATOM     49  N   UNL A   1      41.400  29.494  33.445  1.00  0.00    -0.248 NA
ATOM     50  C   UNL A   1      41.466  30.285  35.638  1.00  0.00     0.031 C 
ATOM     51  C   UNL A   1      44.336  26.641  31.723  1.00  0.00     0.029 A 
ATOM     52  C   UNL A   1      43.428  27.522  32.286  1.00  0.00     0.049 A 
ATOM     53  H   UNL A   1      41.685  28.358  31.436  1.00  0.00     0.167 HD
ATOM     54  C   UNL A   1      42.509  28.959  34.087  1.00  0.00     0.074 A 
ATOM     55  C   UNL A   1      42.519  29.508  35.427  1.00  0.00     0.031 C 
ATOM     56  C   UNL A   1      43.434  28.091  33.611  1.00  0.00     0.037 A 
BRANCH  43  57
ATOM     57  C   UNL A   1      42.432  26.264  27.790  1.00  0.00     0.064 A 
ATOM     58  C   UNL A   1      43.411  26.713  26.890  1.00  0.00     0.173 A 
ATOM     59  C   UNL A   1      41.902  24.980  27.592  1.00  0.00     0.173 A 
ATOM     60  F   UNL A   1      43.944  27.936  27.028  1.00  0.00    -0.203 F 
ATOM     61  C   UNL A   1      43.819  25.920  25.819  1.00  0.00     0.198 A 
ATOM     62  C   UNL A   1      42.335  24.176  26.539  1.00  0.00     0.198 A 
ATOM     63  F   UNL A   1      40.970  24.495  28.426  1.00  0.00    -0.203 F 
ATOM     64  F   UNL A   1      44.717  26.390  24.944  1.00  0.00    -0.200 F 
ATOM     65  C   UNL A   1      43.286  24.650  25.650  1.00  0.00     0.200 A 
ATOM     66  F   UNL A   1      41.832  22.943  26.388  1.00  0.00    -0.200 F 
ATOM     67  F   UNL A   1      43.685  23.885  24.623  1.00  0.00    -0.200 F 
ENDBRANCH  43  57
BRANCH  44  68
ATOM     68  C   UNL A   1      39.078  31.946  35.298  1.00  0.00     0.064 A 
ATOM     69  C   UNL A   1      39.378  33.312  35.382  1.00  0.00     0.173 A 
ATOM     70  C   UNL A   1      38.308  31.384  36.328  1.00  0.00     0.173 A 
ATOM     71  F   UNL A   1      40.133  33.892  34.437  1.00  0.00    -0.203 F 
ATOM     72  C   UNL A   1      38.944  34.080  36.462  1.00  0.00     0.198 A 
ATOM     73  C   UNL A   1      37.845  32.160  37.388  1.00  0.00     0.198 A 
ATOM     74  F   UNL A   1      37.995  30.081  36.301  1.00  0.00    -0.203 F 
ATOM     75  F   UNL A   1      39.291  35.372  36.544  1.00  0.00    -0.200 F 
ATOM     76  C   UNL A   1      38.172  33.506  37.460  1.00  0.00     0.200 A 
ATOM     77  F   UNL A   1      37.087  31.603  38.342  1.00  0.00    -0.200 F 
ATOM     78  F   UNL A   1      37.753  34.245  38.496  1.00  0.00    -0.200 F 
ENDBRANCH  44  68
BRANCH  56  79
ATOM     79  C   UNL A   1      44.568  27.722  34.524  1.00  0.00     0.064 A 
ATOM     80  C   UNL A   1      45.744  28.482  34.591  1.00  0.00     0.173 A 
ATOM     81  C   UNL A   1      44.458  26.607  35.370  1.00  0.00     0.173 A 
ATOM     82  F   UNL A   1      45.906  29.547  33.790  1.00  0.00    -0.203 F 
ATOM     83  C   UNL A   1      46.780  28.125  35.450  1.00  0.00     0.198 A 
ATOM     84  C   UNL A   1      45.481  26.274  36.254  1.00  0.00     0.198 A 
ATOM     85  F   UNL A   1      43.352  25.848  35.351  1.00  0.00    -0.203 F 
ATOM     86  F   UNL A   1      47.916  28.836  35.459  1.00  0.00    -0.200 F 
ATOM     87  C   UNL A   1      46.644  27.027  36.287  1.00  0.00     0.200 A 
ATOM     88  F   UNL A   1      45.341  25.220  37.071  1.00  0.00    -0.200 F 
ATOM     89  F   UNL A   1      47.638  26.691  37.120  1.00  0.00    -0.200 F 
ENDBRANCH  56  79
ENDBRANCH  30  31
ENDBRANCH  23  25
ENDBRANCH  22  23
ENDBRANCH  21  22
ENDBRANCH   1  21
TORSDOF 15
ENDMDL
MODEL 2
REMARK VINA RESULT:     -11.3      5.339     10.041
REMARK SMILES O=C(COc1csc(C(=O)OCCOC(=O)c2ccc(-c3c4nc(c(-c5c(F)c(F)c(F)c(F)c5F)c5ccc([nH]5)c(-c5c(F)c(F)c(F)c(F)c5F)c5nc(c(-c6c(F)c(F)c(F)c(F)c6F)c6ccc3[nH]6)C=C5)C=C4)cc2)c1)Nc1nccs1
REMARK SMILES IDX 12 1 11 2 9 3 10 4 8 5 5 6 6 7 80 8 7 9 4 10 3 11 2 12 1 13
REMARK SMILES IDX 81 14 82 16 83 17 86 18 84 19 85 20 13 21 14 22 15 23 16 24
REMARK SMILES IDX 17 25 18 26 79 27 19 28 78 29 20 30 21 31 22 32 72 33 23 34
REMARK SMILES IDX 77 35 71 36 73 37 24 38 76 39 70 40 69 41 25 43 57 44 37 45
REMARK SMILES IDX 56 46 38 47 41 48 55 49 74 50 39 51 40 52 54 54 75 55 42 56
REMARK SMILES IDX 26 57 27 58 35 59 28 60 29 61 33 62 36 63 30 64 31 65 34 66
REMARK SMILES IDX 32 67 58 68 59 69 67 70 60 71 61 72 65 73 68 74 62 75 63 76
REMARK SMILES IDX 66 77 64 78 43 79 44 80 52 81 45 82 46 83 50 84 53 85 47 86
REMARK SMILES IDX 48 87 51 88 49 89
REMARK H PARENT 81 15 73 42 41 53
REMARK Flexibility Score: inf
ROOT
ATOM      1  C   UNL A   1      33.987  34.605  32.946  1.00  0.00     0.275 C 
ENDROOT
BRANCH   1   2
ATOM      2  O   UNL A   1      32.754  34.932  32.267  1.00  0.00    -0.458 OA
BRANCH   2   3
ATOM      3  C   UNL A   1      32.846  35.935  31.344  1.00  0.00     0.348 C 
ATOM      4  O   UNL A   1      32.538  37.098  31.572  1.00  0.00    -0.245 OA
BRANCH   3   5
ATOM      5  C   UNL A   1      33.418  35.450  30.096  1.00  0.00     0.116 A 
ATOM      6  C   UNL A   1      34.437  34.220  28.385  1.00  0.00     0.131 A 
ATOM      7  C   UNL A   1      34.393  35.474  27.827  1.00  0.00     0.112 A 
ATOM      8  C   UNL A   1      33.900  34.208  29.712  1.00  0.00     0.074 A 
ATOM      9  S   UNL A   1      33.508  36.562  28.784  1.00  0.00    -0.133 S 
BRANCH   6  10
ATOM     10  O   UNL A   1      34.805  33.112  27.695  1.00  0.00    -0.483 OA
BRANCH  10  11
ATOM     11  C   UNL A   1      34.730  31.901  28.437  1.00  0.00     0.329 C 
BRANCH  11  12
ATOM     12  C   UNL A   1      34.254  30.625  27.723  1.00  0.00     0.264 C 
ATOM     13  O   UNL A   1      34.993  29.645  27.661  1.00  0.00    -0.271 OA
ATOM     14  N   UNL A   1      32.977  30.727  27.213  1.00  0.00    -0.299 N 
ATOM     15  H   UNL A   1      32.432  31.513  27.446  1.00  0.00     0.172 HD
BRANCH  14  16
ATOM     16  C   UNL A   1      32.447  29.770  26.392  1.00  0.00     0.189 A 
ATOM     17  N   UNL A   1      32.240  29.805  25.102  1.00  0.00    -0.229 NA
ATOM     18  S   UNL A   1      31.908  28.366  27.206  1.00  0.00    -0.105 S 
ATOM     19  C   UNL A   1      31.587  28.656  24.708  1.00  0.00     0.125 A 
ATOM     20  C   UNL A   1      31.287  27.768  25.720  1.00  0.00     0.088 A 
ENDBRANCH  14  16
ENDBRANCH  11  12
ENDBRANCH  10  11
ENDBRANCH   6  10
ENDBRANCH   3   5
ENDBRANCH   2   3
ENDBRANCH   1   2
BRANCH   1  21
ATOM     21  C   UNL A   1      34.110  33.108  33.254  1.00  0.00     0.275 C 
BRANCH  21  22
ATOM     22  O   UNL A   1      35.138  32.470  32.470  1.00  0.00    -0.458 OA
BRANCH  22  23
ATOM     23  C   UNL A   1      36.297  32.245  33.128  1.00  0.00     0.338 C 
ATOM     24  O   UNL A   1      36.513  32.413  34.318  1.00  0.00    -0.246 OA
BRANCH  23  25
ATOM     25  C   UNL A   1      37.280  31.613  32.237  1.00  0.00     0.060 A 
ATOM     26  C   UNL A   1      38.241  30.802  32.833  1.00  0.00     0.016 A 
ATOM     27  C   UNL A   1      37.369  31.918  30.881  1.00  0.00     0.016 A 
ATOM     28  C   UNL A   1      39.327  30.329  32.108  1.00  0.00     0.010 A 
ATOM     29  C   UNL A   1      38.439  31.400  30.133  1.00  0.00     0.010 A 
ATOM     30  C   UNL A   1      39.440  30.621  30.746  1.00  0.00    -0.014 A 
BRANCH  30  31
ATOM     31  C   UNL A   1      40.633  30.149  29.993  1.00  0.00     0.031 A 
ATOM     32  C   UNL A   1      41.807  31.068  29.788  1.00  0.00     0.074 A 
ATOM     33  C   UNL A   1      40.687  28.884  29.530  1.00  0.00     0.049 A 
ATOM     34  N   UNL A   1      42.884  30.893  29.063  1.00  0.00    -0.248 NA
ATOM     35  C   UNL A   1      41.760  32.360  30.489  1.00  0.00     0.031 C 
ATOM     36  C   UNL A   1      39.650  27.871  29.722  1.00  0.00     0.029 A 
ATOM     37  N   UNL A   1      41.657  28.233  28.808  1.00  0.00    -0.354 N 
ATOM     38  C   UNL A   1      43.623  32.063  29.194  1.00  0.00     0.074 A 
ATOM     39  C   UNL A   1      42.864  32.948  30.050  1.00  0.00     0.031 C 
ATOM     40  C   UNL A   1      40.043  26.724  29.147  1.00  0.00     0.029 A 
ATOM     41  C   UNL A   1      41.324  26.940  28.483  1.00  0.00     0.049 A 
ATOM     42  H   UNL A   1      42.509  28.653  28.548  1.00  0.00     0.167 HD
ATOM     43  C   UNL A   1      44.828  32.365  28.651  1.00  0.00     0.037 A 
ATOM     44  C   UNL A   1      41.958  26.044  27.703  1.00  0.00     0.037 A 
ATOM     45  C   UNL A   1      45.592  31.466  27.823  1.00  0.00     0.049 A 
ATOM     46  C   UNL A   1      43.256  26.433  27.047  1.00  0.00     0.074 A 
ATOM     47  C   UNL A   1      46.822  31.676  27.225  1.00  0.00     0.029 A 
ATOM     48  N   UNL A   1      45.199  30.179  27.481  1.00  0.00    -0.354 N 
ATOM     49  N   UNL A   1      43.932  27.551  27.148  1.00  0.00    -0.248 NA
ATOM     50  C   UNL A   1      43.874  25.438  26.161  1.00  0.00     0.031 C 
ATOM     51  C   UNL A   1      47.149  30.539  26.480  1.00  0.00     0.029 A 
ATOM     52  C   UNL A   1      46.153  29.594  26.663  1.00  0.00     0.049 A 
ATOM     53  H   UNL A   1      44.365  29.747  27.776  1.00  0.00     0.167 HD
ATOM     54  C   UNL A   1      45.067  27.384  26.366  1.00  0.00     0.074 A 
ATOM     55  C   UNL A   1      44.995  26.049  25.809  1.00  0.00     0.031 C 
ATOM     56  C   UNL A   1      46.076  28.257  26.130  1.00  0.00     0.037 A 
BRANCH  43  57
ATOM     57  C   UNL A   1      45.382  33.738  28.904  1.00  0.00     0.064 A 
ATOM     58  C   UNL A   1      46.311  33.989  29.926  1.00  0.00     0.173 A 
ATOM     59  C   UNL A   1      45.003  34.815  28.088  1.00  0.00     0.173 A 
ATOM     60  F   UNL A   1      46.702  32.998  30.742  1.00  0.00    -0.203 F 
ATOM     61  C   UNL A   1      46.814  35.271  30.140  1.00  0.00     0.198 A 
ATOM     62  C   UNL A   1      45.532  36.088  28.283  1.00  0.00     0.198 A 
ATOM     63  F   UNL A   1      44.125  34.631  27.090  1.00  0.00    -0.203 F 
ATOM     64  F   UNL A   1      47.660  35.497  31.153  1.00  0.00    -0.200 F 
ATOM     65  C   UNL A   1      46.430  36.317  29.313  1.00  0.00     0.200 A 
ATOM     66  F   UNL A   1      45.172  37.094  27.472  1.00  0.00    -0.200 F 
ATOM     67  F   UNL A   1      46.921  37.549  29.515  1.00  0.00    -0.200 F 
ENDBRANCH  43  57
BRANCH  44  68
ATOM     68  C   UNL A   1      41.358  24.703  27.468  1.00  0.00     0.064 A 
ATOM     69  C   UNL A   1      40.219  24.549  26.666  1.00  0.00     0.173 A 
ATOM     70  C   UNL A   1      41.898  23.549  28.058  1.00  0.00     0.173 A 
ATOM     71  F   UNL A   1      39.648  25.623  26.100  1.00  0.00    -0.203 F 
ATOM     72  C   UNL A   1      39.632  23.298  26.480  1.00  0.00     0.198 A 
ATOM     73  C   UNL A   1      41.332  22.295  27.843  1.00  0.00     0.198 A 
ATOM     74  F   UNL A   1      42.985  23.639  28.839  1.00  0.00    -0.203 F 
ATOM     75  F   UNL A   1      38.513  23.188  25.752  1.00  0.00    -0.200 F 
ATOM     76  C   UNL A   1      40.194  22.171  27.062  1.00  0.00     0.200 A 
ATOM     77  F   UNL A   1      41.887  21.208  28.395  1.00  0.00    -0.200 F 
ATOM     78  F   UNL A   1      39.630  20.970  26.880  1.00  0.00    -0.200 F 
ENDBRANCH  44  68
BRANCH  56  79
ATOM     79  C   UNL A   1      47.215  27.779  25.276  1.00  0.00     0.064 A 
ATOM     80  C   UNL A   1      47.204  27.917  23.880  1.00  0.00     0.173 A 
ATOM     81  C   UNL A   1      48.350  27.204  25.869  1.00  0.00     0.173 A 
ATOM     82  F   UNL A   1      46.136  28.443  23.262  1.00  0.00    -0.203 F 
ATOM     83  C   UNL A   1      48.275  27.473  23.109  1.00  0.00     0.198 A 
ATOM     84  C   UNL A   1      49.433  26.794  25.098  1.00  0.00     0.198 A 
ATOM     85  F   UNL A   1      48.415  27.054  27.201  1.00  0.00    -0.203 F 
ATOM     86  F   UNL A   1      48.221  27.567  21.773  1.00  0.00    -0.200 F 
ATOM     87  C   UNL A   1      49.392  26.921  23.719  1.00  0.00     0.200 A 
ATOM     88  F   UNL A   1      50.517  26.273  25.691  1.00  0.00    -0.200 F 
ATOM     89  F   UNL A   1      50.425  26.502  22.974  1.00  0.00    -0.200 F 
ENDBRANCH  56  79
ENDBRANCH  30  31
ENDBRANCH  23  25
ENDBRANCH  22  23
ENDBRANCH  21  22
ENDBRANCH   1  21
TORSDOF 15
ENDMDL
MODEL 3
REMARK VINA RESULT:     -11.3      0.930      1.902
REMARK SMILES O=C(COc1csc(C(=O)OCCOC(=O)c2ccc(-c3c4nc(c(-c5c(F)c(F)c(F)c(F)c5F)c5ccc([nH]5)c(-c5c(F)c(F)c(F)c(F)c5F)c5nc(c(-c6c(F)c(F)c(F)c(F)c6F)c6ccc3[nH]6)C=C5)C=C4)cc2)c1)Nc1nccs1
REMARK SMILES IDX 12 1 11 2 9 3 10 4 8 5 5 6 6 7 80 8 7 9 4 10 3 11 2 12 1 13
REMARK SMILES IDX 81 14 82 16 83 17 86 18 84 19 85 20 13 21 14 22 15 23 16 24
REMARK SMILES IDX 17 25 18 26 79 27 19 28 78 29 20 30 21 31 22 32 72 33 23 34
REMARK SMILES IDX 77 35 71 36 73 37 24 38 76 39 70 40 69 41 25 43 57 44 37 45
REMARK SMILES IDX 56 46 38 47 41 48 55 49 74 50 39 51 40 52 54 54 75 55 42 56
REMARK SMILES IDX 26 57 27 58 35 59 28 60 29 61 33 62 36 63 30 64 31 65 34 66
REMARK SMILES IDX 32 67 58 68 59 69 67 70 60 71 61 72 65 73 68 74 62 75 63 76
REMARK SMILES IDX 66 77 64 78 43 79 44 80 52 81 45 82 46 83 50 84 53 85 47 86
REMARK SMILES IDX 48 87 51 88 49 89
REMARK H PARENT 81 15 73 42 41 53
REMARK Flexibility Score: inf
ROOT
ATOM      1  C   UNL A   1      31.399  29.855  25.011  1.00  0.00     0.275 C 
ENDROOT
BRANCH   1   2
ATOM      2  O   UNL A   1      31.589  28.517  25.522  1.00  0.00    -0.458 OA
BRANCH   2   3
ATOM      3  C   UNL A   1      32.704  27.873  25.064  1.00  0.00     0.348 C 
ATOM      4  O   UNL A   1      33.725  28.449  24.710  1.00  0.00    -0.245 OA
BRANCH   3   5
ATOM      5  C   UNL A   1      32.537  26.428  25.122  1.00  0.00     0.116 A 
ATOM      6  C   UNL A   1      32.813  24.107  25.246  1.00  0.00     0.131 A 
ATOM      7  C   UNL A   1      31.490  24.202  24.893  1.00  0.00     0.112 A 
ATOM      8  C   UNL A   1      33.432  25.394  25.350  1.00  0.00     0.074 A 
ATOM      9  S   UNL A   1      30.941  25.809  24.923  1.00  0.00    -0.133 S 
BRANCH   6  10
ATOM     10  O   UNL A   1      33.406  22.938  25.597  1.00  0.00    -0.483 OA
BRANCH  10  11
ATOM     11  C   UNL A   1      32.501  21.895  25.937  1.00  0.00     0.329 C 
BRANCH  11  12
ATOM     12  C   UNL A   1      32.545  20.586  25.132  1.00  0.00     0.264 C 
ATOM     13  O   UNL A   1      32.153  20.569  23.967  1.00  0.00    -0.271 OA
ATOM     14  N   UNL A   1      33.057  19.521  25.844  1.00  0.00    -0.299 N 
ATOM     15  H   UNL A   1      33.466  19.689  26.723  1.00  0.00     0.172 HD
BRANCH  14  16
ATOM     16  C   UNL A   1      33.010  18.241  25.366  1.00  0.00     0.189 A 
ATOM     17  N   UNL A   1      32.155  17.288  25.628  1.00  0.00    -0.229 NA
ATOM     18  S   UNL A   1      34.316  17.826  24.342  1.00  0.00    -0.105 S 
ATOM     19  C   UNL A   1      32.554  16.125  25.002  1.00  0.00     0.125 A 
ATOM     20  C   UNL A   1      33.730  16.212  24.285  1.00  0.00     0.088 A 
ENDBRANCH  14  16
ENDBRANCH  11  12
ENDBRANCH  10  11
ENDBRANCH   6  10
ENDBRANCH   3   5
ENDBRANCH   2   3
ENDBRANCH   1   2
BRANCH   1  21
ATOM     21  C   UNL A   1      31.477  30.921  26.110  1.00  0.00     0.275 C 
BRANCH  21  22
ATOM     22  O   UNL A   1      32.590  30.708  27.002  1.00  0.00    -0.458 OA
BRANCH  22  23
ATOM     23  C   UNL A   1      33.304  31.818  27.294  1.00  0.00     0.338 C 
ATOM     24  O   UNL A   1      32.919  32.975  27.250  1.00  0.00    -0.246 OA
BRANCH  23  25
ATOM     25  C   UNL A   1      34.624  31.453  27.829  1.00  0.00     0.060 A 
ATOM     26  C   UNL A   1      34.783  30.144  28.273  1.00  0.00     0.016 A 
ATOM     27  C   UNL A   1      35.632  32.390  28.044  1.00  0.00     0.016 A 
ATOM     28  C   UNL A   1      35.918  29.761  28.977  1.00  0.00     0.010 A 
ATOM     29  C   UNL A   1      36.802  31.994  28.712  1.00  0.00     0.010 A 
ATOM     30  C   UNL A   1      36.944  30.681  29.206  1.00  0.00    -0.014 A 
BRANCH  30  31
ATOM     31  C   UNL A   1      38.131  30.272  30.005  1.00  0.00     0.031 A 
ATOM     32  C   UNL A   1      39.148  29.333  29.417  1.00  0.00     0.074 A 
ATOM     33  C   UNL A   1      38.323  30.776  31.241  1.00  0.00     0.049 A 
ATOM     34  N   UNL A   1      40.181  28.763  29.986  1.00  0.00    -0.248 NA
ATOM     35  C   UNL A   1      38.977  28.985  27.998  1.00  0.00     0.031 C 
ATOM     36  C   UNL A   1      37.451  31.749  31.900  1.00  0.00     0.029 A 
ATOM     37  N   UNL A   1      39.315  30.544  32.161  1.00  0.00    -0.354 N 
ATOM     38  C   UNL A   1      40.761  27.965  29.008  1.00  0.00     0.074 A 
ATOM     39  C   UNL A   1      39.954  28.107  27.814  1.00  0.00     0.031 C 
ATOM     40  C   UNL A   1      37.954  32.042  33.109  1.00  0.00     0.029 A 
ATOM     41  C   UNL A   1      39.139  31.223  33.342  1.00  0.00     0.049 A 
ATOM     42  H   UNL A   1      40.080  29.947  31.990  1.00  0.00     0.167 HD
ATOM     43  C   UNL A   1      41.869  27.189  29.099  1.00  0.00     0.037 A 
ATOM     44  C   UNL A   1      39.829  31.163  34.496  1.00  0.00     0.037 A 
ATOM     45  C   UNL A   1      42.684  27.076  30.282  1.00  0.00     0.049 A 
ATOM     46  C   UNL A   1      41.009  30.233  34.596  1.00  0.00     0.074 A 
ATOM     47  C   UNL A   1      43.826  26.317  30.476  1.00  0.00     0.029 A 
ATOM     48  N   UNL A   1      42.447  27.748  31.472  1.00  0.00    -0.354 N 
ATOM     49  N   UNL A   1      41.531  29.456  33.679  1.00  0.00    -0.248 NA
ATOM     50  C   UNL A   1      41.689  30.164  35.896  1.00  0.00     0.031 C 
ATOM     51  C   UNL A   1      44.248  26.490  31.798  1.00  0.00     0.029 A 
ATOM     52  C   UNL A   1      43.408  27.405  32.410  1.00  0.00     0.049 A 
ATOM     53  H   UNL A   1      41.705  28.377  31.627  1.00  0.00     0.167 HD
ATOM     54  C   UNL A   1      42.616  28.832  34.278  1.00  0.00     0.074 A 
ATOM     55  C   UNL A   1      42.686  29.332  35.636  1.00  0.00     0.031 C 
ATOM     56  C   UNL A   1      43.475  27.925  33.753  1.00  0.00     0.037 A 
BRANCH  43  57
ATOM     57  C   UNL A   1      42.247  26.370  27.897  1.00  0.00     0.064 A 
ATOM     58  C   UNL A   1      43.216  26.801  26.977  1.00  0.00     0.173 A 
ATOM     59  C   UNL A   1      41.654  25.117  27.681  1.00  0.00     0.173 A 
ATOM     60  F   UNL A   1      43.808  27.995  27.131  1.00  0.00    -0.203 F 
ATOM     61  C   UNL A   1      43.553  26.023  25.872  1.00  0.00     0.198 A 
ATOM     62  C   UNL A   1      42.016  24.326  26.593  1.00  0.00     0.198 A 
ATOM     63  F   UNL A   1      40.728  24.650  28.532  1.00  0.00    -0.203 F 
ATOM     64  F   UNL A   1      44.443  26.477  24.980  1.00  0.00    -0.200 F 
ATOM     65  C   UNL A   1      42.958  24.783  25.685  1.00  0.00     0.200 A 
ATOM     66  F   UNL A   1      41.453  23.121  26.424  1.00  0.00    -0.200 F 
ATOM     67  F   UNL A   1      43.289  24.031  24.625  1.00  0.00    -0.200 F 
ENDBRANCH  43  57
BRANCH  44  68
ATOM     68  C   UNL A   1      39.403  31.981  35.664  1.00  0.00     0.064 A 
ATOM     69  C   UNL A   1      38.442  31.508  36.567  1.00  0.00     0.173 A 
ATOM     70  C   UNL A   1      39.933  33.261  35.890  1.00  0.00     0.173 A 
ATOM     71  F   UNL A   1      37.885  30.301  36.382  1.00  0.00    -0.203 F 
ATOM     72  C   UNL A   1      38.012  32.290  37.638  1.00  0.00     0.198 A 
ATOM     73  C   UNL A   1      39.528  34.028  36.980  1.00  0.00     0.198 A 
ATOM     74  F   UNL A   1      40.853  33.765  35.055  1.00  0.00    -0.203 F 
ATOM     75  F   UNL A   1      37.052  31.834  38.454  1.00  0.00    -0.200 F 
ATOM     76  C   UNL A   1      38.561  33.546  37.848  1.00  0.00     0.200 A 
ATOM     77  F   UNL A   1      40.073  35.234  37.186  1.00  0.00    -0.200 F 
ATOM     78  F   UNL A   1      38.149  34.296  38.879  1.00  0.00    -0.200 F 
ENDBRANCH  44  68
BRANCH  56  79
ATOM     79  C   UNL A   1      44.601  27.455  34.628  1.00  0.00     0.064 A 
ATOM     80  C   UNL A   1      44.492  26.305  35.424  1.00  0.00     0.173 A 
ATOM     81  C   UNL A   1      45.821  28.150  34.644  1.00  0.00     0.173 A 
ATOM     82  F   UNL A   1      43.342  25.615  35.459  1.00  0.00    -0.203 F 
ATOM     83  C   UNL A   1      45.552  25.884  36.222  1.00  0.00     0.198 A 
ATOM     84  C   UNL A   1      46.890  27.706  35.416  1.00  0.00     0.198 A 
ATOM     85  F   UNL A   1      45.980  29.254  33.898  1.00  0.00    -0.203 F 
ATOM     86  F   UNL A   1      45.408  24.812  37.014  1.00  0.00    -0.200 F 
ATOM     87  C   UNL A   1      46.753  26.579  36.211  1.00  0.00     0.200 A 
ATOM     88  F   UNL A   1      48.053  28.372  35.393  1.00  0.00    -0.200 F 
ATOM     89  F   UNL A   1      47.774  26.166  36.974  1.00  0.00    -0.200 F 
ENDBRANCH  56  79
ENDBRANCH  30  31
ENDBRANCH  23  25
ENDBRANCH  22  23
ENDBRANCH  21  22
ENDBRANCH   1  21
TORSDOF 15
ENDMDL
