MODEL 1
REMARK VINA RESULT:     -11.7      0.000      0.000
REMARK SMILES O=C1C[N@@H+](Cc2ccc(C(=O)OCCOC(=O)c3ccc(-c4c5nc(c(-c6c(F)c(F)c(F)c(F)c6F)c6ccc([nH]6)c(-c6c(F)c(F)c(F)c(F)c6F)c6nc(c(-c7c(F)c(F)c(F)c(F)c7F)c7ccc4[nH]7)C=C6)C=C5)cc3)cc2)CCN1
REMARK SMILES IDX 13 1 12 2 10 3 11 4 9 5 6 6 7 7 82 8 8 9 81 10 5 11 4 12
REMARK SMILES IDX 1 13 2 14 3 15 85 16 84 17 83 19 14 21 15 22 16 23 17 24
REMARK SMILES IDX 18 25 19 26 80 27 20 28 79 29 21 30 22 31 23 32 73 33 24 34
REMARK SMILES IDX 78 35 72 36 74 37 25 38 77 39 71 40 70 41 26 43 58 44 38 45
REMARK SMILES IDX 57 46 39 47 42 48 56 49 75 50 40 51 41 52 55 54 76 55 43 56
REMARK SMILES IDX 27 57 28 58 36 59 29 60 30 61 34 62 37 63 31 64 32 65 35 66
REMARK SMILES IDX 33 67 59 68 60 69 68 70 61 71 62 72 66 73 69 74 63 75 64 76
REMARK SMILES IDX 67 77 65 78 44 79 45 80 53 81 46 82 47 83 51 84 54 85 48 86
REMARK SMILES IDX 49 87 52 88 50 89
REMARK H PARENT 85 18 4 20 74 42 42 53
REMARK Flexibility Score: inf
ROOT
ATOM      1  C   UNL A   1      42.653  21.063  26.085  1.00  0.00     0.275 C 
ENDROOT
BRANCH   1   2
ATOM      2  O   UNL A   1      41.361  21.519  25.640  1.00  0.00    -0.458 OA
BRANCH   2   3
ATOM      3  C   UNL A   1      40.371  21.407  26.559  1.00  0.00     0.338 C 
ATOM      4  O   UNL A   1      40.463  20.874  27.655  1.00  0.00    -0.246 OA
BRANCH   3   5
ATOM      5  C   UNL A   1      39.129  22.078  26.103  1.00  0.00     0.060 A 
ATOM      6  C   UNL A   1      36.749  23.423  25.462  1.00  0.00     0.006 A 
ATOM      7  C   UNL A   1      37.763  24.079  26.170  1.00  0.00     0.010 A 
ATOM      8  C   UNL A   1      36.992  22.131  24.970  1.00  0.00     0.010 A 
ATOM      9  C   UNL A   1      38.924  23.400  26.520  1.00  0.00     0.016 A 
ATOM     10  C   UNL A   1      38.178  21.459  25.287  1.00  0.00     0.016 A 
BRANCH   6  11
ATOM     11  C   UNL A   1      35.392  24.069  25.312  1.00  0.00     0.299 C 
BRANCH  11  12
ATOM     12  N   UNL A   1      34.380  23.311  24.562  1.00  0.00    -0.322 N 
ATOM     13  O   UNL A   1      33.624  25.391  21.668  1.00  0.00    -0.269 OA
ATOM     14  C   UNL A   1      33.435  24.755  22.706  1.00  0.00     0.275 C 
ATOM     15  C   UNL A   1      34.330  23.579  23.113  1.00  0.00     0.363 C 
ATOM     16  N   UNL A   1      32.351  25.040  23.488  1.00  0.00    -0.346 N 
ATOM     17  C   UNL A   1      32.133  24.477  24.802  1.00  0.00     0.177 C 
ATOM     18  H   UNL A   1      31.677  25.666  23.135  1.00  0.00     0.163 HD
ATOM     19  C   UNL A   1      33.033  23.276  25.137  1.00  0.00     0.284 C 
ATOM     20  H   UNL A   1      34.753  22.369  24.676  1.00  0.00     0.348 HD
ENDBRANCH  11  12
ENDBRANCH   6  11
ENDBRANCH   3   5
ENDBRANCH   2   3
ENDBRANCH   1   2
BRANCH   1  21
ATOM     21  C   UNL A   1      43.760  21.895  25.439  1.00  0.00     0.275 C 
BRANCH  21  22
ATOM     22  O   UNL A   1      43.213  23.115  24.902  1.00  0.00    -0.458 OA
BRANCH  22  23
ATOM     23  C   UNL A   1      43.932  24.234  25.123  1.00  0.00     0.338 C 
ATOM     24  O   UNL A   1      45.011  24.544  24.620  1.00  0.00    -0.246 OA
BRANCH  23  25
ATOM     25  C   UNL A   1      43.233  25.100  26.080  1.00  0.00     0.060 A 
ATOM     26  C   UNL A   1      43.655  26.418  26.243  1.00  0.00     0.016 A 
ATOM     27  C   UNL A   1      42.252  24.570  26.917  1.00  0.00     0.016 A 
ATOM     28  C   UNL A   1      43.136  27.201  27.275  1.00  0.00     0.010 A 
ATOM     29  C   UNL A   1      41.691  25.373  27.919  1.00  0.00     0.010 A 
ATOM     30  C   UNL A   1      42.154  26.684  28.130  1.00  0.00    -0.014 A 
BRANCH  30  31
ATOM     31  C   UNL A   1      41.690  27.488  29.296  1.00  0.00     0.031 A 
ATOM     32  C   UNL A   1      42.472  27.471  30.583  1.00  0.00     0.074 A 
ATOM     33  C   UNL A   1      40.602  28.277  29.194  1.00  0.00     0.049 A 
ATOM     34  N   UNL A   1      42.192  28.032  31.734  1.00  0.00    -0.248 NA
ATOM     35  C   UNL A   1      43.733  26.714  30.579  1.00  0.00     0.031 C 
ATOM     36  C   UNL A   1      39.771  28.423  28.001  1.00  0.00     0.029 A 
ATOM     37  N   UNL A   1      40.023  29.123  30.110  1.00  0.00    -0.354 N 
ATOM     38  C   UNL A   1      43.208  27.652  32.600  1.00  0.00     0.074 A 
ATOM     39  C   UNL A   1      44.115  26.814  31.844  1.00  0.00     0.031 C 
ATOM     40  C   UNL A   1      38.818  29.339  28.240  1.00  0.00     0.029 A 
ATOM     41  C   UNL A   1      38.934  29.801  29.621  1.00  0.00     0.049 A 
ATOM     42  H   UNL A   1      40.356  29.232  31.030  1.00  0.00     0.167 HD
ATOM     43  C   UNL A   1      43.372  27.973  33.906  1.00  0.00     0.037 A 
ATOM     44  C   UNL A   1      38.114  30.686  30.217  1.00  0.00     0.037 A 
ATOM     45  C   UNL A   1      42.513  28.858  34.646  1.00  0.00     0.049 A 
ATOM     46  C   UNL A   1      38.334  31.049  31.661  1.00  0.00     0.074 A 
ATOM     47  C   UNL A   1      42.603  29.242  35.974  1.00  0.00     0.029 A 
ATOM     48  N   UNL A   1      41.416  29.518  34.114  1.00  0.00    -0.354 N 
ATOM     49  N   UNL A   1      39.266  30.636  32.484  1.00  0.00    -0.248 NA
ATOM     50  C   UNL A   1      37.379  31.992  32.261  1.00  0.00     0.031 C 
ATOM     51  C   UNL A   1      41.550  30.121  36.250  1.00  0.00     0.029 A 
ATOM     52  C   UNL A   1      40.823  30.309  35.086  1.00  0.00     0.049 A 
ATOM     53  H   UNL A   1      41.103  29.437  33.184  1.00  0.00     0.167 HD
ATOM     54  C   UNL A   1      39.014  31.269  33.693  1.00  0.00     0.074 A 
ATOM     55  C   UNL A   1      37.858  32.116  33.491  1.00  0.00     0.031 C 
ATOM     56  C   UNL A   1      39.675  31.150  34.870  1.00  0.00     0.037 A 
BRANCH  43  57
ATOM     57  C   UNL A   1      44.520  27.338  34.633  1.00  0.00     0.064 A 
ATOM     58  C   UNL A   1      45.771  27.961  34.731  1.00  0.00     0.173 A 
ATOM     59  C   UNL A   1      44.348  26.100  35.272  1.00  0.00     0.173 A 
ATOM     60  F   UNL A   1      45.988  29.137  34.125  1.00  0.00    -0.203 F 
ATOM     61  C   UNL A   1      46.817  27.358  35.426  1.00  0.00     0.198 A 
ATOM     62  C   UNL A   1      45.389  25.511  35.985  1.00  0.00     0.198 A 
ATOM     63  F   UNL A   1      43.167  25.465  35.211  1.00  0.00    -0.203 F 
ATOM     64  F   UNL A   1      48.017  27.953  35.476  1.00  0.00    -0.200 F 
ATOM     65  C   UNL A   1      46.623  26.138  36.057  1.00  0.00     0.200 A 
ATOM     66  F   UNL A   1      45.196  24.337  36.603  1.00  0.00    -0.200 F 
ATOM     67  F   UNL A   1      47.629  25.562  36.731  1.00  0.00    -0.200 F 
ENDBRANCH  43  57
BRANCH  44  68
ATOM     68  C   UNL A   1      36.997  31.294  29.449  1.00  0.00     0.064 A 
ATOM     69  C   UNL A   1      37.039  32.641  29.063  1.00  0.00     0.173 A 
ATOM     70  C   UNL A   1      35.869  30.543  29.088  1.00  0.00     0.173 A 
ATOM     71  F   UNL A   1      38.083  33.405  29.414  1.00  0.00    -0.203 F 
ATOM     72  C   UNL A   1      35.989  33.217  28.352  1.00  0.00     0.198 A 
ATOM     73  C   UNL A   1      34.832  31.114  28.353  1.00  0.00     0.198 A 
ATOM     74  F   UNL A   1      35.781  29.252  29.439  1.00  0.00    -0.203 F 
ATOM     75  F   UNL A   1      36.034  34.516  28.030  1.00  0.00    -0.200 F 
ATOM     76  C   UNL A   1      34.890  32.451  27.991  1.00  0.00     0.200 A 
ATOM     77  F   UNL A   1      33.775  30.369  28.001  1.00  0.00    -0.200 F 
ATOM     78  F   UNL A   1      33.882  33.005  27.303  1.00  0.00    -0.200 F 
ENDBRANCH  44  68
BRANCH  56  79
ATOM     79  C   UNL A   1      39.173  31.966  36.022  1.00  0.00     0.064 A 
ATOM     80  C   UNL A   1      38.255  31.442  36.943  1.00  0.00     0.173 A 
ATOM     81  C   UNL A   1      39.632  33.277  36.219  1.00  0.00     0.173 A 
ATOM     82  F   UNL A   1      37.777  30.198  36.786  1.00  0.00    -0.203 F 
ATOM     83  C   UNL A   1      37.794  32.210  38.008  1.00  0.00     0.198 A 
ATOM     84  C   UNL A   1      39.185  34.035  37.299  1.00  0.00     0.198 A 
ATOM     85  F   UNL A   1      40.514  33.820  35.368  1.00  0.00    -0.203 F 
ATOM     86  F   UNL A   1      36.885  31.705  38.853  1.00  0.00    -0.200 F 
ATOM     87  C   UNL A   1      38.263  33.504  38.187  1.00  0.00     0.200 A 
ATOM     88  F   UNL A   1      39.643  35.282  37.474  1.00  0.00    -0.200 F 
ATOM     89  F   UNL A   1      37.817  34.243  39.213  1.00  0.00    -0.200 F 
ENDBRANCH  56  79
ENDBRANCH  30  31
ENDBRANCH  23  25
ENDBRANCH  22  23
ENDBRANCH  21  22
ENDBRANCH   1  21
TORSDOF 13
ENDMDL
MODEL 2
REMARK VINA RESULT:     -11.7      3.547      8.608
REMARK SMILES O=C1C[N@@H+](Cc2ccc(C(=O)OCCOC(=O)c3ccc(-c4c5nc(c(-c6c(F)c(F)c(F)c(F)c6F)c6ccc([nH]6)c(-c6c(F)c(F)c(F)c(F)c6F)c6nc(c(-c7c(F)c(F)c(F)c(F)c7F)c7ccc4[nH]7)C=C6)C=C5)cc3)cc2)CCN1
REMARK SMILES IDX 13 1 12 2 10 3 11 4 9 5 6 6 7 7 82 8 8 9 81 10 5 11 4 12
REMARK SMILES IDX 1 13 2 14 3 15 85 16 84 17 83 19 14 21 15 22 16 23 17 24
REMARK SMILES IDX 18 25 19 26 80 27 20 28 79 29 21 30 22 31 23 32 73 33 24 34
REMARK SMILES IDX 78 35 72 36 74 37 25 38 77 39 71 40 70 41 26 43 58 44 38 45
REMARK SMILES IDX 57 46 39 47 42 48 56 49 75 50 40 51 41 52 55 54 76 55 43 56
REMARK SMILES IDX 27 57 28 58 36 59 29 60 30 61 34 62 37 63 31 64 32 65 35 66
REMARK SMILES IDX 33 67 59 68 60 69 68 70 61 71 62 72 66 73 69 74 63 75 64 76
REMARK SMILES IDX 67 77 65 78 44 79 45 80 53 81 46 82 47 83 51 84 54 85 48 86
REMARK SMILES IDX 49 87 52 88 50 89
REMARK H PARENT 85 18 4 20 74 42 42 53
REMARK Flexibility Score: inf
ROOT
ATOM      1  C   UNL A   1      31.415  29.420  24.657  1.00  0.00     0.275 C 
ENDROOT
BRANCH   1   2
ATOM      2  O   UNL A   1      30.252  29.760  23.879  1.00  0.00    -0.458 OA
BRANCH   2   3
ATOM      3  C   UNL A   1      30.176  29.146  22.673  1.00  0.00     0.338 C 
ATOM      4  O   UNL A   1      30.052  29.698  21.591  1.00  0.00    -0.246 OA
BRANCH   3   5
ATOM      5  C   UNL A   1      30.325  27.675  22.803  1.00  0.00     0.060 A 
ATOM      6  C   UNL A   1      30.591  24.921  23.280  1.00  0.00     0.006 A 
ATOM      7  C   UNL A   1      29.547  25.643  23.870  1.00  0.00     0.010 A 
ATOM      8  C   UNL A   1      31.423  25.567  22.351  1.00  0.00     0.010 A 
ATOM      9  C   UNL A   1      29.439  27.014  23.663  1.00  0.00     0.016 A 
ATOM     10  C   UNL A   1      31.291  26.939  22.111  1.00  0.00     0.016 A 
BRANCH   6  11
ATOM     11  C   UNL A   1      30.864  23.499  23.710  1.00  0.00     0.299 C 
BRANCH  11  12
ATOM     12  N   UNL A   1      32.249  23.176  24.079  1.00  0.00    -0.322 N 
ATOM     13  O   UNL A   1      32.160  19.658  25.022  1.00  0.00    -0.269 OA
ATOM     14  C   UNL A   1      32.337  20.872  25.132  1.00  0.00     0.275 C 
ATOM     15  C   UNL A   1      32.637  21.762  23.920  1.00  0.00     0.363 C 
ATOM     16  N   UNL A   1      32.354  21.446  26.372  1.00  0.00    -0.346 N 
ATOM     17  C   UNL A   1      32.382  22.874  26.600  1.00  0.00     0.177 C 
ATOM     18  H   UNL A   1      32.348  20.852  27.158  1.00  0.00     0.163 HD
ATOM     19  C   UNL A   1      32.726  23.710  25.357  1.00  0.00     0.284 C 
ATOM     20  H   UNL A   1      32.746  23.701  23.359  1.00  0.00     0.348 HD
ENDBRANCH  11  12
ENDBRANCH   6  11
ENDBRANCH   3   5
ENDBRANCH   2   3
ENDBRANCH   1   2
BRANCH   1  21
ATOM     21  C   UNL A   1      31.665  30.479  25.730  1.00  0.00     0.275 C 
BRANCH  21  22
ATOM     22  O   UNL A   1      33.049  30.462  26.130  1.00  0.00    -0.458 OA
BRANCH  22  23
ATOM     23  C   UNL A   1      33.405  31.361  27.070  1.00  0.00     0.338 C 
ATOM     24  O   UNL A   1      32.771  32.345  27.445  1.00  0.00    -0.246 OA
BRANCH  23  25
ATOM     25  C   UNL A   1      34.710  31.001  27.640  1.00  0.00     0.060 A 
ATOM     26  C   UNL A   1      34.976  29.669  27.949  1.00  0.00     0.016 A 
ATOM     27  C   UNL A   1      35.616  31.998  27.999  1.00  0.00     0.016 A 
ATOM     28  C   UNL A   1      36.125  29.328  28.662  1.00  0.00     0.010 A 
ATOM     29  C   UNL A   1      36.796  31.651  28.667  1.00  0.00     0.010 A 
ATOM     30  C   UNL A   1      37.045  30.316  29.038  1.00  0.00    -0.014 A 
BRANCH  30  31
ATOM     31  C   UNL A   1      38.209  29.957  29.895  1.00  0.00     0.031 A 
ATOM     32  C   UNL A   1      39.319  29.102  29.341  1.00  0.00     0.074 A 
ATOM     33  C   UNL A   1      38.308  30.434  31.151  1.00  0.00     0.049 A 
ATOM     34  N   UNL A   1      40.372  28.612  29.947  1.00  0.00    -0.248 NA
ATOM     35  C   UNL A   1      39.228  28.744  27.917  1.00  0.00     0.031 C 
ATOM     36  C   UNL A   1      37.330  31.302  31.806  1.00  0.00     0.029 A 
ATOM     37  N   UNL A   1      39.294  30.271  32.095  1.00  0.00    -0.354 N 
ATOM     38  C   UNL A   1      41.036  27.846  28.997  1.00  0.00     0.074 A 
ATOM     39  C   UNL A   1      40.269  27.937  27.772  1.00  0.00     0.031 C 
ATOM     40  C   UNL A   1      37.786  31.633  33.026  1.00  0.00     0.029 A 
ATOM     41  C   UNL A   1      39.058  30.955  33.262  1.00  0.00     0.049 A 
ATOM     42  H   UNL A   1      40.093  29.716  31.949  1.00  0.00     0.167 HD
ATOM     43  C   UNL A   1      42.180  27.133  29.132  1.00  0.00     0.037 A 
ATOM     44  C   UNL A   1      39.777  31.022  34.398  1.00  0.00     0.037 A 
ATOM     45  C   UNL A   1      42.982  27.090  30.326  1.00  0.00     0.049 A 
ATOM     46  C   UNL A   1      41.059  30.244  34.513  1.00  0.00     0.074 A 
ATOM     47  C   UNL A   1      44.158  26.395  30.553  1.00  0.00     0.029 A 
ATOM     48  N   UNL A   1      42.703  27.793  31.488  1.00  0.00    -0.354 N 
ATOM     49  N   UNL A   1      41.644  29.477  33.626  1.00  0.00    -0.248 NA
ATOM     50  C   UNL A   1      41.775  30.331  35.794  1.00  0.00     0.031 C 
ATOM     51  C   UNL A   1      44.582  26.663  31.860  1.00  0.00     0.029 A 
ATOM     52  C   UNL A   1      43.685  27.549  32.435  1.00  0.00     0.049 A 
ATOM     53  H   UNL A   1      41.921  28.376  31.622  1.00  0.00     0.167 HD
ATOM     54  C   UNL A   1      42.794  28.996  34.236  1.00  0.00     0.074 A 
ATOM     55  C   UNL A   1      42.840  29.578  35.562  1.00  0.00     0.031 C 
ATOM     56  C   UNL A   1      43.721  28.139  33.748  1.00  0.00     0.037 A 
BRANCH  43  57
ATOM     57  C   UNL A   1      42.623  26.311  27.958  1.00  0.00     0.064 A 
ATOM     58  C   UNL A   1      42.136  25.016  27.735  1.00  0.00     0.173 A 
ATOM     59  C   UNL A   1      43.521  26.849  27.023  1.00  0.00     0.173 A 
ATOM     60  F   UNL A   1      41.288  24.454  28.608  1.00  0.00    -0.203 F 
ATOM     61  C   UNL A   1      42.550  24.279  26.627  1.00  0.00     0.198 A 
ATOM     62  C   UNL A   1      43.914  26.119  25.905  1.00  0.00     0.198 A 
ATOM     63  F   UNL A   1      44.011  28.087  27.190  1.00  0.00    -0.203 F 
ATOM     64  F   UNL A   1      42.103  23.028  26.452  1.00  0.00    -0.200 F 
ATOM     65  C   UNL A   1      43.432  24.833  25.711  1.00  0.00     0.200 A 
ATOM     66  F   UNL A   1      44.758  26.659  25.016  1.00  0.00    -0.200 F 
ATOM     67  F   UNL A   1      43.824  24.125  24.643  1.00  0.00    -0.200 F 
ENDBRANCH  43  57
BRANCH  44  68
ATOM     68  C   UNL A   1      39.298  31.858  35.528  1.00  0.00     0.064 A 
ATOM     69  C   UNL A   1      39.725  33.185  35.672  1.00  0.00     0.173 A 
ATOM     70  C   UNL A   1      38.407  31.349  36.484  1.00  0.00     0.173 A 
ATOM     71  F   UNL A   1      40.601  33.705  34.800  1.00  0.00    -0.203 F 
ATOM     72  C   UNL A   1      39.286  33.969  36.737  1.00  0.00     0.198 A 
ATOM     73  C   UNL A   1      37.949  32.142  37.533  1.00  0.00     0.198 A 
ATOM     74  F   UNL A   1      37.974  30.083  36.391  1.00  0.00    -0.203 F 
ATOM     75  F   UNL A   1      39.741  35.221  36.876  1.00  0.00    -0.200 F 
ATOM     76  C   UNL A   1      38.393  33.449  37.662  1.00  0.00     0.200 A 
ATOM     77  F   UNL A   1      37.080  31.639  38.420  1.00  0.00    -0.200 F 
ATOM     78  F   UNL A   1      37.968  34.205  38.683  1.00  0.00    -0.200 F 
ENDBRANCH  44  68
BRANCH  56  79
ATOM     79  C   UNL A   1      44.872  27.793  34.643  1.00  0.00     0.064 A 
ATOM     80  C   UNL A   1      46.045  28.561  34.655  1.00  0.00     0.173 A 
ATOM     81  C   UNL A   1      44.793  26.695  35.513  1.00  0.00     0.173 A 
ATOM     82  F   UNL A   1      46.171  29.611  33.829  1.00  0.00    -0.203 F 
ATOM     83  C   UNL A   1      47.109  28.229  35.489  1.00  0.00     0.198 A 
ATOM     84  C   UNL A   1      45.852  26.379  36.361  1.00  0.00     0.198 A 
ATOM     85  F   UNL A   1      43.691  25.933  35.541  1.00  0.00    -0.203 F 
ATOM     86  F   UNL A   1      48.237  28.952  35.455  1.00  0.00    -0.200 F 
ATOM     87  C   UNL A   1      47.009  27.141  36.344  1.00  0.00     0.200 A 
ATOM     88  F   UNL A   1      45.752  25.331  37.191  1.00  0.00    -0.200 F 
ATOM     89  F   UNL A   1      48.035  26.822  37.146  1.00  0.00    -0.200 F 
ENDBRANCH  56  79
ENDBRANCH  30  31
ENDBRANCH  23  25
ENDBRANCH  22  23
ENDBRANCH  21  22
ENDBRANCH   1  21
TORSDOF 13
ENDMDL
MODEL 3
REMARK VINA RESULT:     -11.6      3.350      8.692
REMARK SMILES O=C1C[N@@H+](Cc2ccc(C(=O)OCCOC(=O)c3ccc(-c4c5nc(c(-c6c(F)c(F)c(F)c(F)c6F)c6ccc([nH]6)c(-c6c(F)c(F)c(F)c(F)c6F)c6nc(c(-c7c(F)c(F)c(F)c(F)c7F)c7ccc4[nH]7)C=C6)C=C5)cc3)cc2)CCN1
REMARK SMILES IDX 13 1 12 2 10 3 11 4 9 5 6 6 7 7 82 8 8 9 81 10 5 11 4 12
REMARK SMILES IDX 1 13 2 14 3 15 85 16 84 17 83 19 14 21 15 22 16 23 17 24
REMARK SMILES IDX 18 25 19 26 80 27 20 28 79 29 21 30 22 31 23 32 73 33 24 34
REMARK SMILES IDX 78 35 72 36 74 37 25 38 77 39 71 40 70 41 26 43 58 44 38 45
REMARK SMILES IDX 57 46 39 47 42 48 56 49 75 50 40 51 41 52 55 54 76 55 43 56
REMARK SMILES IDX 27 57 28 58 36 59 29 60 30 61 34 62 37 63 31 64 32 65 35 66
REMARK SMILES IDX 33 67 59 68 60 69 68 70 61 71 62 72 66 73 69 74 63 75 64 76
REMARK SMILES IDX 67 77 65 78 44 79 45 80 53 81 46 82 47 83 51 84 54 85 48 86
REMARK SMILES IDX 49 87 52 88 50 89
REMARK H PARENT 85 18 4 20 74 42 42 53
REMARK Flexibility Score: inf
ROOT
ATOM      1  C   UNL A   1      31.332  30.160  25.318  1.00  0.00     0.275 C 
ENDROOT
BRANCH   1   2
ATOM      2  O   UNL A   1      32.646  29.641  25.037  1.00  0.00    -0.458 OA
BRANCH   2   3
ATOM      3  C   UNL A   1      32.712  28.807  23.971  1.00  0.00     0.338 C 
ATOM      4  O   UNL A   1      32.463  29.099  22.812  1.00  0.00    -0.246 OA
BRANCH   3   5
ATOM      5  C   UNL A   1      33.196  27.460  24.365  1.00  0.00     0.060 A 
ATOM      6  C   UNL A   1      33.930  24.823  24.992  1.00  0.00     0.006 A 
ATOM      7  C   UNL A   1      33.653  25.184  23.668  1.00  0.00     0.010 A 
ATOM      8  C   UNL A   1      33.958  25.824  25.977  1.00  0.00     0.010 A 
ATOM      9  C   UNL A   1      33.252  26.481  23.365  1.00  0.00     0.016 A 
ATOM     10  C   UNL A   1      33.594  27.139  25.666  1.00  0.00     0.016 A 
BRANCH   6  11
ATOM     11  C   UNL A   1      34.105  23.369  25.358  1.00  0.00     0.299 C 
BRANCH  11  12
ATOM     12  N   UNL A   1      34.317  22.430  24.247  1.00  0.00    -0.322 N 
ATOM     13  O   UNL A   1      32.150  19.600  25.001  1.00  0.00    -0.269 OA
ATOM     14  C   UNL A   1      33.188  20.222  24.769  1.00  0.00     0.275 C 
ATOM     15  C   UNL A   1      33.191  21.522  23.958  1.00  0.00     0.363 C 
ATOM     16  N   UNL A   1      34.390  19.708  25.166  1.00  0.00    -0.346 N 
ATOM     17  C   UNL A   1      35.640  20.432  25.096  1.00  0.00     0.177 C 
ATOM     18  H   UNL A   1      34.407  18.789  25.520  1.00  0.00     0.163 HD
ATOM     19  C   UNL A   1      35.590  21.706  24.237  1.00  0.00     0.284 C 
ATOM     20  H   UNL A   1      34.370  23.091  23.471  1.00  0.00     0.348 HD
ENDBRANCH  11  12
ENDBRANCH   6  11
ENDBRANCH   3   5
ENDBRANCH   2   3
ENDBRANCH   1   2
BRANCH   1  21
ATOM     21  C   UNL A   1      31.431  31.425  26.167  1.00  0.00     0.275 C 
BRANCH  21  22
ATOM     22  O   UNL A   1      32.366  31.225  27.245  1.00  0.00    -0.458 OA
BRANCH  22  23
ATOM     23  C   UNL A   1      33.200  32.253  27.504  1.00  0.00     0.338 C 
ATOM     24  O   UNL A   1      32.960  33.455  27.414  1.00  0.00    -0.246 OA
BRANCH  23  25
ATOM     25  C   UNL A   1      34.504  31.742  27.947  1.00  0.00     0.060 A 
ATOM     26  C   UNL A   1      34.662  30.376  28.168  1.00  0.00     0.016 A 
ATOM     27  C   UNL A   1      35.527  32.629  28.278  1.00  0.00     0.016 A 
ATOM     28  C   UNL A   1      35.824  29.890  28.766  1.00  0.00     0.010 A 
ATOM     29  C   UNL A   1      36.717  32.136  28.830  1.00  0.00     0.010 A 
ATOM     30  C   UNL A   1      36.863  30.765  29.113  1.00  0.00    -0.014 A 
BRANCH  30  31
ATOM     31  C   UNL A   1      38.049  30.252  29.853  1.00  0.00     0.031 A 
ATOM     32  C   UNL A   1      38.255  30.624  31.298  1.00  0.00     0.074 A 
ATOM     33  C   UNL A   1      38.916  29.410  29.258  1.00  0.00     0.049 A 
ATOM     34  N   UNL A   1      39.261  30.350  32.092  1.00  0.00    -0.248 NA
ATOM     35  C   UNL A   1      37.192  31.417  31.934  1.00  0.00     0.031 C 
ATOM     36  C   UNL A   1      38.822  28.934  27.879  1.00  0.00     0.029 A 
ATOM     37  N   UNL A   1      40.039  28.788  29.749  1.00  0.00    -0.354 N 
ATOM     38  C   UNL A   1      38.979  30.981  33.296  1.00  0.00     0.074 A 
ATOM     39  C   UNL A   1      37.706  31.651  33.133  1.00  0.00     0.031 C 
ATOM     40  C   UNL A   1      39.816  28.060  27.648  1.00  0.00     0.029 A 
ATOM     41  C   UNL A   1      40.650  27.958  28.843  1.00  0.00     0.049 A 
ATOM     42  H   UNL A   1      40.374  28.925  30.665  1.00  0.00     0.167 HD
ATOM     43  C   UNL A   1      39.713  31.000  34.435  1.00  0.00     0.037 A 
ATOM     44  C   UNL A   1      41.763  27.208  28.954  1.00  0.00     0.037 A 
ATOM     45  C   UNL A   1      40.945  30.284  34.627  1.00  0.00     0.049 A 
ATOM     46  C   UNL A   1      42.544  27.224  30.240  1.00  0.00     0.074 A 
ATOM     47  C   UNL A   1      41.757  30.243  35.749  1.00  0.00     0.029 A 
ATOM     48  N   UNL A   1      41.533  29.460  33.680  1.00  0.00    -0.354 N 
ATOM     49  N   UNL A   1      42.296  27.872  31.351  1.00  0.00    -0.248 NA
ATOM     50  C   UNL A   1      43.769  26.412  30.280  1.00  0.00     0.031 C 
ATOM     51  C   UNL A   1      42.846  29.409  35.474  1.00  0.00     0.029 A 
ATOM     52  C   UNL A   1      42.696  28.905  34.192  1.00  0.00     0.049 A 
ATOM     53  H   UNL A   1      41.179  29.295  32.776  1.00  0.00     0.167 HD
ATOM     54  C   UNL A   1      43.326  27.544  32.221  1.00  0.00     0.074 A 
ATOM     55  C   UNL A   1      44.190  26.618  31.520  1.00  0.00     0.031 C 
ATOM     56  C   UNL A   1      43.543  27.982  33.485  1.00  0.00     0.037 A 
BRANCH  43  57
ATOM     57  C   UNL A   1      39.211  31.850  35.564  1.00  0.00     0.064 A 
ATOM     58  C   UNL A   1      38.352  31.343  36.549  1.00  0.00     0.173 A 
ATOM     59  C   UNL A   1      39.628  33.185  35.678  1.00  0.00     0.173 A 
ATOM     60  F   UNL A   1      37.914  30.078  36.475  1.00  0.00    -0.203 F 
ATOM     61  C   UNL A   1      37.913  32.148  37.597  1.00  0.00     0.198 A 
ATOM     62  C   UNL A   1      39.206  33.980  36.739  1.00  0.00     0.198 A 
ATOM     63  F   UNL A   1      40.454  33.716  34.762  1.00  0.00    -0.203 F 
ATOM     64  F   UNL A   1      37.062  31.655  38.507  1.00  0.00    -0.200 F 
ATOM     65  C   UNL A   1      38.345  33.463  37.695  1.00  0.00     0.200 A 
ATOM     66  F   UNL A   1      39.632  35.247  36.837  1.00  0.00    -0.200 F 
ATOM     67  F   UNL A   1      37.926  34.234  38.708  1.00  0.00    -0.200 F 
ENDBRANCH  43  57
BRANCH  44  68
ATOM     68  C   UNL A   1      42.212  26.376  27.809  1.00  0.00     0.064 A 
ATOM     69  C   UNL A   1      43.200  26.837  26.928  1.00  0.00     0.173 A 
ATOM     70  C   UNL A   1      41.663  25.108  27.570  1.00  0.00     0.173 A 
ATOM     71  F   UNL A   1      43.731  28.057  27.099  1.00  0.00    -0.203 F 
ATOM     72  C   UNL A   1      43.616  26.064  25.847  1.00  0.00     0.198 A 
ATOM     73  C   UNL A   1      42.099  24.325  26.504  1.00  0.00     0.198 A 
ATOM     74  F   UNL A   1      40.710  24.625  28.382  1.00  0.00    -0.203 F 
ATOM     75  F   UNL A   1      44.533  26.545  24.997  1.00  0.00    -0.200 F 
ATOM     76  C   UNL A   1      43.070  24.806  25.640  1.00  0.00     0.200 A 
ATOM     77  F   UNL A   1      41.574  23.107  26.312  1.00  0.00    -0.200 F 
ATOM     78  F   UNL A   1      43.474  24.061  24.602  1.00  0.00    -0.200 F 
ENDBRANCH  44  68
BRANCH  56  79
ATOM     79  C   UNL A   1      44.752  27.451  34.194  1.00  0.00     0.064 A 
ATOM     80  C   UNL A   1      45.984  28.118  34.138  1.00  0.00     0.173 A 
ATOM     81  C   UNL A   1      44.672  26.275  34.955  1.00  0.00     0.173 A 
ATOM     82  F   UNL A   1      46.111  29.238  33.410  1.00  0.00    -0.203 F 
ATOM     83  C   UNL A   1      47.100  27.615  34.799  1.00  0.00     0.198 A 
ATOM     84  C   UNL A   1      45.786  25.786  35.633  1.00  0.00     0.198 A 
ATOM     85  F   UNL A   1      43.515  25.604  35.044  1.00  0.00    -0.203 F 
ATOM     86  F   UNL A   1      48.278  28.245  34.699  1.00  0.00    -0.200 F 
ATOM     87  C   UNL A   1      46.999  26.452  35.549  1.00  0.00     0.200 A 
ATOM     88  F   UNL A   1      45.685  24.666  36.362  1.00  0.00    -0.200 F 
ATOM     89  F   UNL A   1      48.076  25.968  36.184  1.00  0.00    -0.200 F 
ENDBRANCH  56  79
ENDBRANCH  30  31
ENDBRANCH  23  25
ENDBRANCH  22  23
ENDBRANCH  21  22
ENDBRANCH   1  21
TORSDOF 13
ENDMDL
