MODEL 1
REMARK VINA RESULT:     -11.7      0.000      0.000
REMARK SMILES Cc1nn(C)cc1-c1ccnc2nc(CCC(=O)OCCOC(=O)c3ccc(-c4c5nc(c(-c6c(F)c(F)c(F)c(F)c6F)c6ccc([nH]6)c(-c6c(F)c(F)c(F)c(F)c6F)c6nc(c(-c7c(F)c(F)c(F)c(F)c7F)c7ccc4[nH]7)C=C6)C=C5)cc3)nn12
REMARK SMILES IDX 20 1 19 2 17 3 18 4 16 5 15 6 14 7 8 8 9 9 89 10 10 11 12 12
REMARK SMILES IDX 88 13 11 14 13 15 7 16 1 17 2 18 3 19 4 20 6 21 5 22 21 23
REMARK SMILES IDX 22 24 23 25 24 26 25 27 26 28 87 29 27 30 86 31 28 32 29 33
REMARK SMILES IDX 30 34 80 35 31 36 85 37 79 38 81 39 32 40 84 41 78 42 77 43
REMARK SMILES IDX 33 45 65 46 45 47 64 48 46 49 49 50 63 51 82 52 47 53 48 54
REMARK SMILES IDX 62 56 83 57 50 58 34 59 35 60 43 61 36 62 37 63 41 64 44 65
REMARK SMILES IDX 38 66 39 67 42 68 40 69 66 70 67 71 75 72 68 73 69 74 73 75
REMARK SMILES IDX 76 76 70 77 71 78 74 79 72 80 51 81 52 82 60 83 53 84 54 85
REMARK SMILES IDX 58 86 61 87 55 88 56 89 59 90 57 91
REMARK H PARENT 81 44 49 55
REMARK Flexibility Score: inf
ROOT
ATOM      1  C   UNL A   1      31.446  32.105  26.867  1.00  0.00     0.274 C 
ENDROOT
BRANCH   1   2
ATOM      2  O   UNL A   1      32.246  31.089  26.236  1.00  0.00    -0.462 OA
BRANCH   2   3
ATOM      3  C   UNL A   1      33.147  30.426  26.992  1.00  0.00     0.306 C 
ATOM      4  O   UNL A   1      34.225  30.883  27.353  1.00  0.00    -0.252 OA
BRANCH   3   5
ATOM      5  C   UNL A   1      32.706  29.016  27.311  1.00  0.00     0.131 C 
BRANCH   5   6
ATOM      6  C   UNL A   1      33.670  27.938  26.818  1.00  0.00     0.091 C 
BRANCH   6   7
ATOM      7  C   UNL A   1      33.237  27.325  25.537  1.00  0.00     0.154 A 
ATOM      8  C   UNL A   1      31.369  27.105  22.608  1.00  0.00     0.081 A 
ATOM      9  C   UNL A   1      31.690  26.363  21.530  1.00  0.00     0.049 A 
ATOM     10  N   UNL A   1      32.197  27.018  23.741  1.00  0.00    -0.196 N 
ATOM     11  C   UNL A   1      32.903  25.515  21.655  1.00  0.00     0.117 A 
ATOM     12  C   UNL A   1      33.358  26.229  23.743  1.00  0.00     0.252 A 
ATOM     13  N   UNL A   1      32.093  27.647  24.935  1.00  0.00    -0.149 NA
ATOM     14  N   UNL A   1      33.693  25.442  22.679  1.00  0.00    -0.220 NA
ATOM     15  N   UNL A   1      34.024  26.443  24.856  1.00  0.00    -0.194 NA
BRANCH   8  16
ATOM     16  C   UNL A   1      30.259  28.002  22.591  1.00  0.00     0.041 A 
ATOM     17  C   UNL A   1      28.377  26.703  23.875  1.00  0.00     0.069 C 
ATOM     18  C   UNL A   1      28.957  27.848  23.130  1.00  0.00     0.069 A 
ATOM     19  N   UNL A   1      28.199  28.928  22.890  1.00  0.00    -0.178 NA
ATOM     20  N   UNL A   1      29.016  29.765  22.227  1.00  0.00    -0.275 N 
ATOM     21  C   UNL A   1      30.256  29.246  22.001  1.00  0.00     0.119 A 
ATOM     22  C   UNL A   1      28.534  31.070  21.847  1.00  0.00     0.173 C 
ENDBRANCH   8  16
ENDBRANCH   6   7
ENDBRANCH   5   6
ENDBRANCH   3   5
ENDBRANCH   2   3
ENDBRANCH   1   2
BRANCH   1  23
ATOM     23  C   UNL A   1      32.217  33.423  26.972  1.00  0.00     0.275 C 
BRANCH  23  24
ATOM     24  O   UNL A   1      32.153  33.901  28.328  1.00  0.00    -0.458 OA
BRANCH  24  25
ATOM     25  C   UNL A   1      33.093  34.805  28.678  1.00  0.00     0.338 C 
ATOM     26  O   UNL A   1      32.989  36.014  28.742  1.00  0.00    -0.246 OA
BRANCH  25  27
ATOM     27  C   UNL A   1      34.274  34.077  29.157  1.00  0.00     0.060 A 
ATOM     28  C   UNL A   1      34.074  33.045  30.079  1.00  0.00     0.016 A 
ATOM     29  C   UNL A   1      35.557  34.416  28.726  1.00  0.00     0.016 A 
ATOM     30  C   UNL A   1      35.162  32.339  30.576  1.00  0.00     0.010 A 
ATOM     31  C   UNL A   1      36.652  33.711  29.231  1.00  0.00     0.010 A 
ATOM     32  C   UNL A   1      36.457  32.678  30.165  1.00  0.00    -0.014 A 
BRANCH  32  33
ATOM     33  C   UNL A   1      37.610  31.987  30.780  1.00  0.00     0.031 A 
ATOM     34  C   UNL A   1      38.015  32.337  32.181  1.00  0.00     0.074 A 
ATOM     35  C   UNL A   1      38.252  31.022  30.100  1.00  0.00     0.049 A 
ATOM     36  N   UNL A   1      38.991  31.857  32.908  1.00  0.00    -0.248 NA
ATOM     37  C   UNL A   1      37.213  33.370  32.853  1.00  0.00     0.031 C 
ATOM     38  C   UNL A   1      37.915  30.581  28.746  1.00  0.00     0.029 A 
ATOM     39  N   UNL A   1      39.317  30.237  30.456  1.00  0.00    -0.354 N 
ATOM     40  C   UNL A   1      38.925  32.531  34.119  1.00  0.00     0.074 A 
ATOM     41  C   UNL A   1      37.833  33.477  34.020  1.00  0.00     0.031 C 
ATOM     42  C   UNL A   1      38.754  29.594  28.389  1.00  0.00     0.029 A 
ATOM     43  C   UNL A   1      39.702  29.359  29.475  1.00  0.00     0.049 A 
ATOM     44  H   UNL A   1      39.762  30.296  31.332  1.00  0.00     0.167 HD
ATOM     45  C   UNL A   1      39.701  32.366  35.215  1.00  0.00     0.037 A 
ATOM     46  C   UNL A   1      40.714  28.473  29.457  1.00  0.00     0.037 A 
ATOM     47  C   UNL A   1      40.785  31.424  35.302  1.00  0.00     0.049 A 
ATOM     48  C   UNL A   1      41.591  28.343  30.673  1.00  0.00     0.074 A 
ATOM     49  C   UNL A   1      41.637  31.177  36.365  1.00  0.00     0.029 A 
ATOM     50  N   UNL A   1      41.169  30.569  34.277  1.00  0.00    -0.354 N 
ATOM     51  N   UNL A   1      41.520  28.978  31.818  1.00  0.00    -0.248 NA
ATOM     52  C   UNL A   1      42.687  27.367  30.595  1.00  0.00     0.031 C 
ATOM     53  C   UNL A   1      42.562  30.203  35.968  1.00  0.00     0.029 A 
ATOM     54  C   UNL A   1      42.255  29.806  34.677  1.00  0.00     0.049 A 
ATOM     55  H   UNL A   1      40.733  30.513  33.396  1.00  0.00     0.167 HD
ATOM     56  C   UNL A   1      42.543  28.465  32.604  1.00  0.00     0.074 A 
ATOM     57  C   UNL A   1      43.207  27.451  31.811  1.00  0.00     0.031 C 
ATOM     58  C   UNL A   1      42.902  28.803  33.868  1.00  0.00     0.037 A 
BRANCH  45  59
ATOM     59  C   UNL A   1      39.419  33.250  36.395  1.00  0.00     0.064 A 
ATOM     60  C   UNL A   1      38.552  32.852  37.425  1.00  0.00     0.173 A 
ATOM     61  C   UNL A   1      40.028  34.508  36.503  1.00  0.00     0.173 A 
ATOM     62  F   UNL A   1      37.928  31.665  37.362  1.00  0.00    -0.203 F 
ATOM     63  C   UNL A   1      38.284  33.692  38.503  1.00  0.00     0.198 A 
ATOM     64  C   UNL A   1      39.782  35.335  37.596  1.00  0.00     0.198 A 
ATOM     65  F   UNL A   1      40.867  34.937  35.548  1.00  0.00    -0.203 F 
ATOM     66  F   UNL A   1      37.413  33.312  39.448  1.00  0.00    -0.200 F 
ATOM     67  C   UNL A   1      38.903  34.930  38.590  1.00  0.00     0.200 A 
ATOM     68  F   UNL A   1      40.388  36.527  37.684  1.00  0.00    -0.200 F 
ATOM     69  F   UNL A   1      38.646  35.738  39.628  1.00  0.00    -0.200 F 
ENDBRANCH  45  59
BRANCH  46  70
ATOM     70  C   UNL A   1      40.945  27.635  28.252  1.00  0.00     0.064 A 
ATOM     71  C   UNL A   1      41.732  28.099  27.189  1.00  0.00     0.173 A 
ATOM     72  C   UNL A   1      40.383  26.355  28.137  1.00  0.00     0.173 A 
ATOM     73  F   UNL A   1      42.271  29.326  27.242  1.00  0.00    -0.203 F 
ATOM     74  C   UNL A   1      41.935  27.322  26.050  1.00  0.00     0.198 A 
ATOM     75  C   UNL A   1      40.609  25.567  27.011  1.00  0.00     0.198 A 
ATOM     76  F   UNL A   1      39.620  25.866  29.126  1.00  0.00    -0.203 F 
ATOM     77  F   UNL A   1      42.655  27.807  25.030  1.00  0.00    -0.200 F 
ATOM     78  C   UNL A   1      41.378  26.054  25.965  1.00  0.00     0.200 A 
ATOM     79  F   UNL A   1      40.078  24.339  26.936  1.00  0.00    -0.200 F 
ATOM     80  F   UNL A   1      41.577  25.306  24.872  1.00  0.00    -0.200 F 
ENDBRANCH  46  70
BRANCH  58  81
ATOM     81  C   UNL A   1      44.045  28.042  34.474  1.00  0.00     0.064 A 
ATOM     82  C   UNL A   1      43.846  26.830  35.153  1.00  0.00     0.173 A 
ATOM     83  C   UNL A   1      45.356  28.527  34.366  1.00  0.00     0.173 A 
ATOM     84  F   UNL A   1      42.609  26.331  35.295  1.00  0.00    -0.203 F 
ATOM     85  C   UNL A   1      44.914  26.152  35.734  1.00  0.00     0.198 A 
ATOM     86  C   UNL A   1      46.427  27.831  34.922  1.00  0.00     0.198 A 
ATOM     87  F   UNL A   1      45.602  29.677  33.721  1.00  0.00    -0.203 F 
ATOM     88  F   UNL A   1      44.693  25.028  36.430  1.00  0.00    -0.200 F 
ATOM     89  C   UNL A   1      46.203  26.651  35.615  1.00  0.00     0.200 A 
ATOM     90  F   UNL A   1      47.672  28.308  34.795  1.00  0.00    -0.200 F 
ATOM     91  F   UNL A   1      47.229  25.999  36.177  1.00  0.00    -0.200 F 
ENDBRANCH  58  81
ENDBRANCH  32  33
ENDBRANCH  25  27
ENDBRANCH  24  25
ENDBRANCH  23  24
ENDBRANCH   1  23
TORSDOF 14
ENDMDL
MODEL 2
REMARK VINA RESULT:     -11.6      5.352     10.444
REMARK SMILES Cc1nn(C)cc1-c1ccnc2nc(CCC(=O)OCCOC(=O)c3ccc(-c4c5nc(c(-c6c(F)c(F)c(F)c(F)c6F)c6ccc([nH]6)c(-c6c(F)c(F)c(F)c(F)c6F)c6nc(c(-c7c(F)c(F)c(F)c(F)c7F)c7ccc4[nH]7)C=C6)C=C5)cc3)nn12
REMARK SMILES IDX 20 1 19 2 17 3 18 4 16 5 15 6 14 7 8 8 9 9 89 10 10 11 12 12
REMARK SMILES IDX 88 13 11 14 13 15 7 16 1 17 2 18 3 19 4 20 6 21 5 22 21 23
REMARK SMILES IDX 22 24 23 25 24 26 25 27 26 28 87 29 27 30 86 31 28 32 29 33
REMARK SMILES IDX 30 34 80 35 31 36 85 37 79 38 81 39 32 40 84 41 78 42 77 43
REMARK SMILES IDX 33 45 65 46 45 47 64 48 46 49 49 50 63 51 82 52 47 53 48 54
REMARK SMILES IDX 62 56 83 57 50 58 34 59 35 60 43 61 36 62 37 63 41 64 44 65
REMARK SMILES IDX 38 66 39 67 42 68 40 69 66 70 67 71 75 72 68 73 69 74 73 75
REMARK SMILES IDX 76 76 70 77 71 78 74 79 72 80 51 81 52 82 60 83 53 84 54 85
REMARK SMILES IDX 58 86 61 87 55 88 56 89 59 90 57 91
REMARK H PARENT 81 44 49 55
REMARK Flexibility Score: inf
ROOT
ATOM      1  C   UNL A   1      37.973  19.857  24.919  1.00  0.00     0.274 C 
ENDROOT
BRANCH   1   2
ATOM      2  O   UNL A   1      37.711  21.257  25.116  1.00  0.00    -0.462 OA
BRANCH   2   3
ATOM      3  C   UNL A   1      36.425  21.657  25.220  1.00  0.00     0.306 C 
ATOM      4  O   UNL A   1      35.480  21.122  24.652  1.00  0.00    -0.252 OA
BRANCH   3   5
ATOM      5  C   UNL A   1      36.271  22.886  26.086  1.00  0.00     0.131 C 
BRANCH   5   6
ATOM      6  C   UNL A   1      35.587  24.057  25.384  1.00  0.00     0.091 C 
BRANCH   6   7
ATOM      7  C   UNL A   1      34.175  24.234  25.808  1.00  0.00     0.154 A 
ATOM      8  C   UNL A   1      31.034  25.734  25.795  1.00  0.00     0.081 A 
ATOM      9  C   UNL A   1      29.897  25.171  26.245  1.00  0.00     0.049 A 
ATOM     10  N   UNL A   1      32.233  25.017  25.946  1.00  0.00    -0.196 N 
ATOM     11  C   UNL A   1      30.031  23.829  26.868  1.00  0.00     0.117 A 
ATOM     12  C   UNL A   1      32.252  23.726  26.498  1.00  0.00     0.252 A 
ATOM     13  N   UNL A   1      33.494  25.358  25.588  1.00  0.00    -0.149 NA
ATOM     14  N   UNL A   1      31.122  23.141  26.992  1.00  0.00    -0.220 NA
ATOM     15  N   UNL A   1      33.462  23.226  26.385  1.00  0.00    -0.194 NA
BRANCH   8  16
ATOM     16  C   UNL A   1      31.026  26.996  25.126  1.00  0.00     0.041 A 
ATOM     17  C   UNL A   1      31.942  28.669  26.926  1.00  0.00     0.069 C 
ATOM     18  C   UNL A   1      31.412  28.277  25.597  1.00  0.00     0.069 A 
ATOM     19  N   UNL A   1      31.242  29.214  24.653  1.00  0.00    -0.178 NA
ATOM     20  N   UNL A   1      30.776  28.534  23.592  1.00  0.00    -0.275 N 
ATOM     21  C   UNL A   1      30.605  27.203  23.832  1.00  0.00     0.119 A 
ATOM     22  C   UNL A   1      30.524  29.236  22.358  1.00  0.00     0.173 C 
ENDBRANCH   8  16
ENDBRANCH   6   7
ENDBRANCH   5   6
ENDBRANCH   3   5
ENDBRANCH   2   3
ENDBRANCH   1   2
BRANCH   1  23
ATOM     23  C   UNL A   1      39.265  19.437  25.626  1.00  0.00     0.275 C 
BRANCH  23  24
ATOM     24  O   UNL A   1      40.035  20.611  25.940  1.00  0.00    -0.458 OA
BRANCH  24  25
ATOM     25  C   UNL A   1      40.603  20.631  27.165  1.00  0.00     0.338 C 
ATOM     26  O   UNL A   1      40.887  19.690  27.880  1.00  0.00    -0.246 OA
BRANCH  25  27
ATOM     27  C   UNL A   1      41.008  22.011  27.460  1.00  0.00     0.060 A 
ATOM     28  C   UNL A   1      40.456  23.034  26.682  1.00  0.00     0.016 A 
ATOM     29  C   UNL A   1      41.930  22.294  28.468  1.00  0.00     0.016 A 
ATOM     30  C   UNL A   1      40.821  24.353  26.912  1.00  0.00     0.010 A 
ATOM     31  C   UNL A   1      42.303  23.621  28.694  1.00  0.00     0.010 A 
ATOM     32  C   UNL A   1      41.757  24.652  27.909  1.00  0.00    -0.014 A 
BRANCH  32  33
ATOM     33  C   UNL A   1      42.213  26.049  28.072  1.00  0.00     0.031 A 
ATOM     34  C   UNL A   1      43.522  26.470  27.473  1.00  0.00     0.074 A 
ATOM     35  C   UNL A   1      41.432  26.937  28.711  1.00  0.00     0.049 A 
ATOM     36  N   UNL A   1      44.108  27.639  27.497  1.00  0.00    -0.248 NA
ATOM     37  C   UNL A   1      44.273  25.432  26.751  1.00  0.00     0.031 C 
ATOM     38  C   UNL A   1      40.126  26.639  29.298  1.00  0.00     0.029 A 
ATOM     39  N   UNL A   1      41.622  28.269  28.967  1.00  0.00    -0.354 N 
ATOM     40  C   UNL A   1      45.297  27.478  26.800  1.00  0.00     0.074 A 
ATOM     41  C   UNL A   1      45.366  26.090  26.392  1.00  0.00     0.031 C 
ATOM     42  C   UNL A   1      39.626  27.762  29.840  1.00  0.00     0.029 A 
ATOM     43  C   UNL A   1      40.590  28.845  29.664  1.00  0.00     0.049 A 
ATOM     44  H   UNL A   1      42.421  28.766  28.678  1.00  0.00     0.167 HD
ATOM     45  C   UNL A   1      46.240  28.408  26.521  1.00  0.00     0.037 A 
ATOM     46  C   UNL A   1      40.449  30.105  30.116  1.00  0.00     0.037 A 
ATOM     47  C   UNL A   1      46.163  29.784  26.933  1.00  0.00     0.049 A 
ATOM     48  C   UNL A   1      41.534  31.107  29.831  1.00  0.00     0.074 A 
ATOM     49  C   UNL A   1      47.064  30.810  26.705  1.00  0.00     0.029 A 
ATOM     50  N   UNL A   1      45.116  30.329  27.666  1.00  0.00    -0.354 N 
ATOM     51  N   UNL A   1      42.654  30.951  29.166  1.00  0.00    -0.248 NA
ATOM     52  C   UNL A   1      41.333  32.465  30.356  1.00  0.00     0.031 C 
ATOM     53  C   UNL A   1      46.582  31.964  27.336  1.00  0.00     0.029 A 
ATOM     54  C   UNL A   1      45.357  31.671  27.912  1.00  0.00     0.049 A 
ATOM     55  H   UNL A   1      44.319  29.833  27.965  1.00  0.00     0.167 HD
ATOM     56  C   UNL A   1      43.279  32.190  29.171  1.00  0.00     0.074 A 
ATOM     57  C   UNL A   1      42.402  33.093  29.890  1.00  0.00     0.031 C 
ATOM     58  C   UNL A   1      44.470  32.550  28.632  1.00  0.00     0.037 A 
BRANCH  45  59
ATOM     59  C   UNL A   1      47.449  27.952  25.757  1.00  0.00     0.064 A 
ATOM     60  C   UNL A   1      47.430  27.810  24.360  1.00  0.00     0.173 A 
ATOM     61  C   UNL A   1      48.645  27.660  26.428  1.00  0.00     0.173 A 
ATOM     62  F   UNL A   1      46.305  28.059  23.672  1.00  0.00    -0.203 F 
ATOM     63  C   UNL A   1      48.555  27.366  23.669  1.00  0.00     0.198 A 
ATOM     64  C   UNL A   1      49.777  27.243  25.731  1.00  0.00     0.198 A 
ATOM     65  F   UNL A   1      48.719  27.780  27.762  1.00  0.00    -0.203 F 
ATOM     66  F   UNL A   1      48.497  27.188  22.341  1.00  0.00    -0.200 F 
ATOM     67  C   UNL A   1      49.728  27.088  24.354  1.00  0.00     0.200 A 
ATOM     68  F   UNL A   1      50.913  26.984  26.393  1.00  0.00    -0.200 F 
ATOM     69  F   UNL A   1      50.810  26.661  23.687  1.00  0.00    -0.200 F 
ENDBRANCH  45  59
BRANCH  46  70
ATOM     70  C   UNL A   1      39.231  30.488  30.875  1.00  0.00     0.064 A 
ATOM     71  C   UNL A   1      38.119  31.042  30.226  1.00  0.00     0.173 A 
ATOM     72  C   UNL A   1      39.154  30.312  32.264  1.00  0.00     0.173 A 
ATOM     73  F   UNL A   1      38.154  31.252  28.902  1.00  0.00    -0.203 F 
ATOM     74  C   UNL A   1      36.983  31.418  30.938  1.00  0.00     0.198 A 
ATOM     75  C   UNL A   1      38.007  30.663  32.973  1.00  0.00     0.198 A 
ATOM     76  F   UNL A   1      40.192  29.789  32.934  1.00  0.00    -0.203 F 
ATOM     77  F   UNL A   1      35.950  31.986  30.299  1.00  0.00    -0.200 F 
ATOM     78  C   UNL A   1      36.925  31.223  32.310  1.00  0.00     0.200 A 
ATOM     79  F   UNL A   1      37.951  30.463  34.297  1.00  0.00    -0.200 F 
ATOM     80  F   UNL A   1      35.831  31.581  32.994  1.00  0.00    -0.200 F 
ENDBRANCH  46  70
BRANCH  58  81
ATOM     81  C   UNL A   1      44.872  33.989  28.776  1.00  0.00     0.064 A 
ATOM     82  C   UNL A   1      44.496  34.957  27.832  1.00  0.00     0.173 A 
ATOM     83  C   UNL A   1      45.635  34.407  29.876  1.00  0.00     0.173 A 
ATOM     84  F   UNL A   1      43.778  34.606  26.754  1.00  0.00    -0.203 F 
ATOM     85  C   UNL A   1      44.901  36.282  27.965  1.00  0.00     0.198 A 
ATOM     86  C   UNL A   1      46.013  35.739  30.023  1.00  0.00     0.198 A 
ATOM     87  F   UNL A   1      46.014  33.523  30.812  1.00  0.00    -0.203 F 
ATOM     88  F   UNL A   1      44.582  37.177  27.020  1.00  0.00    -0.200 F 
ATOM     89  C   UNL A   1      45.656  36.672  29.062  1.00  0.00     0.200 A 
ATOM     90  F   UNL A   1      46.731  36.116  31.089  1.00  0.00    -0.200 F 
ATOM     91  F   UNL A   1      46.048  37.947  29.187  1.00  0.00    -0.200 F 
ENDBRANCH  58  81
ENDBRANCH  32  33
ENDBRANCH  25  27
ENDBRANCH  24  25
ENDBRANCH  23  24
ENDBRANCH   1  23
TORSDOF 14
ENDMDL
MODEL 3
REMARK VINA RESULT:     -11.6      2.025      3.799
REMARK SMILES Cc1nn(C)cc1-c1ccnc2nc(CCC(=O)OCCOC(=O)c3ccc(-c4c5nc(c(-c6c(F)c(F)c(F)c(F)c6F)c6ccc([nH]6)c(-c6c(F)c(F)c(F)c(F)c6F)c6nc(c(-c7c(F)c(F)c(F)c(F)c7F)c7ccc4[nH]7)C=C6)C=C5)cc3)nn12
REMARK SMILES IDX 20 1 19 2 17 3 18 4 16 5 15 6 14 7 8 8 9 9 89 10 10 11 12 12
REMARK SMILES IDX 88 13 11 14 13 15 7 16 1 17 2 18 3 19 4 20 6 21 5 22 21 23
REMARK SMILES IDX 22 24 23 25 24 26 25 27 26 28 87 29 27 30 86 31 28 32 29 33
REMARK SMILES IDX 30 34 80 35 31 36 85 37 79 38 81 39 32 40 84 41 78 42 77 43
REMARK SMILES IDX 33 45 65 46 45 47 64 48 46 49 49 50 63 51 82 52 47 53 48 54
REMARK SMILES IDX 62 56 83 57 50 58 34 59 35 60 43 61 36 62 37 63 41 64 44 65
REMARK SMILES IDX 38 66 39 67 42 68 40 69 66 70 67 71 75 72 68 73 69 74 73 75
REMARK SMILES IDX 76 76 70 77 71 78 74 79 72 80 51 81 52 82 60 83 53 84 54 85
REMARK SMILES IDX 58 86 61 87 55 88 56 89 59 90 57 91
REMARK H PARENT 81 44 49 55
REMARK Flexibility Score: inf
ROOT
ATOM      1  C   UNL A   1      31.136  31.557  26.129  1.00  0.00     0.274 C 
ENDROOT
BRANCH   1   2
ATOM      2  O   UNL A   1      32.167  30.599  25.833  1.00  0.00    -0.462 OA
BRANCH   2   3
ATOM      3  C   UNL A   1      31.913  29.658  24.898  1.00  0.00     0.306 C 
ATOM      4  O   UNL A   1      30.821  29.472  24.374  1.00  0.00    -0.252 OA
BRANCH   3   5
ATOM      5  C   UNL A   1      33.123  28.805  24.595  1.00  0.00     0.131 C 
BRANCH   5   6
ATOM      6  C   UNL A   1      33.686  28.072  25.811  1.00  0.00     0.091 C 
BRANCH   6   7
ATOM      7  C   UNL A   1      33.208  26.668  25.906  1.00  0.00     0.154 A 
ATOM      8  C   UNL A   1      33.544  23.204  25.857  1.00  0.00     0.081 A 
ATOM      9  C   UNL A   1      32.673  22.327  26.391  1.00  0.00     0.049 A 
ATOM     10  N   UNL A   1      33.216  24.571  25.897  1.00  0.00    -0.196 N 
ATOM     11  C   UNL A   1      31.434  22.904  26.974  1.00  0.00     0.117 A 
ATOM     12  C   UNL A   1      32.044  25.026  26.522  1.00  0.00     0.252 A 
ATOM     13  N   UNL A   1      33.907  25.638  25.432  1.00  0.00    -0.149 NA
ATOM     14  N   UNL A   1      31.127  24.161  27.045  1.00  0.00    -0.220 NA
ATOM     15  N   UNL A   1      32.054  26.341  26.553  1.00  0.00    -0.194 NA
BRANCH   8  16
ATOM     16  C   UNL A   1      34.795  22.777  25.317  1.00  0.00     0.041 A 
ATOM     17  C   UNL A   1      34.522  23.131  22.733  1.00  0.00     0.069 C 
ATOM     18  C   UNL A   1      35.237  22.735  23.971  1.00  0.00     0.069 A 
ATOM     19  N   UNL A   1      36.487  22.255  23.884  1.00  0.00    -0.178 NA
ATOM     20  N   UNL A   1      36.839  22.017  25.159  1.00  0.00    -0.275 N 
ATOM     21  C   UNL A   1      35.850  22.291  26.056  1.00  0.00     0.119 A 
ATOM     22  C   UNL A   1      38.166  21.530  25.446  1.00  0.00     0.173 C 
ENDBRANCH   8  16
ENDBRANCH   6   7
ENDBRANCH   5   6
ENDBRANCH   3   5
ENDBRANCH   2   3
ENDBRANCH   1   2
BRANCH   1  23
ATOM     23  C   UNL A   1      31.718  32.791  26.825  1.00  0.00     0.275 C 
BRANCH  23  24
ATOM     24  O   UNL A   1      32.879  32.403  27.582  1.00  0.00    -0.458 OA
BRANCH  24  25
ATOM     25  C   UNL A   1      33.824  33.355  27.739  1.00  0.00     0.338 C 
ATOM     26  O   UNL A   1      33.717  34.555  27.584  1.00  0.00    -0.246 OA
BRANCH  25  27
ATOM     27  C   UNL A   1      35.018  32.725  28.317  1.00  0.00     0.060 A 
ATOM     28  C   UNL A   1      34.897  31.420  28.803  1.00  0.00     0.016 A 
ATOM     29  C   UNL A   1      36.229  33.413  28.400  1.00  0.00     0.016 A 
ATOM     30  C   UNL A   1      35.993  30.789  29.375  1.00  0.00     0.010 A 
ATOM     31  C   UNL A   1      37.330  32.780  28.982  1.00  0.00     0.010 A 
ATOM     32  C   UNL A   1      37.211  31.471  29.480  1.00  0.00    -0.014 A 
BRANCH  32  33
ATOM     33  C   UNL A   1      38.339  30.824  30.184  1.00  0.00     0.031 A 
ATOM     34  C   UNL A   1      38.593  31.154  31.624  1.00  0.00     0.074 A 
ATOM     35  C   UNL A   1      39.094  29.915  29.543  1.00  0.00     0.049 A 
ATOM     36  N   UNL A   1      39.522  30.704  32.428  1.00  0.00    -0.248 NA
ATOM     37  C   UNL A   1      37.676  32.123  32.244  1.00  0.00     0.031 C 
ATOM     38  C   UNL A   1      38.908  29.497  28.154  1.00  0.00     0.029 A 
ATOM     39  N   UNL A   1      40.162  29.177  29.979  1.00  0.00    -0.354 N 
ATOM     40  C   UNL A   1      39.307  31.338  33.643  1.00  0.00     0.074 A 
ATOM     41  C   UNL A   1      38.179  32.228  33.465  1.00  0.00     0.031 C 
ATOM     42  C   UNL A   1      39.830  28.567  27.853  1.00  0.00     0.029 A 
ATOM     43  C   UNL A   1      40.685  28.350  29.017  1.00  0.00     0.049 A 
ATOM     44  H   UNL A   1      40.521  29.234  30.894  1.00  0.00     0.167 HD
ATOM     45  C   UNL A   1      39.987  31.183  34.804  1.00  0.00     0.037 A 
ATOM     46  C   UNL A   1      41.742  27.519  29.072  1.00  0.00     0.037 A 
ATOM     47  C   UNL A   1      41.109  30.297  34.969  1.00  0.00     0.049 A 
ATOM     48  C   UNL A   1      42.508  27.400  30.362  1.00  0.00     0.074 A 
ATOM     49  C   UNL A   1      41.871  30.064  36.100  1.00  0.00     0.029 A 
ATOM     50  N   UNL A   1      41.633  29.494  33.964  1.00  0.00    -0.354 N 
ATOM     51  N   UNL A   1      42.296  27.997  31.511  1.00  0.00    -0.248 NA
ATOM     52  C   UNL A   1      43.659  26.486  30.364  1.00  0.00     0.031 C 
ATOM     53  C   UNL A   1      42.881  29.153  35.769  1.00  0.00     0.029 A 
ATOM     54  C   UNL A   1      42.717  28.778  34.445  1.00  0.00     0.049 A 
ATOM     55  H   UNL A   1      41.283  29.440  33.045  1.00  0.00     0.167 HD
ATOM     56  C   UNL A   1      43.269  27.516  32.377  1.00  0.00     0.074 A 
ATOM     57  C   UNL A   1      44.059  26.562  31.624  1.00  0.00     0.031 C 
ATOM     58  C   UNL A   1      43.490  27.834  33.676  1.00  0.00     0.037 A 
BRANCH  45  59
ATOM     59  C   UNL A   1      39.548  32.015  35.973  1.00  0.00     0.064 A 
ATOM     60  C   UNL A   1      40.156  33.245  36.274  1.00  0.00     0.173 A 
ATOM     61  C   UNL A   1      38.502  31.583  36.800  1.00  0.00     0.173 A 
ATOM     62  F   UNL A   1      41.174  33.695  35.525  1.00  0.00    -0.203 F 
ATOM     63  C   UNL A   1      39.751  33.995  37.375  1.00  0.00     0.198 A 
ATOM     64  C   UNL A   1      38.079  32.349  37.883  1.00  0.00     0.198 A 
ATOM     65  F   UNL A   1      37.885  30.417  36.556  1.00  0.00    -0.203 F 
ATOM     66  F   UNL A   1      40.380  35.140  37.673  1.00  0.00    -0.200 F 
ATOM     67  C   UNL A   1      38.709  33.549  38.175  1.00  0.00     0.200 A 
ATOM     68  F   UNL A   1      37.066  31.922  38.650  1.00  0.00    -0.200 F 
ATOM     69  F   UNL A   1      38.319  34.273  39.234  1.00  0.00    -0.200 F 
ENDBRANCH  45  59
BRANCH  46  70
ATOM     70  C   UNL A   1      42.129  26.730  27.875  1.00  0.00     0.064 A 
ATOM     71  C   UNL A   1      41.588  25.459  27.640  1.00  0.00     0.173 A 
ATOM     72  C   UNL A   1      43.049  27.230  26.941  1.00  0.00     0.173 A 
ATOM     73  F   UNL A   1      40.724  24.928  28.517  1.00  0.00    -0.203 F 
ATOM     74  C   UNL A   1      41.964  24.710  26.527  1.00  0.00     0.198 A 
ATOM     75  C   UNL A   1      43.403  26.493  25.813  1.00  0.00     0.198 A 
ATOM     76  F   UNL A   1      43.598  28.441  27.120  1.00  0.00    -0.203 F 
ATOM     77  F   UNL A   1      41.465  23.479  26.350  1.00  0.00    -0.200 F 
ATOM     78  C   UNL A   1      42.866  25.231  25.611  1.00  0.00     0.200 A 
ATOM     79  F   UNL A   1      44.267  27.003  24.925  1.00  0.00    -0.200 F 
ATOM     80  F   UNL A   1      43.224  24.513  24.538  1.00  0.00    -0.200 F 
ENDBRANCH  46  70
BRANCH  58  81
ATOM     81  C   UNL A   1      44.613  27.117  34.368  1.00  0.00     0.064 A 
ATOM     82  C   UNL A   1      44.419  25.880  35.000  1.00  0.00     0.173 A 
ATOM     83  C   UNL A   1      45.901  27.672  34.392  1.00  0.00     0.173 A 
ATOM     84  F   UNL A   1      43.202  25.314  35.018  1.00  0.00    -0.203 F 
ATOM     85  C   UNL A   1      45.464  25.242  35.662  1.00  0.00     0.198 A 
ATOM     86  C   UNL A   1      46.953  27.017  35.028  1.00  0.00     0.198 A 
ATOM     87  F   UNL A   1      46.143  28.849  33.796  1.00  0.00    -0.203 F 
ATOM     88  F   UNL A   1      45.241  24.091  36.310  1.00  0.00    -0.200 F 
ATOM     89  C   UNL A   1      46.731  25.809  35.672  1.00  0.00     0.200 A 
ATOM     90  F   UNL A   1      48.177  27.560  35.026  1.00  0.00    -0.200 F 
ATOM     91  F   UNL A   1      47.735  25.196  36.312  1.00  0.00    -0.200 F 
ENDBRANCH  58  81
ENDBRANCH  32  33
ENDBRANCH  25  27
ENDBRANCH  24  25
ENDBRANCH  23  24
ENDBRANCH   1  23
TORSDOF 14
ENDMDL
