MODEL 1
REMARK VINA RESULT:     -12.1      0.000      0.000
REMARK SMILES C=CCN1C(=O)/C(=C/c2ccc(-c3ccc(Cl)c(C(=O)OCCOC(=O)c4ccc(-c5c6nc(c(-c7c(F)c(F)c(F)c(F)c7F)c7ccc([nH]7)c(-c7c(F)c(F)c(F)c(F)c7F)c7nc(c(-c8c(F)c(F)c(F)c(F)c8F)c8ccc5[nH]8)C=C7)C=C6)cc4)c3)o2)C(=O)NC1=S
REMARK SMILES IDX 22 1 21 2 19 3 20 4 18 5 13 6 14 7 90 8 15 9 16 10 17 11
REMARK SMILES IDX 12 12 9 13 10 14 91 15 11 16 8 17 4 18 5 19 95 20 6 21 7 22
REMARK SMILES IDX 94 23 96 24 92 25 93 27 3 28 2 29 1 30 23 31 24 32 25 33
REMARK SMILES IDX 26 34 27 35 28 36 89 37 29 38 88 39 30 40 31 41 32 42 82 43
REMARK SMILES IDX 33 44 87 45 81 46 83 47 34 48 86 49 80 50 79 51 35 53 67 54
REMARK SMILES IDX 47 55 66 56 48 57 51 58 65 59 84 60 49 61 50 62 64 64 85 65
REMARK SMILES IDX 52 66 36 67 37 68 45 69 38 70 39 71 43 72 46 73 40 74 41 75
REMARK SMILES IDX 44 76 42 77 68 78 69 79 77 80 70 81 71 82 75 83 78 84 72 85
REMARK SMILES IDX 73 86 76 87 74 88 53 89 54 90 62 91 55 92 56 93 60 94 63 95
REMARK SMILES IDX 57 96 58 97 61 98 59 99
REMARK H PARENT 94 26 83 52 51 63
REMARK Flexibility Score: inf
ROOT
ATOM      1  C   UNL A   1      42.486  18.888  26.617  1.00  0.00     0.275 C 
ENDROOT
BRANCH   1   2
ATOM      2  O   UNL A   1      41.778  19.999  26.029  1.00  0.00    -0.458 OA
BRANCH   2   3
ATOM      3  C   UNL A   1      40.434  19.885  25.903  1.00  0.00     0.339 C 
ATOM      4  O   UNL A   1      39.807  18.847  25.750  1.00  0.00    -0.246 OA
BRANCH   3   5
ATOM      5  C   UNL A   1      39.761  21.188  26.130  1.00  0.00     0.079 A 
ATOM      6  C   UNL A   1      37.773  22.559  25.681  1.00  0.00     0.018 A 
ATOM      7  C   UNL A   1      38.327  23.572  26.470  1.00  0.00     0.013 A 
ATOM      8  C   UNL A   1      38.518  21.392  25.489  1.00  0.00     0.029 A 
ATOM      9  C   UNL A   1      39.588  23.410  27.060  1.00  0.00     0.022 A 
ATOM     10  C   UNL A   1      40.308  22.220  26.895  1.00  0.00     0.055 A 
ATOM     11  Cl  UNL A   1      41.895  22.161  27.577  1.00  0.00    -0.083 Cl
BRANCH   6  12
ATOM     12  C   UNL A   1      36.505  22.757  24.988  1.00  0.00     0.134 A 
ATOM     13  C   UNL A   1      34.317  23.192  24.876  1.00  0.00     0.128 A 
ATOM     14  C   UNL A   1      34.790  22.984  23.584  1.00  0.00     0.051 A 
ATOM     15  O   UNL A   1      35.395  23.050  25.737  1.00  0.00    -0.457 OA
ATOM     16  C   UNL A   1      36.173  22.717  23.655  1.00  0.00     0.051 A 
BRANCH  13  17
ATOM     17  C   UNL A   1      32.994  23.586  25.245  1.00  0.00     0.066 C 
ATOM     18  N   UNL A   1      30.778  26.401  25.952  1.00  0.00    -0.281 N 
ATOM     19  C   UNL A   1      31.316  25.120  26.164  1.00  0.00     0.266 C 
ATOM     20  C   UNL A   1      31.738  27.330  26.244  1.00  0.00     0.183 C 
ATOM     21  O   UNL A   1      30.777  24.278  26.876  1.00  0.00    -0.268 OA
ATOM     22  C   UNL A   1      32.612  24.867  25.427  1.00  0.00     0.109 C 
ATOM     23  N   UNL A   1      32.909  27.237  25.535  1.00  0.00    -0.298 N 
ATOM     24  S   UNL A   1      31.747  28.285  27.626  1.00  0.00    -0.040 S 
ATOM     25  C   UNL A   1      33.393  26.066  25.007  1.00  0.00     0.263 C 
ATOM     26  H   UNL A   1      33.433  28.058  25.399  1.00  0.00     0.172 HD
ATOM     27  O   UNL A   1      34.408  26.043  24.324  1.00  0.00    -0.269 OA
BRANCH  18  28
ATOM     28  C   UNL A   1      29.993  26.315  24.680  1.00  0.00     0.155 C 
BRANCH  28  29
ATOM     29  C   UNL A   1      30.159  26.832  23.145  1.00  0.00    -0.013 C 
ATOM     30  C   UNL A   1      31.149  26.862  22.216  1.00  0.00     0.006 C 
ENDBRANCH  28  29
ENDBRANCH  18  28
ENDBRANCH  13  17
ENDBRANCH   6  12
ENDBRANCH   3   5
ENDBRANCH   2   3
ENDBRANCH   1   2
BRANCH   1  31
ATOM     31  C   UNL A   1      43.525  18.330  25.645  1.00  0.00     0.275 C 
BRANCH  31  32
ATOM     32  O   UNL A   1      43.665  19.208  24.515  1.00  0.00    -0.458 OA
BRANCH  32  33
ATOM     33  C   UNL A   1      44.900  19.730  24.356  1.00  0.00     0.338 C 
ATOM     34  O   UNL A   1      45.873  19.226  23.828  1.00  0.00    -0.246 OA
BRANCH  33  35
ATOM     35  C   UNL A   1      44.892  21.112  24.841  1.00  0.00     0.060 A 
ATOM     36  C   UNL A   1      44.589  22.117  23.928  1.00  0.00     0.016 A 
ATOM     37  C   UNL A   1      45.309  21.428  26.128  1.00  0.00     0.016 A 
ATOM     38  C   UNL A   1      44.794  23.452  24.251  1.00  0.00     0.010 A 
ATOM     39  C   UNL A   1      45.415  22.771  26.489  1.00  0.00     0.010 A 
ATOM     40  C   UNL A   1      45.196  23.793  25.545  1.00  0.00    -0.014 A 
BRANCH  40  41
ATOM     41  C   UNL A   1      45.415  25.209  25.942  1.00  0.00     0.031 A 
ATOM     42  C   UNL A   1      44.126  25.878  26.628  1.00  0.00     0.074 A 
ATOM     43  C   UNL A   1      46.696  25.725  25.737  1.00  0.00     0.049 A 
ATOM     44  N   UNL A   1      44.094  27.010  27.256  1.00  0.00    -0.248 NA
ATOM     45  C   UNL A   1      42.780  25.287  26.737  1.00  0.00     0.031 C 
ATOM     46  C   UNL A   1      47.925  24.978  25.385  1.00  0.00     0.029 A 
ATOM     47  N   UNL A   1      47.258  26.993  25.867  1.00  0.00    -0.354 N 
ATOM     48  C   UNL A   1      42.900  27.360  27.829  1.00  0.00     0.074 A 
ATOM     49  C   UNL A   1      42.086  26.202  27.452  1.00  0.00     0.031 C 
ATOM     50  C   UNL A   1      49.022  25.771  25.503  1.00  0.00     0.029 A 
ATOM     51  C   UNL A   1      48.630  27.129  25.891  1.00  0.00     0.049 A 
ATOM     52  H   UNL A   1      46.680  27.787  25.940  1.00  0.00     0.167 HD
ATOM     53  C   UNL A   1      42.586  28.527  28.525  1.00  0.00     0.037 A 
ATOM     54  C   UNL A   1      49.436  28.203  26.195  1.00  0.00     0.037 A 
ATOM     55  C   UNL A   1      43.409  29.812  28.747  1.00  0.00     0.049 A 
ATOM     56  C   UNL A   1      48.970  29.542  26.878  1.00  0.00     0.074 A 
ATOM     57  C   UNL A   1      43.006  31.144  28.607  1.00  0.00     0.029 A 
ATOM     58  N   UNL A   1      44.711  30.024  29.327  1.00  0.00    -0.354 N 
ATOM     59  N   UNL A   1      47.893  29.745  27.580  1.00  0.00    -0.248 NA
ATOM     60  C   UNL A   1      49.820  30.742  26.931  1.00  0.00     0.031 C 
ATOM     61  C   UNL A   1      44.139  32.009  28.656  1.00  0.00     0.029 A 
ATOM     62  C   UNL A   1      45.287  31.253  28.881  1.00  0.00     0.049 A 
ATOM     63  H   UNL A   1      45.148  29.401  29.951  1.00  0.00     0.167 HD
ATOM     64  C   UNL A   1      47.809  31.035  28.096  1.00  0.00     0.074 A 
ATOM     65  C   UNL A   1      49.119  31.575  27.722  1.00  0.00     0.031 C 
ATOM     66  C   UNL A   1      46.744  31.680  28.731  1.00  0.00     0.037 A 
BRANCH  53  67
ATOM     67  C   UNL A   1      41.114  28.635  28.805  1.00  0.00     0.064 A 
ATOM     68  C   UNL A   1      40.554  28.302  30.044  1.00  0.00     0.173 A 
ATOM     69  C   UNL A   1      40.240  29.053  27.785  1.00  0.00     0.173 A 
ATOM     70  F   UNL A   1      41.331  27.840  31.034  1.00  0.00    -0.203 F 
ATOM     71  C   UNL A   1      39.178  28.401  30.255  1.00  0.00     0.198 A 
ATOM     72  C   UNL A   1      38.875  29.184  28.009  1.00  0.00     0.198 A 
ATOM     73  F   UNL A   1      40.715  29.331  26.560  1.00  0.00    -0.203 F 
ATOM     74  F   UNL A   1      38.653  28.038  31.434  1.00  0.00    -0.200 F 
ATOM     75  C   UNL A   1      38.343  28.855  29.243  1.00  0.00     0.200 A 
ATOM     76  F   UNL A   1      38.076  29.620  27.024  1.00  0.00    -0.200 F 
ATOM     77  F   UNL A   1      37.022  28.955  29.450  1.00  0.00    -0.200 F 
ENDBRANCH  53  67
BRANCH  54  78
ATOM     78  C   UNL A   1      50.904  28.066  25.946  1.00  0.00     0.064 A 
ATOM     79  C   UNL A   1      51.442  28.206  24.660  1.00  0.00     0.173 A 
ATOM     80  C   UNL A   1      51.794  27.753  26.985  1.00  0.00     0.173 A 
ATOM     81  F   UNL A   1      50.643  28.516  23.631  1.00  0.00    -0.203 F 
ATOM     82  C   UNL A   1      52.803  28.018  24.417  1.00  0.00     0.198 A 
ATOM     83  C   UNL A   1      53.160  27.599  26.749  1.00  0.00     0.198 A 
ATOM     84  F   UNL A   1      51.337  27.596  28.236  1.00  0.00    -0.203 F 
ATOM     85  F   UNL A   1      53.276  28.115  23.168  1.00  0.00    -0.200 F 
ATOM     86  C   UNL A   1      53.662  27.720  25.463  1.00  0.00     0.200 A 
ATOM     87  F   UNL A   1      53.988  27.325  27.766  1.00  0.00    -0.200 F 
ATOM     88  F   UNL A   1      54.970  27.546  25.231  1.00  0.00    -0.200 F 
ENDBRANCH  54  78
BRANCH  66  89
ATOM     89  C   UNL A   1      46.996  33.128  29.057  1.00  0.00     0.064 A 
ATOM     90  C   UNL A   1      46.823  34.146  28.104  1.00  0.00     0.173 A 
ATOM     91  C   UNL A   1      47.325  33.507  30.364  1.00  0.00     0.173 A 
ATOM     92  F   UNL A   1      46.460  33.846  26.847  1.00  0.00    -0.203 F 
ATOM     93  C   UNL A   1      47.041  35.482  28.429  1.00  0.00     0.198 A 
ATOM     94  C   UNL A   1      47.514  34.848  30.694  1.00  0.00     0.198 A 
ATOM     95  F   UNL A   1      47.453  32.579  31.325  1.00  0.00    -0.203 F 
ATOM     96  F   UNL A   1      46.922  36.428  27.486  1.00  0.00    -0.200 F 
ATOM     97  C   UNL A   1      47.386  35.832  29.724  1.00  0.00     0.200 A 
ATOM     98  F   UNL A   1      47.817  35.190  31.953  1.00  0.00    -0.200 F 
ATOM     99  F   UNL A   1      47.591  37.118  30.039  1.00  0.00    -0.200 F 
ENDBRANCH  66  89
ENDBRANCH  40  41
ENDBRANCH  33  35
ENDBRANCH  32  33
ENDBRANCH  31  32
ENDBRANCH   1  31
TORSDOF 15
ENDMDL
MODEL 2
REMARK VINA RESULT:     -11.8      0.928      2.022
REMARK SMILES C=CCN1C(=O)/C(=C/c2ccc(-c3ccc(Cl)c(C(=O)OCCOC(=O)c4ccc(-c5c6nc(c(-c7c(F)c(F)c(F)c(F)c7F)c7ccc([nH]7)c(-c7c(F)c(F)c(F)c(F)c7F)c7nc(c(-c8c(F)c(F)c(F)c(F)c8F)c8ccc5[nH]8)C=C7)C=C6)cc4)c3)o2)C(=O)NC1=S
REMARK SMILES IDX 22 1 21 2 19 3 20 4 18 5 13 6 14 7 90 8 15 9 16 10 17 11
REMARK SMILES IDX 12 12 9 13 10 14 91 15 11 16 8 17 4 18 5 19 95 20 6 21 7 22
REMARK SMILES IDX 94 23 96 24 92 25 93 27 3 28 2 29 1 30 23 31 24 32 25 33
REMARK SMILES IDX 26 34 27 35 28 36 89 37 29 38 88 39 30 40 31 41 32 42 82 43
REMARK SMILES IDX 33 44 87 45 81 46 83 47 34 48 86 49 80 50 79 51 35 53 67 54
REMARK SMILES IDX 47 55 66 56 48 57 51 58 65 59 84 60 49 61 50 62 64 64 85 65
REMARK SMILES IDX 52 66 36 67 37 68 45 69 38 70 39 71 43 72 46 73 40 74 41 75
REMARK SMILES IDX 44 76 42 77 68 78 69 79 77 80 70 81 71 82 75 83 78 84 72 85
REMARK SMILES IDX 73 86 76 87 74 88 53 89 54 90 62 91 55 92 56 93 60 94 63 95
REMARK SMILES IDX 57 96 58 97 61 98 59 99
REMARK H PARENT 94 26 83 52 51 63
REMARK Flexibility Score: inf
ROOT
ATOM      1  C   UNL A   1      42.272  18.899  26.651  1.00  0.00     0.275 C 
ENDROOT
BRANCH   1   2
ATOM      2  O   UNL A   1      41.601  20.016  26.030  1.00  0.00    -0.458 OA
BRANCH   2   3
ATOM      3  C   UNL A   1      40.260  19.923  25.865  1.00  0.00     0.339 C 
ATOM      4  O   UNL A   1      39.624  18.897  25.672  1.00  0.00    -0.246 OA
BRANCH   3   5
ATOM      5  C   UNL A   1      39.598  21.230  26.104  1.00  0.00     0.079 A 
ATOM      6  C   UNL A   1      37.622  22.621  25.667  1.00  0.00     0.018 A 
ATOM      7  C   UNL A   1      38.183  23.622  26.466  1.00  0.00     0.013 A 
ATOM      8  C   UNL A   1      38.358  21.450  25.464  1.00  0.00     0.029 A 
ATOM      9  C   UNL A   1      39.442  23.444  27.056  1.00  0.00     0.022 A 
ATOM     10  C   UNL A   1      40.153  22.249  26.880  1.00  0.00     0.055 A 
ATOM     11  Cl  UNL A   1      41.738  22.170  27.563  1.00  0.00    -0.083 Cl
BRANCH   6  12
ATOM     12  C   UNL A   1      36.357  22.837  24.973  1.00  0.00     0.134 A 
ATOM     13  C   UNL A   1      34.770  24.089  24.021  1.00  0.00     0.128 A 
ATOM     14  C   UNL A   1      34.389  22.753  23.933  1.00  0.00     0.051 A 
ATOM     15  O   UNL A   1      35.997  24.125  24.668  1.00  0.00    -0.457 OA
ATOM     16  C   UNL A   1      35.394  21.964  24.528  1.00  0.00     0.051 A 
BRANCH  13  17
ATOM     17  C   UNL A   1      34.086  25.209  23.456  1.00  0.00     0.066 C 
ATOM     18  N   UNL A   1      31.243  27.478  23.782  1.00  0.00    -0.281 N 
ATOM     19  C   UNL A   1      32.144  26.657  23.080  1.00  0.00     0.266 C 
ATOM     20  C   UNL A   1      30.458  26.686  24.572  1.00  0.00     0.183 C 
ATOM     21  O   UNL A   1      32.270  26.693  21.860  1.00  0.00    -0.268 OA
ATOM     22  C   UNL A   1      32.953  25.734  23.964  1.00  0.00     0.109 C 
ATOM     23  N   UNL A   1      31.112  25.895  25.482  1.00  0.00    -0.298 N 
ATOM     24  S   UNL A   1      28.849  26.322  24.252  1.00  0.00    -0.040 S 
ATOM     25  C   UNL A   1      32.395  25.436  25.315  1.00  0.00     0.263 C 
ATOM     26  H   UNL A   1      30.633  25.640  26.303  1.00  0.00     0.172 HD
ATOM     27  O   UNL A   1      32.963  24.789  26.184  1.00  0.00    -0.269 OA
BRANCH  18  28
ATOM     28  C   UNL A   1      32.034  28.666  24.234  1.00  0.00     0.155 C 
BRANCH  28  29
ATOM     29  C   UNL A   1      33.482  28.934  24.929  1.00  0.00    -0.013 C 
ATOM     30  C   UNL A   1      34.097  28.593  26.091  1.00  0.00     0.006 C 
ENDBRANCH  28  29
ENDBRANCH  18  28
ENDBRANCH  13  17
ENDBRANCH   6  12
ENDBRANCH   3   5
ENDBRANCH   2   3
ENDBRANCH   1   2
BRANCH   1  31
ATOM     31  C   UNL A   1      43.412  18.392  25.768  1.00  0.00     0.275 C 
BRANCH  31  32
ATOM     32  O   UNL A   1      43.499  19.184  24.571  1.00  0.00    -0.458 OA
BRANCH  32  33
ATOM     33  C   UNL A   1      44.717  19.718  24.336  1.00  0.00     0.338 C 
ATOM     34  O   UNL A   1      45.658  19.224  23.743  1.00  0.00    -0.246 OA
BRANCH  33  35
ATOM     35  C   UNL A   1      44.730  21.097  24.828  1.00  0.00     0.060 A 
ATOM     36  C   UNL A   1      44.412  22.109  23.927  1.00  0.00     0.016 A 
ATOM     37  C   UNL A   1      45.179  21.403  26.106  1.00  0.00     0.016 A 
ATOM     38  C   UNL A   1      44.633  23.441  24.252  1.00  0.00     0.010 A 
ATOM     39  C   UNL A   1      45.303  22.744  26.472  1.00  0.00     0.010 A 
ATOM     40  C   UNL A   1      45.068  23.772  25.539  1.00  0.00    -0.014 A 
BRANCH  40  41
ATOM     41  C   UNL A   1      45.306  25.185  25.937  1.00  0.00     0.031 A 
ATOM     42  C   UNL A   1      44.025  25.869  26.625  1.00  0.00     0.074 A 
ATOM     43  C   UNL A   1      46.592  25.685  25.733  1.00  0.00     0.049 A 
ATOM     44  N   UNL A   1      44.008  27.000  27.255  1.00  0.00    -0.248 NA
ATOM     45  C   UNL A   1      42.672  25.296  26.734  1.00  0.00     0.031 C 
ATOM     46  C   UNL A   1      47.812  24.922  25.379  1.00  0.00     0.029 A 
ATOM     47  N   UNL A   1      47.171  26.945  25.864  1.00  0.00    -0.354 N 
ATOM     48  C   UNL A   1      42.819  27.365  27.830  1.00  0.00     0.074 A 
ATOM     49  C   UNL A   1      41.991  26.218  27.451  1.00  0.00     0.031 C 
ATOM     50  C   UNL A   1      48.919  25.701  25.497  1.00  0.00     0.029 A 
ATOM     51  C   UNL A   1      48.545  27.063  25.888  1.00  0.00     0.049 A 
ATOM     52  H   UNL A   1      46.604  27.747  25.939  1.00  0.00     0.167 HD
ATOM     53  C   UNL A   1      42.520  28.535  28.528  1.00  0.00     0.037 A 
ATOM     54  C   UNL A   1      49.365  28.126  26.193  1.00  0.00     0.037 A 
ATOM     55  C   UNL A   1      43.360  29.809  28.751  1.00  0.00     0.049 A 
ATOM     56  C   UNL A   1      48.917  29.470  26.878  1.00  0.00     0.074 A 
ATOM     57  C   UNL A   1      42.974  31.146  28.614  1.00  0.00     0.029 A 
ATOM     58  N   UNL A   1      44.666  30.004  29.330  1.00  0.00    -0.354 N 
ATOM     59  N   UNL A   1      47.843  29.686  27.581  1.00  0.00    -0.248 NA
ATOM     60  C   UNL A   1      49.781  30.659  26.932  1.00  0.00     0.031 C 
ATOM     61  C   UNL A   1      44.119  31.996  28.663  1.00  0.00     0.029 A 
ATOM     62  C   UNL A   1      45.257  31.226  28.886  1.00  0.00     0.049 A 
ATOM     63  H   UNL A   1      45.095  29.374  29.953  1.00  0.00     0.167 HD
ATOM     64  C   UNL A   1      47.775  30.976  28.099  1.00  0.00     0.074 A 
ATOM     65  C   UNL A   1      49.092  31.500  27.725  1.00  0.00     0.031 C 
ATOM     66  C   UNL A   1      46.720  31.634  28.736  1.00  0.00     0.037 A 
BRANCH  53  67
ATOM     67  C   UNL A   1      41.050  28.661  28.808  1.00  0.00     0.064 A 
ATOM     68  C   UNL A   1      40.490  28.355  30.054  1.00  0.00     0.173 A 
ATOM     69  C   UNL A   1      40.179  29.070  27.783  1.00  0.00     0.173 A 
ATOM     70  F   UNL A   1      41.265  27.902  31.051  1.00  0.00    -0.203 F 
ATOM     71  C   UNL A   1      39.116  28.470  30.266  1.00  0.00     0.198 A 
ATOM     72  C   UNL A   1      38.815  29.218  28.008  1.00  0.00     0.198 A 
ATOM     73  F   UNL A   1      40.653  29.324  26.553  1.00  0.00    -0.203 F 
ATOM     74  F   UNL A   1      38.589  28.132  31.452  1.00  0.00    -0.200 F 
ATOM     75  C   UNL A   1      38.283  28.915  29.248  1.00  0.00     0.200 A 
ATOM     76  F   UNL A   1      38.018  29.645  27.018  1.00  0.00    -0.200 F 
ATOM     77  F   UNL A   1      36.963  29.030  29.456  1.00  0.00    -0.200 F 
ENDBRANCH  53  67
BRANCH  54  78
ATOM     78  C   UNL A   1      50.830  27.971  25.943  1.00  0.00     0.064 A 
ATOM     79  C   UNL A   1      51.714  27.628  26.974  1.00  0.00     0.173 A 
ATOM     80  C   UNL A   1      51.382  28.204  24.674  1.00  0.00     0.173 A 
ATOM     81  F   UNL A   1      51.244  27.384  28.204  1.00  0.00    -0.203 F 
ATOM     82  C   UNL A   1      53.089  27.545  26.755  1.00  0.00     0.198 A 
ATOM     83  C   UNL A   1      52.754  28.086  24.445  1.00  0.00     0.198 A 
ATOM     84  F   UNL A   1      50.588  28.545  23.648  1.00  0.00    -0.203 F 
ATOM     85  F   UNL A   1      53.911  27.259  27.775  1.00  0.00    -0.200 F 
ATOM     86  C   UNL A   1      53.608  27.768  25.490  1.00  0.00     0.200 A 
ATOM     87  F   UNL A   1      53.247  28.288  23.217  1.00  0.00    -0.200 F 
ATOM     88  F   UNL A   1      54.928  27.681  25.278  1.00  0.00    -0.200 F 
ENDBRANCH  54  78
BRANCH  66  89
ATOM     89  C   UNL A   1      46.990  33.078  29.063  1.00  0.00     0.064 A 
ATOM     90  C   UNL A   1      47.482  33.477  30.318  1.00  0.00     0.173 A 
ATOM     91  C   UNL A   1      46.845  34.061  28.077  1.00  0.00     0.173 A 
ATOM     92  F   UNL A   1      47.689  32.571  31.286  1.00  0.00    -0.203 F 
ATOM     93  C   UNL A   1      47.746  34.814  30.596  1.00  0.00     0.198 A 
ATOM     94  C   UNL A   1      47.138  35.397  28.349  1.00  0.00     0.198 A 
ATOM     95  F   UNL A   1      46.427  33.727  26.847  1.00  0.00    -0.203 F 
ATOM     96  F   UNL A   1      48.161  35.174  31.820  1.00  0.00    -0.200 F 
ATOM     97  C   UNL A   1      47.574  35.774  29.612  1.00  0.00     0.200 A 
ATOM     98  F   UNL A   1      47.001  36.320  27.389  1.00  0.00    -0.200 F 
ATOM     99  F   UNL A   1      47.833  37.061  29.878  1.00  0.00    -0.200 F 
ENDBRANCH  66  89
ENDBRANCH  40  41
ENDBRANCH  33  35
ENDBRANCH  32  33
ENDBRANCH  31  32
ENDBRANCH   1  31
TORSDOF 15
ENDMDL
MODEL 3
REMARK VINA RESULT:     -11.7      5.561      9.846
REMARK SMILES C=CCN1C(=O)/C(=C/c2ccc(-c3ccc(Cl)c(C(=O)OCCOC(=O)c4ccc(-c5c6nc(c(-c7c(F)c(F)c(F)c(F)c7F)c7ccc([nH]7)c(-c7c(F)c(F)c(F)c(F)c7F)c7nc(c(-c8c(F)c(F)c(F)c(F)c8F)c8ccc5[nH]8)C=C7)C=C6)cc4)c3)o2)C(=O)NC1=S
REMARK SMILES IDX 22 1 21 2 19 3 20 4 18 5 13 6 14 7 90 8 15 9 16 10 17 11
REMARK SMILES IDX 12 12 9 13 10 14 91 15 11 16 8 17 4 18 5 19 95 20 6 21 7 22
REMARK SMILES IDX 94 23 96 24 92 25 93 27 3 28 2 29 1 30 23 31 24 32 25 33
REMARK SMILES IDX 26 34 27 35 28 36 89 37 29 38 88 39 30 40 31 41 32 42 82 43
REMARK SMILES IDX 33 44 87 45 81 46 83 47 34 48 86 49 80 50 79 51 35 53 67 54
REMARK SMILES IDX 47 55 66 56 48 57 51 58 65 59 84 60 49 61 50 62 64 64 85 65
REMARK SMILES IDX 52 66 36 67 37 68 45 69 38 70 39 71 43 72 46 73 40 74 41 75
REMARK SMILES IDX 44 76 42 77 68 78 69 79 77 80 70 81 71 82 75 83 78 84 72 85
REMARK SMILES IDX 73 86 76 87 74 88 53 89 54 90 62 91 55 92 56 93 60 94 63 95
REMARK SMILES IDX 57 96 58 97 61 98 59 99
REMARK H PARENT 94 26 83 52 51 63
REMARK Flexibility Score: inf
ROOT
ATOM      1  C   UNL A   1      31.027  30.345  24.961  1.00  0.00     0.275 C 
ENDROOT
BRANCH   1   2
ATOM      2  O   UNL A   1      31.574  29.690  23.797  1.00  0.00    -0.458 OA
BRANCH   2   3
ATOM      3  C   UNL A   1      30.703  29.291  22.840  1.00  0.00     0.339 C 
ATOM      4  O   UNL A   1      30.583  29.774  21.723  1.00  0.00    -0.246 OA
BRANCH   3   5
ATOM      5  C   UNL A   1      29.983  28.060  23.249  1.00  0.00     0.079 A 
ATOM      6  C   UNL A   1      30.188  25.693  23.872  1.00  0.00     0.018 A 
ATOM      7  C   UNL A   1      28.803  25.649  24.056  1.00  0.00     0.013 A 
ATOM      8  C   UNL A   1      30.756  26.892  23.431  1.00  0.00     0.029 A 
ATOM      9  C   UNL A   1      28.013  26.783  23.818  1.00  0.00     0.022 A 
ATOM     10  C   UNL A   1      28.598  27.991  23.416  1.00  0.00     0.055 A 
ATOM     11  Cl  UNL A   1      27.529  29.298  23.049  1.00  0.00    -0.083 Cl
BRANCH   6  12
ATOM     12  C   UNL A   1      31.003  24.493  24.026  1.00  0.00     0.134 A 
ATOM     13  C   UNL A   1      32.848  23.264  23.758  1.00  0.00     0.128 A 
ATOM     14  C   UNL A   1      31.915  22.508  24.461  1.00  0.00     0.051 A 
ATOM     15  O   UNL A   1      32.267  24.496  23.496  1.00  0.00    -0.457 OA
ATOM     16  C   UNL A   1      30.753  23.287  24.636  1.00  0.00     0.051 A 
BRANCH  13  17
ATOM     17  C   UNL A   1      34.193  22.889  23.454  1.00  0.00     0.066 C 
ATOM     18  N   UNL A   1      37.544  22.339  24.799  1.00  0.00    -0.281 N 
ATOM     19  C   UNL A   1      36.611  22.799  23.852  1.00  0.00     0.266 C 
ATOM     20  C   UNL A   1      37.418  23.091  25.934  1.00  0.00     0.183 C 
ATOM     21  O   UNL A   1      36.922  23.124  22.710  1.00  0.00    -0.268 OA
ATOM     22  C   UNL A   1      35.188  22.846  24.363  1.00  0.00     0.109 C 
ATOM     23  N   UNL A   1      36.180  23.098  26.524  1.00  0.00    -0.298 N 
ATOM     24  S   UNL A   1      38.508  24.276  26.414  1.00  0.00    -0.040 S 
ATOM     25  C   UNL A   1      35.005  22.898  25.843  1.00  0.00     0.263 C 
ATOM     26  H   UNL A   1      36.131  23.257  27.494  1.00  0.00     0.172 HD
ATOM     27  O   UNL A   1      33.929  22.845  26.421  1.00  0.00    -0.269 OA
BRANCH  18  28
ATOM     28  C   UNL A   1      37.507  20.845  24.722  1.00  0.00     0.155 C 
BRANCH  28  29
ATOM     29  C   UNL A   1      36.402  19.671  24.952  1.00  0.00    -0.013 C 
ATOM     30  C   UNL A   1      35.054  19.552  24.848  1.00  0.00     0.006 C 
ENDBRANCH  28  29
ENDBRANCH  18  28
ENDBRANCH  13  17
ENDBRANCH   6  12
ENDBRANCH   3   5
ENDBRANCH   2   3
ENDBRANCH   1   2
BRANCH   1  31
ATOM     31  C   UNL A   1      31.796  29.945  26.220  1.00  0.00     0.275 C 
BRANCH  31  32
ATOM     32  O   UNL A   1      33.158  30.397  26.132  1.00  0.00    -0.458 OA
BRANCH  32  33
ATOM     33  C   UNL A   1      33.494  31.347  27.032  1.00  0.00     0.338 C 
ATOM     34  O   UNL A   1      32.818  32.271  27.445  1.00  0.00    -0.246 OA
BRANCH  33  35
ATOM     35  C   UNL A   1      34.828  31.047  27.557  1.00  0.00     0.060 A 
ATOM     36  C   UNL A   1      35.140  29.713  27.804  1.00  0.00     0.016 A 
ATOM     37  C   UNL A   1      35.701  32.059  27.931  1.00  0.00     0.016 A 
ATOM     38  C   UNL A   1      36.282  29.375  28.519  1.00  0.00     0.010 A 
ATOM     39  C   UNL A   1      36.900  31.716  28.556  1.00  0.00     0.010 A 
ATOM     40  C   UNL A   1      37.184  30.377  28.889  1.00  0.00    -0.014 A 
BRANCH  40  41
ATOM     41  C   UNL A   1      38.426  30.063  29.643  1.00  0.00     0.031 A 
ATOM     42  C   UNL A   1      38.424  30.656  31.136  1.00  0.00     0.074 A 
ATOM     43  C   UNL A   1      39.363  29.256  28.997  1.00  0.00     0.049 A 
ATOM     44  N   UNL A   1      39.264  30.362  32.078  1.00  0.00    -0.248 NA
ATOM     45  C   UNL A   1      37.425  31.568  31.721  1.00  0.00     0.031 C 
ATOM     46  C   UNL A   1      39.182  28.488  27.743  1.00  0.00     0.029 A 
ATOM     47  N   UNL A   1      40.656  28.840  29.305  1.00  0.00    -0.354 N 
ATOM     48  C   UNL A   1      39.036  30.931  33.303  1.00  0.00     0.074 A 
ATOM     49  C   UNL A   1      37.830  31.707  33.004  1.00  0.00     0.031 C 
ATOM     50  C   UNL A   1      40.221  27.636  27.545  1.00  0.00     0.029 A 
ATOM     51  C   UNL A   1      41.215  27.787  28.611  1.00  0.00     0.049 A 
ATOM     52  H   UNL A   1      41.168  29.293  30.014  1.00  0.00     0.167 HD
ATOM     53  C   UNL A   1      39.797  30.812  34.465  1.00  0.00     0.037 A 
ATOM     54  C   UNL A   1      42.363  27.059  28.827  1.00  0.00     0.037 A 
ATOM     55  C   UNL A   1      41.164  30.138  34.701  1.00  0.00     0.049 A 
ATOM     56  C   UNL A   1      43.235  27.076  30.136  1.00  0.00     0.074 A 
ATOM     57  C   UNL A   1      42.278  30.636  35.385  1.00  0.00     0.029 A 
ATOM     58  N   UNL A   1      41.616  28.788  34.475  1.00  0.00    -0.354 N 
ATOM     59  N   UNL A   1      42.876  27.462  31.327  1.00  0.00    -0.248 NA
ATOM     60  C   UNL A   1      44.580  26.485  30.201  1.00  0.00     0.031 C 
ATOM     61  C   UNL A   1      43.413  29.805  35.148  1.00  0.00     0.029 A 
ATOM     62  C   UNL A   1      43.038  28.728  34.349  1.00  0.00     0.049 A 
ATOM     63  H   UNL A   1      41.020  28.007  34.415  1.00  0.00     0.167 HD
ATOM     64  C   UNL A   1      43.873  27.293  32.283  1.00  0.00     0.074 A 
ATOM     65  C   UNL A   1      44.889  26.574  31.509  1.00  0.00     0.031 C 
ATOM     66  C   UNL A   1      43.936  27.745  33.604  1.00  0.00     0.037 A 
BRANCH  53  67
ATOM     67  C   UNL A   1      39.342  31.763  35.535  1.00  0.00     0.064 A 
ATOM     68  C   UNL A   1      38.425  31.399  36.528  1.00  0.00     0.173 A 
ATOM     69  C   UNL A   1      39.817  33.086  35.538  1.00  0.00     0.173 A 
ATOM     70  F   UNL A   1      37.892  30.169  36.538  1.00  0.00    -0.203 F 
ATOM     71  C   UNL A   1      38.015  32.321  37.493  1.00  0.00     0.198 A 
ATOM     72  C   UNL A   1      39.435  33.991  36.521  1.00  0.00     0.198 A 
ATOM     73  F   UNL A   1      40.655  33.506  34.577  1.00  0.00    -0.203 F 
ATOM     74  F   UNL A   1      37.105  31.970  38.412  1.00  0.00    -0.200 F 
ATOM     75  C   UNL A   1      38.531  33.610  37.497  1.00  0.00     0.200 A 
ATOM     76  F   UNL A   1      39.936  35.235  36.514  1.00  0.00    -0.200 F 
ATOM     77  F   UNL A   1      38.141  34.491  38.429  1.00  0.00    -0.200 F 
ENDBRANCH  53  67
BRANCH  54  78
ATOM     78  C   UNL A   1      42.783  26.089  27.770  1.00  0.00     0.064 A 
ATOM     79  C   UNL A   1      42.308  24.771  27.758  1.00  0.00     0.173 A 
ATOM     80  C   UNL A   1      43.701  26.450  26.771  1.00  0.00     0.173 A 
ATOM     81  F   UNL A   1      41.422  24.371  28.679  1.00  0.00    -0.203 F 
ATOM     82  C   UNL A   1      42.747  23.848  26.809  1.00  0.00     0.198 A 
ATOM     83  C   UNL A   1      44.114  25.537  25.800  1.00  0.00     0.198 A 
ATOM     84  F   UNL A   1      44.200  27.694  26.736  1.00  0.00    -0.203 F 
ATOM     85  F   UNL A   1      42.307  22.583  26.855  1.00  0.00    -0.200 F 
ATOM     86  C   UNL A   1      43.646  24.233  25.827  1.00  0.00     0.200 A 
ATOM     87  F   UNL A   1      44.972  25.920  24.845  1.00  0.00    -0.200 F 
ATOM     88  F   UNL A   1      44.063  23.349  24.911  1.00  0.00    -0.200 F 
ENDBRANCH  54  78
BRANCH  66  89
ATOM     89  C   UNL A   1      45.237  27.453  34.302  1.00  0.00     0.064 A 
ATOM     90  C   UNL A   1      45.422  26.297  35.080  1.00  0.00     0.173 A 
ATOM     91  C   UNL A   1      46.341  28.294  34.112  1.00  0.00     0.173 A 
ATOM     92  F   UNL A   1      44.413  25.429  35.256  1.00  0.00    -0.203 F 
ATOM     93  C   UNL A   1      46.638  26.033  35.701  1.00  0.00     0.198 A 
ATOM     94  C   UNL A   1      47.568  28.012  34.712  1.00  0.00     0.198 A 
ATOM     95  F   UNL A   1      46.234  29.384  33.337  1.00  0.00    -0.203 F 
ATOM     96  F   UNL A   1      46.770  24.952  36.484  1.00  0.00    -0.200 F 
ATOM     97  C   UNL A   1      47.711  26.890  35.517  1.00  0.00     0.200 A 
ATOM     98  F   UNL A   1      48.613  28.824  34.509  1.00  0.00    -0.200 F 
ATOM     99  F   UNL A   1      48.884  26.634  36.111  1.00  0.00    -0.200 F 
ENDBRANCH  66  89
ENDBRANCH  40  41
ENDBRANCH  33  35
ENDBRANCH  32  33
ENDBRANCH  31  32
ENDBRANCH   1  31
TORSDOF 15
ENDMDL
