MODEL 1
REMARK VINA RESULT:     -12.9      0.000      0.000
REMARK SMILES Cc1noc(C)c1[C@H](C)NC(=O)NC[C@@](C)(O)C(=O)OCCOC(=O)c1ccc(-c2c3nc(c(-c4c(F)c(F)c(F)c(F)c4F)c4ccc([nH]4)c(-c4c(F)c(F)c(F)c(F)c4F)c4nc(c(-c5c(F)c(F)c(F)c(F)c5F)c5ccc2[nH]5)C=C4)C=C3)cc1
REMARK SMILES IDX 21 1 20 2 18 3 19 4 15 5 16 6 14 7 13 8 10 9 11 10 12 12
REMARK SMILES IDX 8 14 9 15 7 16 1 17 2 18 3 19 4 20 5 21 6 22 17 23 22 25
REMARK SMILES IDX 23 26 24 27 25 28 26 29 27 30 88 31 28 32 87 33 29 34 30 35
REMARK SMILES IDX 31 36 81 37 32 38 86 39 80 40 82 41 33 42 85 43 79 44 78 45
REMARK SMILES IDX 34 47 66 48 46 49 65 50 47 51 50 52 64 53 83 54 48 55 49 56
REMARK SMILES IDX 63 58 84 59 51 60 35 61 36 62 44 63 37 64 38 65 42 66 45 67
REMARK SMILES IDX 39 68 40 69 43 70 41 71 67 72 68 73 76 74 69 75 70 76 74 77
REMARK SMILES IDX 77 78 71 79 72 80 75 81 73 82 52 83 53 84 61 85 54 86 55 87
REMARK SMILES IDX 59 88 62 89 56 90 57 91 60 92 58 93
REMARK H PARENT 10 11 13 13 17 24 82 46 50 57
REMARK Flexibility Score: inf
ROOT
ATOM      1  C   UNL A   1      47.788  21.293  37.806  1.00  0.00     0.274 C 
ENDROOT
BRANCH   1   2
ATOM      2  O   UNL A   1      46.983  20.169  38.235  1.00  0.00    -0.460 OA
BRANCH   2   3
ATOM      3  C   UNL A   1      47.478  19.389  39.251  1.00  0.00     0.339 C 
ATOM      4  O   UNL A   1      48.571  18.841  39.225  1.00  0.00    -0.249 OA
BRANCH   3   5
ATOM      5  C   UNL A   1      46.454  19.319  40.419  1.00  0.00     0.176 C 
ATOM      6  C   UNL A   1      47.216  18.623  41.552  1.00  0.00     0.057 C 
BRANCH   5   7
ATOM      7  C   UNL A   1      45.894  20.694  40.911  1.00  0.00     0.164 C 
BRANCH   7   8
ATOM      8  N   UNL A   1      44.847  20.714  41.939  1.00  0.00    -0.335 N 
ATOM      9  N   UNL A   1      44.209  18.643  43.181  1.00  0.00    -0.331 N 
ATOM     10  C   UNL A   1      44.351  20.006  42.943  1.00  0.00     0.315 C 
ATOM     11  H   UNL A   1      44.047  18.637  44.152  1.00  0.00     0.165 HD
ATOM     12  O   UNL A   1      43.826  20.717  43.819  1.00  0.00    -0.249 OA
ATOM     13  H   UNL A   1      44.331  21.548  41.852  1.00  0.00     0.165 HD
BRANCH   9  14
ATOM     14  C   UNL A   1      44.128  16.600  42.746  1.00  0.00     0.116 C 
ATOM     15  C   UNL A   1      44.934  15.344  43.643  1.00  0.00     0.036 C 
BRANCH  14  16
ATOM     16  C   UNL A   1      42.987  15.663  41.616  1.00  0.00     0.040 A 
ATOM     17  C   UNL A   1      43.450  15.908  38.806  1.00  0.00     0.071 C 
ATOM     18  C   UNL A   1      42.941  15.375  40.116  1.00  0.00     0.086 A 
ATOM     19  N   UNL A   1      42.127  14.352  39.850  1.00  0.00    -0.085 NA
ATOM     20  O   UNL A   1      41.569  13.979  41.000  1.00  0.00    -0.361 OA
ATOM     21  C   UNL A   1      41.998  14.731  42.034  1.00  0.00     0.139 A 
ATOM     22  C   UNL A   1      41.274  14.257  43.237  1.00  0.00     0.091 C 
ENDBRANCH  14  16
ENDBRANCH   9  14
ENDBRANCH   7   8
ENDBRANCH   5   7
BRANCH   5  23
ATOM     23  O   UNL A   1      45.325  18.465  40.169  1.00  0.00    -0.377 OA
ATOM     24  H   UNL A   1      45.238  17.825  40.892  1.00  0.00     0.212 HD
ENDBRANCH   5  23
ENDBRANCH   3   5
ENDBRANCH   2   3
ENDBRANCH   1   2
BRANCH   1  25
ATOM     25  C   UNL A   1      47.130  21.968  36.603  1.00  0.00     0.275 C 
BRANCH  25  26
ATOM     26  O   UNL A   1      47.776  23.235  36.419  1.00  0.00    -0.458 OA
BRANCH  26  27
ATOM     27  C   UNL A   1      47.044  24.275  36.828  1.00  0.00     0.338 C 
ATOM     28  O   UNL A   1      47.087  24.816  37.926  1.00  0.00    -0.246 OA
BRANCH  27  29
ATOM     29  C   UNL A   1      46.175  24.826  35.786  1.00  0.00     0.060 A 
ATOM     30  C   UNL A   1      46.558  26.581  35.416  1.00  0.00     0.016 A 
ATOM     31  C   UNL A   1      44.514  24.198  35.362  1.00  0.00     0.016 A 
ATOM     32  C   UNL A   1      45.327  27.626  34.599  1.00  0.00     0.010 A 
ATOM     33  C   UNL A   1      43.226  25.323  34.748  1.00  0.00     0.010 A 
ATOM     34  C   UNL A   1      43.648  27.024  34.338  1.00  0.00    -0.014 A 
BRANCH  34  35
ATOM     35  C   UNL A   1      42.677  27.905  33.616  1.00  0.00     0.031 A 
ATOM     36  C   UNL A   1      42.566  27.844  32.124  1.00  0.00     0.074 A 
ATOM     37  C   UNL A   1      41.866  28.756  34.267  1.00  0.00     0.049 A 
ATOM     38  N   UNL A   1      41.569  28.127  31.329  1.00  0.00    -0.248 NA
ATOM     39  C   UNL A   1      43.752  27.353  31.429  1.00  0.00     0.031 C 
ATOM     40  C   UNL A   1      41.877  29.025  35.696  1.00  0.00     0.029 A 
ATOM     41  N   UNL A   1      40.875  29.580  33.788  1.00  0.00    -0.354 N 
ATOM     42  C   UNL A   1      41.962  27.689  30.070  1.00  0.00     0.074 A 
ATOM     43  C   UNL A   1      43.300  27.161  30.197  1.00  0.00     0.031 C 
ATOM     44  C   UNL A   1      40.969  29.970  35.984  1.00  0.00     0.029 A 
ATOM     45  C   UNL A   1      40.290  30.358  34.756  1.00  0.00     0.049 A 
ATOM     46  H   UNL A   1      40.610  29.607  32.840  1.00  0.00     0.167 HD
ATOM     47  C   UNL A   1      41.275  27.751  28.905  1.00  0.00     0.037 A 
ATOM     48  C   UNL A   1      39.310  31.275  34.661  1.00  0.00     0.037 A 
ATOM     49  C   UNL A   1      40.092  28.552  28.738  1.00  0.00     0.049 A 
ATOM     50  C   UNL A   1      38.622  31.456  33.337  1.00  0.00     0.074 A 
ATOM     51  C   UNL A   1      39.344  28.776  27.598  1.00  0.00     0.029 A 
ATOM     52  N   UNL A   1      39.552  29.351  29.738  1.00  0.00    -0.354 N 
ATOM     53  N   UNL A   1      38.859  30.859  32.192  1.00  0.00    -0.248 NA
ATOM     54  C   UNL A   1      37.505  32.406  33.300  1.00  0.00     0.031 C 
ATOM     55  C   UNL A   1      38.409  29.778  27.886  1.00  0.00     0.029 A 
ATOM     56  C   UNL A   1      38.517  30.113  29.227  1.00  0.00     0.049 A 
ATOM     57  H   UNL A   1      39.860  29.372  30.672  1.00  0.00     0.167 HD
ATOM     58  C   UNL A   1      37.906  31.340  31.305  1.00  0.00     0.074 A 
ATOM     59  C   UNL A   1      37.074  32.259  32.056  1.00  0.00     0.031 C 
ATOM     60  C   UNL A   1      37.727  31.047  29.991  1.00  0.00     0.037 A 
BRANCH  47  61
ATOM     61  C   UNL A   1      41.823  26.996  27.727  1.00  0.00     0.064 A 
ATOM     62  C   UNL A   1      42.746  27.597  26.853  1.00  0.00     0.173 A 
ATOM     63  C   UNL A   1      41.479  25.657  27.490  1.00  0.00     0.173 A 
ATOM     64  F   UNL A   1      43.099  28.880  27.023  1.00  0.00    -0.203 F 
ATOM     65  C   UNL A   1      43.299  26.887  25.788  1.00  0.00     0.198 A 
ATOM     66  C   UNL A   1      42.048  24.945  26.434  1.00  0.00     0.198 A 
ATOM     67  F   UNL A   1      40.596  25.036  28.284  1.00  0.00    -0.203 F 
ATOM     68  F   UNL A   1      44.159  27.491  24.957  1.00  0.00    -0.200 F 
ATOM     69  C   UNL A   1      42.956  25.560  25.585  1.00  0.00     0.200 A 
ATOM     70  F   UNL A   1      41.717  23.662  26.240  1.00  0.00    -0.200 F 
ATOM     71  F   UNL A   1      43.493  24.875  24.566  1.00  0.00    -0.200 F 
ENDBRANCH  47  61
BRANCH  48  72
ATOM     72  C   UNL A   1      38.912  32.047  35.869  1.00  0.00     0.064 A 
ATOM     73  C   UNL A   1      38.104  31.487  36.866  1.00  0.00     0.173 A 
ATOM     74  C   UNL A   1      39.364  33.363  36.062  1.00  0.00     0.173 A 
ATOM     75  F   UNL A   1      37.632  30.240  36.724  1.00  0.00    -0.203 F 
ATOM     76  C   UNL A   1      37.750  32.215  38.002  1.00  0.00     0.198 A 
ATOM     77  C   UNL A   1      39.036  34.079  37.212  1.00  0.00     0.198 A 
ATOM     78  F   UNL A   1      40.144  33.948  35.141  1.00  0.00    -0.203 F 
ATOM     79  F   UNL A   1      36.944  31.668  38.921  1.00  0.00    -0.200 F 
ATOM     80  C   UNL A   1      38.223  33.507  38.178  1.00  0.00     0.200 A 
ATOM     81  F   UNL A   1      39.509  35.321  37.385  1.00  0.00    -0.200 F 
ATOM     82  F   UNL A   1      37.893  34.201  39.276  1.00  0.00    -0.200 F 
ENDBRANCH  48  72
BRANCH  60  83
ATOM     83  C   UNL A   1      36.584  31.727  29.296  1.00  0.00     0.064 A 
ATOM     84  C   UNL A   1      36.605  33.101  29.010  1.00  0.00     0.173 A 
ATOM     85  C   UNL A   1      35.454  30.992  28.907  1.00  0.00     0.173 A 
ATOM     86  F   UNL A   1      37.659  33.850  29.368  1.00  0.00    -0.203 F 
ATOM     87  C   UNL A   1      35.513  33.722  28.411  1.00  0.00     0.198 A 
ATOM     88  C   UNL A   1      34.382  31.609  28.271  1.00  0.00     0.198 A 
ATOM     89  F   UNL A   1      35.391  29.673  29.144  1.00  0.00    -0.203 F 
ATOM     90  F   UNL A   1      35.523  35.048  28.218  1.00  0.00    -0.200 F 
ATOM     91  C   UNL A   1      34.406  32.975  28.038  1.00  0.00     0.200 A 
ATOM     92  F   UNL A   1      33.322  30.882  27.893  1.00  0.00    -0.200 F 
ATOM     93  F   UNL A   1      33.354  33.576  27.465  1.00  0.00    -0.200 F 
ENDBRANCH  60  83
ENDBRANCH  34  35
ENDBRANCH  27  29
ENDBRANCH  26  27
ENDBRANCH  25  26
ENDBRANCH   1  25
TORSDOF 16
ENDMDL
MODEL 2
REMARK VINA RESULT:     -12.7      6.636     11.229
REMARK SMILES Cc1noc(C)c1[C@H](C)NC(=O)NC[C@@](C)(O)C(=O)OCCOC(=O)c1ccc(-c2c3nc(c(-c4c(F)c(F)c(F)c(F)c4F)c4ccc([nH]4)c(-c4c(F)c(F)c(F)c(F)c4F)c4nc(c(-c5c(F)c(F)c(F)c(F)c5F)c5ccc2[nH]5)C=C4)C=C3)cc1
REMARK SMILES IDX 21 1 20 2 18 3 19 4 15 5 16 6 14 7 13 8 10 9 11 10 12 12
REMARK SMILES IDX 8 14 9 15 7 16 1 17 2 18 3 19 4 20 5 21 6 22 17 23 22 25
REMARK SMILES IDX 23 26 24 27 25 28 26 29 27 30 88 31 28 32 87 33 29 34 30 35
REMARK SMILES IDX 31 36 81 37 32 38 86 39 80 40 82 41 33 42 85 43 79 44 78 45
REMARK SMILES IDX 34 47 66 48 46 49 65 50 47 51 50 52 64 53 83 54 48 55 49 56
REMARK SMILES IDX 63 58 84 59 51 60 35 61 36 62 44 63 37 64 38 65 42 66 45 67
REMARK SMILES IDX 39 68 40 69 43 70 41 71 67 72 68 73 76 74 69 75 70 76 74 77
REMARK SMILES IDX 77 78 71 79 72 80 75 81 73 82 52 83 53 84 61 85 54 86 55 87
REMARK SMILES IDX 59 88 62 89 56 90 57 91 60 92 58 93
REMARK H PARENT 10 11 13 13 17 24 82 46 50 57
REMARK Flexibility Score: inf
ROOT
ATOM      1  C   UNL A   1      45.381  20.899  25.745  1.00  0.00     0.274 C 
ENDROOT
BRANCH   1   2
ATOM      2  O   UNL A   1      43.940  20.895  25.606  1.00  0.00    -0.460 OA
BRANCH   2   3
ATOM      3  C   UNL A   1      43.341  19.706  25.274  1.00  0.00     0.339 C 
ATOM      4  O   UNL A   1      43.640  19.037  24.295  1.00  0.00    -0.249 OA
BRANCH   3   5
ATOM      5  C   UNL A   1      42.248  19.348  26.320  1.00  0.00     0.176 C 
ATOM      6  C   UNL A   1      42.841  18.170  27.102  1.00  0.00     0.057 C 
BRANCH   5   7
ATOM      7  C   UNL A   1      41.846  20.498  27.300  1.00  0.00     0.164 C 
BRANCH   7   8
ATOM      8  N   UNL A   1      41.420  21.790  26.752  1.00  0.00    -0.335 N 
ATOM      9  N   UNL A   1      39.059  22.179  26.032  1.00  0.00    -0.331 N 
ATOM     10  C   UNL A   1      40.339  22.503  26.470  1.00  0.00     0.315 C 
ATOM     11  H   UNL A   1      38.573  23.010  26.239  1.00  0.00     0.165 HD
ATOM     12  O   UNL A   1      40.543  23.729  26.530  1.00  0.00    -0.249 OA
ATOM     13  H   UNL A   1      42.218  22.311  26.507  1.00  0.00     0.165 HD
BRANCH   9  14
ATOM     14  C   UNL A   1      37.532  21.013  25.207  1.00  0.00     0.116 C 
ATOM     15  C   UNL A   1      37.654  19.322  24.812  1.00  0.00     0.036 C 
BRANCH  14  16
ATOM     16  C   UNL A   1      35.715  21.368  25.042  1.00  0.00     0.040 A 
ATOM     17  C   UNL A   1      33.985  19.131  24.626  1.00  0.00     0.071 C 
ATOM     18  C   UNL A   1      34.446  20.520  24.968  1.00  0.00     0.086 A 
ATOM     19  N   UNL A   1      33.363  21.256  25.224  1.00  0.00    -0.085 NA
ATOM     20  O   UNL A   1      33.766  22.515  25.385  1.00  0.00    -0.361 OA
ATOM     21  C   UNL A   1      35.103  22.636  25.245  1.00  0.00     0.139 A 
ATOM     22  C   UNL A   1      35.420  24.075  25.393  1.00  0.00     0.091 C 
ENDBRANCH  14  16
ENDBRANCH   9  14
ENDBRANCH   7   8
ENDBRANCH   5   7
BRANCH   5  23
ATOM     23  O   UNL A   1      41.033  18.826  25.755  1.00  0.00    -0.377 OA
ATOM     24  H   UNL A   1      40.694  18.114  26.319  1.00  0.00     0.212 HD
ENDBRANCH   5  23
ENDBRANCH   3   5
ENDBRANCH   2   3
ENDBRANCH   1   2
BRANCH   1  25
ATOM     25  C   UNL A   1      45.992  21.876  24.742  1.00  0.00     0.275 C 
BRANCH  25  26
ATOM     26  O   UNL A   1      46.538  22.970  25.491  1.00  0.00    -0.458 OA
BRANCH  26  27
ATOM     27  C   UNL A   1      45.848  24.107  25.362  1.00  0.00     0.338 C 
ATOM     28  O   UNL A   1      45.435  24.600  24.321  1.00  0.00    -0.246 OA
BRANCH  27  29
ATOM     29  C   UNL A   1      45.516  24.739  26.641  1.00  0.00     0.060 A 
ATOM     30  C   UNL A   1      43.963  24.081  27.362  1.00  0.00     0.016 A 
ATOM     31  C   UNL A   1      46.083  26.390  27.175  1.00  0.00     0.016 A 
ATOM     32  C   UNL A   1      43.066  25.037  28.610  1.00  0.00     0.010 A 
ATOM     33  C   UNL A   1      45.050  27.420  28.258  1.00  0.00     0.010 A 
ATOM     34  C   UNL A   1      43.563  26.726  28.997  1.00  0.00    -0.014 A 
BRANCH  34  35
ATOM     35  C   UNL A   1      42.821  27.462  30.069  1.00  0.00     0.031 A 
ATOM     36  C   UNL A   1      43.302  27.420  31.486  1.00  0.00     0.074 A 
ATOM     37  C   UNL A   1      41.725  28.192  29.804  1.00  0.00     0.049 A 
ATOM     38  N   UNL A   1      43.146  28.267  32.467  1.00  0.00    -0.248 NA
ATOM     39  C   UNL A   1      44.115  26.259  31.836  1.00  0.00     0.031 C 
ATOM     40  C   UNL A   1      41.053  28.293  28.519  1.00  0.00     0.029 A 
ATOM     41  N   UNL A   1      40.964  28.982  30.633  1.00  0.00    -0.354 N 
ATOM     42  C   UNL A   1      43.978  27.815  33.485  1.00  0.00     0.074 A 
ATOM     43  C   UNL A   1      44.604  26.599  33.020  1.00  0.00     0.031 C 
ATOM     44  C   UNL A   1      39.962  29.065  28.640  1.00  0.00     0.029 A 
ATOM     45  C   UNL A   1      39.872  29.537  30.014  1.00  0.00     0.049 A 
ATOM     46  H   UNL A   1      41.183  29.136  31.581  1.00  0.00     0.167 HD
ATOM     47  C   UNL A   1      44.177  28.354  34.711  1.00  0.00     0.037 A 
ATOM     48  C   UNL A   1      38.911  30.343  30.501  1.00  0.00     0.037 A 
ATOM     49  C   UNL A   1      43.322  29.369  35.265  1.00  0.00     0.049 A 
ATOM     50  C   UNL A   1      39.043  30.847  31.911  1.00  0.00     0.074 A 
ATOM     51  C   UNL A   1      43.353  29.946  36.521  1.00  0.00     0.029 A 
ATOM     52  N   UNL A   1      42.206  29.880  34.615  1.00  0.00    -0.354 N 
ATOM     53  N   UNL A   1      39.974  30.586  32.800  1.00  0.00    -0.248 NA
ATOM     54  C   UNL A   1      38.017  31.788  32.373  1.00  0.00     0.031 C 
ATOM     55  C   UNL A   1      42.205  30.735  36.661  1.00  0.00     0.029 A 
ATOM     56  C   UNL A   1      41.508  30.721  35.463  1.00  0.00     0.049 A 
ATOM     57  H   UNL A   1      41.950  29.676  33.687  1.00  0.00     0.167 HD
ATOM     58  C   UNL A   1      39.662  31.349  33.917  1.00  0.00     0.074 A 
ATOM     59  C   UNL A   1      38.469  32.101  33.579  1.00  0.00     0.031 C 
ATOM     60  C   UNL A   1      40.303  31.430  35.111  1.00  0.00     0.037 A 
BRANCH  47  61
ATOM     61  C   UNL A   1      45.305  27.809  35.541  1.00  0.00     0.064 A 
ATOM     62  C   UNL A   1      46.576  28.409  35.509  1.00  0.00     0.173 A 
ATOM     63  C   UNL A   1      45.118  26.726  36.412  1.00  0.00     0.173 A 
ATOM     64  F   UNL A   1      46.816  29.438  34.683  1.00  0.00    -0.203 F 
ATOM     65  C   UNL A   1      47.613  27.942  36.315  1.00  0.00     0.198 A 
ATOM     66  C   UNL A   1      46.153  26.274  37.229  1.00  0.00     0.198 A 
ATOM     67  F   UNL A   1      43.930  26.108  36.476  1.00  0.00    -0.203 F 
ATOM     68  F   UNL A   1      48.822  28.518  36.249  1.00  0.00    -0.200 F 
ATOM     69  C   UNL A   1      47.399  26.881  37.180  1.00  0.00     0.200 A 
ATOM     70  F   UNL A   1      45.944  25.249  38.067  1.00  0.00    -0.200 F 
ATOM     71  F   UNL A   1      48.394  26.438  37.960  1.00  0.00    -0.200 F 
ENDBRANCH  47  61
BRANCH  48  72
ATOM     72  C   UNL A   1      37.776  30.741  29.625  1.00  0.00     0.064 A 
ATOM     73  C   UNL A   1      36.750  29.845  29.299  1.00  0.00     0.173 A 
ATOM     74  C   UNL A   1      37.682  32.048  29.118  1.00  0.00     0.173 A 
ATOM     75  F   UNL A   1      36.799  28.580  29.744  1.00  0.00    -0.203 F 
ATOM     76  C   UNL A   1      35.682  30.233  28.491  1.00  0.00     0.198 A 
ATOM     77  C   UNL A   1      36.599  32.444  28.336  1.00  0.00     0.198 A 
ATOM     78  F   UNL A   1      38.634  32.948  29.402  1.00  0.00    -0.203 F 
ATOM     79  F   UNL A   1      34.735  29.344  28.163  1.00  0.00    -0.200 F 
ATOM     80  C   UNL A   1      35.603  31.534  28.017  1.00  0.00     0.200 A 
ATOM     81  F   UNL A   1      36.519  33.706  27.894  1.00  0.00    -0.200 F 
ATOM     82  F   UNL A   1      34.570  31.909  27.250  1.00  0.00    -0.200 F 
ENDBRANCH  48  72
BRANCH  60  83
ATOM     83  C   UNL A   1      39.723  32.368  36.128  1.00  0.00     0.064 A 
ATOM     84  C   UNL A   1      40.207  33.676  36.290  1.00  0.00     0.173 A 
ATOM     85  C   UNL A   1      38.666  31.953  36.951  1.00  0.00     0.173 A 
ATOM     86  F   UNL A   1      41.222  34.119  35.533  1.00  0.00    -0.203 F 
ATOM     87  C   UNL A   1      39.689  34.512  37.274  1.00  0.00     0.198 A 
ATOM     88  C   UNL A   1      38.123  32.807  37.906  1.00  0.00     0.198 A 
ATOM     89  F   UNL A   1      38.156  30.717  36.827  1.00  0.00    -0.203 F 
ATOM     90  F   UNL A   1      40.218  35.729  37.462  1.00  0.00    -0.200 F 
ATOM     91  C   UNL A   1      38.645  34.079  38.078  1.00  0.00     0.200 A 
ATOM     92  F   UNL A   1      37.101  32.392  38.668  1.00  0.00    -0.200 F 
ATOM     93  F   UNL A   1      38.151  34.884  39.027  1.00  0.00    -0.200 F 
ENDBRANCH  60  83
ENDBRANCH  34  35
ENDBRANCH  27  29
ENDBRANCH  26  27
ENDBRANCH  25  26
ENDBRANCH   1  25
TORSDOF 16
ENDMDL
MODEL 3
REMARK VINA RESULT:     -12.7      1.246      2.099
REMARK SMILES Cc1noc(C)c1[C@H](C)NC(=O)NC[C@@](C)(O)C(=O)OCCOC(=O)c1ccc(-c2c3nc(c(-c4c(F)c(F)c(F)c(F)c4F)c4ccc([nH]4)c(-c4c(F)c(F)c(F)c(F)c4F)c4nc(c(-c5c(F)c(F)c(F)c(F)c5F)c5ccc2[nH]5)C=C4)C=C3)cc1
REMARK SMILES IDX 21 1 20 2 18 3 19 4 15 5 16 6 14 7 13 8 10 9 11 10 12 12
REMARK SMILES IDX 8 14 9 15 7 16 1 17 2 18 3 19 4 20 5 21 6 22 17 23 22 25
REMARK SMILES IDX 23 26 24 27 25 28 26 29 27 30 88 31 28 32 87 33 29 34 30 35
REMARK SMILES IDX 31 36 81 37 32 38 86 39 80 40 82 41 33 42 85 43 79 44 78 45
REMARK SMILES IDX 34 47 66 48 46 49 65 50 47 51 50 52 64 53 83 54 48 55 49 56
REMARK SMILES IDX 63 58 84 59 51 60 35 61 36 62 44 63 37 64 38 65 42 66 45 67
REMARK SMILES IDX 39 68 40 69 43 70 41 71 67 72 68 73 76 74 69 75 70 76 74 77
REMARK SMILES IDX 77 78 71 79 72 80 75 81 73 82 52 83 53 84 61 85 54 86 55 87
REMARK SMILES IDX 59 88 62 89 56 90 57 91 60 92 58 93
REMARK H PARENT 10 11 13 13 17 24 82 46 50 57
REMARK Flexibility Score: inf
ROOT
ATOM      1  C   UNL A   1      48.291  21.043  36.615  1.00  0.00     0.274 C 
ENDROOT
BRANCH   1   2
ATOM      2  O   UNL A   1      48.277  19.955  37.569  1.00  0.00    -0.460 OA
BRANCH   2   3
ATOM      3  C   UNL A   1      47.064  19.599  38.103  1.00  0.00     0.339 C 
ATOM      4  O   UNL A   1      45.995  19.726  37.523  1.00  0.00    -0.249 OA
BRANCH   3   5
ATOM      5  C   UNL A   1      47.259  19.014  39.531  1.00  0.00     0.176 C 
ATOM      6  C   UNL A   1      46.451  19.948  40.439  1.00  0.00     0.057 C 
BRANCH   5   7
ATOM      7  C   UNL A   1      46.791  17.535  39.726  1.00  0.00     0.164 C 
BRANCH   7   8
ATOM      8  N   UNL A   1      45.537  17.094  39.108  1.00  0.00    -0.335 N 
ATOM      9  N   UNL A   1      43.632  16.259  40.492  1.00  0.00    -0.331 N 
ATOM     10  C   UNL A   1      44.272  16.813  39.389  1.00  0.00     0.315 C 
ATOM     11  H   UNL A   1      42.697  16.516  40.318  1.00  0.00     0.165 HD
ATOM     12  O   UNL A   1      43.510  17.012  38.426  1.00  0.00    -0.249 OA
ATOM     13  H   UNL A   1      45.686  16.958  38.144  1.00  0.00     0.165 HD
BRANCH   9  14
ATOM     14  C   UNL A   1      43.432  15.217  42.294  1.00  0.00     0.116 C 
ATOM     15  C   UNL A   1      43.655  15.894  43.883  1.00  0.00     0.036 C 
BRANCH  14  16
ATOM     16  C   UNL A   1      42.679  13.552  42.633  1.00  0.00     0.040 A 
ATOM     17  C   UNL A   1      43.321  12.318  45.131  1.00  0.00     0.071 C 
ATOM     18  C   UNL A   1      42.610  12.618  43.841  1.00  0.00     0.086 A 
ATOM     19  N   UNL A   1      41.644  11.711  43.689  1.00  0.00    -0.085 NA
ATOM     20  O   UNL A   1      41.114  11.892  42.482  1.00  0.00    -0.361 OA
ATOM     21  C   UNL A   1      41.706  12.908  41.821  1.00  0.00     0.139 A 
ATOM     22  C   UNL A   1      41.070  12.978  40.484  1.00  0.00     0.091 C 
ENDBRANCH  14  16
ENDBRANCH   9  14
ENDBRANCH   7   8
ENDBRANCH   5   7
BRANCH   5  23
ATOM     23  O   UNL A   1      48.604  19.105  40.031  1.00  0.00    -0.377 OA
ATOM     24  H   UNL A   1      49.213  19.266  39.294  1.00  0.00     0.212 HD
ENDBRANCH   5  23
ENDBRANCH   3   5
ENDBRANCH   2   3
ENDBRANCH   1   2
BRANCH   1  25
ATOM     25  C   UNL A   1      48.470  22.371  37.349  1.00  0.00     0.275 C 
BRANCH  25  26
ATOM     26  O   UNL A   1      48.025  23.410  36.468  1.00  0.00    -0.458 OA
BRANCH  26  27
ATOM     27  C   UNL A   1      46.980  24.099  36.934  1.00  0.00     0.338 C 
ATOM     28  O   UNL A   1      46.716  24.326  38.108  1.00  0.00    -0.246 OA
BRANCH  27  29
ATOM     29  C   UNL A   1      46.145  24.680  35.881  1.00  0.00     0.060 A 
ATOM     30  C   UNL A   1      46.519  26.453  35.594  1.00  0.00     0.016 A 
ATOM     31  C   UNL A   1      44.509  24.050  35.370  1.00  0.00     0.016 A 
ATOM     32  C   UNL A   1      45.306  27.514  34.771  1.00  0.00     0.010 A 
ATOM     33  C   UNL A   1      43.231  25.184  34.751  1.00  0.00     0.010 A 
ATOM     34  C   UNL A   1      43.646  26.904  34.423  1.00  0.00    -0.014 A 
BRANCH  34  35
ATOM     35  C   UNL A   1      42.692  27.801  33.698  1.00  0.00     0.031 A 
ATOM     36  C   UNL A   1      42.588  27.746  32.206  1.00  0.00     0.074 A 
ATOM     37  C   UNL A   1      41.890  28.661  34.348  1.00  0.00     0.049 A 
ATOM     38  N   UNL A   1      41.600  28.046  31.406  1.00  0.00    -0.248 NA
ATOM     39  C   UNL A   1      43.771  27.241  31.515  1.00  0.00     0.031 C 
ATOM     40  C   UNL A   1      41.897  28.925  35.778  1.00  0.00     0.029 A 
ATOM     41  N   UNL A   1      40.914  29.501  33.866  1.00  0.00    -0.354 N 
ATOM     42  C   UNL A   1      41.994  27.607  30.147  1.00  0.00     0.074 A 
ATOM     43  C   UNL A   1      43.324  27.058  30.280  1.00  0.00     0.031 C 
ATOM     44  C   UNL A   1      41.001  29.882  36.063  1.00  0.00     0.029 A 
ATOM     45  C   UNL A   1      40.335  30.284  34.833  1.00  0.00     0.049 A 
ATOM     46  H   UNL A   1      40.654  29.535  32.916  1.00  0.00     0.167 HD
ATOM     47  C   UNL A   1      41.315  27.682  28.979  1.00  0.00     0.037 A 
ATOM     48  C   UNL A   1      39.368  31.215  34.736  1.00  0.00     0.037 A 
ATOM     49  C   UNL A   1      40.144  28.501  28.808  1.00  0.00     0.049 A 
ATOM     50  C   UNL A   1      38.691  31.410  33.409  1.00  0.00     0.074 A 
ATOM     51  C   UNL A   1      39.405  28.739  27.665  1.00  0.00     0.029 A 
ATOM     52  N   UNL A   1      39.610  29.305  29.807  1.00  0.00    -0.354 N 
ATOM     53  N   UNL A   1      38.925  30.814  32.263  1.00  0.00    -0.248 NA
ATOM     54  C   UNL A   1      37.588  32.377  33.369  1.00  0.00     0.031 C 
ATOM     55  C   UNL A   1      38.483  29.754  27.951  1.00  0.00     0.029 A 
ATOM     56  C   UNL A   1      38.589  30.083  29.294  1.00  0.00     0.049 A 
ATOM     57  H   UNL A   1      39.913  29.318  30.743  1.00  0.00     0.167 HD
ATOM     58  C   UNL A   1      37.984  31.311  31.372  1.00  0.00     0.074 A 
ATOM     59  C   UNL A   1      37.161  32.240  32.121  1.00  0.00     0.031 C 
ATOM     60  C   UNL A   1      37.808  31.025  30.056  1.00  0.00     0.037 A 
BRANCH  47  61
ATOM     61  C   UNL A   1      41.858  26.923  27.801  1.00  0.00     0.064 A 
ATOM     62  C   UNL A   1      41.540  25.567  27.612  1.00  0.00     0.173 A 
ATOM     63  C   UNL A   1      42.651  27.548  26.829  1.00  0.00     0.173 A 
ATOM     64  F   UNL A   1      40.798  24.914  28.519  1.00  0.00    -0.203 F 
ATOM     65  C   UNL A   1      41.997  24.869  26.495  1.00  0.00     0.198 A 
ATOM     66  C   UNL A   1      43.092  26.850  25.704  1.00  0.00     0.198 A 
ATOM     67  F   UNL A   1      42.996  28.836  26.964  1.00  0.00    -0.203 F 
ATOM     68  F   UNL A   1      41.697  23.570  26.349  1.00  0.00    -0.200 F 
ATOM     69  C   UNL A   1      42.765  25.513  25.538  1.00  0.00     0.200 A 
ATOM     70  F   UNL A   1      43.833  27.475  24.779  1.00  0.00    -0.200 F 
ATOM     71  F   UNL A   1      43.198  24.844  24.461  1.00  0.00    -0.200 F 
ENDBRANCH  47  61
BRANCH  48  72
ATOM     72  C   UNL A   1      38.975  31.990  35.944  1.00  0.00     0.064 A 
ATOM     73  C   UNL A   1      38.137  31.444  36.926  1.00  0.00     0.173 A 
ATOM     74  C   UNL A   1      39.460  33.291  36.153  1.00  0.00     0.173 A 
ATOM     75  F   UNL A   1      37.634  30.211  36.767  1.00  0.00    -0.203 F 
ATOM     76  C   UNL A   1      37.788  32.173  38.062  1.00  0.00     0.198 A 
ATOM     77  C   UNL A   1      39.136  34.007  37.304  1.00  0.00     0.198 A 
ATOM     78  F   UNL A   1      40.268  33.861  35.247  1.00  0.00    -0.203 F 
ATOM     79  F   UNL A   1      36.954  31.642  38.966  1.00  0.00    -0.200 F 
ATOM     80  C   UNL A   1      38.294  33.450  38.255  1.00  0.00     0.200 A 
ATOM     81  F   UNL A   1      39.639  35.234  37.493  1.00  0.00    -0.200 F 
ATOM     82  F   UNL A   1      37.967  34.145  39.353  1.00  0.00    -0.200 F 
ENDBRANCH  48  72
BRANCH  60  83
ATOM     83  C   UNL A   1      36.679  31.724  29.357  1.00  0.00     0.064 A 
ATOM     84  C   UNL A   1      36.721  33.098  29.077  1.00  0.00     0.173 A 
ATOM     85  C   UNL A   1      35.541  31.007  28.959  1.00  0.00     0.173 A 
ATOM     86  F   UNL A   1      37.783  33.831  29.443  1.00  0.00    -0.203 F 
ATOM     87  C   UNL A   1      35.641  33.737  28.473  1.00  0.00     0.198 A 
ATOM     88  C   UNL A   1      34.482  31.641  28.319  1.00  0.00     0.198 A 
ATOM     89  F   UNL A   1      35.458  29.687  29.191  1.00  0.00    -0.203 F 
ATOM     90  F   UNL A   1      35.671  35.064  28.286  1.00  0.00    -0.200 F 
ATOM     91  C   UNL A   1      34.526  33.007  28.091  1.00  0.00     0.200 A 
ATOM     92  F   UNL A   1      33.414  30.931  27.933  1.00  0.00    -0.200 F 
ATOM     93  F   UNL A   1      33.486  33.626  27.514  1.00  0.00    -0.200 F 
ENDBRANCH  60  83
ENDBRANCH  34  35
ENDBRANCH  27  29
ENDBRANCH  26  27
ENDBRANCH  25  26
ENDBRANCH   1  25
TORSDOF 16
ENDMDL
