MODEL 1
REMARK VINA RESULT:     -12.5      0.000      0.000
REMARK SMILES Cc1ncccc1NC(=O)NC[C@H]1CCC[C@H]1C(=O)OCCOC(=O)c1ccc(-c2c3nc(c(-c4c(F)c(F)c(F)c(F)c4F)c4ccc([nH]4)c(-c4c(F)c(F)c(F)c(F)c4F)c4nc(c(-c5c(F)c(F)c(F)c(F)c5F)c5ccc2[nH]5)C=C4)C=C3)cc1
REMARK SMILES IDX 21 1 20 2 18 3 19 4 17 5 13 6 14 7 15 8 16 9 12 10 11 11
REMARK SMILES IDX 8 12 9 13 10 15 7 17 1 18 2 19 3 20 4 21 6 22 5 23 22 24
REMARK SMILES IDX 23 25 24 26 25 27 26 28 27 29 88 30 28 31 87 32 29 33 30 34
REMARK SMILES IDX 31 35 81 36 32 37 86 38 80 39 82 40 33 41 85 42 79 43 78 44
REMARK SMILES IDX 34 46 66 47 46 48 65 49 47 50 50 51 64 52 83 53 48 54 49 55
REMARK SMILES IDX 63 57 84 58 51 59 35 60 36 61 44 62 37 63 38 64 42 65 45 66
REMARK SMILES IDX 39 67 40 68 43 69 41 70 67 71 68 72 76 73 69 74 70 75 74 76
REMARK SMILES IDX 77 77 71 78 72 79 75 80 73 81 52 82 53 83 61 84 54 85 55 86
REMARK SMILES IDX 59 87 62 88 56 89 57 90 60 91 58 92
REMARK H PARENT 8 14 11 16 82 45 50 56
REMARK Flexibility Score: inf
ROOT
ATOM      1  C   UNL A   1      31.314  29.509  24.480  1.00  0.00     0.274 C 
ENDROOT
BRANCH   1   2
ATOM      2  O   UNL A   1      30.707  28.217  24.277  1.00  0.00    -0.462 OA
BRANCH   2   3
ATOM      3  C   UNL A   1      30.999  27.579  23.119  1.00  0.00     0.309 C 
ATOM      4  O   UNL A   1      30.465  27.814  22.042  1.00  0.00    -0.252 OA
BRANCH   3   5
ATOM      5  C   UNL A   1      32.096  26.541  23.263  1.00  0.00     0.104 C 
ATOM      6  C   UNL A   1      31.942  25.397  24.281  1.00  0.00     0.022 C 
ATOM      7  C   UNL A   1      33.150  24.530  23.925  1.00  0.00     0.006 C 
ATOM      8  C   UNL A   1      33.302  24.623  22.409  1.00  0.00     0.001 C 
ATOM      9  C   UNL A   1      32.519  25.863  21.966  1.00  0.00     0.016 C 
BRANCH   6  10
ATOM     10  C   UNL A   1      30.623  24.614  24.345  1.00  0.00     0.122 C 
BRANCH  10  11
ATOM     11  N   UNL A   1      30.194  24.166  25.651  1.00  0.00    -0.338 N 
ATOM     12  N   UNL A   1      31.216  22.218  26.629  1.00  0.00    -0.306 N 
ATOM     13  C   UNL A   1      30.388  23.251  26.577  1.00  0.00     0.319 C 
ATOM     14  H   UNL A   1      30.988  21.674  27.416  1.00  0.00     0.171 HD
ATOM     15  O   UNL A   1      29.621  23.344  27.550  1.00  0.00    -0.249 OA
ATOM     16  H   UNL A   1      29.490  24.777  25.967  1.00  0.00     0.165 HD
BRANCH  12  17
ATOM     17  C   UNL A   1      32.300  21.616  25.970  1.00  0.00     0.064 A 
ATOM     18  C   UNL A   1      33.957  22.526  27.734  1.00  0.00     0.069 C 
ATOM     19  C   UNL A   1      33.604  21.735  26.505  1.00  0.00     0.061 A 
ATOM     20  N   UNL A   1      34.700  21.150  25.938  1.00  0.00    -0.259 NA
ATOM     21  C   UNL A   1      34.529  20.448  24.806  1.00  0.00     0.111 A 
ATOM     22  C   UNL A   1      32.202  20.932  24.768  1.00  0.00     0.030 A 
ATOM     23  C   UNL A   1      33.310  20.318  24.184  1.00  0.00     0.022 A 
ENDBRANCH  12  17
ENDBRANCH  10  11
ENDBRANCH   6  10
ENDBRANCH   3   5
ENDBRANCH   2   3
ENDBRANCH   1   2
BRANCH   1  24
ATOM     24  C   UNL A   1      31.792  29.639  25.928  1.00  0.00     0.275 C 
BRANCH  24  25
ATOM     25  O   UNL A   1      33.108  30.226  25.969  1.00  0.00    -0.458 OA
BRANCH  25  26
ATOM     26  C   UNL A   1      33.302  31.198  26.886  1.00  0.00     0.338 C 
ATOM     27  O   UNL A   1      32.538  32.089  27.213  1.00  0.00    -0.246 OA
BRANCH  26  28
ATOM     28  C   UNL A   1      34.574  30.952  27.575  1.00  0.00     0.060 A 
ATOM     29  C   UNL A   1      34.867  29.646  27.972  1.00  0.00     0.016 A 
ATOM     30  C   UNL A   1      35.435  32.001  27.888  1.00  0.00     0.016 A 
ATOM     31  C   UNL A   1      36.025  29.374  28.688  1.00  0.00     0.010 A 
ATOM     32  C   UNL A   1      36.608  31.728  28.597  1.00  0.00     0.010 A 
ATOM     33  C   UNL A   1      36.903  30.415  29.004  1.00  0.00    -0.014 A 
BRANCH  33  34
ATOM     34  C   UNL A   1      38.118  30.128  29.796  1.00  0.00     0.031 A 
ATOM     35  C   UNL A   1      39.177  29.234  29.230  1.00  0.00     0.074 A 
ATOM     36  C   UNL A   1      38.265  30.686  31.011  1.00  0.00     0.049 A 
ATOM     37  N   UNL A   1      40.256  28.765  29.800  1.00  0.00    -0.248 NA
ATOM     38  C   UNL A   1      38.995  28.809  27.834  1.00  0.00     0.031 C 
ATOM     39  C   UNL A   1      37.326  31.624  31.628  1.00  0.00     0.029 A 
ATOM     40  N   UNL A   1      39.258  30.541  31.943  1.00  0.00    -0.354 N 
ATOM     41  C   UNL A   1      40.865  27.963  28.845  1.00  0.00     0.074 A 
ATOM     42  C   UNL A   1      40.035  28.006  27.660  1.00  0.00     0.031 C 
ATOM     43  C   UNL A   1      37.791  31.972  32.838  1.00  0.00     0.029 A 
ATOM     44  C   UNL A   1      39.027  31.242  33.101  1.00  0.00     0.049 A 
ATOM     45  H   UNL A   1      40.060  29.988  31.798  1.00  0.00     0.167 HD
ATOM     46  C   UNL A   1      42.010  27.251  28.958  1.00  0.00     0.037 A 
ATOM     47  C   UNL A   1      39.721  31.262  34.253  1.00  0.00     0.037 A 
ATOM     48  C   UNL A   1      42.837  27.233  30.137  1.00  0.00     0.049 A 
ATOM     49  C   UNL A   1      40.956  30.412  34.374  1.00  0.00     0.074 A 
ATOM     50  C   UNL A   1      44.028  26.563  30.349  1.00  0.00     0.029 A 
ATOM     51  N   UNL A   1      42.549  27.922  31.308  1.00  0.00    -0.354 N 
ATOM     52  N   UNL A   1      41.520  29.640  33.476  1.00  0.00    -0.248 NA
ATOM     53  C   UNL A   1      41.642  30.424  35.672  1.00  0.00     0.031 C 
ATOM     54  C   UNL A   1      44.441  26.814  31.663  1.00  0.00     0.029 A 
ATOM     55  C   UNL A   1      43.529  27.673  32.255  1.00  0.00     0.049 A 
ATOM     56  H   UNL A   1      41.765  28.500  31.445  1.00  0.00     0.167 HD
ATOM     57  C   UNL A   1      42.635  29.090  34.091  1.00  0.00     0.074 A 
ATOM     58  C   UNL A   1      42.675  29.627  35.437  1.00  0.00     0.031 C 
ATOM     59  C   UNL A   1      43.545  28.221  33.588  1.00  0.00     0.037 A 
BRANCH  46  60
ATOM     60  C   UNL A   1      42.407  26.397  27.791  1.00  0.00     0.064 A 
ATOM     61  C   UNL A   1      43.336  26.833  26.834  1.00  0.00     0.173 A 
ATOM     62  C   UNL A   1      41.850  25.120  27.631  1.00  0.00     0.173 A 
ATOM     63  F   UNL A   1      43.882  28.054  26.931  1.00  0.00    -0.203 F 
ATOM     64  C   UNL A   1      43.671  26.031  25.746  1.00  0.00     0.198 A 
ATOM     65  C   UNL A   1      42.205  24.311  26.556  1.00  0.00     0.198 A 
ATOM     66  F   UNL A   1      40.957  24.656  28.518  1.00  0.00    -0.203 F 
ATOM     67  F   UNL A   1      44.522  26.487  24.816  1.00  0.00    -0.200 F 
ATOM     68  C   UNL A   1      43.109  24.770  25.610  1.00  0.00     0.200 A 
ATOM     69  F   UNL A   1      41.666  23.090  26.429  1.00  0.00    -0.200 F 
ATOM     70  F   UNL A   1      43.430  24.001  24.560  1.00  0.00    -0.200 F 
ENDBRANCH  46  60
BRANCH  47  71
ATOM     71  C   UNL A   1      39.251  32.100  35.383  1.00  0.00     0.064 A 
ATOM     72  C   UNL A   1      38.452  31.555  36.397  1.00  0.00     0.173 A 
ATOM     73  C   UNL A   1      39.600  33.455  35.482  1.00  0.00     0.173 A 
ATOM     74  F   UNL A   1      38.073  30.271  36.332  1.00  0.00    -0.203 F 
ATOM     75  C   UNL A   1      38.016  32.336  37.466  1.00  0.00     0.198 A 
ATOM     76  C   UNL A   1      39.184  34.228  36.564  1.00  0.00     0.198 A 
ATOM     77  F   UNL A   1      40.361  34.024  34.536  1.00  0.00    -0.203 F 
ATOM     78  F   UNL A   1      37.226  31.799  38.406  1.00  0.00    -0.200 F 
ATOM     79  C   UNL A   1      38.389  33.669  37.553  1.00  0.00     0.200 A 
ATOM     80  F   UNL A   1      39.554  35.513  36.649  1.00  0.00    -0.200 F 
ATOM     81  F   UNL A   1      37.976  34.417  38.585  1.00  0.00    -0.200 F 
ENDBRANCH  47  71
BRANCH  59  82
ATOM     82  C   UNL A   1      44.673  27.820  34.490  1.00  0.00     0.064 A 
ATOM     83  C   UNL A   1      45.829  28.604  34.612  1.00  0.00     0.173 A 
ATOM     84  C   UNL A   1      44.580  26.655  35.266  1.00  0.00     0.173 A 
ATOM     85  F   UNL A   1      45.969  29.717  33.877  1.00  0.00    -0.203 F 
ATOM     86  C   UNL A   1      46.861  28.226  35.466  1.00  0.00     0.198 A 
ATOM     87  C   UNL A   1      45.604  26.293  36.137  1.00  0.00     0.198 A 
ATOM     88  F   UNL A   1      43.493  25.874  35.186  1.00  0.00    -0.203 F 
ATOM     89  F   UNL A   1      47.974  28.969  35.539  1.00  0.00    -0.200 F 
ATOM     90  C   UNL A   1      46.744  27.075  36.233  1.00  0.00     0.200 A 
ATOM     91  F   UNL A   1      45.485  25.186  36.884  1.00  0.00    -0.200 F 
ATOM     92  F   UNL A   1      47.737  26.716  37.058  1.00  0.00    -0.200 F 
ENDBRANCH  59  82
ENDBRANCH  33  34
ENDBRANCH  26  28
ENDBRANCH  25  26
ENDBRANCH  24  25
ENDBRANCH   1  24
TORSDOF 14
ENDMDL
MODEL 2
REMARK VINA RESULT:     -12.4      0.149      1.608
REMARK SMILES Cc1ncccc1NC(=O)NC[C@H]1CCC[C@H]1C(=O)OCCOC(=O)c1ccc(-c2c3nc(c(-c4c(F)c(F)c(F)c(F)c4F)c4ccc([nH]4)c(-c4c(F)c(F)c(F)c(F)c4F)c4nc(c(-c5c(F)c(F)c(F)c(F)c5F)c5ccc2[nH]5)C=C4)C=C3)cc1
REMARK SMILES IDX 21 1 20 2 18 3 19 4 17 5 13 6 14 7 15 8 16 9 12 10 11 11
REMARK SMILES IDX 8 12 9 13 10 15 7 17 1 18 2 19 3 20 4 21 6 22 5 23 22 24
REMARK SMILES IDX 23 25 24 26 25 27 26 28 27 29 88 30 28 31 87 32 29 33 30 34
REMARK SMILES IDX 31 35 81 36 32 37 86 38 80 39 82 40 33 41 85 42 79 43 78 44
REMARK SMILES IDX 34 46 66 47 46 48 65 49 47 50 50 51 64 52 83 53 48 54 49 55
REMARK SMILES IDX 63 57 84 58 51 59 35 60 36 61 44 62 37 63 38 64 42 65 45 66
REMARK SMILES IDX 39 67 40 68 43 69 41 70 67 71 68 72 76 73 69 74 70 75 74 76
REMARK SMILES IDX 77 77 71 78 72 79 75 80 73 81 52 82 53 83 61 84 54 85 55 86
REMARK SMILES IDX 59 87 62 88 56 89 57 90 60 91 58 92
REMARK H PARENT 8 14 11 16 82 45 50 56
REMARK Flexibility Score: inf
ROOT
ATOM      1  C   UNL A   1      31.747  29.438  24.181  1.00  0.00     0.274 C 
ENDROOT
BRANCH   1   2
ATOM      2  O   UNL A   1      30.995  28.208  24.182  1.00  0.00    -0.462 OA
BRANCH   2   3
ATOM      3  C   UNL A   1      31.049  27.457  23.057  1.00  0.00     0.309 C 
ATOM      4  O   UNL A   1      30.339  27.626  22.073  1.00  0.00    -0.252 OA
BRANCH   3   5
ATOM      5  C   UNL A   1      32.114  26.378  23.103  1.00  0.00     0.104 C 
ATOM      6  C   UNL A   1      31.982  25.212  24.099  1.00  0.00     0.022 C 
ATOM      7  C   UNL A   1      33.134  24.313  23.644  1.00  0.00     0.006 C 
ATOM      8  C   UNL A   1      33.195  24.445  22.124  1.00  0.00     0.001 C 
ATOM      9  C   UNL A   1      32.431  25.724  21.765  1.00  0.00     0.016 C 
BRANCH   6  10
ATOM     10  C   UNL A   1      30.642  24.472  24.224  1.00  0.00     0.122 C 
BRANCH  10  11
ATOM     11  N   UNL A   1      30.232  24.091  25.557  1.00  0.00    -0.338 N 
ATOM     12  N   UNL A   1      31.268  22.194  26.617  1.00  0.00    -0.306 N 
ATOM     13  C   UNL A   1      30.439  23.223  26.526  1.00  0.00     0.319 C 
ATOM     14  H   UNL A   1      31.052  21.690  27.434  1.00  0.00     0.171 HD
ATOM     15  O   UNL A   1      29.685  23.366  27.503  1.00  0.00    -0.249 OA
ATOM     16  H   UNL A   1      29.532  24.717  25.852  1.00  0.00     0.165 HD
BRANCH  12  17
ATOM     17  C   UNL A   1      32.343  21.559  25.974  1.00  0.00     0.064 A 
ATOM     18  C   UNL A   1      34.028  22.585  27.646  1.00  0.00     0.069 C 
ATOM     19  C   UNL A   1      33.656  21.718  26.475  1.00  0.00     0.061 A 
ATOM     20  N   UNL A   1      34.745  21.106  25.922  1.00  0.00    -0.259 NA
ATOM     21  C   UNL A   1      34.557  20.336  24.838  1.00  0.00     0.111 A 
ATOM     22  C   UNL A   1      32.226  20.804  24.818  1.00  0.00     0.030 A 
ATOM     23  C   UNL A   1      33.326  20.162  24.250  1.00  0.00     0.022 A 
ENDBRANCH  12  17
ENDBRANCH  10  11
ENDBRANCH   6  10
ENDBRANCH   3   5
ENDBRANCH   2   3
ENDBRANCH   1   2
BRANCH   1  24
ATOM     24  C   UNL A   1      31.790  30.025  25.593  1.00  0.00     0.275 C 
BRANCH  24  25
ATOM     25  O   UNL A   1      33.155  30.241  26.003  1.00  0.00    -0.458 OA
BRANCH  25  26
ATOM     26  C   UNL A   1      33.359  31.215  26.916  1.00  0.00     0.338 C 
ATOM     27  O   UNL A   1      32.605  32.116  27.238  1.00  0.00    -0.246 OA
BRANCH  26  28
ATOM     28  C   UNL A   1      34.628  30.958  27.606  1.00  0.00     0.060 A 
ATOM     29  C   UNL A   1      34.917  29.648  27.990  1.00  0.00     0.016 A 
ATOM     30  C   UNL A   1      35.491  32.002  27.933  1.00  0.00     0.016 A 
ATOM     31  C   UNL A   1      36.071  29.365  28.707  1.00  0.00     0.010 A 
ATOM     32  C   UNL A   1      36.661  31.718  28.643  1.00  0.00     0.010 A 
ATOM     33  C   UNL A   1      36.951  30.400  29.037  1.00  0.00    -0.014 A 
BRANCH  33  34
ATOM     34  C   UNL A   1      38.162  30.101  29.830  1.00  0.00     0.031 A 
ATOM     35  C   UNL A   1      39.221  29.210  29.258  1.00  0.00     0.074 A 
ATOM     36  C   UNL A   1      38.308  30.646  31.051  1.00  0.00     0.049 A 
ATOM     37  N   UNL A   1      40.296  28.731  29.827  1.00  0.00    -0.248 NA
ATOM     38  C   UNL A   1      39.041  28.799  27.857  1.00  0.00     0.031 C 
ATOM     39  C   UNL A   1      37.370  31.581  31.674  1.00  0.00     0.029 A 
ATOM     40  N   UNL A   1      39.297  30.489  31.985  1.00  0.00    -0.354 N 
ATOM     41  C   UNL A   1      40.906  27.937  28.866  1.00  0.00     0.074 A 
ATOM     42  C   UNL A   1      40.079  27.995  27.678  1.00  0.00     0.031 C 
ATOM     43  C   UNL A   1      37.832  31.916  32.890  1.00  0.00     0.029 A 
ATOM     44  C   UNL A   1      39.064  31.179  33.149  1.00  0.00     0.049 A 
ATOM     45  H   UNL A   1      40.097  29.935  31.836  1.00  0.00     0.167 HD
ATOM     46  C   UNL A   1      42.049  27.220  28.975  1.00  0.00     0.037 A 
ATOM     47  C   UNL A   1      39.755  31.185  34.303  1.00  0.00     0.037 A 
ATOM     48  C   UNL A   1      42.871  27.188  30.156  1.00  0.00     0.049 A 
ATOM     49  C   UNL A   1      40.987  30.330  34.419  1.00  0.00     0.074 A 
ATOM     50  C   UNL A   1      44.060  26.512  30.365  1.00  0.00     0.029 A 
ATOM     51  N   UNL A   1      42.582  27.866  31.333  1.00  0.00    -0.354 N 
ATOM     52  N   UNL A   1      41.551  29.565  33.516  1.00  0.00    -0.248 NA
ATOM     53  C   UNL A   1      41.669  30.327  35.720  1.00  0.00     0.031 C 
ATOM     54  C   UNL A   1      44.469  26.749  31.683  1.00  0.00     0.029 A 
ATOM     55  C   UNL A   1      43.558  27.604  32.281  1.00  0.00     0.049 A 
ATOM     56  H   UNL A   1      41.799  28.445  31.473  1.00  0.00     0.167 HD
ATOM     57  C   UNL A   1      42.663  29.006  34.128  1.00  0.00     0.074 A 
ATOM     58  C   UNL A   1      42.700  29.529  35.480  1.00  0.00     0.031 C 
ATOM     59  C   UNL A   1      43.572  28.139  33.619  1.00  0.00     0.037 A 
BRANCH  46  60
ATOM     60  C   UNL A   1      42.447  26.378  27.801  1.00  0.00     0.064 A 
ATOM     61  C   UNL A   1      43.368  26.827  26.843  1.00  0.00     0.173 A 
ATOM     62  C   UNL A   1      41.899  25.097  27.635  1.00  0.00     0.173 A 
ATOM     63  F   UNL A   1      43.905  28.051  26.945  1.00  0.00    -0.203 F 
ATOM     64  C   UNL A   1      43.704  26.034  25.747  1.00  0.00     0.198 A 
ATOM     65  C   UNL A   1      42.255  24.298  26.553  1.00  0.00     0.198 A 
ATOM     66  F   UNL A   1      41.013  24.621  28.523  1.00  0.00    -0.203 F 
ATOM     67  F   UNL A   1      44.547  26.503  24.816  1.00  0.00    -0.200 F 
ATOM     68  C   UNL A   1      43.151  24.770  25.606  1.00  0.00     0.200 A 
ATOM     69  F   UNL A   1      41.725  23.074  26.421  1.00  0.00    -0.200 F 
ATOM     70  F   UNL A   1      43.473  24.010  24.550  1.00  0.00    -0.200 F 
ENDBRANCH  46  60
BRANCH  47  71
ATOM     71  C   UNL A   1      39.284  32.013  35.440  1.00  0.00     0.064 A 
ATOM     72  C   UNL A   1      39.659  33.359  35.551  1.00  0.00     0.173 A 
ATOM     73  C   UNL A   1      38.442  31.486  36.429  1.00  0.00     0.173 A 
ATOM     74  F   UNL A   1      40.483  33.900  34.642  1.00  0.00    -0.203 F 
ATOM     75  C   UNL A   1      39.212  34.145  36.611  1.00  0.00     0.198 A 
ATOM     76  C   UNL A   1      37.976  32.279  37.476  1.00  0.00     0.198 A 
ATOM     77  F   UNL A   1      38.058  30.203  36.370  1.00  0.00    -0.203 F 
ATOM     78  F   UNL A   1      39.611  35.421  36.711  1.00  0.00    -0.200 F 
ATOM     79  C   UNL A   1      38.365  33.607  37.568  1.00  0.00     0.200 A 
ATOM     80  F   UNL A   1      37.150  31.757  38.393  1.00  0.00    -0.200 F 
ATOM     81  F   UNL A   1      37.929  34.365  38.583  1.00  0.00    -0.200 F 
ENDBRANCH  47  71
BRANCH  59  82
ATOM     82  C   UNL A   1      44.696  27.725  34.521  1.00  0.00     0.064 A 
ATOM     83  C   UNL A   1      44.611  26.574  35.316  1.00  0.00     0.173 A 
ATOM     84  C   UNL A   1      45.883  28.471  34.561  1.00  0.00     0.173 A 
ATOM     85  F   UNL A   1      43.489  25.840  35.323  1.00  0.00    -0.203 F 
ATOM     86  C   UNL A   1      45.670  26.194  36.136  1.00  0.00     0.198 A 
ATOM     87  C   UNL A   1      46.949  28.074  35.364  1.00  0.00     0.198 A 
ATOM     88  F   UNL A   1      46.013  29.577  33.815  1.00  0.00    -0.203 F 
ATOM     89  F   UNL A   1      45.555  25.112  36.919  1.00  0.00    -0.200 F 
ATOM     90  C   UNL A   1      46.841  26.940  36.154  1.00  0.00     0.200 A 
ATOM     91  F   UNL A   1      48.082  28.791  35.372  1.00  0.00    -0.200 F 
ATOM     92  F   UNL A   1      47.860  26.570  36.940  1.00  0.00    -0.200 F 
ENDBRANCH  59  82
ENDBRANCH  33  34
ENDBRANCH  26  28
ENDBRANCH  25  26
ENDBRANCH  24  25
ENDBRANCH   1  24
TORSDOF 14
ENDMDL
MODEL 3
REMARK VINA RESULT:     -12.3      0.538      1.813
REMARK SMILES Cc1ncccc1NC(=O)NC[C@H]1CCC[C@H]1C(=O)OCCOC(=O)c1ccc(-c2c3nc(c(-c4c(F)c(F)c(F)c(F)c4F)c4ccc([nH]4)c(-c4c(F)c(F)c(F)c(F)c4F)c4nc(c(-c5c(F)c(F)c(F)c(F)c5F)c5ccc2[nH]5)C=C4)C=C3)cc1
REMARK SMILES IDX 21 1 20 2 18 3 19 4 17 5 13 6 14 7 15 8 16 9 12 10 11 11
REMARK SMILES IDX 8 12 9 13 10 15 7 17 1 18 2 19 3 20 4 21 6 22 5 23 22 24
REMARK SMILES IDX 23 25 24 26 25 27 26 28 27 29 88 30 28 31 87 32 29 33 30 34
REMARK SMILES IDX 31 35 81 36 32 37 86 38 80 39 82 40 33 41 85 42 79 43 78 44
REMARK SMILES IDX 34 46 66 47 46 48 65 49 47 50 50 51 64 52 83 53 48 54 49 55
REMARK SMILES IDX 63 57 84 58 51 59 35 60 36 61 44 62 37 63 38 64 42 65 45 66
REMARK SMILES IDX 39 67 40 68 43 69 41 70 67 71 68 72 76 73 69 74 70 75 74 76
REMARK SMILES IDX 77 77 71 78 72 79 75 80 73 81 52 82 53 83 61 84 54 85 55 86
REMARK SMILES IDX 59 87 62 88 56 89 57 90 60 91 58 92
REMARK H PARENT 8 14 11 16 82 45 50 56
REMARK Flexibility Score: inf
ROOT
ATOM      1  C   UNL A   1      31.665  29.337  24.592  1.00  0.00     0.274 C 
ENDROOT
BRANCH   1   2
ATOM      2  O   UNL A   1      31.020  28.094  24.936  1.00  0.00    -0.462 OA
BRANCH   2   3
ATOM      3  C   UNL A   1      30.672  27.282  23.911  1.00  0.00     0.309 C 
ATOM      4  O   UNL A   1      29.574  27.279  23.368  1.00  0.00    -0.252 OA
BRANCH   3   5
ATOM      5  C   UNL A   1      31.795  26.369  23.456  1.00  0.00     0.104 C 
ATOM      6  C   UNL A   1      31.942  24.966  24.072  1.00  0.00     0.022 C 
ATOM      7  C   UNL A   1      33.039  24.375  23.184  1.00  0.00     0.006 C 
ATOM      8  C   UNL A   1      32.789  24.928  21.783  1.00  0.00     0.001 C 
ATOM      9  C   UNL A   1      31.884  26.154  21.951  1.00  0.00     0.016 C 
BRANCH   6  10
ATOM     10  C   UNL A   1      30.706  24.064  24.200  1.00  0.00     0.122 C 
BRANCH  10  11
ATOM     11  N   UNL A   1      30.317  23.680  25.539  1.00  0.00    -0.338 N 
ATOM     12  N   UNL A   1      31.887  22.508  26.938  1.00  0.00    -0.306 N 
ATOM     13  C   UNL A   1      30.730  23.080  26.635  1.00  0.00     0.319 C 
ATOM     14  H   UNL A   1      31.789  22.043  27.799  1.00  0.00     0.171 HD
ATOM     15  O   UNL A   1      29.864  22.990  27.521  1.00  0.00    -0.249 OA
ATOM     16  H   UNL A   1      29.391  23.981  25.685  1.00  0.00     0.165 HD
BRANCH  12  17
ATOM     17  C   UNL A   1      33.200  22.321  26.477  1.00  0.00     0.064 A 
ATOM     18  C   UNL A   1      32.465  20.321  25.011  1.00  0.00     0.069 C 
ATOM     19  C   UNL A   1      33.478  21.300  25.538  1.00  0.00     0.061 A 
ATOM     20  N   UNL A   1      34.723  21.080  25.021  1.00  0.00    -0.259 NA
ATOM     21  C   UNL A   1      35.731  21.860  25.444  1.00  0.00     0.111 A 
ATOM     22  C   UNL A   1      34.294  23.047  26.919  1.00  0.00     0.030 A 
ATOM     23  C   UNL A   1      35.569  22.844  26.391  1.00  0.00     0.022 A 
ENDBRANCH  12  17
ENDBRANCH  10  11
ENDBRANCH   6  10
ENDBRANCH   3   5
ENDBRANCH   2   3
ENDBRANCH   1   2
BRANCH   1  24
ATOM     24  C   UNL A   1      31.791  30.221  25.834  1.00  0.00     0.275 C 
BRANCH  24  25
ATOM     25  O   UNL A   1      33.170  30.321  26.239  1.00  0.00    -0.458 OA
BRANCH  25  26
ATOM     26  C   UNL A   1      33.484  31.355  27.050  1.00  0.00     0.338 C 
ATOM     27  O   UNL A   1      32.814  32.339  27.308  1.00  0.00    -0.246 OA
BRANCH  26  28
ATOM     28  C   UNL A   1      34.754  31.061  27.722  1.00  0.00     0.060 A 
ATOM     29  C   UNL A   1      34.964  29.766  28.198  1.00  0.00     0.016 A 
ATOM     30  C   UNL A   1      35.697  32.062  27.943  1.00  0.00     0.016 A 
ATOM     31  C   UNL A   1      36.120  29.456  28.903  1.00  0.00     0.010 A 
ATOM     32  C   UNL A   1      36.867  31.750  28.640  1.00  0.00     0.010 A 
ATOM     33  C   UNL A   1      37.079  30.447  29.127  1.00  0.00    -0.014 A 
BRANCH  33  34
ATOM     34  C   UNL A   1      38.292  30.124  29.907  1.00  0.00     0.031 A 
ATOM     35  C   UNL A   1      39.330  29.217  29.321  1.00  0.00     0.074 A 
ATOM     36  C   UNL A   1      38.459  30.661  31.129  1.00  0.00     0.049 A 
ATOM     37  N   UNL A   1      40.402  28.717  29.877  1.00  0.00    -0.248 NA
ATOM     38  C   UNL A   1      39.130  28.816  27.920  1.00  0.00     0.031 C 
ATOM     39  C   UNL A   1      37.543  31.608  31.766  1.00  0.00     0.029 A 
ATOM     40  N   UNL A   1      39.454  30.482  32.053  1.00  0.00    -0.354 N 
ATOM     41  C   UNL A   1      40.988  27.917  28.907  1.00  0.00     0.074 A 
ATOM     42  C   UNL A   1      40.151  27.995  27.727  1.00  0.00     0.031 C 
ATOM     43  C   UNL A   1      38.023  31.929  32.978  1.00  0.00     0.029 A 
ATOM     44  C   UNL A   1      39.245  31.169  33.222  1.00  0.00     0.049 A 
ATOM     45  H   UNL A   1      40.243  29.914  31.894  1.00  0.00     0.167 HD
ATOM     46  C   UNL A   1      42.119  27.180  29.001  1.00  0.00     0.037 A 
ATOM     47  C   UNL A   1      39.946  31.158  34.370  1.00  0.00     0.037 A 
ATOM     48  C   UNL A   1      42.952  27.128  30.174  1.00  0.00     0.049 A 
ATOM     49  C   UNL A   1      41.164  30.281  34.470  1.00  0.00     0.074 A 
ATOM     50  C   UNL A   1      44.130  26.430  30.369  1.00  0.00     0.029 A 
ATOM     51  N   UNL A   1      42.686  27.804  31.357  1.00  0.00    -0.354 N 
ATOM     52  N   UNL A   1      41.706  29.511  33.558  1.00  0.00    -0.248 NA
ATOM     53  C   UNL A   1      41.858  30.259  35.764  1.00  0.00     0.031 C 
ATOM     54  C   UNL A   1      44.557  26.653  31.684  1.00  0.00     0.029 A 
ATOM     55  C   UNL A   1      43.666  27.521  32.295  1.00  0.00     0.049 A 
ATOM     56  H   UNL A   1      41.915  28.397  31.508  1.00  0.00     0.167 HD
ATOM     57  C   UNL A   1      42.814  28.929  34.157  1.00  0.00     0.074 A 
ATOM     58  C   UNL A   1      42.872  29.445  35.511  1.00  0.00     0.031 C 
ATOM     59  C   UNL A   1      43.702  28.049  33.635  1.00  0.00     0.037 A 
BRANCH  46  60
ATOM     60  C   UNL A   1      42.491  26.336  27.819  1.00  0.00     0.064 A 
ATOM     61  C   UNL A   1      41.952  25.056  27.621  1.00  0.00     0.173 A 
ATOM     62  C   UNL A   1      43.401  26.820  26.868  1.00  0.00     0.173 A 
ATOM     63  F   UNL A   1      41.093  24.540  28.512  1.00  0.00    -0.203 F 
ATOM     64  C   UNL A   1      42.332  24.282  26.527  1.00  0.00     0.198 A 
ATOM     65  C   UNL A   1      43.760  26.054  25.763  1.00  0.00     0.198 A 
ATOM     66  F   UNL A   1      43.946  28.037  27.012  1.00  0.00    -0.203 F 
ATOM     67  F   UNL A   1      41.843  23.042  26.384  1.00  0.00    -0.200 F 
ATOM     68  C   UNL A   1      43.231  24.783  25.597  1.00  0.00     0.200 A 
ATOM     69  F   UNL A   1      44.625  26.541  24.862  1.00  0.00    -0.200 F 
ATOM     70  F   UNL A   1      43.599  24.035  24.547  1.00  0.00    -0.200 F 
ENDBRANCH  46  60
BRANCH  47  71
ATOM     71  C   UNL A   1      39.501  31.989  35.515  1.00  0.00     0.064 A 
ATOM     72  C   UNL A   1      39.996  33.288  35.694  1.00  0.00     0.173 A 
ATOM     73  C   UNL A   1      38.565  31.512  36.444  1.00  0.00     0.173 A 
ATOM     74  F   UNL A   1      40.911  33.777  34.845  1.00  0.00    -0.203 F 
ATOM     75  C   UNL A   1      39.574  34.076  36.763  1.00  0.00     0.198 A 
ATOM     76  C   UNL A   1      38.126  32.310  37.498  1.00  0.00     0.198 A 
ATOM     77  F   UNL A   1      38.064  30.274  36.319  1.00  0.00    -0.203 F 
ATOM     78  F   UNL A   1      40.086  35.304  36.929  1.00  0.00    -0.200 F 
ATOM     79  C   UNL A   1      38.634  33.591  37.658  1.00  0.00     0.200 A 
ATOM     80  F   UNL A   1      37.210  31.840  38.356  1.00  0.00    -0.200 F 
ATOM     81  F   UNL A   1      38.222  34.353  38.681  1.00  0.00    -0.200 F 
ENDBRANCH  47  71
BRANCH  59  82
ATOM     82  C   UNL A   1      44.827  27.611  34.524  1.00  0.00     0.064 A 
ATOM     83  C   UNL A   1      46.008  28.359  34.634  1.00  0.00     0.173 A 
ATOM     84  C   UNL A   1      44.707  26.448  35.299  1.00  0.00     0.173 A 
ATOM     85  F   UNL A   1      46.175  29.468  33.899  1.00  0.00    -0.203 F 
ATOM     86  C   UNL A   1      47.037  27.947  35.476  1.00  0.00     0.198 A 
ATOM     87  C   UNL A   1      45.728  26.053  36.158  1.00  0.00     0.198 A 
ATOM     88  F   UNL A   1      43.595  25.702  35.230  1.00  0.00    -0.203 F 
ATOM     89  F   UNL A   1      48.174  28.655  35.538  1.00  0.00    -0.200 F 
ATOM     90  C   UNL A   1      46.894  26.799  36.242  1.00  0.00     0.200 A 
ATOM     91  F   UNL A   1      45.583  24.949  36.904  1.00  0.00    -0.200 F 
ATOM     92  F   UNL A   1      47.884  26.407  37.056  1.00  0.00    -0.200 F 
ENDBRANCH  59  82
ENDBRANCH  33  34
ENDBRANCH  26  28
ENDBRANCH  25  26
ENDBRANCH  24  25
ENDBRANCH   1  24
TORSDOF 14
ENDMDL
