MODEL 1
REMARK VINA RESULT:     -13.5      0.000      0.000
REMARK SMILES O=C(OCCOC(=O)c1cc2c(c(S(=O)(=O)Nc3cc(C(F)(F)F)ccc3-n3cccn3)c1)CCC2)c1ccc(-c2c3nc(c(-c4c(F)c(F)c(F)c(F)c4F)c4ccc([nH]4)c(-c4c(F)c(F)c(F)c(F)c4F)c4nc(c(-c5c(F)c(F)c(F)c(F)c5F)c5ccc2[nH]5)C=C4)C=C3)cc1
REMARK SMILES IDX 5 1 4 2 3 3 2 4 1 5 37 6 38 7 99 8 39 9 98 10 40 11 41 12
REMARK SMILES IDX 42 13 92 14 43 15 97 16 91 17 93 18 44 19 96 20 90 21 89 22
REMARK SMILES IDX 45 24 77 25 57 26 76 27 58 28 61 29 75 30 94 31 59 32 60 33
REMARK SMILES IDX 74 35 95 36 62 37 46 38 47 39 55 40 48 41 49 42 53 43 56 44
REMARK SMILES IDX 50 45 51 46 54 47 52 48 78 49 79 50 87 51 80 52 81 53 85 54
REMARK SMILES IDX 88 55 82 56 83 57 86 58 84 59 63 60 64 61 72 62 65 63 66 64
REMARK SMILES IDX 70 65 73 66 67 67 68 68 71 69 69 70 6 71 7 72 8 73 9 74
REMARK SMILES IDX 10 75 33 76 11 77 13 78 12 79 36 80 34 81 35 82 14 83 15 84
REMARK SMILES IDX 16 85 17 86 18 88 19 89 27 90 20 91 26 92 25 93 28 94 29 95
REMARK SMILES IDX 32 96 30 97 31 98 21 99 22 100 23 101 24 102
REMARK H PARENT 93 23 61 34 17 87
REMARK Flexibility Score: inf
ROOT
ATOM      1  C   UNL A   1      35.893  21.637  24.697  1.00  0.00     0.275 C 
ENDROOT
BRANCH   1   2
ATOM      2  C   UNL A   1      37.265  21.195  25.209  1.00  0.00     0.275 C 
BRANCH   2   3
ATOM      3  O   UNL A   1      38.275  22.211  25.360  1.00  0.00    -0.458 OA
BRANCH   3   4
ATOM      4  C   UNL A   1      39.274  22.000  26.243  1.00  0.00     0.338 C 
ATOM      5  O   UNL A   1      39.900  20.959  26.340  1.00  0.00    -0.246 OA
BRANCH   4   6
ATOM      6  C   UNL A   1      39.650  23.247  26.950  1.00  0.00     0.060 A 
ATOM      7  C   UNL A   1      38.904  24.426  26.835  1.00  0.00     0.016 A 
ATOM      8  C   UNL A   1      40.798  23.218  27.746  1.00  0.00     0.016 A 
ATOM      9  C   UNL A   1      39.358  25.597  27.419  1.00  0.00     0.010 A 
ATOM     10  C   UNL A   1      41.228  24.381  28.369  1.00  0.00     0.010 A 
ATOM     11  C   UNL A   1      40.547  25.584  28.150  1.00  0.00    -0.014 A 
BRANCH  11  12
ATOM     12  C   UNL A   1      41.047  26.848  28.702  1.00  0.00     0.031 A 
ATOM     13  C   UNL A   1      42.353  27.370  28.164  1.00  0.00     0.074 A 
ATOM     14  C   UNL A   1      40.272  27.556  29.557  1.00  0.00     0.049 A 
ATOM     15  N   UNL A   1      43.215  28.143  28.749  1.00  0.00    -0.248 NA
ATOM     16  C   UNL A   1      42.767  27.002  26.795  1.00  0.00     0.031 C 
ATOM     17  C   UNL A   1      38.904  27.251  30.001  1.00  0.00     0.029 A 
ATOM     18  N   UNL A   1      40.504  28.770  30.136  1.00  0.00    -0.354 N 
ATOM     19  C   UNL A   1      44.176  28.461  27.787  1.00  0.00     0.074 A 
ATOM     20  C   UNL A   1      43.825  27.781  26.576  1.00  0.00     0.031 C 
ATOM     21  C   UNL A   1      38.356  28.344  30.573  1.00  0.00     0.029 A 
ATOM     22  C   UNL A   1      39.369  29.379  30.663  1.00  0.00     0.049 A 
ATOM     23  H   UNL A   1      41.399  29.179  30.178  1.00  0.00     0.167 HD
ATOM     24  C   UNL A   1      45.212  29.300  28.038  1.00  0.00     0.037 A 
ATOM     25  C   UNL A   1      39.246  30.658  31.099  1.00  0.00     0.037 A 
ATOM     26  C   UNL A   1      45.628  29.176  29.407  1.00  0.00     0.049 A 
ATOM     27  C   UNL A   1      40.612  31.175  31.345  1.00  0.00     0.074 A 
ATOM     28  C   UNL A   1      46.126  28.120  30.146  1.00  0.00     0.029 A 
ATOM     29  N   UNL A   1      45.209  30.103  30.326  1.00  0.00    -0.354 N 
ATOM     30  N   UNL A   1      41.387  30.763  32.307  1.00  0.00    -0.248 NA
ATOM     31  C   UNL A   1      41.281  31.854  30.246  1.00  0.00     0.031 C 
ATOM     32  C   UNL A   1      45.491  28.237  31.415  1.00  0.00     0.029 A 
ATOM     33  C   UNL A   1      44.718  29.397  31.393  1.00  0.00     0.049 A 
ATOM     34  H   UNL A   1      45.251  31.082  30.237  1.00  0.00     0.167 HD
ATOM     35  C   UNL A   1      42.648  30.719  31.738  1.00  0.00     0.074 A 
ATOM     36  C   UNL A   1      42.539  31.492  30.502  1.00  0.00     0.031 C 
ATOM     37  C   UNL A   1      43.587  29.829  32.174  1.00  0.00     0.037 A 
BRANCH  24  38
ATOM     38  C   UNL A   1      45.441  30.542  27.211  1.00  0.00     0.064 A 
ATOM     39  C   UNL A   1      46.768  30.912  26.910  1.00  0.00     0.173 A 
ATOM     40  C   UNL A   1      44.465  31.542  27.019  1.00  0.00     0.173 A 
ATOM     41  F   UNL A   1      47.765  30.019  27.002  1.00  0.00    -0.203 F 
ATOM     42  C   UNL A   1      47.116  32.232  26.624  1.00  0.00     0.198 A 
ATOM     43  C   UNL A   1      44.815  32.856  26.704  1.00  0.00     0.198 A 
ATOM     44  F   UNL A   1      43.159  31.309  27.208  1.00  0.00    -0.203 F 
ATOM     45  F   UNL A   1      48.407  32.566  26.503  1.00  0.00    -0.200 F 
ATOM     46  C   UNL A   1      46.142  33.210  26.555  1.00  0.00     0.200 A 
ATOM     47  F   UNL A   1      43.858  33.791  26.624  1.00  0.00    -0.200 F 
ATOM     48  F   UNL A   1      46.481  34.493  26.379  1.00  0.00    -0.200 F 
ENDBRANCH  24  38
BRANCH  25  49
ATOM     49  C   UNL A   1      38.058  31.546  31.084  1.00  0.00     0.064 A 
ATOM     50  C   UNL A   1      37.521  32.020  29.874  1.00  0.00     0.173 A 
ATOM     51  C   UNL A   1      37.262  31.727  32.231  1.00  0.00     0.173 A 
ATOM     52  F   UNL A   1      38.193  31.853  28.725  1.00  0.00    -0.203 F 
ATOM     53  C   UNL A   1      36.254  32.610  29.813  1.00  0.00     0.198 A 
ATOM     54  C   UNL A   1      36.002  32.325  32.171  1.00  0.00     0.198 A 
ATOM     55  F   UNL A   1      37.648  31.242  33.420  1.00  0.00    -0.203 F 
ATOM     56  F   UNL A   1      35.749  32.988  28.630  1.00  0.00    -0.200 F 
ATOM     57  C   UNL A   1      35.491  32.752  30.959  1.00  0.00     0.200 A 
ATOM     58  F   UNL A   1      35.259  32.425  33.282  1.00  0.00    -0.200 F 
ATOM     59  F   UNL A   1      34.251  33.259  30.892  1.00  0.00    -0.200 F 
ENDBRANCH  25  49
BRANCH  37  60
ATOM     60  C   UNL A   1      43.312  29.067  33.439  1.00  0.00     0.064 A 
ATOM     61  C   UNL A   1      43.650  29.521  34.725  1.00  0.00     0.173 A 
ATOM     62  C   UNL A   1      42.529  27.908  33.351  1.00  0.00     0.173 A 
ATOM     63  F   UNL A   1      44.299  30.678  34.905  1.00  0.00    -0.203 F 
ATOM     64  C   UNL A   1      43.263  28.820  35.864  1.00  0.00     0.198 A 
ATOM     65  C   UNL A   1      42.109  27.232  34.491  1.00  0.00     0.198 A 
ATOM     66  F   UNL A   1      42.122  27.460  32.152  1.00  0.00    -0.203 F 
ATOM     67  F   UNL A   1      43.608  29.269  37.081  1.00  0.00    -0.200 F 
ATOM     68  C   UNL A   1      42.486  27.681  35.747  1.00  0.00     0.200 A 
ATOM     69  F   UNL A   1      41.309  26.164  34.374  1.00  0.00    -0.200 F 
ATOM     70  F   UNL A   1      42.073  27.031  36.844  1.00  0.00    -0.200 F 
ENDBRANCH  37  60
ENDBRANCH  11  12
ENDBRANCH   4   6
ENDBRANCH   3   4
ENDBRANCH   2   3
ENDBRANCH   1   2
BRANCH   1  71
ATOM     71  O   UNL A   1      35.749  23.065  24.810  1.00  0.00    -0.458 OA
BRANCH  71  72
ATOM     72  C   UNL A   1      34.939  23.516  25.806  1.00  0.00     0.338 C 
ATOM     73  O   UNL A   1      34.544  22.928  26.789  1.00  0.00    -0.246 OA
BRANCH  72  74
ATOM     74  C   UNL A   1      34.478  24.849  25.395  1.00  0.00     0.061 A 
ATOM     75  C   UNL A   1      34.470  25.814  26.390  1.00  0.00     0.019 A 
ATOM     76  C   UNL A   1      34.084  25.154  24.077  1.00  0.00     0.038 A 
ATOM     77  C   UNL A   1      33.961  27.049  26.064  1.00  0.00    -0.043 A 
ATOM     78  C   UNL A   1      33.547  26.425  23.744  1.00  0.00     0.092 A 
ATOM     79  C   UNL A   1      33.414  27.340  24.786  1.00  0.00    -0.024 A 
ATOM     80  C   UNL A   1      33.911  28.225  26.994  1.00  0.00     0.036 C 
ATOM     81  C   UNL A   1      32.713  28.651  24.942  1.00  0.00     0.037 C 
ATOM     82  C   UNL A   1      33.604  29.330  25.990  1.00  0.00     0.010 C 
BRANCH  78  83
ATOM     83  S   UNL A   1      33.195  26.658  21.999  1.00  0.00     0.262 S 
ATOM     84  O   UNL A   1      33.940  27.815  21.560  1.00  0.00    -0.201 OA
ATOM     85  O   UNL A   1      33.491  25.400  21.349  1.00  0.00    -0.201 OA
BRANCH  83  86
ATOM     86  N   UNL A   1      31.582  26.897  21.604  1.00  0.00    -0.277 N 
ATOM     87  H   UNL A   1      31.335  26.661  20.681  1.00  0.00     0.180 HD
BRANCH  86  88
ATOM     88  C   UNL A   1      30.515  27.394  22.409  1.00  0.00     0.075 A 
ATOM     89  C   UNL A   1      30.100  28.697  22.056  1.00  0.00     0.042 A 
ATOM     90  C   UNL A   1      29.760  26.694  23.352  1.00  0.00     0.089 A 
ATOM     91  C   UNL A   1      28.853  29.209  22.459  1.00  0.00     0.058 A 
ATOM     92  C   UNL A   1      28.540  27.222  23.811  1.00  0.00     0.031 A 
ATOM     93  C   UNL A   1      28.084  28.463  23.356  1.00  0.00     0.015 A 
BRANCH  90  94
ATOM     94  N   UNL A   1      30.140  25.432  23.835  1.00  0.00    -0.239 N 
ATOM     95  C   UNL A   1      30.364  25.067  25.137  1.00  0.00     0.115 A 
ATOM     96  N   UNL A   1      30.387  24.421  22.970  1.00  0.00    -0.177 NA
ATOM     97  C   UNL A   1      30.953  23.824  25.094  1.00  0.00     0.042 A 
ATOM     98  C   UNL A   1      30.987  23.497  23.728  1.00  0.00     0.135 A 
ENDBRANCH  90  94
BRANCH  91  99
ATOM     99  C   UNL A   1      28.314  30.463  21.809  1.00  0.00     0.416 C 
ATOM    100  F   UNL A   1      27.301  31.032  22.511  1.00  0.00    -0.166 F 
ATOM    101  F   UNL A   1      29.278  31.425  21.697  1.00  0.00    -0.166 F 
ATOM    102  F   UNL A   1      27.848  30.267  20.546  1.00  0.00    -0.166 F 
ENDBRANCH  91  99
ENDBRANCH  86  88
ENDBRANCH  83  86
ENDBRANCH  78  83
ENDBRANCH  72  74
ENDBRANCH  71  72
ENDBRANCH   1  71
TORSDOF 16
ENDMDL
MODEL 2
REMARK VINA RESULT:     -13.4      3.210      7.962
REMARK SMILES O=C(OCCOC(=O)c1cc2c(c(S(=O)(=O)Nc3cc(C(F)(F)F)ccc3-n3cccn3)c1)CCC2)c1ccc(-c2c3nc(c(-c4c(F)c(F)c(F)c(F)c4F)c4ccc([nH]4)c(-c4c(F)c(F)c(F)c(F)c4F)c4nc(c(-c5c(F)c(F)c(F)c(F)c5F)c5ccc2[nH]5)C=C4)C=C3)cc1
REMARK SMILES IDX 5 1 4 2 3 3 2 4 1 5 37 6 38 7 99 8 39 9 98 10 40 11 41 12
REMARK SMILES IDX 42 13 92 14 43 15 97 16 91 17 93 18 44 19 96 20 90 21 89 22
REMARK SMILES IDX 45 24 77 25 57 26 76 27 58 28 61 29 75 30 94 31 59 32 60 33
REMARK SMILES IDX 74 35 95 36 62 37 46 38 47 39 55 40 48 41 49 42 53 43 56 44
REMARK SMILES IDX 50 45 51 46 54 47 52 48 78 49 79 50 87 51 80 52 81 53 85 54
REMARK SMILES IDX 88 55 82 56 83 57 86 58 84 59 63 60 64 61 72 62 65 63 66 64
REMARK SMILES IDX 70 65 73 66 67 67 68 68 71 69 69 70 6 71 7 72 8 73 9 74
REMARK SMILES IDX 10 75 33 76 11 77 13 78 12 79 36 80 34 81 35 82 14 83 15 84
REMARK SMILES IDX 16 85 17 86 18 88 19 89 27 90 20 91 26 92 25 93 28 94 29 95
REMARK SMILES IDX 32 96 30 97 31 98 21 99 22 100 23 101 24 102
REMARK H PARENT 93 23 61 34 17 87
REMARK Flexibility Score: inf
ROOT
ATOM      1  C   UNL A   1      33.630  30.181  26.875  1.00  0.00     0.275 C 
ENDROOT
BRANCH   1   2
ATOM      2  C   UNL A   1      34.519  31.121  27.690  1.00  0.00     0.275 C 
BRANCH   2   3
ATOM      3  O   UNL A   1      35.504  30.521  28.554  1.00  0.00    -0.458 OA
BRANCH   3   4
ATOM      4  C   UNL A   1      36.507  31.293  29.021  1.00  0.00     0.338 C 
ATOM      5  O   UNL A   1      36.413  32.489  29.236  1.00  0.00    -0.246 OA
BRANCH   4   6
ATOM      6  C   UNL A   1      37.678  30.480  29.424  1.00  0.00     0.060 A 
ATOM      7  C   UNL A   1      38.971  31.015  29.500  1.00  0.00     0.016 A 
ATOM      8  C   UNL A   1      37.458  29.134  29.729  1.00  0.00     0.016 A 
ATOM      9  C   UNL A   1      40.051  30.189  29.767  1.00  0.00     0.010 A 
ATOM     10  C   UNL A   1      38.534  28.318  30.042  1.00  0.00     0.010 A 
ATOM     11  C   UNL A   1      39.837  28.829  29.994  1.00  0.00    -0.014 A 
BRANCH  11  12
ATOM     12  C   UNL A   1      40.999  27.961  30.208  1.00  0.00     0.031 A 
ATOM     13  C   UNL A   1      41.534  27.853  31.612  1.00  0.00     0.074 A 
ATOM     14  C   UNL A   1      41.458  27.196  29.189  1.00  0.00     0.049 A 
ATOM     15  N   UNL A   1      42.740  27.570  31.996  1.00  0.00    -0.248 NA
ATOM     16  C   UNL A   1      40.621  28.079  32.750  1.00  0.00     0.031 C 
ATOM     17  C   UNL A   1      40.901  27.066  27.835  1.00  0.00     0.029 A 
ATOM     18  N   UNL A   1      42.471  26.282  29.178  1.00  0.00    -0.354 N 
ATOM     19  C   UNL A   1      42.692  27.444  33.385  1.00  0.00     0.074 A 
ATOM     20  C   UNL A   1      41.348  27.708  33.803  1.00  0.00     0.031 C 
ATOM     21  C   UNL A   1      41.425  25.978  27.231  1.00  0.00     0.029 A 
ATOM     22  C   UNL A   1      42.450  25.416  28.090  1.00  0.00     0.049 A 
ATOM     23  H   UNL A   1      43.160  26.240  29.882  1.00  0.00     0.167 HD
ATOM     24  C   UNL A   1      43.776  27.100  34.127  1.00  0.00     0.037 A 
ATOM     25  C   UNL A   1      43.182  24.287  27.918  1.00  0.00     0.037 A 
ATOM     26  C   UNL A   1      44.971  27.624  33.527  1.00  0.00     0.049 A 
ATOM     27  C   UNL A   1      44.326  24.355  28.856  1.00  0.00     0.074 A 
ATOM     28  C   UNL A   1      45.398  28.908  33.250  1.00  0.00     0.029 A 
ATOM     29  N   UNL A   1      45.760  26.800  32.766  1.00  0.00    -0.354 N 
ATOM     30  N   UNL A   1      45.316  25.194  28.742  1.00  0.00    -0.248 NA
ATOM     31  C   UNL A   1      44.148  23.768  30.175  1.00  0.00     0.031 C 
ATOM     32  C   UNL A   1      46.020  28.812  31.972  1.00  0.00     0.029 A 
ATOM     33  C   UNL A   1      46.004  27.470  31.595  1.00  0.00     0.049 A 
ATOM     34  H   UNL A   1      46.086  25.905  33.011  1.00  0.00     0.167 HD
ATOM     35  C   UNL A   1      45.590  25.581  30.043  1.00  0.00     0.074 A 
ATOM     36  C   UNL A   1      44.909  24.602  30.887  1.00  0.00     0.031 C 
ATOM     37  C   UNL A   1      46.105  26.815  30.316  1.00  0.00     0.037 A 
BRANCH  24  38
ATOM     38  C   UNL A   1      43.762  25.891  35.032  1.00  0.00     0.064 A 
ATOM     39  C   UNL A   1      44.234  26.037  36.352  1.00  0.00     0.173 A 
ATOM     40  C   UNL A   1      43.649  24.567  34.562  1.00  0.00     0.173 A 
ATOM     41  F   UNL A   1      44.324  27.251  36.916  1.00  0.00    -0.203 F 
ATOM     42  C   UNL A   1      44.735  24.956  37.077  1.00  0.00     0.198 A 
ATOM     43  C   UNL A   1      44.124  23.483  35.302  1.00  0.00     0.198 A 
ATOM     44  F   UNL A   1      43.157  24.279  33.349  1.00  0.00    -0.203 F 
ATOM     45  F   UNL A   1      45.321  25.167  38.263  1.00  0.00    -0.200 F 
ATOM     46  C   UNL A   1      44.711  23.684  36.538  1.00  0.00     0.200 A 
ATOM     47  F   UNL A   1      44.081  22.253  34.773  1.00  0.00    -0.200 F 
ATOM     48  F   UNL A   1      45.280  22.661  37.188  1.00  0.00    -0.200 F 
ENDBRANCH  24  38
BRANCH  25  49
ATOM     49  C   UNL A   1      42.836  23.044  27.186  1.00  0.00     0.064 A 
ATOM     50  C   UNL A   1      43.632  22.583  26.123  1.00  0.00     0.173 A 
ATOM     51  C   UNL A   1      41.879  22.140  27.684  1.00  0.00     0.173 A 
ATOM     52  F   UNL A   1      44.597  23.364  25.613  1.00  0.00    -0.203 F 
ATOM     53  C   UNL A   1      43.499  21.287  25.613  1.00  0.00     0.198 A 
ATOM     54  C   UNL A   1      41.741  20.850  27.168  1.00  0.00     0.198 A 
ATOM     55  F   UNL A   1      41.123  22.454  28.746  1.00  0.00    -0.203 F 
ATOM     56  F   UNL A   1      44.323  20.862  24.644  1.00  0.00    -0.200 F 
ATOM     57  C   UNL A   1      42.561  20.418  26.143  1.00  0.00     0.200 A 
ATOM     58  F   UNL A   1      40.851  20.007  27.713  1.00  0.00    -0.200 F 
ATOM     59  F   UNL A   1      42.476  19.156  25.698  1.00  0.00    -0.200 F 
ENDBRANCH  25  49
BRANCH  37  60
ATOM     60  C   UNL A   1      46.595  27.652  29.169  1.00  0.00     0.064 A 
ATOM     61  C   UNL A   1      45.789  28.541  28.437  1.00  0.00     0.173 A 
ATOM     62  C   UNL A   1      47.972  27.669  28.910  1.00  0.00     0.173 A 
ATOM     63  F   UNL A   1      44.483  28.670  28.698  1.00  0.00    -0.203 F 
ATOM     64  C   UNL A   1      46.333  29.372  27.461  1.00  0.00     0.198 A 
ATOM     65  C   UNL A   1      48.518  28.530  27.963  1.00  0.00     0.198 A 
ATOM     66  F   UNL A   1      48.801  26.886  29.620  1.00  0.00    -0.203 F 
ATOM     67  F   UNL A   1      45.541  30.206  26.769  1.00  0.00    -0.200 F 
ATOM     68  C   UNL A   1      47.698  29.372  27.231  1.00  0.00     0.200 A 
ATOM     69  F   UNL A   1      49.846  28.567  27.786  1.00  0.00    -0.200 F 
ATOM     70  F   UNL A   1      48.228  30.205  26.325  1.00  0.00    -0.200 F 
ENDBRANCH  37  60
ENDBRANCH  11  12
ENDBRANCH   4   6
ENDBRANCH   3   4
ENDBRANCH   2   3
ENDBRANCH   1   2
BRANCH   1  71
ATOM     71  O   UNL A   1      33.871  28.811  27.247  1.00  0.00    -0.458 OA
BRANCH  71  72
ATOM     72  C   UNL A   1      32.830  27.949  27.093  1.00  0.00     0.338 C 
ATOM     73  O   UNL A   1      31.802  27.877  27.732  1.00  0.00    -0.246 OA
BRANCH  72  74
ATOM     74  C   UNL A   1      33.244  26.975  26.073  1.00  0.00     0.061 A 
ATOM     75  C   UNL A   1      33.745  25.777  26.555  1.00  0.00     0.019 A 
ATOM     76  C   UNL A   1      33.129  27.217  24.690  1.00  0.00     0.038 A 
ATOM     77  C   UNL A   1      34.224  24.879  25.632  1.00  0.00    -0.043 A 
ATOM     78  C   UNL A   1      33.636  26.295  23.737  1.00  0.00     0.092 A 
ATOM     79  C   UNL A   1      34.264  25.158  24.239  1.00  0.00    -0.024 A 
ATOM     80  C   UNL A   1      34.763  23.518  25.962  1.00  0.00     0.036 C 
ATOM     81  C   UNL A   1      35.114  24.083  23.643  1.00  0.00     0.037 C 
ATOM     82  C   UNL A   1      34.781  22.906  24.567  1.00  0.00     0.010 C 
BRANCH  78  83
ATOM     83  S   UNL A   1      33.309  26.728  22.026  1.00  0.00     0.262 S 
ATOM     84  O   UNL A   1      34.031  27.947  21.744  1.00  0.00    -0.201 OA
ATOM     85  O   UNL A   1      33.648  25.566  21.235  1.00  0.00    -0.201 OA
BRANCH  83  86
ATOM     86  N   UNL A   1      31.696  26.976  21.629  1.00  0.00    -0.277 N 
ATOM     87  H   UNL A   1      31.462  26.800  20.690  1.00  0.00     0.180 HD
BRANCH  86  88
ATOM     88  C   UNL A   1      30.616  27.406  22.454  1.00  0.00     0.075 A 
ATOM     89  C   UNL A   1      30.199  28.731  22.195  1.00  0.00     0.042 A 
ATOM     90  C   UNL A   1      29.851  26.632  23.329  1.00  0.00     0.089 A 
ATOM     91  C   UNL A   1      28.943  29.204  22.617  1.00  0.00     0.058 A 
ATOM     92  C   UNL A   1      28.621  27.119  23.809  1.00  0.00     0.031 A 
ATOM     93  C   UNL A   1      28.165  28.389  23.443  1.00  0.00     0.015 A 
BRANCH  90  94
ATOM     94  N   UNL A   1      30.231  25.339  23.720  1.00  0.00    -0.239 N 
ATOM     95  C   UNL A   1      30.347  24.851  24.996  1.00  0.00     0.115 A 
ATOM     96  N   UNL A   1      30.592  24.427  22.788  1.00  0.00    -0.177 NA
ATOM     97  C   UNL A   1      30.982  23.636  24.887  1.00  0.00     0.042 A 
ATOM     98  C   UNL A   1      31.154  23.449  23.506  1.00  0.00     0.135 A 
ENDBRANCH  90  94
BRANCH  91  99
ATOM     99  C   UNL A   1      28.408  30.502  22.057  1.00  0.00     0.416 C 
ATOM    100  F   UNL A   1      29.387  31.380  21.718  1.00  0.00    -0.166 F 
ATOM    101  F   UNL A   1      27.679  30.298  20.919  1.00  0.00    -0.166 F 
ATOM    102  F   UNL A   1      27.575  31.161  22.908  1.00  0.00    -0.166 F 
ENDBRANCH  91  99
ENDBRANCH  86  88
ENDBRANCH  83  86
ENDBRANCH  78  83
ENDBRANCH  72  74
ENDBRANCH  71  72
ENDBRANCH   1  71
TORSDOF 16
ENDMDL
MODEL 3
REMARK VINA RESULT:     -13.1      1.822      3.006
REMARK SMILES O=C(OCCOC(=O)c1cc2c(c(S(=O)(=O)Nc3cc(C(F)(F)F)ccc3-n3cccn3)c1)CCC2)c1ccc(-c2c3nc(c(-c4c(F)c(F)c(F)c(F)c4F)c4ccc([nH]4)c(-c4c(F)c(F)c(F)c(F)c4F)c4nc(c(-c5c(F)c(F)c(F)c(F)c5F)c5ccc2[nH]5)C=C4)C=C3)cc1
REMARK SMILES IDX 5 1 4 2 3 3 2 4 1 5 37 6 38 7 99 8 39 9 98 10 40 11 41 12
REMARK SMILES IDX 42 13 92 14 43 15 97 16 91 17 93 18 44 19 96 20 90 21 89 22
REMARK SMILES IDX 45 24 77 25 57 26 76 27 58 28 61 29 75 30 94 31 59 32 60 33
REMARK SMILES IDX 74 35 95 36 62 37 46 38 47 39 55 40 48 41 49 42 53 43 56 44
REMARK SMILES IDX 50 45 51 46 54 47 52 48 78 49 79 50 87 51 80 52 81 53 85 54
REMARK SMILES IDX 88 55 82 56 83 57 86 58 84 59 63 60 64 61 72 62 65 63 66 64
REMARK SMILES IDX 70 65 73 66 67 67 68 68 71 69 69 70 6 71 7 72 8 73 9 74
REMARK SMILES IDX 10 75 33 76 11 77 13 78 12 79 36 80 34 81 35 82 14 83 15 84
REMARK SMILES IDX 16 85 17 86 18 88 19 89 27 90 20 91 26 92 25 93 28 94 29 95
REMARK SMILES IDX 32 96 30 97 31 98 21 99 22 100 23 101 24 102
REMARK H PARENT 93 23 61 34 17 87
REMARK Flexibility Score: inf
ROOT
ATOM      1  C   UNL A   1      36.309  20.808  24.996  1.00  0.00     0.275 C 
ENDROOT
BRANCH   1   2
ATOM      2  C   UNL A   1      37.830  20.909  25.127  1.00  0.00     0.275 C 
BRANCH   2   3
ATOM      3  O   UNL A   1      38.356  21.973  25.943  1.00  0.00    -0.458 OA
BRANCH   3   4
ATOM      4  C   UNL A   1      39.565  21.805  26.519  1.00  0.00     0.338 C 
ATOM      5  O   UNL A   1      40.185  20.756  26.526  1.00  0.00    -0.246 OA
BRANCH   4   6
ATOM      6  C   UNL A   1      40.136  23.095  26.974  1.00  0.00     0.060 A 
ATOM      7  C   UNL A   1      41.212  23.164  27.868  1.00  0.00     0.016 A 
ATOM      8  C   UNL A   1      39.556  24.268  26.483  1.00  0.00     0.016 A 
ATOM      9  C   UNL A   1      41.635  24.390  28.354  1.00  0.00     0.010 A 
ATOM     10  C   UNL A   1      40.011  25.498  26.935  1.00  0.00     0.010 A 
ATOM     11  C   UNL A   1      41.003  25.557  27.921  1.00  0.00    -0.014 A 
BRANCH  11  12
ATOM     12  C   UNL A   1      41.420  26.838  28.500  1.00  0.00     0.031 A 
ATOM     13  C   UNL A   1      42.698  27.447  27.984  1.00  0.00     0.074 A 
ATOM     14  C   UNL A   1      40.596  27.483  29.358  1.00  0.00     0.049 A 
ATOM     15  N   UNL A   1      43.506  28.260  28.592  1.00  0.00    -0.248 NA
ATOM     16  C   UNL A   1      43.147  27.129  26.615  1.00  0.00     0.031 C 
ATOM     17  C   UNL A   1      39.245  27.089  29.783  1.00  0.00     0.029 A 
ATOM     18  N   UNL A   1      40.748  28.698  29.960  1.00  0.00    -0.354 N 
ATOM     19  C   UNL A   1      44.455  28.652  27.646  1.00  0.00     0.074 A 
ATOM     20  C   UNL A   1      44.158  27.974  26.420  1.00  0.00     0.031 C 
ATOM     21  C   UNL A   1      38.627  28.137  30.367  1.00  0.00     0.029 A 
ATOM     22  C   UNL A   1      39.574  29.229  30.485  1.00  0.00     0.049 A 
ATOM     23  H   UNL A   1      41.617  29.160  30.019  1.00  0.00     0.167 HD
ATOM     24  C   UNL A   1      45.437  29.547  27.922  1.00  0.00     0.037 A 
ATOM     25  C   UNL A   1      39.370  30.490  30.941  1.00  0.00     0.037 A 
ATOM     26  C   UNL A   1      45.846  29.424  29.293  1.00  0.00     0.049 A 
ATOM     27  C   UNL A   1      40.700  31.084  31.211  1.00  0.00     0.074 A 
ATOM     28  C   UNL A   1      46.399  28.387  30.020  1.00  0.00     0.029 A 
ATOM     29  N   UNL A   1      45.363  30.308  30.224  1.00  0.00    -0.354 N 
ATOM     30  N   UNL A   1      41.489  30.703  32.174  1.00  0.00    -0.248 NA
ATOM     31  C   UNL A   1      41.337  31.821  30.130  1.00  0.00     0.031 C 
ATOM     32  C   UNL A   1      45.746  28.444  31.284  1.00  0.00     0.029 A 
ATOM     33  C   UNL A   1      44.905  29.556  31.273  1.00  0.00     0.049 A 
ATOM     34  H   UNL A   1      45.347  31.289  30.151  1.00  0.00     0.167 HD
ATOM     35  C   UNL A   1      42.756  30.744  31.617  1.00  0.00     0.074 A 
ATOM     36  C   UNL A   1      42.612  31.531  30.394  1.00  0.00     0.031 C 
ATOM     37  C   UNL A   1      43.742  29.905  32.049  1.00  0.00     0.037 A 
BRANCH  24  38
ATOM     38  C   UNL A   1      45.598  30.815  27.118  1.00  0.00     0.064 A 
ATOM     39  C   UNL A   1      46.902  31.294  26.877  1.00  0.00     0.173 A 
ATOM     40  C   UNL A   1      44.554  31.736  26.897  1.00  0.00     0.173 A 
ATOM     41  F   UNL A   1      47.963  30.482  27.001  1.00  0.00    -0.203 F 
ATOM     42  C   UNL A   1      47.154  32.641  26.620  1.00  0.00     0.198 A 
ATOM     43  C   UNL A   1      44.809  33.078  26.611  1.00  0.00     0.198 A 
ATOM     44  F   UNL A   1      43.264  31.398  27.029  1.00  0.00    -0.203 F 
ATOM     45  F   UNL A   1      48.419  33.079  26.556  1.00  0.00    -0.200 F 
ATOM     46  C   UNL A   1      46.109  33.539  26.521  1.00  0.00     0.200 A 
ATOM     47  F   UNL A   1      43.785  33.935  26.502  1.00  0.00    -0.200 F 
ATOM     48  F   UNL A   1      46.351  34.848  26.373  1.00  0.00    -0.200 F 
ENDBRANCH  24  38
BRANCH  25  49
ATOM     49  C   UNL A   1      38.131  31.306  30.929  1.00  0.00     0.064 A 
ATOM     50  C   UNL A   1      37.457  31.584  29.727  1.00  0.00     0.173 A 
ATOM     51  C   UNL A   1      37.432  31.599  32.115  1.00  0.00     0.173 A 
ATOM     52  F   UNL A   1      38.032  31.298  28.549  1.00  0.00    -0.203 F 
ATOM     53  C   UNL A   1      36.154  32.094  29.715  1.00  0.00     0.198 A 
ATOM     54  C   UNL A   1      36.136  32.117  32.103  1.00  0.00     0.198 A 
ATOM     55  F   UNL A   1      37.955  31.299  33.313  1.00  0.00    -0.203 F 
ATOM     56  F   UNL A   1      35.520  32.282  28.548  1.00  0.00    -0.200 F 
ATOM     57  C   UNL A   1      35.491  32.349  30.903  1.00  0.00     0.200 A 
ATOM     58  F   UNL A   1      35.493  32.328  33.260  1.00  0.00    -0.200 F 
ATOM     59  F   UNL A   1      34.221  32.778  30.893  1.00  0.00    -0.200 F 
ENDBRANCH  25  49
BRANCH  37  60
ATOM     60  C   UNL A   1      43.501  29.106  33.297  1.00  0.00     0.064 A 
ATOM     61  C   UNL A   1      42.932  27.821  33.317  1.00  0.00     0.173 A 
ATOM     62  C   UNL A   1      44.017  29.600  34.503  1.00  0.00     0.173 A 
ATOM     63  F   UNL A   1      42.517  27.229  32.191  1.00  0.00    -0.203 F 
ATOM     64  C   UNL A   1      42.843  27.088  34.498  1.00  0.00     0.198 A 
ATOM     65  C   UNL A   1      43.965  28.849  35.673  1.00  0.00     0.198 A 
ATOM     66  F   UNL A   1      44.628  30.795  34.534  1.00  0.00    -0.203 F 
ATOM     67  F   UNL A   1      42.286  25.868  34.492  1.00  0.00    -0.200 F 
ATOM     68  C   UNL A   1      43.367  27.599  35.673  1.00  0.00     0.200 A 
ATOM     69  F   UNL A   1      44.525  29.323  36.794  1.00  0.00    -0.200 F 
ATOM     70  F   UNL A   1      43.324  26.875  36.800  1.00  0.00    -0.200 F 
ENDBRANCH  37  60
ENDBRANCH  11  12
ENDBRANCH   4   6
ENDBRANCH   3   4
ENDBRANCH   2   3
ENDBRANCH   1   2
BRANCH   1  71
ATOM     71  O   UNL A   1      35.709  22.114  25.080  1.00  0.00    -0.458 OA
BRANCH  71  72
ATOM     72  C   UNL A   1      35.563  22.791  23.908  1.00  0.00     0.338 C 
ATOM     73  O   UNL A   1      36.334  22.871  22.976  1.00  0.00    -0.246 OA
BRANCH  72  74
ATOM     74  C   UNL A   1      34.322  23.567  24.028  1.00  0.00     0.061 A 
ATOM     75  C   UNL A   1      33.531  23.269  25.126  1.00  0.00     0.019 A 
ATOM     76  C   UNL A   1      33.949  24.567  23.108  1.00  0.00     0.038 A 
ATOM     77  C   UNL A   1      32.320  23.913  25.222  1.00  0.00    -0.043 A 
ATOM     78  C   UNL A   1      32.693  25.223  23.201  1.00  0.00     0.092 A 
ATOM     79  C   UNL A   1      31.848  24.812  24.230  1.00  0.00    -0.024 A 
ATOM     80  C   UNL A   1      31.354  23.750  26.358  1.00  0.00     0.036 C 
ATOM     81  C   UNL A   1      30.408  25.043  24.554  1.00  0.00     0.037 C 
ATOM     82  C   UNL A   1      30.436  24.935  26.083  1.00  0.00     0.010 C 
BRANCH  78  83
ATOM     83  S   UNL A   1      32.440  26.534  22.001  1.00  0.00     0.262 S 
ATOM     84  O   UNL A   1      33.736  27.096  21.698  1.00  0.00    -0.201 OA
ATOM     85  O   UNL A   1      31.704  25.950  20.903  1.00  0.00    -0.201 OA
BRANCH  83  86
ATOM     86  N   UNL A   1      31.431  27.785  22.487  1.00  0.00    -0.277 N 
ATOM     87  H   UNL A   1      30.757  28.062  21.827  1.00  0.00     0.180 HD
BRANCH  86  88
ATOM     88  C   UNL A   1      31.410  28.507  23.717  1.00  0.00     0.075 A 
ATOM     89  C   UNL A   1      32.370  28.060  24.652  1.00  0.00     0.042 A 
ATOM     90  C   UNL A   1      30.690  29.666  24.012  1.00  0.00     0.089 A 
ATOM     91  C   UNL A   1      32.761  28.855  25.744  1.00  0.00     0.058 A 
ATOM     92  C   UNL A   1      31.030  30.439  25.137  1.00  0.00     0.031 A 
ATOM     93  C   UNL A   1      32.067  30.044  25.987  1.00  0.00     0.015 A 
BRANCH  90  94
ATOM     94  N   UNL A   1      29.654  30.139  23.193  1.00  0.00    -0.239 N 
ATOM     95  C   UNL A   1      28.706  31.080  23.502  1.00  0.00     0.115 A 
ATOM     96  N   UNL A   1      29.472  29.615  21.959  1.00  0.00    -0.177 NA
ATOM     97  C   UNL A   1      27.768  31.027  22.496  1.00  0.00     0.042 A 
ATOM     98  C   UNL A   1      28.268  30.071  21.598  1.00  0.00     0.135 A 
ENDBRANCH  90  94
BRANCH  91  99
ATOM     99  C   UNL A   1      33.999  28.487  26.530  1.00  0.00     0.416 C 
ATOM    100  F   UNL A   1      33.823  28.581  27.874  1.00  0.00    -0.166 F 
ATOM    101  F   UNL A   1      34.382  27.197  26.293  1.00  0.00    -0.166 F 
ATOM    102  F   UNL A   1      35.084  29.250  26.228  1.00  0.00    -0.166 F 
ENDBRANCH  91  99
ENDBRANCH  86  88
ENDBRANCH  83  86
ENDBRANCH  78  83
ENDBRANCH  72  74
ENDBRANCH  71  72
ENDBRANCH   1  71
TORSDOF 16
ENDMDL
