MODEL 1
REMARK VINA RESULT:     -11.6      0.000      0.000
REMARK SMILES Cc1ccsc1[C@@H]1[NH2+][C@@H](C(=O)OCCOC(=O)c2ccc(-c3c4nc(c(-c5c(F)c(F)c(F)c(F)c5F)c5ccc([nH]5)c(-c5c(F)c(F)c(F)c(F)c5F)c5nc(c(-c6c(F)c(F)c(F)c(F)c6F)c6ccc3[nH]6)C=C5)C=C4)cc2)CS1
REMARK SMILES IDX 14 1 13 2 12 3 10 4 11 5 9 6 7 7 8 8 82 9 81 12 6 13 1 14
REMARK SMILES IDX 2 15 3 16 4 17 5 18 15 19 16 20 17 21 18 22 19 23 80 24
REMARK SMILES IDX 20 25 79 26 21 27 22 28 23 29 73 30 24 31 78 32 72 33 74 34
REMARK SMILES IDX 25 35 77 36 71 37 70 38 26 40 58 41 38 42 57 43 39 44 42 45
REMARK SMILES IDX 56 46 75 47 40 48 41 49 55 51 76 52 43 53 27 54 28 55 36 56
REMARK SMILES IDX 29 57 30 58 34 59 37 60 31 61 32 62 35 63 33 64 59 65 60 66
REMARK SMILES IDX 68 67 61 68 62 69 66 70 69 71 63 72 64 73 67 74 65 75 44 76
REMARK SMILES IDX 45 77 53 78 46 79 47 80 51 81 54 82 48 83 49 84 52 85 50 86
REMARK H PARENT 8 10 8 11 74 39 42 50
REMARK Flexibility Score: inf
ROOT
ATOM      1  C   UNL A   1      31.718  30.207  25.670  1.00  0.00     0.275 C 
ENDROOT
BRANCH   1   2
ATOM      2  C   UNL A   1      32.218  28.867  25.130  1.00  0.00     0.274 C 
BRANCH   2   3
ATOM      3  O   UNL A   1      31.175  27.863  25.157  1.00  0.00    -0.458 OA
BRANCH   3   4
ATOM      4  C   UNL A   1      31.321  26.914  26.127  1.00  0.00     0.365 C 
ATOM      5  O   UNL A   1      31.434  27.166  27.323  1.00  0.00    -0.245 OA
BRANCH   4   6
ATOM      6  C   UNL A   1      31.371  25.472  25.592  1.00  0.00     0.304 C 
ATOM      7  C   UNL A   1      33.219  23.976  26.120  1.00  0.00     0.284 C 
ATOM      8  N   UNL A   1      31.897  24.449  26.550  1.00  0.00    -0.318 N 
ATOM      9  S   UNL A   1      33.832  25.073  24.835  1.00  0.00    -0.087 SA
ATOM     10  H   UNL A   1      31.975  24.865  27.477  1.00  0.00     0.348 HD
ATOM     11  H   UNL A   1      31.255  23.657  26.572  1.00  0.00     0.348 HD
ATOM     12  C   UNL A   1      32.164  25.480  24.291  1.00  0.00     0.153 C 
BRANCH   7  13
ATOM     13  C   UNL A   1      33.244  22.517  25.677  1.00  0.00     0.075 A 
ATOM     14  C   UNL A   1      35.745  21.973  25.971  1.00  0.00     0.046 C 
ATOM     15  C   UNL A   1      34.348  21.677  25.533  1.00  0.00    -0.030 A 
ATOM     16  C   UNL A   1      34.007  20.473  24.827  1.00  0.00     0.015 A 
ATOM     17  C   UNL A   1      32.666  20.380  24.545  1.00  0.00     0.065 A 
ATOM     18  S   UNL A   1      31.801  21.680  25.209  1.00  0.00    -0.141 S 
ENDBRANCH   7  13
ENDBRANCH   4   6
ENDBRANCH   3   4
ENDBRANCH   2   3
ENDBRANCH   1   2
BRANCH   1  19
ATOM     19  O   UNL A   1      32.190  30.394  27.014  1.00  0.00    -0.458 OA
BRANCH  19  20
ATOM     20  C   UNL A   1      32.920  31.518  27.224  1.00  0.00     0.338 C 
ATOM     21  O   UNL A   1      32.517  32.666  27.139  1.00  0.00    -0.246 OA
BRANCH  20  22
ATOM     22  C   UNL A   1      34.305  31.178  27.644  1.00  0.00     0.060 A 
ATOM     23  C   UNL A   1      34.702  29.857  27.838  1.00  0.00     0.016 A 
ATOM     24  C   UNL A   1      35.184  32.210  27.984  1.00  0.00     0.016 A 
ATOM     25  C   UNL A   1      35.892  29.579  28.518  1.00  0.00     0.010 A 
ATOM     26  C   UNL A   1      36.431  31.918  28.558  1.00  0.00     0.010 A 
ATOM     27  C   UNL A   1      36.779  30.600  28.896  1.00  0.00    -0.014 A 
BRANCH  27  28
ATOM     28  C   UNL A   1      38.013  30.309  29.697  1.00  0.00     0.031 A 
ATOM     29  C   UNL A   1      39.135  29.486  29.104  1.00  0.00     0.074 A 
ATOM     30  C   UNL A   1      38.173  30.788  30.948  1.00  0.00     0.049 A 
ATOM     31  N   UNL A   1      40.140  28.892  29.705  1.00  0.00    -0.248 NA
ATOM     32  C   UNL A   1      39.115  29.284  27.646  1.00  0.00     0.031 C 
ATOM     33  C   UNL A   1      37.232  31.653  31.658  1.00  0.00     0.029 A 
ATOM     34  N   UNL A   1      39.205  30.624  31.843  1.00  0.00    -0.354 N 
ATOM     35  C   UNL A   1      40.806  28.173  28.718  1.00  0.00     0.074 A 
ATOM     36  C   UNL A   1      40.108  28.421  27.475  1.00  0.00     0.031 C 
ATOM     37  C   UNL A   1      37.759  32.003  32.841  1.00  0.00     0.029 A 
ATOM     38  C   UNL A   1      39.017  31.292  33.029  1.00  0.00     0.049 A 
ATOM     39  H   UNL A   1      40.003  30.080  31.653  1.00  0.00     0.167 HD
ATOM     40  C   UNL A   1      41.893  27.372  28.842  1.00  0.00     0.037 A 
ATOM     41  C   UNL A   1      39.738  31.295  34.167  1.00  0.00     0.037 A 
ATOM     42  C   UNL A   1      42.658  27.213  30.053  1.00  0.00     0.049 A 
ATOM     43  C   UNL A   1      40.948  30.413  34.283  1.00  0.00     0.074 A 
ATOM     44  C   UNL A   1      43.780  26.429  30.272  1.00  0.00     0.029 A 
ATOM     45  N   UNL A   1      42.406  27.885  31.239  1.00  0.00    -0.354 N 
ATOM     46  N   UNL A   1      41.482  29.621  33.387  1.00  0.00    -0.248 NA
ATOM     47  C   UNL A   1      41.628  30.392  35.586  1.00  0.00     0.031 C 
ATOM     48  C   UNL A   1      44.197  26.615  31.594  1.00  0.00     0.029 A 
ATOM     49  C   UNL A   1      43.353  27.538  32.190  1.00  0.00     0.049 A 
ATOM     50  H   UNL A   1      41.665  28.516  31.384  1.00  0.00     0.167 HD
ATOM     51  C   UNL A   1      42.554  29.004  34.017  1.00  0.00     0.074 A 
ATOM     52  C   UNL A   1      42.614  29.536  35.362  1.00  0.00     0.031 C 
ATOM     53  C   UNL A   1      43.402  28.069  33.525  1.00  0.00     0.037 A 
BRANCH  40  54
ATOM     54  C   UNL A   1      42.311  26.566  27.646  1.00  0.00     0.064 A 
ATOM     55  C   UNL A   1      43.301  27.004  26.757  1.00  0.00     0.173 A 
ATOM     56  C   UNL A   1      41.747  25.298  27.427  1.00  0.00     0.173 A 
ATOM     57  F   UNL A   1      43.866  28.210  26.916  1.00  0.00    -0.203 F 
ATOM     58  C   UNL A   1      43.698  26.211  25.681  1.00  0.00     0.198 A 
ATOM     59  C   UNL A   1      42.163  24.498  26.367  1.00  0.00     0.198 A 
ATOM     60  F   UNL A   1      40.803  24.827  28.256  1.00  0.00    -0.203 F 
ATOM     61  F   UNL A   1      44.621  26.663  24.822  1.00  0.00    -0.200 F 
ATOM     62  C   UNL A   1      43.134  24.957  25.492  1.00  0.00     0.200 A 
ATOM     63  F   UNL A   1      41.628  23.281  26.197  1.00  0.00    -0.200 F 
ATOM     64  F   UNL A   1      43.527  24.192  24.464  1.00  0.00    -0.200 F 
ENDBRANCH  40  54
BRANCH  41  65
ATOM     65  C   UNL A   1      39.295  32.129  35.314  1.00  0.00     0.064 A 
ATOM     66  C   UNL A   1      38.476  31.592  36.316  1.00  0.00     0.173 A 
ATOM     67  C   UNL A   1      39.697  33.466  35.442  1.00  0.00     0.173 A 
ATOM     68  F   UNL A   1      38.040  30.328  36.220  1.00  0.00    -0.203 F 
ATOM     69  C   UNL A   1      38.081  32.363  37.408  1.00  0.00     0.198 A 
ATOM     70  C   UNL A   1      39.327  34.226  36.548  1.00  0.00     0.198 A 
ATOM     71  F   UNL A   1      40.476  34.027  34.505  1.00  0.00    -0.203 F 
ATOM     72  F   UNL A   1      37.274  31.837  38.339  1.00  0.00    -0.200 F 
ATOM     73  C   UNL A   1      38.516  33.675  37.529  1.00  0.00     0.200 A 
ATOM     74  F   UNL A   1      39.761  35.487  36.668  1.00  0.00    -0.200 F 
ATOM     75  F   UNL A   1      38.150  34.408  38.588  1.00  0.00    -0.200 F 
ENDBRANCH  41  65
BRANCH  53  76
ATOM     76  C   UNL A   1      44.474  27.572  34.446  1.00  0.00     0.064 A 
ATOM     77  C   UNL A   1      45.697  28.247  34.569  1.00  0.00     0.173 A 
ATOM     78  C   UNL A   1      44.272  26.423  35.223  1.00  0.00     0.173 A 
ATOM     79  F   UNL A   1      45.942  29.341  33.833  1.00  0.00    -0.203 F 
ATOM     80  C   UNL A   1      46.690  27.774  35.423  1.00  0.00     0.198 A 
ATOM     81  C   UNL A   1      45.259  25.965  36.091  1.00  0.00     0.198 A 
ATOM     82  F   UNL A   1      43.117  25.745  35.141  1.00  0.00    -0.203 F 
ATOM     83  F   UNL A   1      47.867  28.411  35.496  1.00  0.00    -0.200 F 
ATOM     84  C   UNL A   1      46.468  26.638  36.186  1.00  0.00     0.200 A 
ATOM     85  F   UNL A   1      45.044  24.868  36.830  1.00  0.00    -0.200 F 
ATOM     86  F   UNL A   1      47.427  26.183  37.005  1.00  0.00    -0.200 F 
ENDBRANCH  53  76
ENDBRANCH  27  28
ENDBRANCH  20  22
ENDBRANCH  19  20
ENDBRANCH   1  19
TORSDOF 12
ENDMDL
MODEL 2
REMARK VINA RESULT:     -11.6      0.878      1.980
REMARK SMILES Cc1ccsc1[C@@H]1[NH2+][C@@H](C(=O)OCCOC(=O)c2ccc(-c3c4nc(c(-c5c(F)c(F)c(F)c(F)c5F)c5ccc([nH]5)c(-c5c(F)c(F)c(F)c(F)c5F)c5nc(c(-c6c(F)c(F)c(F)c(F)c6F)c6ccc3[nH]6)C=C5)C=C4)cc2)CS1
REMARK SMILES IDX 14 1 13 2 12 3 10 4 11 5 9 6 7 7 8 8 82 9 81 12 6 13 1 14
REMARK SMILES IDX 2 15 3 16 4 17 5 18 15 19 16 20 17 21 18 22 19 23 80 24
REMARK SMILES IDX 20 25 79 26 21 27 22 28 23 29 73 30 24 31 78 32 72 33 74 34
REMARK SMILES IDX 25 35 77 36 71 37 70 38 26 40 58 41 38 42 57 43 39 44 42 45
REMARK SMILES IDX 56 46 75 47 40 48 41 49 55 51 76 52 43 53 27 54 28 55 36 56
REMARK SMILES IDX 29 57 30 58 34 59 37 60 31 61 32 62 35 63 33 64 59 65 60 66
REMARK SMILES IDX 68 67 61 68 62 69 66 70 69 71 63 72 64 73 67 74 65 75 44 76
REMARK SMILES IDX 45 77 53 78 46 79 47 80 51 81 54 82 48 83 49 84 52 85 50 86
REMARK H PARENT 8 10 8 11 74 39 42 50
REMARK Flexibility Score: inf
ROOT
ATOM      1  C   UNL A   1      31.709  30.272  25.376  1.00  0.00     0.275 C 
ENDROOT
BRANCH   1   2
ATOM      2  C   UNL A   1      31.902  29.035  24.499  1.00  0.00     0.274 C 
BRANCH   2   3
ATOM      3  O   UNL A   1      30.648  28.345  24.275  1.00  0.00    -0.458 OA
BRANCH   3   4
ATOM      4  C   UNL A   1      30.544  27.732  23.060  1.00  0.00     0.365 C 
ATOM      5  O   UNL A   1      30.187  28.300  22.032  1.00  0.00    -0.245 OA
BRANCH   4   6
ATOM      6  C   UNL A   1      30.885  26.232  23.082  1.00  0.00     0.304 C 
ATOM      7  C   UNL A   1      32.858  25.385  24.233  1.00  0.00     0.284 C 
ATOM      8  N   UNL A   1      31.435  25.716  24.375  1.00  0.00    -0.318 N 
ATOM      9  S   UNL A   1      33.454  26.073  22.683  1.00  0.00    -0.087 SA
ATOM     10  H   UNL A   1      31.327  26.430  25.095  1.00  0.00     0.348 HD
ATOM     11  H   UNL A   1      30.925  24.872  24.637  1.00  0.00     0.348 HD
ATOM     12  C   UNL A   1      31.828  25.946  21.920  1.00  0.00     0.153 C 
BRANCH   7  13
ATOM     13  C   UNL A   1      33.164  23.895  24.345  1.00  0.00     0.075 A 
ATOM     14  C   UNL A   1      35.618  23.972  25.127  1.00  0.00     0.046 C 
ATOM     15  C   UNL A   1      34.381  23.285  24.650  1.00  0.00    -0.030 A 
ATOM     16  C   UNL A   1      34.345  21.874  24.381  1.00  0.00     0.015 A 
ATOM     17  C   UNL A   1      33.106  21.436  23.983  1.00  0.00     0.065 A 
ATOM     18  S   UNL A   1      31.963  22.689  24.025  1.00  0.00    -0.141 S 
ENDBRANCH   7  13
ENDBRANCH   4   6
ENDBRANCH   3   4
ENDBRANCH   2   3
ENDBRANCH   1   2
BRANCH   1  19
ATOM     19  O   UNL A   1      32.404  30.097  26.621  1.00  0.00    -0.458 OA
BRANCH  19  20
ATOM     20  C   UNL A   1      33.023  31.204  27.103  1.00  0.00     0.338 C 
ATOM     21  O   UNL A   1      32.529  32.314  27.219  1.00  0.00    -0.246 OA
BRANCH  20  22
ATOM     22  C   UNL A   1      34.404  30.885  27.548  1.00  0.00     0.060 A 
ATOM     23  C   UNL A   1      34.791  29.579  27.840  1.00  0.00     0.016 A 
ATOM     24  C   UNL A   1      35.293  31.932  27.810  1.00  0.00     0.016 A 
ATOM     25  C   UNL A   1      35.979  29.343  28.539  1.00  0.00     0.010 A 
ATOM     26  C   UNL A   1      36.537  31.674  28.404  1.00  0.00     0.010 A 
ATOM     27  C   UNL A   1      36.875  30.381  28.840  1.00  0.00    -0.014 A 
BRANCH  27  28
ATOM     28  C   UNL A   1      38.107  30.141  29.660  1.00  0.00     0.031 A 
ATOM     29  C   UNL A   1      39.256  29.335  29.098  1.00  0.00     0.074 A 
ATOM     30  C   UNL A   1      38.240  30.651  30.902  1.00  0.00     0.049 A 
ATOM     31  N   UNL A   1      40.269  28.781  29.723  1.00  0.00    -0.248 NA
ATOM     32  C   UNL A   1      39.258  29.100  27.645  1.00  0.00     0.031 C 
ATOM     33  C   UNL A   1      37.268  31.506  31.583  1.00  0.00     0.029 A 
ATOM     34  N   UNL A   1      39.265  30.534  31.812  1.00  0.00    -0.354 N 
ATOM     35  C   UNL A   1      40.965  28.059  28.760  1.00  0.00     0.074 A 
ATOM     36  C   UNL A   1      40.276  28.261  27.504  1.00  0.00     0.031 C 
ATOM     37  C   UNL A   1      37.772  31.896  32.763  1.00  0.00     0.029 A 
ATOM     38  C   UNL A   1      39.046  31.223  32.981  1.00  0.00     0.049 A 
ATOM     39  H   UNL A   1      40.079  30.008  31.642  1.00  0.00     0.167 HD
ATOM     40  C   UNL A   1      42.071  27.289  28.913  1.00  0.00     0.037 A 
ATOM     41  C   UNL A   1      39.754  31.270  34.126  1.00  0.00     0.037 A 
ATOM     42  C   UNL A   1      42.826  27.177  30.136  1.00  0.00     0.049 A 
ATOM     43  C   UNL A   1      40.985  30.423  34.275  1.00  0.00     0.074 A 
ATOM     44  C   UNL A   1      43.966  26.428  30.384  1.00  0.00     0.029 A 
ATOM     45  N   UNL A   1      42.543  27.868  31.303  1.00  0.00    -0.354 N 
ATOM     46  N   UNL A   1      41.550  29.625  33.403  1.00  0.00    -0.248 NA
ATOM     47  C   UNL A   1      41.650  30.448  35.586  1.00  0.00     0.031 C 
ATOM     48  C   UNL A   1      44.363  26.654  31.707  1.00  0.00     0.029 A 
ATOM     49  C   UNL A   1      43.488  27.568  32.272  1.00  0.00     0.049 A 
ATOM     50  H   UNL A   1      41.784  28.482  31.426  1.00  0.00     0.167 HD
ATOM     51  C   UNL A   1      42.630  29.052  34.057  1.00  0.00     0.074 A 
ATOM     52  C   UNL A   1      42.661  29.614  35.392  1.00  0.00     0.031 C 
ATOM     53  C   UNL A   1      43.507  28.128  33.596  1.00  0.00     0.037 A 
BRANCH  40  54
ATOM     54  C   UNL A   1      42.524  26.469  27.741  1.00  0.00     0.064 A 
ATOM     55  C   UNL A   1      41.953  25.227  27.431  1.00  0.00     0.173 A 
ATOM     56  C   UNL A   1      43.509  26.972  26.875  1.00  0.00     0.173 A 
ATOM     57  F   UNL A   1      41.016  24.696  28.230  1.00  0.00    -0.203 F 
ATOM     58  C   UNL A   1      42.366  24.510  26.309  1.00  0.00     0.198 A 
ATOM     59  C   UNL A   1      43.900  26.267  25.741  1.00  0.00     0.198 A 
ATOM     60  F   UNL A   1      44.078  28.162  27.119  1.00  0.00    -0.203 F 
ATOM     61  F   UNL A   1      41.833  23.308  26.050  1.00  0.00    -0.200 F 
ATOM     62  C   UNL A   1      43.332  25.034  25.461  1.00  0.00     0.200 A 
ATOM     63  F   UNL A   1      44.822  26.783  24.916  1.00  0.00    -0.200 F 
ATOM     64  F   UNL A   1      43.717  24.348  24.376  1.00  0.00    -0.200 F 
ENDBRANCH  40  54
BRANCH  41  65
ATOM     65  C   UNL A   1      39.276  32.117  35.249  1.00  0.00     0.064 A 
ATOM     66  C   UNL A   1      38.478  31.576  36.265  1.00  0.00     0.173 A 
ATOM     67  C   UNL A   1      39.624  33.472  35.340  1.00  0.00     0.173 A 
ATOM     68  F   UNL A   1      38.092  30.293  36.204  1.00  0.00    -0.203 F 
ATOM     69  C   UNL A   1      38.050  32.360  37.335  1.00  0.00     0.198 A 
ATOM     70  C   UNL A   1      39.222  34.247  36.425  1.00  0.00     0.198 A 
ATOM     71  F   UNL A   1      40.381  34.037  34.388  1.00  0.00    -0.203 F 
ATOM     72  F   UNL A   1      37.263  31.828  38.280  1.00  0.00    -0.200 F 
ATOM     73  C   UNL A   1      38.432  33.691  37.420  1.00  0.00     0.200 A 
ATOM     74  F   UNL A   1      39.605  35.527  36.510  1.00  0.00    -0.200 F 
ATOM     75  F   UNL A   1      38.036  34.438  38.459  1.00  0.00    -0.200 F 
ENDBRANCH  41  65
BRANCH  53  76
ATOM     76  C   UNL A   1      44.582  27.680  34.539  1.00  0.00     0.064 A 
ATOM     77  C   UNL A   1      44.403  26.563  35.368  1.00  0.00     0.173 A 
ATOM     78  C   UNL A   1      45.806  28.361  34.603  1.00  0.00     0.173 A 
ATOM     79  F   UNL A   1      43.243  25.891  35.354  1.00  0.00    -0.203 F 
ATOM     80  C   UNL A   1      45.405  26.158  36.245  1.00  0.00     0.198 A 
ATOM     81  C   UNL A   1      46.813  27.941  35.467  1.00  0.00     0.198 A 
ATOM     82  F   UNL A   1      46.024  29.434  33.828  1.00  0.00    -0.203 F 
ATOM     83  F   UNL A   1      45.199  25.112  37.058  1.00  0.00    -0.200 F 
ATOM     84  C   UNL A   1      46.610  26.843  36.290  1.00  0.00     0.200 A 
ATOM     85  F   UNL A   1      47.978  28.601  35.508  1.00  0.00    -0.200 F 
ATOM     86  F   UNL A   1      47.572  26.453  37.138  1.00  0.00    -0.200 F 
ENDBRANCH  53  76
ENDBRANCH  27  28
ENDBRANCH  20  22
ENDBRANCH  19  20
ENDBRANCH   1  19
TORSDOF 12
ENDMDL
MODEL 3
REMARK VINA RESULT:     -11.5      0.886      1.705
REMARK SMILES Cc1ccsc1[C@@H]1[NH2+][C@@H](C(=O)OCCOC(=O)c2ccc(-c3c4nc(c(-c5c(F)c(F)c(F)c(F)c5F)c5ccc([nH]5)c(-c5c(F)c(F)c(F)c(F)c5F)c5nc(c(-c6c(F)c(F)c(F)c(F)c6F)c6ccc3[nH]6)C=C5)C=C4)cc2)CS1
REMARK SMILES IDX 14 1 13 2 12 3 10 4 11 5 9 6 7 7 8 8 82 9 81 12 6 13 1 14
REMARK SMILES IDX 2 15 3 16 4 17 5 18 15 19 16 20 17 21 18 22 19 23 80 24
REMARK SMILES IDX 20 25 79 26 21 27 22 28 23 29 73 30 24 31 78 32 72 33 74 34
REMARK SMILES IDX 25 35 77 36 71 37 70 38 26 40 58 41 38 42 57 43 39 44 42 45
REMARK SMILES IDX 56 46 75 47 40 48 41 49 55 51 76 52 43 53 27 54 28 55 36 56
REMARK SMILES IDX 29 57 30 58 34 59 37 60 31 61 32 62 35 63 33 64 59 65 60 66
REMARK SMILES IDX 68 67 61 68 62 69 66 70 69 71 63 72 64 73 67 74 65 75 44 76
REMARK SMILES IDX 45 77 53 78 46 79 47 80 51 81 54 82 48 83 49 84 52 85 50 86
REMARK H PARENT 8 10 8 11 74 39 42 50
REMARK Flexibility Score: inf
ROOT
ATOM      1  C   UNL A   1      31.784  29.993  25.447  1.00  0.00     0.275 C 
ENDROOT
BRANCH   1   2
ATOM      2  C   UNL A   1      31.584  28.536  25.029  1.00  0.00     0.274 C 
BRANCH   2   3
ATOM      3  O   UNL A   1      32.748  28.020  24.338  1.00  0.00    -0.458 OA
BRANCH   3   4
ATOM      4  C   UNL A   1      32.580  26.783  23.786  1.00  0.00     0.365 C 
ATOM      5  O   UNL A   1      31.557  26.417  23.215  1.00  0.00    -0.245 OA
BRANCH   4   6
ATOM      6  C   UNL A   1      33.788  25.846  23.967  1.00  0.00     0.304 C 
ATOM      7  C   UNL A   1      33.511  23.441  24.233  1.00  0.00     0.284 C 
ATOM      8  N   UNL A   1      33.691  24.529  23.263  1.00  0.00    -0.318 N 
ATOM      9  S   UNL A   1      33.111  24.157  25.832  1.00  0.00    -0.087 SA
ATOM     10  H   UNL A   1      32.895  24.546  22.627  1.00  0.00     0.348 HD
ATOM     11  H   UNL A   1      34.555  24.368  22.744  1.00  0.00     0.348 HD
ATOM     12  C   UNL A   1      34.023  25.665  25.462  1.00  0.00     0.153 C 
BRANCH   7  13
ATOM     13  C   UNL A   1      34.697  22.485  24.322  1.00  0.00     0.075 A 
ATOM     14  C   UNL A   1      33.530  20.362  25.199  1.00  0.00     0.046 C 
ATOM     15  C   UNL A   1      34.719  21.182  24.818  1.00  0.00    -0.030 A 
ATOM     16  C   UNL A   1      36.064  20.710  25.001  1.00  0.00     0.015 A 
ATOM     17  C   UNL A   1      37.009  21.602  24.558  1.00  0.00     0.065 A 
ATOM     18  S   UNL A   1      36.290  22.958  23.834  1.00  0.00    -0.141 S 
ENDBRANCH   7  13
ENDBRANCH   4   6
ENDBRANCH   3   4
ENDBRANCH   2   3
ENDBRANCH   1   2
BRANCH   1  19
ATOM     19  O   UNL A   1      32.222  30.049  26.815  1.00  0.00    -0.458 OA
BRANCH  19  20
ATOM     20  C   UNL A   1      32.862  31.190  27.175  1.00  0.00     0.338 C 
ATOM     21  O   UNL A   1      32.376  32.308  27.213  1.00  0.00    -0.246 OA
BRANCH  20  22
ATOM     22  C   UNL A   1      34.259  30.902  27.593  1.00  0.00     0.060 A 
ATOM     23  C   UNL A   1      34.723  29.596  27.726  1.00  0.00     0.016 A 
ATOM     24  C   UNL A   1      35.080  31.960  27.992  1.00  0.00     0.016 A 
ATOM     25  C   UNL A   1      35.921  29.347  28.404  1.00  0.00     0.010 A 
ATOM     26  C   UNL A   1      36.336  31.706  28.564  1.00  0.00     0.010 A 
ATOM     27  C   UNL A   1      36.750  30.392  28.841  1.00  0.00    -0.014 A 
BRANCH  27  28
ATOM     28  C   UNL A   1      37.991  30.127  29.640  1.00  0.00     0.031 A 
ATOM     29  C   UNL A   1      39.116  29.302  29.057  1.00  0.00     0.074 A 
ATOM     30  C   UNL A   1      38.154  30.631  30.881  1.00  0.00     0.049 A 
ATOM     31  N   UNL A   1      40.129  28.728  29.663  1.00  0.00    -0.248 NA
ATOM     32  C   UNL A   1      39.089  29.072  27.604  1.00  0.00     0.031 C 
ATOM     33  C   UNL A   1      37.210  31.501  31.581  1.00  0.00     0.029 A 
ATOM     34  N   UNL A   1      39.192  30.492  31.774  1.00  0.00    -0.354 N 
ATOM     35  C   UNL A   1      40.796  27.996  28.686  1.00  0.00     0.074 A 
ATOM     36  C   UNL A   1      40.089  28.215  27.443  1.00  0.00     0.031 C 
ATOM     37  C   UNL A   1      37.740  31.878  32.753  1.00  0.00     0.029 A 
ATOM     38  C   UNL A   1      39.006  31.181  32.948  1.00  0.00     0.049 A 
ATOM     39  H   UNL A   1      39.994  29.952  31.589  1.00  0.00     0.167 HD
ATOM     40  C   UNL A   1      41.890  27.206  28.819  1.00  0.00     0.037 A 
ATOM     41  C   UNL A   1      39.733  31.212  34.081  1.00  0.00     0.037 A 
ATOM     42  C   UNL A   1      42.663  27.077  30.028  1.00  0.00     0.049 A 
ATOM     43  C   UNL A   1      40.951  30.342  34.207  1.00  0.00     0.074 A 
ATOM     44  C   UNL A   1      43.793  26.306  30.256  1.00  0.00     0.029 A 
ATOM     45  N   UNL A   1      42.412  27.769  31.203  1.00  0.00    -0.354 N 
ATOM     46  N   UNL A   1      41.487  29.537  33.323  1.00  0.00    -0.248 NA
ATOM     47  C   UNL A   1      41.638  30.352  35.506  1.00  0.00     0.031 C 
ATOM     48  C   UNL A   1      44.216  26.521  31.572  1.00  0.00     0.029 A 
ATOM     49  C   UNL A   1      43.368  27.448  32.155  1.00  0.00     0.049 A 
ATOM     50  H   UNL A   1      41.667  28.397  31.340  1.00  0.00     0.167 HD
ATOM     51  C   UNL A   1      42.567  28.942  33.958  1.00  0.00     0.074 A 
ATOM     52  C   UNL A   1      42.630  29.500  35.293  1.00  0.00     0.031 C 
ATOM     53  C   UNL A   1      43.419  28.005  33.480  1.00  0.00     0.037 A 
BRANCH  40  54
ATOM     54  C   UNL A   1      42.308  26.381  27.637  1.00  0.00     0.064 A 
ATOM     55  C   UNL A   1      43.325  26.787  26.763  1.00  0.00     0.173 A 
ATOM     56  C   UNL A   1      41.715  25.127  27.416  1.00  0.00     0.173 A 
ATOM     57  F   UNL A   1      43.918  27.979  26.923  1.00  0.00    -0.203 F 
ATOM     58  C   UNL A   1      43.720  25.976  25.699  1.00  0.00     0.198 A 
ATOM     59  C   UNL A   1      42.129  24.308  26.369  1.00  0.00     0.198 A 
ATOM     60  F   UNL A   1      40.744  24.686  28.231  1.00  0.00    -0.203 F 
ATOM     61  F   UNL A   1      44.670  26.398  24.854  1.00  0.00    -0.200 F 
ATOM     62  C   UNL A   1      43.127  24.736  25.508  1.00  0.00     0.200 A 
ATOM     63  F   UNL A   1      41.565  23.105  26.198  1.00  0.00    -0.200 F 
ATOM     64  F   UNL A   1      43.518  23.954  24.493  1.00  0.00    -0.200 F 
ENDBRANCH  40  54
BRANCH  41  65
ATOM     65  C   UNL A   1      39.289  32.064  35.214  1.00  0.00     0.064 A 
ATOM     66  C   UNL A   1      38.531  31.525  36.262  1.00  0.00     0.173 A 
ATOM     67  C   UNL A   1      39.631  33.422  35.283  1.00  0.00     0.173 A 
ATOM     68  F   UNL A   1      38.153  30.239  36.224  1.00  0.00    -0.203 F 
ATOM     69  C   UNL A   1      38.137  32.314  37.341  1.00  0.00     0.198 A 
ATOM     70  C   UNL A   1      39.263  34.202  36.377  1.00  0.00     0.198 A 
ATOM     71  F   UNL A   1      40.350  33.985  34.301  1.00  0.00    -0.203 F 
ATOM     72  F   UNL A   1      37.387  31.784  38.317  1.00  0.00    -0.200 F 
ATOM     73  C   UNL A   1      38.512  33.648  37.403  1.00  0.00     0.200 A 
ATOM     74  F   UNL A   1      39.640  35.485  36.439  1.00  0.00    -0.200 F 
ATOM     75  F   UNL A   1      38.148  34.401  38.450  1.00  0.00    -0.200 F 
ENDBRANCH  41  65
BRANCH  53  76
ATOM     76  C   UNL A   1      44.501  27.534  34.403  1.00  0.00     0.064 A 
ATOM     77  C   UNL A   1      44.317  26.416  35.230  1.00  0.00     0.173 A 
ATOM     78  C   UNL A   1      45.737  28.194  34.450  1.00  0.00     0.173 A 
ATOM     79  F   UNL A   1      43.145  25.764  35.231  1.00  0.00    -0.203 F 
ATOM     80  C   UNL A   1      45.326  25.990  36.088  1.00  0.00     0.198 A 
ATOM     81  C   UNL A   1      46.751  27.753  35.296  1.00  0.00     0.198 A 
ATOM     82  F   UNL A   1      45.961  29.267  33.677  1.00  0.00    -0.203 F 
ATOM     83  F   UNL A   1      45.116  24.944  36.900  1.00  0.00    -0.200 F 
ATOM     84  C   UNL A   1      46.542  26.655  36.117  1.00  0.00     0.200 A 
ATOM     85  F   UNL A   1      47.927  28.394  35.321  1.00  0.00    -0.200 F 
ATOM     86  F   UNL A   1      47.511  26.245  36.948  1.00  0.00    -0.200 F 
ENDBRANCH  53  76
ENDBRANCH  27  28
ENDBRANCH  20  22
ENDBRANCH  19  20
ENDBRANCH   1  19
TORSDOF 12
ENDMDL
