MODEL 1
REMARK VINA RESULT:     -10.5      0.000      0.000
REMARK SMILES O=C(OCCOC(=O)c1ccc2c(c1)-c1nc3ccccc3n1C2=O)c1ccc(-c2c3nc(c(-c4c(F)c(F)c(F)c(F)c4F)c4ccc([nH]4)c(-c4c(F)c(F)c(F)c(F)c4F)c4nc(c(-c5c(F)c(F)c(F)c(F)c5F)c5ccc2[nH]5)C=C4)C=C3)cc1
REMARK SMILES IDX 4 1 3 2 2 3 1 4 26 5 27 6 88 7 28 8 87 9 29 10 30 11 31 12
REMARK SMILES IDX 81 13 32 14 86 15 80 16 82 17 33 18 85 19 79 20 78 21 34 23
REMARK SMILES IDX 66 24 46 25 65 26 47 27 50 28 64 29 83 30 48 31 49 32 63 34
REMARK SMILES IDX 84 35 51 36 35 37 36 38 44 39 37 40 38 41 42 42 45 43 39 44
REMARK SMILES IDX 40 45 43 46 41 47 67 48 68 49 76 50 69 51 70 52 74 53 77 54
REMARK SMILES IDX 71 55 72 56 75 57 73 58 52 59 53 60 61 61 54 62 55 63 59 64
REMARK SMILES IDX 62 65 56 66 57 67 60 68 58 69 5 70 6 71 7 72 8 73 9 74 10 75
REMARK SMILES IDX 14 76 11 77 13 78 12 79 15 80 24 81 16 82 23 83 25 84 17 85
REMARK SMILES IDX 22 86 18 87 21 88 19 89 20 90
REMARK H PARENT 82 22 50 33
REMARK Flexibility Score: inf
ROOT
ATOM      1  C   UNL A   1      34.776  34.185  28.491  1.00  0.00     0.275 C 
ENDROOT
BRANCH   1   2
ATOM      2  O   UNL A   1      34.529  33.028  27.666  1.00  0.00    -0.458 OA
BRANCH   2   3
ATOM      3  C   UNL A   1      34.786  31.710  27.817  1.00  0.00     0.338 C 
ATOM      4  O   UNL A   1      33.863  30.929  27.579  1.00  0.00    -0.246 OA
BRANCH   3   5
ATOM      5  C   UNL A   1      36.044  31.101  28.384  1.00  0.00     0.060 A 
ATOM      6  C   UNL A   1      35.865  30.169  29.430  1.00  0.00     0.016 A 
ATOM      7  C   UNL A   1      37.357  31.399  28.037  1.00  0.00     0.016 A 
ATOM      8  C   UNL A   1      36.941  29.629  30.158  1.00  0.00     0.010 A 
ATOM      9  C   UNL A   1      38.438  30.901  28.803  1.00  0.00     0.010 A 
ATOM     10  C   UNL A   1      38.250  30.029  29.899  1.00  0.00    -0.014 A 
BRANCH  10  11
ATOM     11  C   UNL A   1      39.350  29.349  30.683  1.00  0.00     0.031 A 
ATOM     12  C   UNL A   1      39.473  27.961  30.183  1.00  0.00     0.074 A 
ATOM     13  C   UNL A   1      40.636  29.769  30.832  1.00  0.00     0.049 A 
ATOM     14  N   UNL A   1      40.151  27.711  29.114  1.00  0.00    -0.248 NA
ATOM     15  C   UNL A   1      38.648  26.858  30.652  1.00  0.00     0.031 C 
ATOM     16  C   UNL A   1      41.456  30.487  29.867  1.00  0.00     0.029 A 
ATOM     17  N   UNL A   1      41.394  29.802  32.015  1.00  0.00    -0.354 N 
ATOM     18  C   UNL A   1      39.854  26.436  28.734  1.00  0.00     0.074 A 
ATOM     19  C   UNL A   1      38.911  25.934  29.712  1.00  0.00     0.031 C 
ATOM     20  C   UNL A   1      42.485  31.082  30.492  1.00  0.00     0.029 A 
ATOM     21  C   UNL A   1      42.582  30.552  31.849  1.00  0.00     0.049 A 
ATOM     22  H   UNL A   1      41.131  29.359  32.854  1.00  0.00     0.167 HD
ATOM     23  C   UNL A   1      40.463  25.908  27.647  1.00  0.00     0.037 A 
ATOM     24  C   UNL A   1      43.795  30.167  32.346  1.00  0.00     0.037 A 
ATOM     25  C   UNL A   1      41.453  26.718  26.963  1.00  0.00     0.049 A 
ATOM     26  C   UNL A   1      44.333  29.253  31.258  1.00  0.00     0.074 A 
ATOM     27  C   UNL A   1      41.895  26.945  25.676  1.00  0.00     0.029 A 
ATOM     28  N   UNL A   1      42.215  27.548  27.749  1.00  0.00    -0.354 N 
ATOM     29  N   UNL A   1      44.836  29.648  30.107  1.00  0.00    -0.248 NA
ATOM     30  C   UNL A   1      43.903  27.847  31.266  1.00  0.00     0.031 C 
ATOM     31  C   UNL A   1      43.025  27.829  25.759  1.00  0.00     0.029 A 
ATOM     32  C   UNL A   1      43.281  28.094  27.098  1.00  0.00     0.049 A 
ATOM     33  H   UNL A   1      42.010  27.730  28.694  1.00  0.00     0.167 HD
ATOM     34  C   UNL A   1      44.438  28.669  29.193  1.00  0.00     0.074 A 
ATOM     35  C   UNL A   1      44.014  27.530  29.978  1.00  0.00     0.031 C 
ATOM     36  C   UNL A   1      44.201  28.909  27.866  1.00  0.00     0.037 A 
BRANCH  23  37
ATOM     37  C   UNL A   1      40.371  24.462  27.424  1.00  0.00     0.064 A 
ATOM     38  C   UNL A   1      41.373  23.665  27.995  1.00  0.00     0.173 A 
ATOM     39  C   UNL A   1      39.360  23.850  26.686  1.00  0.00     0.173 A 
ATOM     40  F   UNL A   1      42.329  24.227  28.755  1.00  0.00    -0.203 F 
ATOM     41  C   UNL A   1      41.383  22.293  27.808  1.00  0.00     0.198 A 
ATOM     42  C   UNL A   1      39.371  22.470  26.501  1.00  0.00     0.198 A 
ATOM     43  F   UNL A   1      38.368  24.582  26.157  1.00  0.00    -0.203 F 
ATOM     44  F   UNL A   1      42.351  21.553  28.364  1.00  0.00    -0.200 F 
ATOM     45  C   UNL A   1      40.385  21.696  27.055  1.00  0.00     0.200 A 
ATOM     46  F   UNL A   1      38.397  21.883  25.792  1.00  0.00    -0.200 F 
ATOM     47  F   UNL A   1      40.394  20.369  26.871  1.00  0.00    -0.200 F 
ENDBRANCH  23  37
BRANCH  24  48
ATOM     48  C   UNL A   1      43.870  29.980  33.819  1.00  0.00     0.064 A 
ATOM     49  C   UNL A   1      44.630  30.912  34.566  1.00  0.00     0.173 A 
ATOM     50  C   UNL A   1      43.223  28.986  34.557  1.00  0.00     0.173 A 
ATOM     51  F   UNL A   1      45.389  31.822  33.935  1.00  0.00    -0.203 F 
ATOM     52  C   UNL A   1      44.614  30.936  35.961  1.00  0.00     0.198 A 
ATOM     53  C   UNL A   1      43.188  29.022  35.955  1.00  0.00     0.198 A 
ATOM     54  F   UNL A   1      42.600  27.969  33.951  1.00  0.00    -0.203 F 
ATOM     55  F   UNL A   1      45.302  31.874  36.626  1.00  0.00    -0.200 F 
ATOM     56  C   UNL A   1      43.858  30.012  36.655  1.00  0.00     0.200 A 
ATOM     57  F   UNL A   1      42.472  28.105  36.623  1.00  0.00    -0.200 F 
ATOM     58  F   UNL A   1      43.774  30.072  37.991  1.00  0.00    -0.200 F 
ENDBRANCH  24  48
BRANCH  36  59
ATOM     59  C   UNL A   1      44.839  30.106  27.253  1.00  0.00     0.064 A 
ATOM     60  C   UNL A   1      44.046  31.205  26.898  1.00  0.00     0.173 A 
ATOM     61  C   UNL A   1      46.232  30.235  27.126  1.00  0.00     0.173 A 
ATOM     62  F   UNL A   1      42.712  31.153  27.041  1.00  0.00    -0.203 F 
ATOM     63  C   UNL A   1      44.617  32.391  26.449  1.00  0.00     0.198 A 
ATOM     64  C   UNL A   1      46.802  31.433  26.697  1.00  0.00     0.198 A 
ATOM     65  F   UNL A   1      47.048  29.213  27.434  1.00  0.00    -0.203 F 
ATOM     66  F   UNL A   1      43.833  33.433  26.138  1.00  0.00    -0.200 F 
ATOM     67  C   UNL A   1      45.994  32.509  26.364  1.00  0.00     0.200 A 
ATOM     68  F   UNL A   1      48.136  31.552  26.631  1.00  0.00    -0.200 F 
ATOM     69  F   UNL A   1      46.545  33.670  25.980  1.00  0.00    -0.200 F 
ENDBRANCH  36  59
ENDBRANCH  10  11
ENDBRANCH   3   5
ENDBRANCH   2   3
ENDBRANCH   1   2
BRANCH   1  70
ATOM     70  C   UNL A   1      33.996  34.216  29.804  1.00  0.00     0.275 C 
BRANCH  70  71
ATOM     71  O   UNL A   1      34.200  33.033  30.571  1.00  0.00    -0.458 OA
BRANCH  71  72
ATOM     72  C   UNL A   1      34.500  33.126  31.899  1.00  0.00     0.338 C 
ATOM     73  O   UNL A   1      33.744  33.366  32.815  1.00  0.00    -0.246 OA
BRANCH  72  74
ATOM     74  C   UNL A   1      35.942  32.759  31.985  1.00  0.00     0.060 A 
ATOM     75  C   UNL A   1      36.247  31.856  33.019  1.00  0.00     0.016 A 
ATOM     76  C   UNL A   1      36.969  33.421  31.248  1.00  0.00     0.028 A 
ATOM     77  C   UNL A   1      37.543  31.718  33.440  1.00  0.00     0.015 A 
ATOM     78  C   UNL A   1      38.285  33.253  31.672  1.00  0.00     0.032 A 
ATOM     79  C   UNL A   1      38.515  32.445  32.809  1.00  0.00     0.051 A 
ATOM     80  C   UNL A   1      39.591  33.837  31.320  1.00  0.00     0.149 A 
ATOM     81  C   UNL A   1      39.914  32.656  33.227  1.00  0.00     0.264 C 
ATOM     82  N   UNL A   1      40.227  34.495  30.380  1.00  0.00    -0.228 NA
ATOM     83  N   UNL A   1      40.473  33.483  32.300  1.00  0.00    -0.258 N 
ATOM     84  O   UNL A   1      40.563  32.306  34.178  1.00  0.00    -0.268 OA
ATOM     85  C   UNL A   1      41.562  34.575  30.845  1.00  0.00     0.090 A 
ATOM     86  C   UNL A   1      41.700  34.003  32.108  1.00  0.00     0.077 A 
ATOM     87  C   UNL A   1      42.731  35.092  30.263  1.00  0.00     0.030 A 
ATOM     88  C   UNL A   1      42.875  33.961  32.867  1.00  0.00     0.029 A 
ATOM     89  C   UNL A   1      43.946  35.035  30.984  1.00  0.00     0.002 A 
ATOM     90  C   UNL A   1      44.011  34.494  32.272  1.00  0.00     0.002 A 
ENDBRANCH  72  74
ENDBRANCH  71  72
ENDBRANCH  70  71
ENDBRANCH   1  70
TORSDOF 11
ENDMDL
MODEL 2
REMARK VINA RESULT:     -10.0      7.175     10.509
REMARK SMILES O=C(OCCOC(=O)c1ccc2c(c1)-c1nc3ccccc3n1C2=O)c1ccc(-c2c3nc(c(-c4c(F)c(F)c(F)c(F)c4F)c4ccc([nH]4)c(-c4c(F)c(F)c(F)c(F)c4F)c4nc(c(-c5c(F)c(F)c(F)c(F)c5F)c5ccc2[nH]5)C=C4)C=C3)cc1
REMARK SMILES IDX 4 1 3 2 2 3 1 4 26 5 27 6 88 7 28 8 87 9 29 10 30 11 31 12
REMARK SMILES IDX 81 13 32 14 86 15 80 16 82 17 33 18 85 19 79 20 78 21 34 23
REMARK SMILES IDX 66 24 46 25 65 26 47 27 50 28 64 29 83 30 48 31 49 32 63 34
REMARK SMILES IDX 84 35 51 36 35 37 36 38 44 39 37 40 38 41 42 42 45 43 39 44
REMARK SMILES IDX 40 45 43 46 41 47 67 48 68 49 76 50 69 51 70 52 74 53 77 54
REMARK SMILES IDX 71 55 72 56 75 57 73 58 52 59 53 60 61 61 54 62 55 63 59 64
REMARK SMILES IDX 62 65 56 66 57 67 60 68 58 69 5 70 6 71 7 72 8 73 9 74 10 75
REMARK SMILES IDX 14 76 11 77 13 78 12 79 15 80 24 81 16 82 23 83 25 84 17 85
REMARK SMILES IDX 22 86 18 87 21 88 19 89 20 90
REMARK H PARENT 82 22 50 33
REMARK Flexibility Score: inf
ROOT
ATOM      1  C   UNL A   1      44.052  39.463  26.812  1.00  0.00     0.275 C 
ENDROOT
BRANCH   1   2
ATOM      2  O   UNL A   1      43.421  38.168  26.860  1.00  0.00    -0.458 OA
BRANCH   2   3
ATOM      3  C   UNL A   1      43.832  36.951  27.280  1.00  0.00     0.338 C 
ATOM      4  O   UNL A   1      44.749  36.421  26.650  1.00  0.00    -0.246 OA
BRANCH   3   5
ATOM      5  C   UNL A   1      43.189  36.109  28.355  1.00  0.00     0.060 A 
ATOM      6  C   UNL A   1      44.043  35.668  29.391  1.00  0.00     0.016 A 
ATOM      7  C   UNL A   1      41.871  35.670  28.408  1.00  0.00     0.016 A 
ATOM      8  C   UNL A   1      43.628  34.758  30.380  1.00  0.00     0.010 A 
ATOM      9  C   UNL A   1      41.466  34.713  29.369  1.00  0.00     0.010 A 
ATOM     10  C   UNL A   1      42.345  34.215  30.357  1.00  0.00    -0.014 A 
BRANCH  10  11
ATOM     11  C   UNL A   1      41.962  33.297  31.495  1.00  0.00     0.031 A 
ATOM     12  C   UNL A   1      40.522  33.497  31.775  1.00  0.00     0.074 A 
ATOM     13  C   UNL A   1      42.133  31.948  31.560  1.00  0.00     0.049 A 
ATOM     14  N   UNL A   1      39.629  32.898  31.059  1.00  0.00    -0.248 NA
ATOM     15  C   UNL A   1      40.005  34.550  32.635  1.00  0.00     0.031 C 
ATOM     16  C   UNL A   1      42.075  30.989  30.465  1.00  0.00     0.029 A 
ATOM     17  N   UNL A   1      42.617  31.197  32.645  1.00  0.00    -0.354 N 
ATOM     18  C   UNL A   1      38.429  33.481  31.337  1.00  0.00     0.074 A 
ATOM     19  C   UNL A   1      38.699  34.509  32.321  1.00  0.00     0.031 C 
ATOM     20  C   UNL A   1      42.687  29.849  30.822  1.00  0.00     0.029 A 
ATOM     21  C   UNL A   1      42.923  29.869  32.263  1.00  0.00     0.049 A 
ATOM     22  H   UNL A   1      42.730  31.551  33.557  1.00  0.00     0.167 HD
ATOM     23  C   UNL A   1      37.308  33.013  30.738  1.00  0.00     0.037 A 
ATOM     24  C   UNL A   1      42.615  28.775  33.020  1.00  0.00     0.037 A 
ATOM     25  C   UNL A   1      37.438  31.866  29.858  1.00  0.00     0.049 A 
ATOM     26  C   UNL A   1      41.186  28.465  32.605  1.00  0.00     0.074 A 
ATOM     27  C   UNL A   1      36.879  31.390  28.691  1.00  0.00     0.029 A 
ATOM     28  N   UNL A   1      38.383  30.932  30.205  1.00  0.00    -0.354 N 
ATOM     29  N   UNL A   1      40.826  27.890  31.477  1.00  0.00    -0.248 NA
ATOM     30  C   UNL A   1      40.102  29.206  33.266  1.00  0.00     0.031 C 
ATOM     31  C   UNL A   1      37.435  30.087  28.449  1.00  0.00     0.029 A 
ATOM     32  C   UNL A   1      38.293  29.772  29.494  1.00  0.00     0.049 A 
ATOM     33  H   UNL A   1      39.061  31.086  30.902  1.00  0.00     0.167 HD
ATOM     34  C   UNL A   1      39.619  28.505  31.136  1.00  0.00     0.074 A 
ATOM     35  C   UNL A   1      39.154  29.176  32.332  1.00  0.00     0.031 C 
ATOM     36  C   UNL A   1      39.185  28.686  29.851  1.00  0.00     0.037 A 
BRANCH  23  37
ATOM     37  C   UNL A   1      36.005  33.434  31.260  1.00  0.00     0.064 A 
ATOM     38  C   UNL A   1      35.265  34.329  30.475  1.00  0.00     0.173 A 
ATOM     39  C   UNL A   1      35.475  33.002  32.473  1.00  0.00     0.173 A 
ATOM     40  F   UNL A   1      35.732  34.719  29.276  1.00  0.00    -0.203 F 
ATOM     41  C   UNL A   1      34.038  34.805  30.905  1.00  0.00     0.198 A 
ATOM     42  C   UNL A   1      34.240  33.480  32.903  1.00  0.00     0.198 A 
ATOM     43  F   UNL A   1      36.143  32.119  33.230  1.00  0.00    -0.203 F 
ATOM     44  F   UNL A   1      33.350  35.660  30.137  1.00  0.00    -0.200 F 
ATOM     45  C   UNL A   1      33.528  34.386  32.123  1.00  0.00     0.200 A 
ATOM     46  F   UNL A   1      33.731  33.063  34.070  1.00  0.00    -0.200 F 
ATOM     47  F   UNL A   1      32.343  34.847  32.542  1.00  0.00    -0.200 F 
ENDBRANCH  23  37
BRANCH  24  48
ATOM     48  C   UNL A   1      43.200  28.739  34.386  1.00  0.00     0.064 A 
ATOM     49  C   UNL A   1      44.181  27.755  34.660  1.00  0.00     0.173 A 
ATOM     50  C   UNL A   1      42.905  29.617  35.432  1.00  0.00     0.173 A 
ATOM     51  F   UNL A   1      44.436  26.790  33.761  1.00  0.00    -0.203 F 
ATOM     52  C   UNL A   1      44.921  27.752  35.843  1.00  0.00     0.198 A 
ATOM     53  C   UNL A   1      43.661  29.629  36.610  1.00  0.00     0.198 A 
ATOM     54  F   UNL A   1      41.895  30.489  35.339  1.00  0.00    -0.203 F 
ATOM     55  F   UNL A   1      45.881  26.837  36.034  1.00  0.00    -0.200 F 
ATOM     56  C   UNL A   1      44.686  28.718  36.802  1.00  0.00     0.200 A 
ATOM     57  F   UNL A   1      43.409  30.553  37.548  1.00  0.00    -0.200 F 
ATOM     58  F   UNL A   1      45.441  28.772  37.907  1.00  0.00    -0.200 F 
ENDBRANCH  24  48
BRANCH  36  59
ATOM     59  C   UNL A   1      39.743  27.794  28.798  1.00  0.00     0.064 A 
ATOM     60  C   UNL A   1      39.409  26.432  28.801  1.00  0.00     0.173 A 
ATOM     61  C   UNL A   1      40.496  28.282  27.718  1.00  0.00     0.173 A 
ATOM     62  F   UNL A   1      38.654  25.921  29.786  1.00  0.00    -0.203 F 
ATOM     63  C   UNL A   1      39.797  25.594  27.761  1.00  0.00     0.198 A 
ATOM     64  C   UNL A   1      40.864  27.443  26.668  1.00  0.00     0.198 A 
ATOM     65  F   UNL A   1      40.861  29.573  27.663  1.00  0.00    -0.203 F 
ATOM     66  F   UNL A   1      39.445  24.301  27.781  1.00  0.00    -0.200 F 
ATOM     67  C   UNL A   1      40.510  26.102  26.688  1.00  0.00     0.200 A 
ATOM     68  F   UNL A   1      41.539  27.939  25.621  1.00  0.00    -0.200 F 
ATOM     69  F   UNL A   1      40.839  25.303  25.663  1.00  0.00    -0.200 F 
ENDBRANCH  36  59
ENDBRANCH  10  11
ENDBRANCH   3   5
ENDBRANCH   2   3
ENDBRANCH   1   2
BRANCH   1  70
ATOM     70  C   UNL A   1      43.131  40.638  27.136  1.00  0.00     0.275 C 
BRANCH  70  71
ATOM     71  O   UNL A   1      43.071  41.578  26.067  1.00  0.00    -0.458 OA
BRANCH  71  72
ATOM     72  C   UNL A   1      42.033  41.536  25.182  1.00  0.00     0.338 C 
ATOM     73  O   UNL A   1      40.866  41.316  25.419  1.00  0.00    -0.246 OA
BRANCH  72  74
ATOM     74  C   UNL A   1      42.636  41.930  23.876  1.00  0.00     0.060 A 
ATOM     75  C   UNL A   1      43.999  42.264  23.948  1.00  0.00     0.016 A 
ATOM     76  C   UNL A   1      41.870  42.172  22.697  1.00  0.00     0.028 A 
ATOM     77  C   UNL A   1      44.578  42.976  22.931  1.00  0.00     0.015 A 
ATOM     78  C   UNL A   1      42.478  42.878  21.661  1.00  0.00     0.032 A 
ATOM     79  C   UNL A   1      43.810  43.313  21.851  1.00  0.00     0.051 A 
ATOM     80  C   UNL A   1      42.042  43.458  20.380  1.00  0.00     0.149 A 
ATOM     81  C   UNL A   1      44.122  44.266  20.769  1.00  0.00     0.264 C 
ATOM     82  N   UNL A   1      41.096  43.405  19.472  1.00  0.00    -0.228 NA
ATOM     83  N   UNL A   1      43.033  44.291  19.950  1.00  0.00    -0.258 N 
ATOM     84  O   UNL A   1      45.054  44.993  20.539  1.00  0.00    -0.268 OA
ATOM     85  C   UNL A   1      41.530  44.292  18.456  1.00  0.00     0.090 A 
ATOM     86  C   UNL A   1      42.724  44.920  18.800  1.00  0.00     0.077 A 
ATOM     87  C   UNL A   1      40.994  44.616  17.199  1.00  0.00     0.030 A 
ATOM     88  C   UNL A   1      43.393  45.886  18.041  1.00  0.00     0.029 A 
ATOM     89  C   UNL A   1      41.661  45.561  16.386  1.00  0.00     0.002 A 
ATOM     90  C   UNL A   1      42.830  46.198  16.809  1.00  0.00     0.002 A 
ENDBRANCH  72  74
ENDBRANCH  71  72
ENDBRANCH  70  71
ENDBRANCH   1  70
TORSDOF 11
ENDMDL
MODEL 3
REMARK VINA RESULT:     -10.0      1.201      1.466
REMARK SMILES O=C(OCCOC(=O)c1ccc2c(c1)-c1nc3ccccc3n1C2=O)c1ccc(-c2c3nc(c(-c4c(F)c(F)c(F)c(F)c4F)c4ccc([nH]4)c(-c4c(F)c(F)c(F)c(F)c4F)c4nc(c(-c5c(F)c(F)c(F)c(F)c5F)c5ccc2[nH]5)C=C4)C=C3)cc1
REMARK SMILES IDX 4 1 3 2 2 3 1 4 26 5 27 6 88 7 28 8 87 9 29 10 30 11 31 12
REMARK SMILES IDX 81 13 32 14 86 15 80 16 82 17 33 18 85 19 79 20 78 21 34 23
REMARK SMILES IDX 66 24 46 25 65 26 47 27 50 28 64 29 83 30 48 31 49 32 63 34
REMARK SMILES IDX 84 35 51 36 35 37 36 38 44 39 37 40 38 41 42 42 45 43 39 44
REMARK SMILES IDX 40 45 43 46 41 47 67 48 68 49 76 50 69 51 70 52 74 53 77 54
REMARK SMILES IDX 71 55 72 56 75 57 73 58 52 59 53 60 61 61 54 62 55 63 59 64
REMARK SMILES IDX 62 65 56 66 57 67 60 68 58 69 5 70 6 71 7 72 8 73 9 74 10 75
REMARK SMILES IDX 14 76 11 77 13 78 12 79 15 80 24 81 16 82 23 83 25 84 17 85
REMARK SMILES IDX 22 86 18 87 21 88 19 89 20 90
REMARK H PARENT 82 22 50 33
REMARK Flexibility Score: inf
ROOT
ATOM      1  C   UNL A   1      34.019  34.540  28.337  1.00  0.00     0.275 C 
ENDROOT
BRANCH   1   2
ATOM      2  O   UNL A   1      34.342  33.204  28.774  1.00  0.00    -0.458 OA
BRANCH   2   3
ATOM      3  C   UNL A   1      35.097  32.213  28.250  1.00  0.00     0.338 C 
ATOM      4  O   UNL A   1      34.655  31.640  27.253  1.00  0.00    -0.246 OA
BRANCH   3   5
ATOM      5  C   UNL A   1      36.359  31.639  28.844  1.00  0.00     0.060 A 
ATOM      6  C   UNL A   1      36.309  30.275  29.208  1.00  0.00     0.016 A 
ATOM      7  C   UNL A   1      37.541  32.314  29.129  1.00  0.00     0.016 A 
ATOM      8  C   UNL A   1      37.350  29.637  29.906  1.00  0.00     0.010 A 
ATOM      9  C   UNL A   1      38.567  31.690  29.879  1.00  0.00     0.010 A 
ATOM     10  C   UNL A   1      38.479  30.347  30.309  1.00  0.00    -0.014 A 
BRANCH  10  11
ATOM     11  C   UNL A   1      39.578  29.568  30.996  1.00  0.00     0.031 A 
ATOM     12  C   UNL A   1      39.598  28.205  30.417  1.00  0.00     0.074 A 
ATOM     13  C   UNL A   1      40.891  29.911  31.098  1.00  0.00     0.049 A 
ATOM     14  N   UNL A   1      40.206  27.980  29.300  1.00  0.00    -0.248 NA
ATOM     15  C   UNL A   1      38.739  27.122  30.870  1.00  0.00     0.031 C 
ATOM     16  C   UNL A   1      41.699  30.638  30.129  1.00  0.00     0.029 A 
ATOM     17  N   UNL A   1      41.710  29.838  32.238  1.00  0.00    -0.354 N 
ATOM     18  C   UNL A   1      39.821  26.747  28.869  1.00  0.00     0.074 A 
ATOM     19  C   UNL A   1      38.903  26.240  29.869  1.00  0.00     0.031 C 
ATOM     20  C   UNL A   1      42.790  31.142  30.729  1.00  0.00     0.029 A 
ATOM     21  C   UNL A   1      42.927  30.533  32.048  1.00  0.00     0.049 A 
ATOM     22  H   UNL A   1      41.466  29.362  33.065  1.00  0.00     0.167 HD
ATOM     23  C   UNL A   1      40.344  26.249  27.724  1.00  0.00     0.037 A 
ATOM     24  C   UNL A   1      44.141  30.057  32.458  1.00  0.00     0.037 A 
ATOM     25  C   UNL A   1      41.341  27.044  27.032  1.00  0.00     0.049 A 
ATOM     26  C   UNL A   1      44.571  29.179  31.295  1.00  0.00     0.074 A 
ATOM     27  C   UNL A   1      41.728  27.319  25.737  1.00  0.00     0.029 A 
ATOM     28  N   UNL A   1      42.186  27.787  27.819  1.00  0.00    -0.354 N 
ATOM     29  N   UNL A   1      45.036  29.611  30.142  1.00  0.00    -0.248 NA
ATOM     30  C   UNL A   1      44.065  27.799  31.251  1.00  0.00     0.031 C 
ATOM     31  C   UNL A   1      42.908  28.137  25.806  1.00  0.00     0.029 A 
ATOM     32  C   UNL A   1      43.246  28.312  27.142  1.00  0.00     0.049 A 
ATOM     33  H   UNL A   1      42.040  27.927  28.783  1.00  0.00     0.167 HD
ATOM     34  C   UNL A   1      44.539  28.708  29.199  1.00  0.00     0.074 A 
ATOM     35  C   UNL A   1      44.093  27.550  29.944  1.00  0.00     0.031 C 
ATOM     36  C   UNL A   1      44.248  29.034  27.902  1.00  0.00     0.037 A 
BRANCH  23  37
ATOM     37  C   UNL A   1      40.161  24.825  27.430  1.00  0.00     0.064 A 
ATOM     38  C   UNL A   1      41.203  23.961  27.794  1.00  0.00     0.173 A 
ATOM     39  C   UNL A   1      39.028  24.296  26.815  1.00  0.00     0.173 A 
ATOM     40  F   UNL A   1      42.282  24.441  28.436  1.00  0.00    -0.203 F 
ATOM     41  C   UNL A   1      41.129  22.604  27.525  1.00  0.00     0.198 A 
ATOM     42  C   UNL A   1      38.955  22.931  26.547  1.00  0.00     0.198 A 
ATOM     43  F   UNL A   1      37.999  25.091  26.487  1.00  0.00    -0.203 F 
ATOM     44  F   UNL A   1      42.137  21.799  27.883  1.00  0.00    -0.200 F 
ATOM     45  C   UNL A   1      40.007  22.090  26.894  1.00  0.00     0.200 A 
ATOM     46  F   UNL A   1      37.864  22.424  25.957  1.00  0.00    -0.200 F 
ATOM     47  F   UNL A   1      39.935  20.779  26.630  1.00  0.00    -0.200 F 
ENDBRANCH  23  37
BRANCH  24  48
ATOM     48  C   UNL A   1      44.280  29.784  33.913  1.00  0.00     0.064 A 
ATOM     49  C   UNL A   1      45.182  30.586  34.653  1.00  0.00     0.173 A 
ATOM     50  C   UNL A   1      43.570  28.828  34.643  1.00  0.00     0.173 A 
ATOM     51  F   UNL A   1      46.000  31.441  34.017  1.00  0.00    -0.203 F 
ATOM     52  C   UNL A   1      45.251  30.536  36.045  1.00  0.00     0.198 A 
ATOM     53  C   UNL A   1      43.621  28.792  36.041  1.00  0.00     0.198 A 
ATOM     54  F   UNL A   1      42.802  27.919  34.031  1.00  0.00    -0.203 F 
ATOM     55  F   UNL A   1      46.078  31.357  36.708  1.00  0.00    -0.200 F 
ATOM     56  C   UNL A   1      44.437  29.664  36.742  1.00  0.00     0.200 A 
ATOM     57  F   UNL A   1      42.847  27.924  36.708  1.00  0.00    -0.200 F 
ATOM     58  F   UNL A   1      44.439  29.661  38.081  1.00  0.00    -0.200 F 
ENDBRANCH  24  48
BRANCH  36  59
ATOM     59  C   UNL A   1      44.919  30.228  27.320  1.00  0.00     0.064 A 
ATOM     60  C   UNL A   1      44.182  31.404  27.119  1.00  0.00     0.173 A 
ATOM     61  C   UNL A   1      46.301  30.271  27.075  1.00  0.00     0.173 A 
ATOM     62  F   UNL A   1      42.865  31.432  27.379  1.00  0.00    -0.203 F 
ATOM     63  C   UNL A   1      44.800  32.579  26.706  1.00  0.00     0.198 A 
ATOM     64  C   UNL A   1      46.920  31.457  26.683  1.00  0.00     0.198 A 
ATOM     65  F   UNL A   1      47.061  29.175  27.234  1.00  0.00    -0.203 F 
ATOM     66  F   UNL A   1      44.073  33.693  26.543  1.00  0.00    -0.200 F 
ATOM     67  C   UNL A   1      46.170  32.609  26.503  1.00  0.00     0.200 A 
ATOM     68  F   UNL A   1      48.248  31.490  26.504  1.00  0.00    -0.200 F 
ATOM     69  F   UNL A   1      46.771  33.756  26.155  1.00  0.00    -0.200 F 
ENDBRANCH  36  59
ENDBRANCH  10  11
ENDBRANCH   3   5
ENDBRANCH   2   3
ENDBRANCH   1   2
BRANCH   1  70
ATOM     70  C   UNL A   1      33.276  35.390  29.365  1.00  0.00     0.275 C 
BRANCH  70  71
ATOM     71  O   UNL A   1      33.067  34.686  30.586  1.00  0.00    -0.458 OA
BRANCH  71  72
ATOM     72  C   UNL A   1      33.661  35.123  31.734  1.00  0.00     0.338 C 
ATOM     73  O   UNL A   1      33.262  35.976  32.497  1.00  0.00    -0.246 OA
BRANCH  72  74
ATOM     74  C   UNL A   1      34.851  34.242  31.901  1.00  0.00     0.060 A 
ATOM     75  C   UNL A   1      34.546  32.874  32.003  1.00  0.00     0.016 A 
ATOM     76  C   UNL A   1      36.164  34.735  32.163  1.00  0.00     0.028 A 
ATOM     77  C   UNL A   1      35.477  32.007  32.512  1.00  0.00     0.015 A 
ATOM     78  C   UNL A   1      37.108  33.838  32.659  1.00  0.00     0.032 A 
ATOM     79  C   UNL A   1      36.699  32.502  32.876  1.00  0.00     0.051 A 
ATOM     80  C   UNL A   1      38.479  33.932  33.187  1.00  0.00     0.149 A 
ATOM     81  C   UNL A   1      37.757  31.838  33.660  1.00  0.00     0.264 C 
ATOM     82  N   UNL A   1      39.543  34.700  33.214  1.00  0.00    -0.228 NA
ATOM     83  N   UNL A   1      38.764  32.745  33.797  1.00  0.00    -0.258 N 
ATOM     84  O   UNL A   1      37.850  30.762  34.194  1.00  0.00    -0.268 OA
ATOM     85  C   UNL A   1      40.510  33.941  33.919  1.00  0.00     0.090 A 
ATOM     86  C   UNL A   1      39.986  32.730  34.363  1.00  0.00     0.077 A 
ATOM     87  C   UNL A   1      41.861  34.183  34.215  1.00  0.00     0.030 A 
ATOM     88  C   UNL A   1      40.662  31.774  35.129  1.00  0.00     0.029 A 
ATOM     89  C   UNL A   1      42.589  33.223  34.956  1.00  0.00     0.002 A 
ATOM     90  C   UNL A   1      41.993  32.048  35.420  1.00  0.00     0.002 A 
ENDBRANCH  72  74
ENDBRANCH  71  72
ENDBRANCH  70  71
ENDBRANCH   1  70
TORSDOF 11
ENDMDL
