MODEL 1
REMARK VINA RESULT:     -12.3      0.000      0.000
REMARK SMILES CN(Cc1ncc(C(=O)OCCOC(=O)c2ccc(-c3c4nc(c(-c5c(F)c(F)c(F)c(F)c5F)c5ccc([nH]5)c(-c5c(F)c(F)c(F)c(F)c5F)c5nc(c(-c6c(F)c(F)c(F)c(F)c6F)c6ccc3[nH]6)C=C5)C=C4)cc2)cn1)S(=O)(=O)c1ccc(Cl)cc1
REMARK SMILES IDX 11 1 10 2 8 3 9 4 7 5 4 6 5 7 80 8 6 9 79 10 3 11 2 12 1 13
REMARK SMILES IDX 81 14 82 15 83 16 84 17 85 18 90 19 86 20 89 21 87 22 88 23
REMARK SMILES IDX 12 24 13 25 14 26 15 27 16 28 17 29 78 30 18 31 77 32 19 33
REMARK SMILES IDX 20 34 21 35 71 36 22 37 76 38 70 39 72 40 23 41 75 42 69 43
REMARK SMILES IDX 68 44 24 46 56 47 36 48 55 49 37 50 40 51 54 52 73 53 38 54
REMARK SMILES IDX 39 55 53 57 74 58 41 59 25 60 26 61 34 62 27 63 28 64 32 65
REMARK SMILES IDX 35 66 29 67 30 68 33 69 31 70 57 71 58 72 66 73 59 74 60 75
REMARK SMILES IDX 64 76 67 77 61 78 62 79 65 80 63 81 42 82 43 83 51 84 44 85
REMARK SMILES IDX 45 86 49 87 52 88 46 89 47 90 50 91 48 92
REMARK H PARENT 72 45 40 56
REMARK Flexibility Score: inf
ROOT
ATOM      1  C   UNL A   1      31.398  29.724  24.579  1.00  0.00     0.275 C 
ENDROOT
BRANCH   1   2
ATOM      2  O   UNL A   1      30.114  29.749  23.918  1.00  0.00    -0.458 OA
BRANCH   2   3
ATOM      3  C   UNL A   1      30.036  29.092  22.737  1.00  0.00     0.341 C 
ATOM      4  O   UNL A   1      29.885  29.593  21.633  1.00  0.00    -0.246 OA
BRANCH   3   5
ATOM      5  C   UNL A   1      30.275  27.653  22.911  1.00  0.00     0.096 A 
ATOM      6  C   UNL A   1      30.964  25.051  23.273  1.00  0.00     0.143 A 
ATOM      7  N   UNL A   1      29.991  25.567  24.059  1.00  0.00    -0.239 NA
ATOM      8  N   UNL A   1      31.536  25.707  22.244  1.00  0.00    -0.239 NA
ATOM      9  C   UNL A   1      29.687  26.874  23.876  1.00  0.00     0.130 A 
ATOM     10  C   UNL A   1      31.156  26.993  22.081  1.00  0.00     0.130 A 
BRANCH   6  11
ATOM     11  C   UNL A   1      31.512  23.671  23.613  1.00  0.00     0.179 C 
BRANCH  11  12
ATOM     12  N   UNL A   1      32.759  23.615  24.445  1.00  0.00    -0.193 NA
ATOM     13  C   UNL A   1      32.518  24.110  25.827  1.00  0.00     0.125 C 
BRANCH  12  14
ATOM     14  S   UNL A   1      34.168  24.297  23.762  1.00  0.00     0.243 S 
ATOM     15  O   UNL A   1      34.197  23.997  22.345  1.00  0.00    -0.207 OA
ATOM     16  O   UNL A   1      34.247  25.668  24.219  1.00  0.00    -0.207 OA
BRANCH  14  17
ATOM     17  C   UNL A   1      35.517  23.422  24.530  1.00  0.00     0.082 A 
ATOM     18  C   UNL A   1      36.256  24.053  25.538  1.00  0.00     0.023 A 
ATOM     19  C   UNL A   1      35.931  22.188  24.014  1.00  0.00     0.023 A 
ATOM     20  C   UNL A   1      37.408  23.439  26.039  1.00  0.00     0.022 A 
ATOM     21  C   UNL A   1      37.080  21.576  24.523  1.00  0.00     0.022 A 
ATOM     22  C   UNL A   1      37.815  22.205  25.528  1.00  0.00     0.041 A 
ATOM     23  Cl  UNL A   1      39.249  21.466  26.126  1.00  0.00    -0.084 Cl
ENDBRANCH  14  17
ENDBRANCH  12  14
ENDBRANCH  11  12
ENDBRANCH   6  11
ENDBRANCH   3   5
ENDBRANCH   2   3
ENDBRANCH   1   2
BRANCH   1  24
ATOM     24  C   UNL A   1      31.455  30.689  25.767  1.00  0.00     0.275 C 
BRANCH  24  25
ATOM     25  O   UNL A   1      32.626  30.456  26.574  1.00  0.00    -0.458 OA
BRANCH  25  26
ATOM     26  C   UNL A   1      33.177  31.571  27.106  1.00  0.00     0.338 C 
ATOM     27  O   UNL A   1      32.647  32.658  27.255  1.00  0.00    -0.246 OA
BRANCH  26  28
ATOM     28  C   UNL A   1      34.515  31.277  27.637  1.00  0.00     0.060 A 
ATOM     29  C   UNL A   1      34.778  29.958  27.985  1.00  0.00     0.016 A 
ATOM     30  C   UNL A   1      35.422  32.280  27.972  1.00  0.00     0.016 A 
ATOM     31  C   UNL A   1      35.894  29.633  28.744  1.00  0.00     0.010 A 
ATOM     32  C   UNL A   1      36.600  31.938  28.656  1.00  0.00     0.010 A 
ATOM     33  C   UNL A   1      36.836  30.614  29.079  1.00  0.00    -0.014 A 
BRANCH  33  34
ATOM     34  C   UNL A   1      38.034  30.239  29.886  1.00  0.00     0.031 A 
ATOM     35  C   UNL A   1      39.111  29.359  29.303  1.00  0.00     0.074 A 
ATOM     36  C   UNL A   1      38.181  30.718  31.138  1.00  0.00     0.049 A 
ATOM     37  N   UNL A   1      40.156  28.828  29.889  1.00  0.00    -0.248 NA
ATOM     38  C   UNL A   1      38.992  29.024  27.876  1.00  0.00     0.031 C 
ATOM     39  C   UNL A   1      37.242  31.614  31.817  1.00  0.00     0.029 A 
ATOM     40  N   UNL A   1      39.181  30.530  32.065  1.00  0.00    -0.354 N 
ATOM     41  C   UNL A   1      40.787  28.058  28.920  1.00  0.00     0.074 A 
ATOM     42  C   UNL A   1      39.999  28.179  27.711  1.00  0.00     0.031 C 
ATOM     43  C   UNL A   1      37.727  31.932  33.026  1.00  0.00     0.029 A 
ATOM     44  C   UNL A   1      38.958  31.184  33.253  1.00  0.00     0.049 A 
ATOM     45  H   UNL A   1      39.978  29.980  31.892  1.00  0.00     0.167 HD
ATOM     46  C   UNL A   1      41.918  27.318  29.029  1.00  0.00     0.037 A 
ATOM     47  C   UNL A   1      39.635  31.153  34.418  1.00  0.00     0.037 A 
ATOM     48  C   UNL A   1      42.722  27.235  30.224  1.00  0.00     0.049 A 
ATOM     49  C   UNL A   1      40.857  30.285  34.529  1.00  0.00     0.074 A 
ATOM     50  C   UNL A   1      43.898  26.531  30.426  1.00  0.00     0.029 A 
ATOM     51  N   UNL A   1      42.438  27.884  31.418  1.00  0.00    -0.354 N 
ATOM     52  N   UNL A   1      41.425  29.536  33.615  1.00  0.00    -0.248 NA
ATOM     53  C   UNL A   1      41.523  30.247  35.837  1.00  0.00     0.031 C 
ATOM     54  C   UNL A   1      44.291  26.706  31.757  1.00  0.00     0.029 A 
ATOM     55  C   UNL A   1      43.401  27.575  32.367  1.00  0.00     0.049 A 
ATOM     56  H   UNL A   1      41.668  28.478  31.568  1.00  0.00     0.167 HD
ATOM     57  C   UNL A   1      42.526  28.956  34.230  1.00  0.00     0.074 A 
ATOM     58  C   UNL A   1      42.557  29.457  35.588  1.00  0.00     0.031 C 
ATOM     59  C   UNL A   1      43.426  28.083  33.715  1.00  0.00     0.037 A 
BRANCH  46  60
ATOM     60  C   UNL A   1      42.340  26.500  27.840  1.00  0.00     0.064 A 
ATOM     61  C   UNL A   1      43.284  26.961  26.910  1.00  0.00     0.173 A 
ATOM     62  C   UNL A   1      41.818  25.208  27.653  1.00  0.00     0.173 A 
ATOM     63  F   UNL A   1      43.808  28.189  27.033  1.00  0.00    -0.203 F 
ATOM     64  C   UNL A   1      43.664  26.175  25.823  1.00  0.00     0.198 A 
ATOM     65  C   UNL A   1      42.227  24.413  26.586  1.00  0.00     0.198 A 
ATOM     66  F   UNL A   1      40.921  24.709  28.516  1.00  0.00    -0.203 F 
ATOM     67  F   UNL A   1      44.528  26.658  24.920  1.00  0.00    -0.200 F 
ATOM     68  C   UNL A   1      43.142  24.900  25.666  1.00  0.00     0.200 A 
ATOM     69  F   UNL A   1      41.736  23.173  26.449  1.00  0.00    -0.200 F 
ATOM     70  F   UNL A   1      43.517  24.142  24.626  1.00  0.00    -0.200 F 
ENDBRANCH  46  60
BRANCH  47  71
ATOM     71  C   UNL A   1      39.143  31.934  35.585  1.00  0.00     0.064 A 
ATOM     72  C   UNL A   1      38.303  31.353  36.544  1.00  0.00     0.173 A 
ATOM     73  C   UNL A   1      39.502  33.280  35.764  1.00  0.00     0.173 A 
ATOM     74  F   UNL A   1      37.911  30.078  36.406  1.00  0.00    -0.203 F 
ATOM     75  C   UNL A   1      37.827  32.090  37.627  1.00  0.00     0.198 A 
ATOM     76  C   UNL A   1      39.057  34.005  36.867  1.00  0.00     0.198 A 
ATOM     77  F   UNL A   1      40.303  33.887  34.876  1.00  0.00    -0.203 F 
ATOM     78  F   UNL A   1      36.985  31.524  38.501  1.00  0.00    -0.200 F 
ATOM     79  C   UNL A   1      38.212  33.412  37.792  1.00  0.00     0.200 A 
ATOM     80  F   UNL A   1      39.448  35.276  37.032  1.00  0.00    -0.200 F 
ATOM     81  F   UNL A   1      37.764  34.118  38.839  1.00  0.00    -0.200 F 
ENDBRANCH  47  71
BRANCH  59  82
ATOM     82  C   UNL A   1      44.550  27.648  34.612  1.00  0.00     0.064 A 
ATOM     83  C   UNL A   1      45.748  28.372  34.701  1.00  0.00     0.173 A 
ATOM     84  C   UNL A   1      44.415  26.502  35.411  1.00  0.00     0.173 A 
ATOM     85  F   UNL A   1      45.935  29.464  33.945  1.00  0.00    -0.203 F 
ATOM     86  C   UNL A   1      46.782  27.947  35.532  1.00  0.00     0.198 A 
ATOM     87  C   UNL A   1      45.436  26.101  36.268  1.00  0.00     0.198 A 
ATOM     88  F   UNL A   1      43.288  25.777  35.369  1.00  0.00    -0.203 F 
ATOM     89  F   UNL A   1      47.940  28.621  35.557  1.00  0.00    -0.200 F 
ATOM     90  C   UNL A   1      46.622  26.817  36.320  1.00  0.00     0.200 A 
ATOM     91  F   UNL A   1      45.273  25.017  37.039  1.00  0.00    -0.200 F 
ATOM     92  F   UNL A   1      47.615  26.412  37.124  1.00  0.00    -0.200 F 
ENDBRANCH  59  82
ENDBRANCH  33  34
ENDBRANCH  26  28
ENDBRANCH  25  26
ENDBRANCH  24  25
ENDBRANCH   1  24
TORSDOF 15
ENDMDL
MODEL 2
REMARK VINA RESULT:     -12.3      1.472      2.348
REMARK SMILES CN(Cc1ncc(C(=O)OCCOC(=O)c2ccc(-c3c4nc(c(-c5c(F)c(F)c(F)c(F)c5F)c5ccc([nH]5)c(-c5c(F)c(F)c(F)c(F)c5F)c5nc(c(-c6c(F)c(F)c(F)c(F)c6F)c6ccc3[nH]6)C=C5)C=C4)cc2)cn1)S(=O)(=O)c1ccc(Cl)cc1
REMARK SMILES IDX 11 1 10 2 8 3 9 4 7 5 4 6 5 7 80 8 6 9 79 10 3 11 2 12 1 13
REMARK SMILES IDX 81 14 82 15 83 16 84 17 85 18 90 19 86 20 89 21 87 22 88 23
REMARK SMILES IDX 12 24 13 25 14 26 15 27 16 28 17 29 78 30 18 31 77 32 19 33
REMARK SMILES IDX 20 34 21 35 71 36 22 37 76 38 70 39 72 40 23 41 75 42 69 43
REMARK SMILES IDX 68 44 24 46 56 47 36 48 55 49 37 50 40 51 54 52 73 53 38 54
REMARK SMILES IDX 39 55 53 57 74 58 41 59 25 60 26 61 34 62 27 63 28 64 32 65
REMARK SMILES IDX 35 66 29 67 30 68 33 69 31 70 57 71 58 72 66 73 59 74 60 75
REMARK SMILES IDX 64 76 67 77 61 78 62 79 65 80 63 81 42 82 43 83 51 84 44 85
REMARK SMILES IDX 45 86 49 87 52 88 46 89 47 90 50 91 48 92
REMARK H PARENT 72 45 40 56
REMARK Flexibility Score: inf
ROOT
ATOM      1  C   UNL A   1      31.488  29.647  24.564  1.00  0.00     0.275 C 
ENDROOT
BRANCH   1   2
ATOM      2  O   UNL A   1      30.180  29.492  23.970  1.00  0.00    -0.458 OA
BRANCH   2   3
ATOM      3  C   UNL A   1      30.144  28.921  22.742  1.00  0.00     0.341 C 
ATOM      4  O   UNL A   1      30.009  29.498  21.675  1.00  0.00    -0.246 OA
BRANCH   3   5
ATOM      5  C   UNL A   1      30.409  27.478  22.818  1.00  0.00     0.096 A 
ATOM      6  C   UNL A   1      31.139  24.870  23.023  1.00  0.00     0.143 A 
ATOM      7  N   UNL A   1      30.093  25.298  23.767  1.00  0.00    -0.239 NA
ATOM      8  N   UNL A   1      31.773  25.621  22.101  1.00  0.00    -0.239 NA
ATOM      9  C   UNL A   1      29.768  26.609  23.666  1.00  0.00     0.130 A 
ATOM     10  C   UNL A   1      31.371  26.907  22.012  1.00  0.00     0.130 A 
BRANCH   6  11
ATOM     11  C   UNL A   1      31.697  23.479  23.293  1.00  0.00     0.179 C 
BRANCH  11  12
ATOM     12  N   UNL A   1      32.995  23.394  24.041  1.00  0.00    -0.193 NA
ATOM     13  C   UNL A   1      34.139  23.144  23.124  1.00  0.00     0.125 C 
BRANCH  12  14
ATOM     14  S   UNL A   1      33.031  22.359  25.399  1.00  0.00     0.243 S 
ATOM     15  O   UNL A   1      34.149  22.727  26.243  1.00  0.00    -0.207 OA
ATOM     16  O   UNL A   1      31.690  22.318  25.943  1.00  0.00    -0.207 OA
BRANCH  14  17
ATOM     17  C   UNL A   1      33.363  20.741  24.731  1.00  0.00     0.082 A 
ATOM     18  C   UNL A   1      32.344  20.057  24.057  1.00  0.00     0.023 A 
ATOM     19  C   UNL A   1      34.573  20.101  25.025  1.00  0.00     0.023 A 
ATOM     20  C   UNL A   1      32.544  18.730  23.665  1.00  0.00     0.022 A 
ATOM     21  C   UNL A   1      34.770  18.776  24.625  1.00  0.00     0.022 A 
ATOM     22  C   UNL A   1      33.754  18.096  23.952  1.00  0.00     0.041 A 
ATOM     23  Cl  UNL A   1      33.986  16.454  23.494  1.00  0.00    -0.084 Cl
ENDBRANCH  14  17
ENDBRANCH  12  14
ENDBRANCH  11  12
ENDBRANCH   6  11
ENDBRANCH   3   5
ENDBRANCH   2   3
ENDBRANCH   1   2
BRANCH   1  24
ATOM     24  C   UNL A   1      31.474  30.622  25.746  1.00  0.00     0.275 C 
BRANCH  24  25
ATOM     25  O   UNL A   1      32.595  30.395  26.623  1.00  0.00    -0.458 OA
BRANCH  25  26
ATOM     26  C   UNL A   1      33.156  31.520  27.124  1.00  0.00     0.338 C 
ATOM     27  O   UNL A   1      32.634  32.613  27.250  1.00  0.00    -0.246 OA
BRANCH  26  28
ATOM     28  C   UNL A   1      34.496  31.230  27.654  1.00  0.00     0.060 A 
ATOM     29  C   UNL A   1      34.767  29.910  27.991  1.00  0.00     0.016 A 
ATOM     30  C   UNL A   1      35.394  32.236  28.000  1.00  0.00     0.016 A 
ATOM     31  C   UNL A   1      35.884  29.586  28.748  1.00  0.00     0.010 A 
ATOM     32  C   UNL A   1      36.574  31.896  28.682  1.00  0.00     0.010 A 
ATOM     33  C   UNL A   1      36.819  30.571  29.093  1.00  0.00    -0.014 A 
BRANCH  33  34
ATOM     34  C   UNL A   1      38.019  30.196  29.898  1.00  0.00     0.031 A 
ATOM     35  C   UNL A   1      39.089  29.308  29.318  1.00  0.00     0.074 A 
ATOM     36  C   UNL A   1      38.173  30.684  31.146  1.00  0.00     0.049 A 
ATOM     37  N   UNL A   1      40.134  28.776  29.903  1.00  0.00    -0.248 NA
ATOM     38  C   UNL A   1      38.963  28.962  27.894  1.00  0.00     0.031 C 
ATOM     39  C   UNL A   1      37.240  31.589  31.822  1.00  0.00     0.029 A 
ATOM     40  N   UNL A   1      39.175  30.500  32.070  1.00  0.00    -0.354 N 
ATOM     41  C   UNL A   1      40.759  27.996  28.938  1.00  0.00     0.074 A 
ATOM     42  C   UNL A   1      39.967  28.111  27.731  1.00  0.00     0.031 C 
ATOM     43  C   UNL A   1      37.731  31.915  33.026  1.00  0.00     0.029 A 
ATOM     44  C   UNL A   1      38.959  31.164  33.255  1.00  0.00     0.049 A 
ATOM     45  H   UNL A   1      39.970  29.945  31.899  1.00  0.00     0.167 HD
ATOM     46  C   UNL A   1      41.887  27.252  29.049  1.00  0.00     0.037 A 
ATOM     47  C   UNL A   1      39.641  31.139  34.416  1.00  0.00     0.037 A 
ATOM     48  C   UNL A   1      42.695  27.175  30.240  1.00  0.00     0.049 A 
ATOM     49  C   UNL A   1      40.860  30.267  34.529  1.00  0.00     0.074 A 
ATOM     50  C   UNL A   1      43.868  26.468  30.444  1.00  0.00     0.029 A 
ATOM     51  N   UNL A   1      42.419  27.835  31.431  1.00  0.00    -0.354 N 
ATOM     52  N   UNL A   1      41.421  29.508  33.619  1.00  0.00    -0.248 NA
ATOM     53  C   UNL A   1      41.531  30.235  35.835  1.00  0.00     0.031 C 
ATOM     54  C   UNL A   1      44.268  26.651  31.772  1.00  0.00     0.029 A 
ATOM     55  C   UNL A   1      43.384  27.529  32.379  1.00  0.00     0.049 A 
ATOM     56  H   UNL A   1      41.652  28.433  31.579  1.00  0.00     0.167 HD
ATOM     57  C   UNL A   1      42.522  28.928  34.234  1.00  0.00     0.074 A 
ATOM     58  C   UNL A   1      42.561  29.439  35.588  1.00  0.00     0.031 C 
ATOM     59  C   UNL A   1      43.417  28.047  33.723  1.00  0.00     0.037 A 
BRANCH  46  60
ATOM     60  C   UNL A   1      42.300  26.423  27.864  1.00  0.00     0.064 A 
ATOM     61  C   UNL A   1      43.280  26.851  26.956  1.00  0.00     0.173 A 
ATOM     62  C   UNL A   1      41.732  25.154  27.660  1.00  0.00     0.173 A 
ATOM     63  F   UNL A   1      43.849  28.057  27.095  1.00  0.00    -0.203 F 
ATOM     64  C   UNL A   1      43.651  26.056  25.873  1.00  0.00     0.198 A 
ATOM     65  C   UNL A   1      42.132  24.347  26.598  1.00  0.00     0.198 A 
ATOM     66  F   UNL A   1      40.799  24.687  28.503  1.00  0.00    -0.203 F 
ATOM     67  F   UNL A   1      44.552  26.508  24.989  1.00  0.00    -0.200 F 
ATOM     68  C   UNL A   1      43.084  24.803  25.699  1.00  0.00     0.200 A 
ATOM     69  F   UNL A   1      41.595  23.129  26.445  1.00  0.00    -0.200 F 
ATOM     70  F   UNL A   1      43.450  24.034  24.663  1.00  0.00    -0.200 F 
ENDBRANCH  46  60
BRANCH  47  71
ATOM     71  C   UNL A   1      39.158  31.931  35.579  1.00  0.00     0.064 A 
ATOM     72  C   UNL A   1      39.521  33.275  35.742  1.00  0.00     0.173 A 
ATOM     73  C   UNL A   1      38.324  31.361  36.553  1.00  0.00     0.173 A 
ATOM     74  F   UNL A   1      40.336  33.861  34.852  1.00  0.00    -0.203 F 
ATOM     75  C   UNL A   1      39.084  34.012  36.841  1.00  0.00     0.198 A 
ATOM     76  C   UNL A   1      37.856  32.109  37.632  1.00  0.00     0.198 A 
ATOM     77  F   UNL A   1      37.945  30.079  36.448  1.00  0.00    -0.203 F 
ATOM     78  F   UNL A   1      39.489  35.279  36.999  1.00  0.00    -0.200 F 
ATOM     79  C   UNL A   1      38.244  33.431  37.780  1.00  0.00     0.200 A 
ATOM     80  F   UNL A   1      37.029  31.547  38.524  1.00  0.00    -0.200 F 
ATOM     81  F   UNL A   1      37.815  34.142  38.831  1.00  0.00    -0.200 F 
ENDBRANCH  47  71
BRANCH  59  82
ATOM     82  C   UNL A   1      44.543  27.615  34.618  1.00  0.00     0.064 A 
ATOM     83  C   UNL A   1      44.450  26.469  35.422  1.00  0.00     0.173 A 
ATOM     84  C   UNL A   1      45.739  28.347  34.654  1.00  0.00     0.173 A 
ATOM     85  F   UNL A   1      43.322  25.744  35.439  1.00  0.00    -0.203 F 
ATOM     86  C   UNL A   1      45.502  26.090  36.253  1.00  0.00     0.198 A 
ATOM     87  C   UNL A   1      46.802  27.945  35.458  1.00  0.00     0.198 A 
ATOM     88  F   UNL A   1      45.883  29.447  33.901  1.00  0.00    -0.203 F 
ATOM     89  F   UNL A   1      45.370  25.026  37.056  1.00  0.00    -0.200 F 
ATOM     90  C   UNL A   1      46.679  26.824  36.264  1.00  0.00     0.200 A 
ATOM     91  F   UNL A   1      47.944  28.647  35.456  1.00  0.00    -0.200 F 
ATOM     92  F   UNL A   1      47.693  26.454  37.059  1.00  0.00    -0.200 F 
ENDBRANCH  59  82
ENDBRANCH  33  34
ENDBRANCH  26  28
ENDBRANCH  25  26
ENDBRANCH  24  25
ENDBRANCH   1  24
TORSDOF 15
ENDMDL
MODEL 3
REMARK VINA RESULT:     -12.2      1.448      2.037
REMARK SMILES CN(Cc1ncc(C(=O)OCCOC(=O)c2ccc(-c3c4nc(c(-c5c(F)c(F)c(F)c(F)c5F)c5ccc([nH]5)c(-c5c(F)c(F)c(F)c(F)c5F)c5nc(c(-c6c(F)c(F)c(F)c(F)c6F)c6ccc3[nH]6)C=C5)C=C4)cc2)cn1)S(=O)(=O)c1ccc(Cl)cc1
REMARK SMILES IDX 11 1 10 2 8 3 9 4 7 5 4 6 5 7 80 8 6 9 79 10 3 11 2 12 1 13
REMARK SMILES IDX 81 14 82 15 83 16 84 17 85 18 90 19 86 20 89 21 87 22 88 23
REMARK SMILES IDX 12 24 13 25 14 26 15 27 16 28 17 29 78 30 18 31 77 32 19 33
REMARK SMILES IDX 20 34 21 35 71 36 22 37 76 38 70 39 72 40 23 41 75 42 69 43
REMARK SMILES IDX 68 44 24 46 56 47 36 48 55 49 37 50 40 51 54 52 73 53 38 54
REMARK SMILES IDX 39 55 53 57 74 58 41 59 25 60 26 61 34 62 27 63 28 64 32 65
REMARK SMILES IDX 35 66 29 67 30 68 33 69 31 70 57 71 58 72 66 73 59 74 60 75
REMARK SMILES IDX 64 76 67 77 61 78 62 79 65 80 63 81 42 82 43 83 51 84 44 85
REMARK SMILES IDX 45 86 49 87 52 88 46 89 47 90 50 91 48 92
REMARK H PARENT 72 45 40 56
REMARK Flexibility Score: inf
ROOT
ATOM      1  C   UNL A   1      31.448  29.603  24.562  1.00  0.00     0.275 C 
ENDROOT
BRANCH   1   2
ATOM      2  O   UNL A   1      30.148  29.566  23.933  1.00  0.00    -0.458 OA
BRANCH   2   3
ATOM      3  C   UNL A   1      30.085  28.957  22.725  1.00  0.00     0.341 C 
ATOM      4  O   UNL A   1      29.931  29.502  21.643  1.00  0.00    -0.246 OA
BRANCH   3   5
ATOM      5  C   UNL A   1      30.345  27.516  22.840  1.00  0.00     0.096 A 
ATOM      6  C   UNL A   1      31.063  24.912  23.133  1.00  0.00     0.143 A 
ATOM      7  N   UNL A   1      29.967  25.350  23.797  1.00  0.00    -0.239 NA
ATOM      8  N   UNL A   1      31.756  25.651  22.245  1.00  0.00    -0.239 NA
ATOM      9  C   UNL A   1      29.649  26.659  23.656  1.00  0.00     0.130 A 
ATOM     10  C   UNL A   1      31.360  26.935  22.110  1.00  0.00     0.130 A 
BRANCH   6  11
ATOM     11  C   UNL A   1      31.601  23.527  23.462  1.00  0.00     0.179 C 
BRANCH  11  12
ATOM     12  N   UNL A   1      32.948  23.453  24.120  1.00  0.00    -0.193 NA
ATOM     13  C   UNL A   1      34.025  23.171  23.133  1.00  0.00     0.125 C 
BRANCH  12  14
ATOM     14  S   UNL A   1      33.072  22.455  25.500  1.00  0.00     0.243 S 
ATOM     15  O   UNL A   1      34.231  22.858  26.271  1.00  0.00    -0.207 OA
ATOM     16  O   UNL A   1      31.764  22.413  26.119  1.00  0.00    -0.207 OA
BRANCH  14  17
ATOM     17  C   UNL A   1      33.387  20.824  24.857  1.00  0.00     0.082 A 
ATOM     18  C   UNL A   1      32.319  20.064  24.366  1.00  0.00     0.023 A 
ATOM     19  C   UNL A   1      34.659  20.254  24.997  1.00  0.00     0.023 A 
ATOM     20  C   UNL A   1      32.529  18.730  24.003  1.00  0.00     0.022 A 
ATOM     21  C   UNL A   1      34.864  18.921  24.627  1.00  0.00     0.022 A 
ATOM     22  C   UNL A   1      33.798  18.165  24.137  1.00  0.00     0.041 A 
ATOM     23  Cl  UNL A   1      34.046  16.515  23.716  1.00  0.00    -0.084 Cl
ENDBRANCH  14  17
ENDBRANCH  12  14
ENDBRANCH  11  12
ENDBRANCH   6  11
ENDBRANCH   3   5
ENDBRANCH   2   3
ENDBRANCH   1   2
BRANCH   1  24
ATOM     24  C   UNL A   1      31.474  30.531  25.781  1.00  0.00     0.275 C 
BRANCH  24  25
ATOM     25  O   UNL A   1      32.655  30.314  26.577  1.00  0.00    -0.458 OA
BRANCH  25  26
ATOM     26  C   UNL A   1      33.192  31.437  27.107  1.00  0.00     0.338 C 
ATOM     27  O   UNL A   1      32.651  32.519  27.250  1.00  0.00    -0.246 OA
BRANCH  26  28
ATOM     28  C   UNL A   1      34.531  31.159  27.646  1.00  0.00     0.060 A 
ATOM     29  C   UNL A   1      34.811  29.841  27.984  1.00  0.00     0.016 A 
ATOM     30  C   UNL A   1      35.419  32.172  27.997  1.00  0.00     0.016 A 
ATOM     31  C   UNL A   1      35.926  29.526  28.748  1.00  0.00     0.010 A 
ATOM     32  C   UNL A   1      36.597  31.842  28.686  1.00  0.00     0.010 A 
ATOM     33  C   UNL A   1      36.850  30.518  29.099  1.00  0.00    -0.014 A 
BRANCH  33  34
ATOM     34  C   UNL A   1      38.049  30.153  29.912  1.00  0.00     0.031 A 
ATOM     35  C   UNL A   1      39.124  29.265  29.342  1.00  0.00     0.074 A 
ATOM     36  C   UNL A   1      38.196  30.650  31.157  1.00  0.00     0.049 A 
ATOM     37  N   UNL A   1      40.169  28.741  29.935  1.00  0.00    -0.248 NA
ATOM     38  C   UNL A   1      39.005  28.909  27.920  1.00  0.00     0.031 C 
ATOM     39  C   UNL A   1      37.258  31.557  31.822  1.00  0.00     0.029 A 
ATOM     40  N   UNL A   1      39.195  30.476  32.086  1.00  0.00    -0.354 N 
ATOM     41  C   UNL A   1      40.800  27.956  28.978  1.00  0.00     0.074 A 
ATOM     42  C   UNL A   1      40.012  28.060  27.767  1.00  0.00     0.031 C 
ATOM     43  C   UNL A   1      37.743  31.893  33.026  1.00  0.00     0.029 A 
ATOM     44  C   UNL A   1      38.972  31.147  33.265  1.00  0.00     0.049 A 
ATOM     45  H   UNL A   1      39.992  29.923  31.922  1.00  0.00     0.167 HD
ATOM     46  C   UNL A   1      41.930  27.217  29.098  1.00  0.00     0.037 A 
ATOM     47  C   UNL A   1      39.650  31.133  34.429  1.00  0.00     0.037 A 
ATOM     48  C   UNL A   1      42.734  27.151  30.294  1.00  0.00     0.049 A 
ATOM     49  C   UNL A   1      40.871  30.266  34.553  1.00  0.00     0.074 A 
ATOM     50  C   UNL A   1      43.909  26.449  30.507  1.00  0.00     0.029 A 
ATOM     51  N   UNL A   1      42.451  27.818  31.478  1.00  0.00    -0.354 N 
ATOM     52  N   UNL A   1      41.438  29.503  33.651  1.00  0.00    -0.248 NA
ATOM     53  C   UNL A   1      41.537  30.246  35.862  1.00  0.00     0.031 C 
ATOM     54  C   UNL A   1      44.303  26.643  31.835  1.00  0.00     0.029 A 
ATOM     55  C   UNL A   1      43.413  27.522  32.432  1.00  0.00     0.049 A 
ATOM     56  H   UNL A   1      41.681  28.415  31.619  1.00  0.00     0.167 HD
ATOM     57  C   UNL A   1      42.539  28.930  34.274  1.00  0.00     0.074 A 
ATOM     58  C   UNL A   1      42.571  29.452  35.625  1.00  0.00     0.031 C 
ATOM     59  C   UNL A   1      43.439  28.050  33.772  1.00  0.00     0.037 A 
BRANCH  46  60
ATOM     60  C   UNL A   1      42.351  26.381  27.921  1.00  0.00     0.064 A 
ATOM     61  C   UNL A   1      41.803  25.115  27.667  1.00  0.00     0.173 A 
ATOM     62  C   UNL A   1      43.293  26.880  27.004  1.00  0.00     0.173 A 
ATOM     63  F   UNL A   1      40.908  24.585  28.512  1.00  0.00    -0.203 F 
ATOM     64  C   UNL A   1      42.205  24.368  26.561  1.00  0.00     0.198 A 
ATOM     65  C   UNL A   1      43.665  26.146  25.881  1.00  0.00     0.198 A 
ATOM     66  F   UNL A   1      43.842  28.089  27.189  1.00  0.00    -0.203 F 
ATOM     67  F   UNL A   1      41.706  23.139  26.367  1.00  0.00    -0.200 F 
ATOM     68  C   UNL A   1      43.128  24.886  25.665  1.00  0.00     0.200 A 
ATOM     69  F   UNL A   1      44.542  26.659  25.008  1.00  0.00    -0.200 F 
ATOM     70  F   UNL A   1      43.505  24.171  24.596  1.00  0.00    -0.200 F 
ENDBRANCH  46  60
BRANCH  47  71
ATOM     71  C   UNL A   1      39.159  31.932  35.585  1.00  0.00     0.064 A 
ATOM     72  C   UNL A   1      38.334  31.360  36.563  1.00  0.00     0.173 A 
ATOM     73  C   UNL A   1      39.503  33.284  35.734  1.00  0.00     0.173 A 
ATOM     74  F   UNL A   1      37.956  30.078  36.454  1.00  0.00    -0.203 F 
ATOM     75  C   UNL A   1      37.858  32.113  37.635  1.00  0.00     0.198 A 
ATOM     76  C   UNL A   1      39.058  34.026  36.826  1.00  0.00     0.198 A 
ATOM     77  F   UNL A   1      40.289  33.883  34.828  1.00  0.00    -0.203 F 
ATOM     78  F   UNL A   1      37.030  31.555  38.527  1.00  0.00    -0.200 F 
ATOM     79  C   UNL A   1      38.229  33.443  37.771  1.00  0.00     0.200 A 
ATOM     80  F   UNL A   1      39.436  35.305  36.962  1.00  0.00    -0.200 F 
ATOM     81  F   UNL A   1      37.781  34.164  38.807  1.00  0.00    -0.200 F 
ENDBRANCH  47  71
BRANCH  59  82
ATOM     82  C   UNL A   1      44.562  27.627  34.676  1.00  0.00     0.064 A 
ATOM     83  C   UNL A   1      45.769  28.338  34.737  1.00  0.00     0.173 A 
ATOM     84  C   UNL A   1      44.417  26.507  35.508  1.00  0.00     0.173 A 
ATOM     85  F   UNL A   1      45.966  29.406  33.949  1.00  0.00    -0.203 F 
ATOM     86  C   UNL A   1      46.802  27.925  35.575  1.00  0.00     0.198 A 
ATOM     87  C   UNL A   1      45.438  26.117  36.371  1.00  0.00     0.198 A 
ATOM     88  F   UNL A   1      43.281  25.794  35.493  1.00  0.00    -0.203 F 
ATOM     89  F   UNL A   1      47.968  28.584  35.574  1.00  0.00    -0.200 F 
ATOM     90  C   UNL A   1      46.633  26.820  36.396  1.00  0.00     0.200 A 
ATOM     91  F   UNL A   1      45.266  25.058  37.175  1.00  0.00    -0.200 F 
ATOM     92  F   UNL A   1      47.625  26.427  37.207  1.00  0.00    -0.200 F 
ENDBRANCH  59  82
ENDBRANCH  33  34
ENDBRANCH  26  28
ENDBRANCH  25  26
ENDBRANCH  24  25
ENDBRANCH   1  24
TORSDOF 15
ENDMDL
