MODEL 1
REMARK VINA RESULT:     -10.3      0.000      0.000
REMARK SMILES CC1(C)CCN(C(=O)[C@@H]([NH3+])CC(=O)OCCOC(=O)c2ccc(-c3c4nc(c(-c5c(F)c(F)c(F)c(F)c5F)c5ccc([nH]5)c(-c5c(F)c(F)c(F)c(F)c5F)c5nc(c(-c6c(F)c(F)c(F)c(F)c6F)c6ccc3[nH]6)C=C5)C=C4)cc2)C1
REMARK SMILES IDX 15 1 14 2 12 3 13 4 11 5 9 6 7 7 8 8 6 9 1 10 2 11 3 12 4 13
REMARK SMILES IDX 83 14 5 15 10 16 16 20 17 21 18 22 19 23 20 24 21 25 82 26
REMARK SMILES IDX 22 27 81 28 23 29 24 30 25 31 75 32 26 33 80 34 74 35 76 36
REMARK SMILES IDX 27 37 79 38 73 39 72 40 28 42 60 43 40 44 59 45 41 46 44 47
REMARK SMILES IDX 58 48 77 49 42 50 43 51 57 53 78 54 45 55 29 56 30 57 38 58
REMARK SMILES IDX 31 59 32 60 36 61 39 62 33 63 34 64 37 65 35 66 61 67 62 68
REMARK SMILES IDX 70 69 63 70 64 71 68 72 71 73 65 74 66 75 69 76 67 77 46 78
REMARK SMILES IDX 47 79 55 80 48 81 49 82 53 83 56 84 50 85 51 86 54 87 52 88
REMARK H PARENT 10 17 10 18 10 19 76 41 44 52
REMARK Flexibility Score: inf
ROOT
ATOM      1  C   UNL A   1      33.481  33.995  28.003  1.00  0.00     0.274 C 
ENDROOT
BRANCH   1   2
ATOM      2  O   UNL A   1      32.856  34.233  29.278  1.00  0.00    -0.462 OA
BRANCH   2   3
ATOM      3  C   UNL A   1      32.828  35.507  29.726  1.00  0.00     0.312 C 
ATOM      4  O   UNL A   1      32.519  36.481  29.049  1.00  0.00    -0.252 OA
BRANCH   3   5
ATOM      5  C   UNL A   1      33.238  35.646  31.173  1.00  0.00     0.198 C 
BRANCH   5   6
ATOM      6  C   UNL A   1      34.428  34.793  31.602  1.00  0.00     0.282 C 
BRANCH   6   7
ATOM      7  C   UNL A   1      35.126  35.246  32.907  1.00  0.00     0.281 C 
ATOM      8  O   UNL A   1      34.718  36.255  33.494  1.00  0.00    -0.268 OA
BRANCH   7   9
ATOM      9  N   UNL A   1      36.220  34.557  33.382  1.00  0.00    -0.337 N 
ATOM     10  C   UNL A   1      37.054  31.558  33.409  1.00  0.00     0.013 C 
ATOM     11  C   UNL A   1      37.499  32.764  34.251  1.00  0.00    -0.016 C 
ATOM     12  C   UNL A   1      38.158  32.279  35.542  1.00  0.00     0.013 C 
ATOM     13  C   UNL A   1      38.418  33.704  33.450  1.00  0.00     0.030 C 
ATOM     14  C   UNL A   1      36.308  33.683  34.542  1.00  0.00     0.126 C 
ATOM     15  C   UNL A   1      37.451  34.530  32.613  1.00  0.00     0.120 C 
ENDBRANCH   7   9
ENDBRANCH   6   7
BRANCH   6  16
ATOM     16  N   UNL A   1      34.033  33.364  31.725  1.00  0.00    -0.347 N 
ATOM     17  H   UNL A   1      34.416  32.837  30.940  1.00  0.00     0.345 HD
ATOM     18  H   UNL A   1      33.016  33.291  31.720  1.00  0.00     0.345 HD
ATOM     19  H   UNL A   1      34.397  32.985  32.600  1.00  0.00     0.345 HD
ENDBRANCH   6  16
ENDBRANCH   5   6
ENDBRANCH   3   5
ENDBRANCH   2   3
ENDBRANCH   1   2
BRANCH   1  20
ATOM     20  C   UNL A   1      34.728  33.121  28.156  1.00  0.00     0.275 C 
BRANCH  20  21
ATOM     21  O   UNL A   1      34.428  31.895  28.852  1.00  0.00    -0.458 OA
BRANCH  21  22
ATOM     22  C   UNL A   1      34.592  30.769  28.121  1.00  0.00     0.338 C 
ATOM     23  O   UNL A   1      33.855  30.317  27.265  1.00  0.00    -0.246 OA
BRANCH  22  24
ATOM     24  C   UNL A   1      35.917  30.196  28.389  1.00  0.00     0.060 A 
ATOM     25  C   UNL A   1      36.162  29.707  29.674  1.00  0.00     0.016 A 
ATOM     26  C   UNL A   1      36.934  30.239  27.439  1.00  0.00     0.016 A 
ATOM     27  C   UNL A   1      37.429  29.265  30.027  1.00  0.00     0.010 A 
ATOM     28  C   UNL A   1      38.210  29.787  27.790  1.00  0.00     0.010 A 
ATOM     29  C   UNL A   1      38.465  29.310  29.089  1.00  0.00    -0.014 A 
BRANCH  29  30
ATOM     30  C   UNL A   1      39.827  28.901  29.498  1.00  0.00     0.031 A 
ATOM     31  C   UNL A   1      40.607  29.762  30.447  1.00  0.00     0.074 A 
ATOM     32  C   UNL A   1      40.340  27.743  29.047  1.00  0.00     0.049 A 
ATOM     33  N   UNL A   1      41.846  29.639  30.846  1.00  0.00    -0.248 NA
ATOM     34  C   UNL A   1      39.896  30.913  31.024  1.00  0.00     0.031 C 
ATOM     35  C   UNL A   1      39.643  26.796  28.176  1.00  0.00     0.029 A 
ATOM     36  N   UNL A   1      41.565  27.166  29.261  1.00  0.00    -0.354 N 
ATOM     37  C   UNL A   1      42.075  30.711  31.696  1.00  0.00     0.074 A 
ATOM     38  C   UNL A   1      40.848  31.477  31.757  1.00  0.00     0.031 C 
ATOM     39  C   UNL A   1      40.453  25.754  27.929  1.00  0.00     0.029 A 
ATOM     40  C   UNL A   1      41.738  25.986  28.583  1.00  0.00     0.049 A 
ATOM     41  H   UNL A   1      42.253  27.560  29.845  1.00  0.00     0.167 HD
ATOM     42  C   UNL A   1      43.212  31.027  32.360  1.00  0.00     0.037 A 
ATOM     43  C   UNL A   1      42.827  25.201  28.473  1.00  0.00     0.037 A 
ATOM     44  C   UNL A   1      44.420  30.246  32.312  1.00  0.00     0.049 A 
ATOM     45  C   UNL A   1      44.090  25.600  29.182  1.00  0.00     0.074 A 
ATOM     46  C   UNL A   1      45.627  30.480  32.948  1.00  0.00     0.029 A 
ATOM     47  N   UNL A   1      44.568  29.072  31.590  1.00  0.00    -0.354 N 
ATOM     48  N   UNL A   1      44.313  26.636  29.954  1.00  0.00    -0.248 NA
ATOM     49  C   UNL A   1      45.258  24.728  28.995  1.00  0.00     0.031 C 
ATOM     50  C   UNL A   1      46.515  29.462  32.587  1.00  0.00     0.029 A 
ATOM     51  C   UNL A   1      45.851  28.576  31.754  1.00  0.00     0.049 A 
ATOM     52  H   UNL A   1      43.866  28.652  31.043  1.00  0.00     0.167 HD
ATOM     53  C   UNL A   1      45.636  26.535  30.356  1.00  0.00     0.074 A 
ATOM     54  C   UNL A   1      46.165  25.328  29.753  1.00  0.00     0.031 C 
ATOM     55  C   UNL A   1      46.352  27.368  31.149  1.00  0.00     0.037 A 
BRANCH  42  56
ATOM     56  C   UNL A   1      43.213  32.289  33.166  1.00  0.00     0.064 A 
ATOM     57  C   UNL A   1      43.632  33.512  32.623  1.00  0.00     0.173 A 
ATOM     58  C   UNL A   1      42.759  32.279  34.494  1.00  0.00     0.173 A 
ATOM     59  F   UNL A   1      44.091  33.569  31.363  1.00  0.00    -0.203 F 
ATOM     60  C   UNL A   1      43.613  34.677  33.386  1.00  0.00     0.198 A 
ATOM     61  C   UNL A   1      42.721  33.449  35.247  1.00  0.00     0.198 A 
ATOM     62  F   UNL A   1      42.347  31.133  35.057  1.00  0.00    -0.203 F 
ATOM     63  F   UNL A   1      44.052  35.829  32.860  1.00  0.00    -0.200 F 
ATOM     64  C   UNL A   1      43.153  34.645  34.695  1.00  0.00     0.200 A 
ATOM     65  F   UNL A   1      42.270  33.417  36.508  1.00  0.00    -0.200 F 
ATOM     66  F   UNL A   1      43.131  35.768  35.426  1.00  0.00    -0.200 F 
ENDBRANCH  42  56
BRANCH  43  67
ATOM     67  C   UNL A   1      42.769  23.977  27.635  1.00  0.00     0.064 A 
ATOM     68  C   UNL A   1      43.084  24.022  26.271  1.00  0.00     0.173 A 
ATOM     69  C   UNL A   1      42.411  22.738  28.185  1.00  0.00     0.173 A 
ATOM     70  F   UNL A   1      43.409  25.190  25.697  1.00  0.00    -0.203 F 
ATOM     71  C   UNL A   1      43.036  22.873  25.486  1.00  0.00     0.198 A 
ATOM     72  C   UNL A   1      42.387  21.584  27.405  1.00  0.00     0.198 A 
ATOM     73  F   UNL A   1      42.100  22.645  29.486  1.00  0.00    -0.203 F 
ATOM     74  F   UNL A   1      43.309  22.947  24.176  1.00  0.00    -0.200 F 
ATOM     75  C   UNL A   1      42.694  21.654  26.055  1.00  0.00     0.200 A 
ATOM     76  F   UNL A   1      42.067  20.408  27.960  1.00  0.00    -0.200 F 
ATOM     77  F   UNL A   1      42.655  20.548  25.299  1.00  0.00    -0.200 F 
ENDBRANCH  43  67
BRANCH  55  78
ATOM     78  C   UNL A   1      47.772  26.989  31.433  1.00  0.00     0.064 A 
ATOM     79  C   UNL A   1      48.096  26.089  32.458  1.00  0.00     0.173 A 
ATOM     80  C   UNL A   1      48.814  27.496  30.643  1.00  0.00     0.173 A 
ATOM     81  F   UNL A   1      47.134  25.592  33.248  1.00  0.00    -0.203 F 
ATOM     82  C   UNL A   1      49.418  25.721  32.691  1.00  0.00     0.198 A 
ATOM     83  C   UNL A   1      50.132  27.109  30.865  1.00  0.00     0.198 A 
ATOM     84  F   UNL A   1      48.550  28.357  29.648  1.00  0.00    -0.203 F 
ATOM     85  F   UNL A   1      49.711  24.884  33.697  1.00  0.00    -0.200 F 
ATOM     86  C   UNL A   1      50.433  26.226  31.891  1.00  0.00     0.200 A 
ATOM     87  F   UNL A   1      51.111  27.592  30.088  1.00  0.00    -0.200 F 
ATOM     88  F   UNL A   1      51.705  25.865  32.114  1.00  0.00    -0.200 F 
ENDBRANCH  55  78
ENDBRANCH  29  30
ENDBRANCH  22  24
ENDBRANCH  21  22
ENDBRANCH  20  21
ENDBRANCH   1  20
TORSDOF 15
ENDMDL
MODEL 2
REMARK VINA RESULT:     -10.2      4.542     11.484
REMARK SMILES CC1(C)CCN(C(=O)[C@@H]([NH3+])CC(=O)OCCOC(=O)c2ccc(-c3c4nc(c(-c5c(F)c(F)c(F)c(F)c5F)c5ccc([nH]5)c(-c5c(F)c(F)c(F)c(F)c5F)c5nc(c(-c6c(F)c(F)c(F)c(F)c6F)c6ccc3[nH]6)C=C5)C=C4)cc2)C1
REMARK SMILES IDX 15 1 14 2 12 3 13 4 11 5 9 6 7 7 8 8 6 9 1 10 2 11 3 12 4 13
REMARK SMILES IDX 83 14 5 15 10 16 16 20 17 21 18 22 19 23 20 24 21 25 82 26
REMARK SMILES IDX 22 27 81 28 23 29 24 30 25 31 75 32 26 33 80 34 74 35 76 36
REMARK SMILES IDX 27 37 79 38 73 39 72 40 28 42 60 43 40 44 59 45 41 46 44 47
REMARK SMILES IDX 58 48 77 49 42 50 43 51 57 53 78 54 45 55 29 56 30 57 38 58
REMARK SMILES IDX 31 59 32 60 36 61 39 62 33 63 34 64 37 65 35 66 61 67 62 68
REMARK SMILES IDX 70 69 63 70 64 71 68 72 71 73 65 74 66 75 69 76 67 77 46 78
REMARK SMILES IDX 47 79 55 80 48 81 49 82 53 83 56 84 50 85 51 86 54 87 52 88
REMARK H PARENT 10 17 10 18 10 19 76 41 44 52
REMARK Flexibility Score: inf
ROOT
ATOM      1  C   UNL A   1      41.170  19.843  26.582  1.00  0.00     0.274 C 
ENDROOT
BRANCH   1   2
ATOM      2  O   UNL A   1      42.114  19.648  25.513  1.00  0.00    -0.462 OA
BRANCH   2   3
ATOM      3  C   UNL A   1      42.953  18.593  25.611  1.00  0.00     0.312 C 
ATOM      4  O   UNL A   1      42.633  17.480  26.013  1.00  0.00    -0.252 OA
BRANCH   3   5
ATOM      5  C   UNL A   1      44.368  18.906  25.188  1.00  0.00     0.198 C 
BRANCH   5   6
ATOM      6  C   UNL A   1      44.526  20.117  24.274  1.00  0.00     0.282 C 
BRANCH   6   7
ATOM      7  C   UNL A   1      45.675  21.083  24.654  1.00  0.00     0.281 C 
ATOM      8  O   UNL A   1      46.836  20.659  24.688  1.00  0.00    -0.268 OA
BRANCH   7   9
ATOM      9  N   UNL A   1      45.397  22.387  24.996  1.00  0.00    -0.337 N 
ATOM     10  C   UNL A   1      43.275  23.751  26.820  1.00  0.00     0.013 C 
ATOM     11  C   UNL A   1      44.143  24.280  25.668  1.00  0.00    -0.016 C 
ATOM     12  C   UNL A   1      43.543  25.574  25.119  1.00  0.00     0.013 C 
ATOM     13  C   UNL A   1      45.609  24.461  26.100  1.00  0.00     0.030 C 
ATOM     14  C   UNL A   1      44.282  23.219  24.571  1.00  0.00     0.126 C 
ATOM     15  C   UNL A   1      46.189  23.055  26.013  1.00  0.00     0.120 C 
ENDBRANCH   7   9
ENDBRANCH   6   7
BRANCH   6  16
ATOM     16  N   UNL A   1      44.690  19.690  22.859  1.00  0.00    -0.347 N 
ATOM     17  H   UNL A   1      45.068  20.464  22.311  1.00  0.00     0.345 HD
ATOM     18  H   UNL A   1      43.784  19.416  22.479  1.00  0.00     0.345 HD
ATOM     19  H   UNL A   1      45.332  18.897  22.815  1.00  0.00     0.345 HD
ENDBRANCH   6  16
ENDBRANCH   5   6
ENDBRANCH   3   5
ENDBRANCH   2   3
ENDBRANCH   1   2
BRANCH   1  20
ATOM     20  C   UNL A   1      40.008  20.734  26.134  1.00  0.00     0.275 C 
BRANCH  20  21
ATOM     21  O   UNL A   1      40.217  22.105  26.525  1.00  0.00    -0.458 OA
BRANCH  21  22
ATOM     22  C   UNL A   1      39.167  22.928  26.306  1.00  0.00     0.338 C 
ATOM     23  O   UNL A   1      38.097  22.656  25.792  1.00  0.00    -0.246 OA
BRANCH  22  24
ATOM     24  C   UNL A   1      39.422  24.231  26.930  1.00  0.00     0.060 A 
ATOM     25  C   UNL A   1      40.027  25.216  26.147  1.00  0.00     0.016 A 
ATOM     26  C   UNL A   1      39.180  24.449  28.285  1.00  0.00     0.016 A 
ATOM     27  C   UNL A   1      40.406  26.426  26.711  1.00  0.00     0.010 A 
ATOM     28  C   UNL A   1      39.553  25.671  28.852  1.00  0.00     0.010 A 
ATOM     29  C   UNL A   1      40.179  26.660  28.070  1.00  0.00    -0.014 A 
BRANCH  29  30
ATOM     30  C   UNL A   1      40.650  27.926  28.674  1.00  0.00     0.031 A 
ATOM     31  C   UNL A   1      42.105  28.102  28.989  1.00  0.00     0.074 A 
ATOM     32  C   UNL A   1      39.776  28.923  28.899  1.00  0.00     0.049 A 
ATOM     33  N   UNL A   1      42.704  29.084  29.610  1.00  0.00    -0.248 NA
ATOM     34  C   UNL A   1      43.008  27.030  28.542  1.00  0.00     0.031 C 
ATOM     35  C   UNL A   1      38.352  28.885  28.569  1.00  0.00     0.029 A 
ATOM     36  N   UNL A   1      39.960  30.161  29.459  1.00  0.00    -0.354 N 
ATOM     37  C   UNL A   1      44.046  28.737  29.659  1.00  0.00     0.074 A 
ATOM     38  C   UNL A   1      44.177  27.453  29.003  1.00  0.00     0.031 C 
ATOM     39  C   UNL A   1      37.789  30.049  28.932  1.00  0.00     0.029 A 
ATOM     40  C   UNL A   1      38.803  30.889  29.564  1.00  0.00     0.049 A 
ATOM     41  H   UNL A   1      40.838  30.494  29.755  1.00  0.00     0.167 HD
ATOM     42  C   UNL A   1      45.072  29.430  30.206  1.00  0.00     0.037 A 
ATOM     43  C   UNL A   1      38.581  32.086  30.140  1.00  0.00     0.037 A 
ATOM     44  C   UNL A   1      44.935  30.717  30.834  1.00  0.00     0.049 A 
ATOM     45  C   UNL A   1      39.728  32.812  30.783  1.00  0.00     0.074 A 
ATOM     46  C   UNL A   1      45.913  31.502  31.420  1.00  0.00     0.029 A 
ATOM     47  N   UNL A   1      43.740  31.412  30.949  1.00  0.00    -0.354 N 
ATOM     48  N   UNL A   1      40.989  32.461  30.859  1.00  0.00    -0.248 NA
ATOM     49  C   UNL A   1      39.421  34.094  31.431  1.00  0.00     0.031 C 
ATOM     50  C   UNL A   1      45.304  32.660  31.916  1.00  0.00     0.029 A 
ATOM     51  C   UNL A   1      43.954  32.612  31.608  1.00  0.00     0.049 A 
ATOM     52  H   UNL A   1      42.870  31.100  30.612  1.00  0.00     0.167 HD
ATOM     53  C   UNL A   1      41.628  33.481  31.548  1.00  0.00     0.074 A 
ATOM     54  C   UNL A   1      40.618  34.472  31.858  1.00  0.00     0.031 C 
ATOM     55  C   UNL A   1      42.933  33.586  31.898  1.00  0.00     0.037 A 
BRANCH  42  56
ATOM     56  C   UNL A   1      46.427  28.792  30.182  1.00  0.00     0.064 A 
ATOM     57  C   UNL A   1      46.861  27.941  31.209  1.00  0.00     0.173 A 
ATOM     58  C   UNL A   1      47.291  29.012  29.099  1.00  0.00     0.173 A 
ATOM     59  F   UNL A   1      46.077  27.713  32.273  1.00  0.00    -0.203 F 
ATOM     60  C   UNL A   1      48.120  27.347  31.160  1.00  0.00     0.198 A 
ATOM     61  C   UNL A   1      48.540  28.401  29.043  1.00  0.00     0.198 A 
ATOM     62  F   UNL A   1      46.920  29.818  28.092  1.00  0.00    -0.203 F 
ATOM     63  F   UNL A   1      48.531  26.566  32.168  1.00  0.00    -0.200 F 
ATOM     64  C   UNL A   1      48.956  27.573  30.075  1.00  0.00     0.200 A 
ATOM     65  F   UNL A   1      49.343  28.615  27.992  1.00  0.00    -0.200 F 
ATOM     66  F   UNL A   1      50.165  26.998  30.028  1.00  0.00    -0.200 F 
ENDBRANCH  42  56
BRANCH  43  67
ATOM     67  C   UNL A   1      37.209  32.651  30.156  1.00  0.00     0.064 A 
ATOM     68  C   UNL A   1      36.313  32.343  31.188  1.00  0.00     0.173 A 
ATOM     69  C   UNL A   1      36.771  33.521  29.147  1.00  0.00     0.173 A 
ATOM     70  F   UNL A   1      36.681  31.496  32.162  1.00  0.00    -0.203 F 
ATOM     71  C   UNL A   1      35.028  32.878  31.206  1.00  0.00     0.198 A 
ATOM     72  C   UNL A   1      35.493  34.075  29.178  1.00  0.00     0.198 A 
ATOM     73  F   UNL A   1      37.591  33.846  28.136  1.00  0.00    -0.203 F 
ATOM     74  F   UNL A   1      34.178  32.540  32.186  1.00  0.00    -0.200 F 
ATOM     75  C   UNL A   1      34.621  33.749  30.205  1.00  0.00     0.200 A 
ATOM     76  F   UNL A   1      35.108  34.924  28.216  1.00  0.00    -0.200 F 
ATOM     77  F   UNL A   1      33.386  34.268  30.228  1.00  0.00    -0.200 F 
ENDBRANCH  43  67
BRANCH  55  78
ATOM     78  C   UNL A   1      43.347  34.826  32.628  1.00  0.00     0.064 A 
ATOM     79  C   UNL A   1      43.415  34.860  34.028  1.00  0.00     0.173 A 
ATOM     80  C   UNL A   1      43.721  35.976  31.919  1.00  0.00     0.173 A 
ATOM     81  F   UNL A   1      43.051  33.788  34.747  1.00  0.00    -0.203 F 
ATOM     82  C   UNL A   1      43.830  36.010  34.693  1.00  0.00     0.198 A 
ATOM     83  C   UNL A   1      44.156  37.116  32.587  1.00  0.00     0.198 A 
ATOM     84  F   UNL A   1      43.674  35.988  30.578  1.00  0.00    -0.203 F 
ATOM     85  F   UNL A   1      43.859  36.033  36.033  1.00  0.00    -0.200 F 
ATOM     86  C   UNL A   1      44.207  37.134  33.972  1.00  0.00     0.200 A 
ATOM     87  F   UNL A   1      44.526  38.199  31.889  1.00  0.00    -0.200 F 
ATOM     88  F   UNL A   1      44.612  38.238  34.615  1.00  0.00    -0.200 F 
ENDBRANCH  55  78
ENDBRANCH  29  30
ENDBRANCH  22  24
ENDBRANCH  21  22
ENDBRANCH  20  21
ENDBRANCH   1  20
TORSDOF 15
ENDMDL
MODEL 3
REMARK VINA RESULT:     -10.1      4.371      9.926
REMARK SMILES CC1(C)CCN(C(=O)[C@@H]([NH3+])CC(=O)OCCOC(=O)c2ccc(-c3c4nc(c(-c5c(F)c(F)c(F)c(F)c5F)c5ccc([nH]5)c(-c5c(F)c(F)c(F)c(F)c5F)c5nc(c(-c6c(F)c(F)c(F)c(F)c6F)c6ccc3[nH]6)C=C5)C=C4)cc2)C1
REMARK SMILES IDX 15 1 14 2 12 3 13 4 11 5 9 6 7 7 8 8 6 9 1 10 2 11 3 12 4 13
REMARK SMILES IDX 83 14 5 15 10 16 16 20 17 21 18 22 19 23 20 24 21 25 82 26
REMARK SMILES IDX 22 27 81 28 23 29 24 30 25 31 75 32 26 33 80 34 74 35 76 36
REMARK SMILES IDX 27 37 79 38 73 39 72 40 28 42 60 43 40 44 59 45 41 46 44 47
REMARK SMILES IDX 58 48 77 49 42 50 43 51 57 53 78 54 45 55 29 56 30 57 38 58
REMARK SMILES IDX 31 59 32 60 36 61 39 62 33 63 34 64 37 65 35 66 61 67 62 68
REMARK SMILES IDX 70 69 63 70 64 71 68 72 71 73 65 74 66 75 69 76 67 77 46 78
REMARK SMILES IDX 47 79 55 80 48 81 49 82 53 83 56 84 50 85 51 86 54 87 52 88
REMARK H PARENT 10 17 10 18 10 19 76 41 44 52
REMARK Flexibility Score: inf
ROOT
ATOM      1  C   UNL A   1      31.568  28.991  24.669  1.00  0.00     0.274 C 
ENDROOT
BRANCH   1   2
ATOM      2  O   UNL A   1      30.619  28.038  25.181  1.00  0.00    -0.462 OA
BRANCH   2   3
ATOM      3  C   UNL A   1      31.104  27.010  25.910  1.00  0.00     0.312 C 
ATOM      4  O   UNL A   1      31.353  27.058  27.110  1.00  0.00    -0.252 OA
BRANCH   3   5
ATOM      5  C   UNL A   1      31.342  25.756  25.103  1.00  0.00     0.198 C 
BRANCH   5   6
ATOM      6  C   UNL A   1      30.674  24.494  25.642  1.00  0.00     0.282 C 
BRANCH   6   7
ATOM      7  C   UNL A   1      31.610  23.532  26.413  1.00  0.00     0.281 C 
ATOM      8  O   UNL A   1      31.781  23.696  27.626  1.00  0.00    -0.268 OA
BRANCH   7   9
ATOM      9  N   UNL A   1      32.281  22.534  25.742  1.00  0.00    -0.337 N 
ATOM     10  C   UNL A   1      32.214  21.453  22.823  1.00  0.00     0.013 C 
ATOM     11  C   UNL A   1      32.702  20.838  24.144  1.00  0.00    -0.016 C 
ATOM     12  C   UNL A   1      32.789  19.319  24.006  1.00  0.00     0.013 C 
ATOM     13  C   UNL A   1      34.038  21.455  24.596  1.00  0.00     0.030 C 
ATOM     14  C   UNL A   1      31.778  21.242  25.297  1.00  0.00     0.126 C 
ATOM     15  C   UNL A   1      33.628  22.767  25.253  1.00  0.00     0.120 C 
ENDBRANCH   7   9
ENDBRANCH   6   7
BRANCH   6  16
ATOM     16  N   UNL A   1      29.510  24.841  26.501  1.00  0.00    -0.347 N 
ATOM     17  H   UNL A   1      29.593  24.360  27.397  1.00  0.00     0.345 HD
ATOM     18  H   UNL A   1      28.648  24.552  26.038  1.00  0.00     0.345 HD
ATOM     19  H   UNL A   1      29.491  25.849  26.657  1.00  0.00     0.345 HD
ENDBRANCH   6  16
ENDBRANCH   5   6
ENDBRANCH   3   5
ENDBRANCH   2   3
ENDBRANCH   1   2
BRANCH   1  20
ATOM     20  C   UNL A   1      31.776  30.144  25.653  1.00  0.00     0.275 C 
BRANCH  20  21
ATOM     21  O   UNL A   1      33.153  30.237  26.069  1.00  0.00    -0.458 OA
BRANCH  21  22
ATOM     22  C   UNL A   1      33.410  31.205  26.978  1.00  0.00     0.338 C 
ATOM     23  O   UNL A   1      32.677  32.106  27.341  1.00  0.00    -0.246 OA
BRANCH  22  24
ATOM     24  C   UNL A   1      34.700  30.941  27.628  1.00  0.00     0.060 A 
ATOM     25  C   UNL A   1      34.981  29.624  27.995  1.00  0.00     0.016 A 
ATOM     26  C   UNL A   1      35.565  31.977  27.975  1.00  0.00     0.016 A 
ATOM     27  C   UNL A   1      36.126  29.328  28.721  1.00  0.00     0.010 A 
ATOM     28  C   UNL A   1      36.723  31.679  28.700  1.00  0.00     0.010 A 
ATOM     29  C   UNL A   1      37.002  30.355  29.086  1.00  0.00    -0.014 A 
BRANCH  29  30
ATOM     30  C   UNL A   1      38.182  30.036  29.919  1.00  0.00     0.031 A 
ATOM     31  C   UNL A   1      39.260  29.148  29.372  1.00  0.00     0.074 A 
ATOM     32  C   UNL A   1      38.299  30.576  31.145  1.00  0.00     0.049 A 
ATOM     33  N   UNL A   1      40.317  28.665  29.970  1.00  0.00    -0.248 NA
ATOM     34  C   UNL A   1      39.130  28.752  27.960  1.00  0.00     0.031 C 
ATOM     35  C   UNL A   1      37.346  31.506  31.749  1.00  0.00     0.029 A 
ATOM     36  N   UNL A   1      39.271  30.421  32.099  1.00  0.00    -0.354 N 
ATOM     37  C   UNL A   1      40.962  27.885  29.023  1.00  0.00     0.074 A 
ATOM     38  C   UNL A   1      40.180  27.956  27.807  1.00  0.00     0.031 C 
ATOM     39  C   UNL A   1      37.781  31.840  32.975  1.00  0.00     0.029 A 
ATOM     40  C   UNL A   1      39.012  31.109  33.257  1.00  0.00     0.049 A 
ATOM     41  H   UNL A   1      40.076  29.869  31.966  1.00  0.00     0.167 HD
ATOM     42  C   UNL A   1      42.104  27.170  29.162  1.00  0.00     0.037 A 
ATOM     43  C   UNL A   1      39.679  31.118  34.428  1.00  0.00     0.037 A 
ATOM     44  C   UNL A   1      42.888  27.125  30.367  1.00  0.00     0.049 A 
ATOM     45  C   UNL A   1      40.916  30.278  34.571  1.00  0.00     0.074 A 
ATOM     46  C   UNL A   1      44.061  26.430  30.612  1.00  0.00     0.029 A 
ATOM     47  N   UNL A   1      42.580  27.811  31.532  1.00  0.00    -0.354 N 
ATOM     48  N   UNL A   1      41.501  29.511  33.683  1.00  0.00    -0.248 NA
ATOM     49  C   UNL A   1      41.580  30.294  35.882  1.00  0.00     0.031 C 
ATOM     50  C   UNL A   1      44.445  26.674  31.934  1.00  0.00     0.029 A 
ATOM     51  C   UNL A   1      43.532  27.547  32.503  1.00  0.00     0.049 A 
ATOM     52  H   UNL A   1      41.800  28.400  31.651  1.00  0.00     0.167 HD
ATOM     53  C   UNL A   1      42.607  28.965  34.319  1.00  0.00     0.074 A 
ATOM     54  C   UNL A   1      42.619  29.499  35.666  1.00  0.00     0.031 C 
ATOM     55  C   UNL A   1      43.527  28.097  33.834  1.00  0.00     0.037 A 
BRANCH  42  56
ATOM     56  C   UNL A   1      42.553  26.351  27.991  1.00  0.00     0.064 A 
ATOM     57  C   UNL A   1      42.117  25.032  27.802  1.00  0.00     0.173 A 
ATOM     58  C   UNL A   1      43.410  26.906  27.028  1.00  0.00     0.173 A 
ATOM     59  F   UNL A   1      41.311  24.452  28.704  1.00  0.00    -0.203 F 
ATOM     60  C   UNL A   1      42.536  24.292  26.699  1.00  0.00     0.198 A 
ATOM     61  C   UNL A   1      43.810  26.172  25.917  1.00  0.00     0.198 A 
ATOM     62  F   UNL A   1      43.854  28.165  27.166  1.00  0.00    -0.203 F 
ATOM     63  F   UNL A   1      42.137  23.021  26.555  1.00  0.00    -0.200 F 
ATOM     64  C   UNL A   1      43.378  24.864  25.755  1.00  0.00     0.200 A 
ATOM     65  F   UNL A   1      44.617  26.728  25.003  1.00  0.00    -0.200 F 
ATOM     66  F   UNL A   1      43.777  24.152  24.692  1.00  0.00    -0.200 F 
ENDBRANCH  42  56
BRANCH  43  67
ATOM     67  C   UNL A   1      39.166  31.929  35.560  1.00  0.00     0.064 A 
ATOM     68  C   UNL A   1      38.334  31.362  36.534  1.00  0.00     0.173 A 
ATOM     69  C   UNL A   1      39.508  33.281  35.697  1.00  0.00     0.173 A 
ATOM     70  F   UNL A   1      37.960  30.078  36.431  1.00  0.00    -0.203 F 
ATOM     71  C   UNL A   1      37.856  32.122  37.599  1.00  0.00     0.198 A 
ATOM     72  C   UNL A   1      39.051  34.035  36.776  1.00  0.00     0.198 A 
ATOM     73  F   UNL A   1      40.302  33.869  34.789  1.00  0.00    -0.203 F 
ATOM     74  F   UNL A   1      37.034  31.566  38.500  1.00  0.00    -0.200 F 
ATOM     75  C   UNL A   1      38.221  33.455  37.723  1.00  0.00     0.200 A 
ATOM     76  F   UNL A   1      39.414  35.318  36.897  1.00  0.00    -0.200 F 
ATOM     77  F   UNL A   1      37.767  34.182  38.753  1.00  0.00    -0.200 F 
ENDBRANCH  43  67
BRANCH  55  78
ATOM     78  C   UNL A   1      44.636  27.693  34.754  1.00  0.00     0.064 A 
ATOM     79  C   UNL A   1      44.537  26.550  35.560  1.00  0.00     0.173 A 
ATOM     80  C   UNL A   1      45.827  28.432  34.797  1.00  0.00     0.173 A 
ATOM     81  F   UNL A   1      43.410  25.823  35.564  1.00  0.00    -0.203 F 
ATOM     82  C   UNL A   1      45.588  26.169  36.389  1.00  0.00     0.198 A 
ATOM     83  C   UNL A   1      46.885  28.036  35.610  1.00  0.00     0.198 A 
ATOM     84  F   UNL A   1      45.969  29.531  34.040  1.00  0.00    -0.203 F 
ATOM     85  F   UNL A   1      45.462  25.091  37.176  1.00  0.00    -0.200 F 
ATOM     86  C   UNL A   1      46.763  26.908  36.408  1.00  0.00     0.200 A 
ATOM     87  F   UNL A   1      48.021  28.745  35.623  1.00  0.00    -0.200 F 
ATOM     88  F   UNL A   1      47.776  26.535  37.202  1.00  0.00    -0.200 F 
ENDBRANCH  55  78
ENDBRANCH  29  30
ENDBRANCH  22  24
ENDBRANCH  21  22
ENDBRANCH  20  21
ENDBRANCH   1  20
TORSDOF 15
ENDMDL
