MODEL 1
REMARK VINA RESULT:     -12.0      0.000      0.000
REMARK SMILES O=C(OCCOC(=O)c1c(C(=O)N2CCc3ccccc32)cccc1[N+](=O)[O-])c1ccc(-c2c3nc(c(-c4c(F)c(F)c(F)c(F)c4F)c4ccc([nH]4)c(-c4c(F)c(F)c(F)c(F)c4F)c4nc(c(-c5c(F)c(F)c(F)c(F)c5F)c5ccc2[nH]5)C=C4)C=C3)cc1
REMARK SMILES IDX 4 1 3 2 2 3 1 4 29 5 30 6 91 7 31 8 90 9 32 10 33 11 34 12
REMARK SMILES IDX 84 13 35 14 89 15 83 16 85 17 36 18 88 19 82 20 81 21 37 23
REMARK SMILES IDX 69 24 49 25 68 26 50 27 53 28 67 29 86 30 51 31 52 32 66 34
REMARK SMILES IDX 87 35 54 36 38 37 39 38 47 39 40 40 41 41 45 42 48 43 42 44
REMARK SMILES IDX 43 45 46 46 44 47 70 48 71 49 79 50 72 51 73 52 77 53 80 54
REMARK SMILES IDX 74 55 75 56 78 57 76 58 55 59 56 60 64 61 57 62 58 63 62 64
REMARK SMILES IDX 65 65 59 66 60 67 63 68 61 69 5 70 6 71 7 72 8 73 9 74 10 75
REMARK SMILES IDX 25 76 22 77 24 78 23 79 11 80 12 81 13 82 14 83 21 84 15 85
REMARK SMILES IDX 16 86 20 87 17 88 19 89 18 90 26 91 27 92 28 93
REMARK H PARENT 85 22 53 33
REMARK Flexibility Score: inf
ROOT
ATOM      1  C   UNL A   1      46.323  24.266  25.242  1.00  0.00     0.275 C 
ENDROOT
BRANCH   1   2
ATOM      2  O   UNL A   1      45.213  25.183  25.245  1.00  0.00    -0.458 OA
BRANCH   2   3
ATOM      3  C   UNL A   1      45.474  26.498  25.296  1.00  0.00     0.338 C 
ATOM      4  O   UNL A   1      46.145  27.111  24.479  1.00  0.00    -0.246 OA
BRANCH   3   5
ATOM      5  C   UNL A   1      44.890  27.086  26.531  1.00  0.00     0.060 A 
ATOM      6  C   UNL A   1      44.987  28.463  26.777  1.00  0.00     0.016 A 
ATOM      7  C   UNL A   1      44.090  26.289  27.350  1.00  0.00     0.016 A 
ATOM      8  C   UNL A   1      44.277  29.046  27.814  1.00  0.00     0.010 A 
ATOM      9  C   UNL A   1      43.342  26.877  28.370  1.00  0.00     0.010 A 
ATOM     10  C   UNL A   1      43.446  28.258  28.610  1.00  0.00    -0.014 A 
BRANCH  10  11
ATOM     11  C   UNL A   1      42.809  28.864  29.796  1.00  0.00     0.031 A 
ATOM     12  C   UNL A   1      41.447  29.455  29.625  1.00  0.00     0.074 A 
ATOM     13  C   UNL A   1      43.412  28.831  30.998  1.00  0.00     0.049 A 
ATOM     14  N   UNL A   1      40.680  30.018  30.517  1.00  0.00    -0.248 NA
ATOM     15  C   UNL A   1      40.848  29.370  28.281  1.00  0.00     0.031 C 
ATOM     16  C   UNL A   1      44.673  28.157  31.289  1.00  0.00     0.029 A 
ATOM     17  N   UNL A   1      43.062  29.391  32.199  1.00  0.00    -0.354 N 
ATOM     18  C   UNL A   1      39.500  30.310  29.854  1.00  0.00     0.074 A 
ATOM     19  C   UNL A   1      39.675  29.952  28.467  1.00  0.00     0.031 C 
ATOM     20  C   UNL A   1      45.054  28.434  32.547  1.00  0.00     0.029 A 
ATOM     21  C   UNL A   1      44.040  29.278  33.160  1.00  0.00     0.049 A 
ATOM     22  H   UNL A   1      42.196  29.830  32.359  1.00  0.00     0.167 HD
ATOM     23  C   UNL A   1      38.352  30.786  30.383  1.00  0.00     0.037 A 
ATOM     24  C   UNL A   1      44.102  29.809  34.395  1.00  0.00     0.037 A 
ATOM     25  C   UNL A   1      38.204  31.120  31.770  1.00  0.00     0.049 A 
ATOM     26  C   UNL A   1      42.868  30.495  34.914  1.00  0.00     0.074 A 
ATOM     27  C   UNL A   1      37.078  31.560  32.435  1.00  0.00     0.029 A 
ATOM     28  N   UNL A   1      39.232  31.061  32.703  1.00  0.00    -0.354 N 
ATOM     29  N   UNL A   1      41.721  30.686  34.306  1.00  0.00    -0.248 NA
ATOM     30  C   UNL A   1      42.905  30.985  36.296  1.00  0.00     0.031 C 
ATOM     31  C   UNL A   1      37.443  31.840  33.755  1.00  0.00     0.029 A 
ATOM     32  C   UNL A   1      38.782  31.519  33.927  1.00  0.00     0.049 A 
ATOM     33  H   UNL A   1      40.145  30.741  32.519  1.00  0.00     0.167 HD
ATOM     34  C   UNL A   1      40.883  31.265  35.243  1.00  0.00     0.074 A 
ATOM     35  C   UNL A   1      41.656  31.396  36.463  1.00  0.00     0.031 C 
ATOM     36  C   UNL A   1      39.586  31.638  35.118  1.00  0.00     0.037 A 
BRANCH  23  37
ATOM     37  C   UNL A   1      37.194  30.976  29.455  1.00  0.00     0.064 A 
ATOM     38  C   UNL A   1      36.915  32.220  28.866  1.00  0.00     0.173 A 
ATOM     39  C   UNL A   1      36.356  29.898  29.145  1.00  0.00     0.173 A 
ATOM     40  F   UNL A   1      37.671  33.290  29.156  1.00  0.00    -0.203 F 
ATOM     41  C   UNL A   1      35.825  32.379  28.015  1.00  0.00     0.198 A 
ATOM     42  C   UNL A   1      35.284  30.054  28.273  1.00  0.00     0.198 A 
ATOM     43  F   UNL A   1      36.575  28.693  29.694  1.00  0.00    -0.203 F 
ATOM     44  F   UNL A   1      35.549  33.586  27.501  1.00  0.00    -0.200 F 
ATOM     45  C   UNL A   1      35.017  31.294  27.712  1.00  0.00     0.200 A 
ATOM     46  F   UNL A   1      34.503  29.005  27.979  1.00  0.00    -0.200 F 
ATOM     47  F   UNL A   1      33.971  31.447  26.887  1.00  0.00    -0.200 F 
ENDBRANCH  23  37
BRANCH  24  48
ATOM     48  C   UNL A   1      45.346  29.715  35.206  1.00  0.00     0.064 A 
ATOM     49  C   UNL A   1      46.347  30.693  35.141  1.00  0.00     0.173 A 
ATOM     50  C   UNL A   1      45.580  28.603  36.031  1.00  0.00     0.173 A 
ATOM     51  F   UNL A   1      46.179  31.771  34.362  1.00  0.00    -0.203 F 
ATOM     52  C   UNL A   1      47.550  30.542  35.832  1.00  0.00     0.198 A 
ATOM     53  C   UNL A   1      46.773  28.464  36.739  1.00  0.00     0.198 A 
ATOM     54  F   UNL A   1      44.650  27.642  36.144  1.00  0.00    -0.203 F 
ATOM     55  F   UNL A   1      48.514  31.464  35.700  1.00  0.00    -0.200 F 
ATOM     56  C   UNL A   1      47.763  29.427  36.628  1.00  0.00     0.200 A 
ATOM     57  F   UNL A   1      46.969  27.388  37.513  1.00  0.00    -0.200 F 
ATOM     58  F   UNL A   1      48.927  29.273  37.274  1.00  0.00    -0.200 F 
ENDBRANCH  24  48
BRANCH  36  59
ATOM     59  C   UNL A   1      38.925  32.214  36.331  1.00  0.00     0.064 A 
ATOM     60  C   UNL A   1      38.112  31.428  37.158  1.00  0.00     0.173 A 
ATOM     61  C   UNL A   1      39.163  33.545  36.704  1.00  0.00     0.173 A 
ATOM     62  F   UNL A   1      37.843  30.155  36.829  1.00  0.00    -0.203 F 
ATOM     63  C   UNL A   1      37.546  31.960  38.311  1.00  0.00     0.198 A 
ATOM     64  C   UNL A   1      38.625  34.063  37.876  1.00  0.00     0.198 A 
ATOM     65  F   UNL A   1      39.940  34.332  35.946  1.00  0.00    -0.203 F 
ATOM     66  F   UNL A   1      36.737  31.205  39.066  1.00  0.00    -0.200 F 
ATOM     67  C   UNL A   1      37.812  33.273  38.676  1.00  0.00     0.200 A 
ATOM     68  F   UNL A   1      38.898  35.324  38.237  1.00  0.00    -0.200 F 
ATOM     69  F   UNL A   1      37.282  33.776  39.797  1.00  0.00    -0.200 F 
ENDBRANCH  36  59
ENDBRANCH  10  11
ENDBRANCH   3   5
ENDBRANCH   2   3
ENDBRANCH   1   2
BRANCH   1  70
ATOM     70  C   UNL A   1      46.145  22.795  24.795  1.00  0.00     0.275 C 
BRANCH  70  71
ATOM     71  O   UNL A   1      45.223  22.028  25.587  1.00  0.00    -0.458 OA
BRANCH  71  72
ATOM     72  C   UNL A   1      43.990  21.839  25.055  1.00  0.00     0.346 C 
ATOM     73  O   UNL A   1      43.384  22.613  24.338  1.00  0.00    -0.246 OA
BRANCH  72  74
ATOM     74  C   UNL A   1      43.362  20.647  25.669  1.00  0.00     0.150 A 
ATOM     75  C   UNL A   1      42.500  20.721  26.795  1.00  0.00     0.061 A 
ATOM     76  C   UNL A   1      43.804  19.383  25.243  1.00  0.00     0.284 A 
ATOM     77  C   UNL A   1      42.155  19.535  27.458  1.00  0.00     0.015 A 
ATOM     78  C   UNL A   1      43.379  18.206  25.878  1.00  0.00     0.086 A 
ATOM     79  C   UNL A   1      42.536  18.283  26.975  1.00  0.00     0.008 A 
BRANCH  75  80
ATOM     80  C   UNL A   1      42.222  22.014  27.460  1.00  0.00     0.259 C 
ATOM     81  O   UNL A   1      43.076  22.352  28.283  1.00  0.00    -0.269 OA
BRANCH  80  82
ATOM     82  N   UNL A   1      41.171  22.867  27.126  1.00  0.00    -0.308 N 
ATOM     83  C   UNL A   1      41.069  24.117  27.912  1.00  0.00     0.131 C 
ATOM     84  C   UNL A   1      39.917  22.721  26.469  1.00  0.00     0.047 A 
ATOM     85  C   UNL A   1      40.048  24.992  27.202  1.00  0.00     0.059 C 
ATOM     86  C   UNL A   1      39.183  23.913  26.633  1.00  0.00    -0.022 A 
ATOM     87  C   UNL A   1      39.285  21.644  25.881  1.00  0.00     0.026 A 
ATOM     88  C   UNL A   1      37.831  24.021  26.328  1.00  0.00     0.006 A 
ATOM     89  C   UNL A   1      37.910  21.728  25.589  1.00  0.00     0.002 A 
ATOM     90  C   UNL A   1      37.182  22.897  25.837  1.00  0.00     0.000 A 
ENDBRANCH  80  82
ENDBRANCH  75  80
BRANCH  76  91
ATOM     91  N   UNL A   1      44.761  19.227  24.154  1.00  0.00     0.063 N 
ATOM     92  O   UNL A   1      45.887  18.806  24.453  1.00  0.00    -0.258 OA
ATOM     93  O   UNL A   1      44.359  19.410  22.999  1.00  0.00    -0.258 OA
ENDBRANCH  76  91
ENDBRANCH  72  74
ENDBRANCH  71  72
ENDBRANCH  70  71
ENDBRANCH   1  70
TORSDOF 14
ENDMDL
MODEL 2
REMARK VINA RESULT:     -12.0      5.503     10.628
REMARK SMILES O=C(OCCOC(=O)c1c(C(=O)N2CCc3ccccc32)cccc1[N+](=O)[O-])c1ccc(-c2c3nc(c(-c4c(F)c(F)c(F)c(F)c4F)c4ccc([nH]4)c(-c4c(F)c(F)c(F)c(F)c4F)c4nc(c(-c5c(F)c(F)c(F)c(F)c5F)c5ccc2[nH]5)C=C4)C=C3)cc1
REMARK SMILES IDX 4 1 3 2 2 3 1 4 29 5 30 6 91 7 31 8 90 9 32 10 33 11 34 12
REMARK SMILES IDX 84 13 35 14 89 15 83 16 85 17 36 18 88 19 82 20 81 21 37 23
REMARK SMILES IDX 69 24 49 25 68 26 50 27 53 28 67 29 86 30 51 31 52 32 66 34
REMARK SMILES IDX 87 35 54 36 38 37 39 38 47 39 40 40 41 41 45 42 48 43 42 44
REMARK SMILES IDX 43 45 46 46 44 47 70 48 71 49 79 50 72 51 73 52 77 53 80 54
REMARK SMILES IDX 74 55 75 56 78 57 76 58 55 59 56 60 64 61 57 62 58 63 62 64
REMARK SMILES IDX 65 65 59 66 60 67 63 68 61 69 5 70 6 71 7 72 8 73 9 74 10 75
REMARK SMILES IDX 25 76 22 77 24 78 23 79 11 80 12 81 13 82 14 83 21 84 15 85
REMARK SMILES IDX 16 86 20 87 17 88 19 89 18 90 26 91 27 92 28 93
REMARK H PARENT 85 22 53 33
REMARK Flexibility Score: inf
ROOT
ATOM      1  C   UNL A   1      32.057  32.150  27.110  1.00  0.00     0.275 C 
ENDROOT
BRANCH   1   2
ATOM      2  O   UNL A   1      33.110  33.126  27.006  1.00  0.00    -0.458 OA
BRANCH   2   3
ATOM      3  C   UNL A   1      33.419  33.847  28.095  1.00  0.00     0.338 C 
ATOM      4  O   UNL A   1      32.858  34.878  28.434  1.00  0.00    -0.246 OA
BRANCH   3   5
ATOM      5  C   UNL A   1      34.591  33.249  28.787  1.00  0.00     0.060 A 
ATOM      6  C   UNL A   1      34.407  32.332  29.833  1.00  0.00     0.016 A 
ATOM      7  C   UNL A   1      35.869  33.465  28.270  1.00  0.00     0.016 A 
ATOM      8  C   UNL A   1      35.481  31.622  30.344  1.00  0.00     0.010 A 
ATOM      9  C   UNL A   1      36.945  32.723  28.754  1.00  0.00     0.010 A 
ATOM     10  C   UNL A   1      36.753  31.807  29.802  1.00  0.00    -0.014 A 
BRANCH  10  11
ATOM     11  C   UNL A   1      37.907  31.153  30.449  1.00  0.00     0.031 A 
ATOM     12  C   UNL A   1      38.303  31.633  31.808  1.00  0.00     0.074 A 
ATOM     13  C   UNL A   1      38.540  30.123  29.858  1.00  0.00     0.049 A 
ATOM     14  N   UNL A   1      39.260  31.201  32.582  1.00  0.00    -0.248 NA
ATOM     15  C   UNL A   1      37.494  32.717  32.394  1.00  0.00     0.031 C 
ATOM     16  C   UNL A   1      38.139  29.499  28.601  1.00  0.00     0.029 A 
ATOM     17  N   UNL A   1      39.664  29.428  30.218  1.00  0.00    -0.354 N 
ATOM     18  C   UNL A   1      39.138  31.928  33.755  1.00  0.00     0.074 A 
ATOM     19  C   UNL A   1      38.079  32.891  33.567  1.00  0.00     0.031 C 
ATOM     20  C   UNL A   1      39.060  28.594  28.233  1.00  0.00     0.029 A 
ATOM     21  C   UNL A   1      40.100  28.553  29.250  1.00  0.00     0.049 A 
ATOM     22  H   UNL A   1      40.116  29.543  31.084  1.00  0.00     0.167 HD
ATOM     23  C   UNL A   1      39.822  31.757  34.906  1.00  0.00     0.037 A 
ATOM     24  C   UNL A   1      41.220  27.809  29.199  1.00  0.00     0.037 A 
ATOM     25  C   UNL A   1      40.860  30.781  35.067  1.00  0.00     0.049 A 
ATOM     26  C   UNL A   1      42.074  27.763  30.436  1.00  0.00     0.074 A 
ATOM     27  C   UNL A   1      41.590  30.476  36.199  1.00  0.00     0.029 A 
ATOM     28  N   UNL A   1      41.325  29.958  34.049  1.00  0.00    -0.354 N 
ATOM     29  N   UNL A   1      41.897  28.387  31.577  1.00  0.00    -0.248 NA
ATOM     30  C   UNL A   1      43.241  26.874  30.412  1.00  0.00     0.031 C 
ATOM     31  C   UNL A   1      42.547  29.521  35.846  1.00  0.00     0.029 A 
ATOM     32  C   UNL A   1      42.378  29.188  34.509  1.00  0.00     0.049 A 
ATOM     33  H   UNL A   1      40.960  29.928  33.135  1.00  0.00     0.167 HD
ATOM     34  C   UNL A   1      42.892  27.928  32.422  1.00  0.00     0.074 A 
ATOM     35  C   UNL A   1      43.672  26.971  31.661  1.00  0.00     0.031 C 
ATOM     36  C   UNL A   1      43.132  28.250  33.717  1.00  0.00     0.037 A 
BRANCH  23  37
ATOM     37  C   UNL A   1      39.470  32.649  36.055  1.00  0.00     0.064 A 
ATOM     38  C   UNL A   1      38.472  32.303  36.981  1.00  0.00     0.173 A 
ATOM     39  C   UNL A   1      40.143  33.864  36.235  1.00  0.00     0.173 A 
ATOM     40  F   UNL A   1      37.779  31.164  36.832  1.00  0.00    -0.203 F 
ATOM     41  C   UNL A   1      38.151  33.152  38.035  1.00  0.00     0.198 A 
ATOM     42  C   UNL A   1      39.838  34.697  37.306  1.00  0.00     0.198 A 
ATOM     43  F   UNL A   1      41.094  34.244  35.369  1.00  0.00    -0.203 F 
ATOM     44  F   UNL A   1      37.163  32.824  38.880  1.00  0.00    -0.200 F 
ATOM     45  C   UNL A   1      38.840  34.343  38.203  1.00  0.00     0.200 A 
ATOM     46  F   UNL A   1      40.505  35.849  37.468  1.00  0.00    -0.200 F 
ATOM     47  F   UNL A   1      38.534  35.158  39.222  1.00  0.00    -0.200 F 
ENDBRANCH  23  37
BRANCH  24  48
ATOM     48  C   UNL A   1      41.589  27.068  27.963  1.00  0.00     0.064 A 
ATOM     49  C   UNL A   1      41.197  25.740  27.751  1.00  0.00     0.173 A 
ATOM     50  C   UNL A   1      42.397  27.669  26.983  1.00  0.00     0.173 A 
ATOM     51  F   UNL A   1      40.433  25.116  28.659  1.00  0.00    -0.203 F 
ATOM     52  C   UNL A   1      41.633  25.027  26.633  1.00  0.00     0.198 A 
ATOM     53  C   UNL A   1      42.814  26.963  25.855  1.00  0.00     0.198 A 
ATOM     54  F   UNL A   1      42.792  28.943  27.126  1.00  0.00    -0.203 F 
ATOM     55  F   UNL A   1      41.292  23.739  26.489  1.00  0.00    -0.200 F 
ATOM     56  C   UNL A   1      42.443  25.638  25.688  1.00  0.00     0.200 A 
ATOM     57  F   UNL A   1      43.590  27.562  24.942  1.00  0.00    -0.200 F 
ATOM     58  F   UNL A   1      42.879  24.946  24.626  1.00  0.00    -0.200 F 
ENDBRANCH  24  48
BRANCH  36  59
ATOM     59  C   UNL A   1      44.275  27.556  34.388  1.00  0.00     0.064 A 
ATOM     60  C   UNL A   1      45.553  28.130  34.428  1.00  0.00     0.173 A 
ATOM     61  C   UNL A   1      44.073  26.337  35.053  1.00  0.00     0.173 A 
ATOM     62  F   UNL A   1      45.794  29.286  33.790  1.00  0.00    -0.203 F 
ATOM     63  C   UNL A   1      46.594  27.500  35.099  1.00  0.00     0.198 A 
ATOM     64  C   UNL A   1      45.108  25.727  35.752  1.00  0.00     0.198 A 
ATOM     65  F   UNL A   1      42.866  25.753  35.046  1.00  0.00    -0.203 F 
ATOM     66  F   UNL A   1      47.819  28.043  35.090  1.00  0.00    -0.200 F 
ATOM     67  C   UNL A   1      46.369  26.306  35.770  1.00  0.00     0.200 A 
ATOM     68  F   UNL A   1      44.885  24.585  36.415  1.00  0.00    -0.200 F 
ATOM     69  F   UNL A   1      47.370  25.711  36.432  1.00  0.00    -0.200 F 
ENDBRANCH  36  59
ENDBRANCH  10  11
ENDBRANCH   3   5
ENDBRANCH   2   3
ENDBRANCH   1   2
BRANCH   1  70
ATOM     70  C   UNL A   1      32.252  30.705  26.591  1.00  0.00     0.275 C 
BRANCH  70  71
ATOM     71  O   UNL A   1      31.363  30.316  25.530  1.00  0.00    -0.458 OA
BRANCH  71  72
ATOM     72  C   UNL A   1      31.781  29.294  24.743  1.00  0.00     0.346 C 
ATOM     73  O   UNL A   1      32.814  29.250  24.100  1.00  0.00    -0.246 OA
BRANCH  72  74
ATOM     74  C   UNL A   1      30.682  28.317  24.572  1.00  0.00     0.150 A 
ATOM     75  C   UNL A   1      30.641  27.073  25.254  1.00  0.00     0.061 A 
ATOM     76  C   UNL A   1      29.756  28.549  23.541  1.00  0.00     0.284 A 
ATOM     77  C   UNL A   1      29.705  26.112  24.847  1.00  0.00     0.015 A 
ATOM     78  C   UNL A   1      28.778  27.599  23.207  1.00  0.00     0.086 A 
ATOM     79  C   UNL A   1      28.741  26.387  23.877  1.00  0.00     0.008 A 
BRANCH  75  80
ATOM     80  C   UNL A   1      31.745  26.655  26.148  1.00  0.00     0.259 C 
ATOM     81  O   UNL A   1      31.741  27.210  27.249  1.00  0.00    -0.269 OA
BRANCH  80  82
ATOM     82  N   UNL A   1      32.653  25.636  25.861  1.00  0.00    -0.308 N 
ATOM     83  C   UNL A   1      33.808  26.010  25.014  1.00  0.00     0.131 C 
ATOM     84  C   UNL A   1      32.610  24.214  25.849  1.00  0.00     0.047 A 
ATOM     85  C   UNL A   1      34.780  24.842  25.068  1.00  0.00     0.059 C 
ATOM     86  C   UNL A   1      33.791  23.734  25.248  1.00  0.00    -0.022 A 
ATOM     87  C   UNL A   1      31.620  23.302  26.157  1.00  0.00     0.026 A 
ATOM     88  C   UNL A   1      33.962  22.411  24.858  1.00  0.00     0.006 A 
ATOM     89  C   UNL A   1      31.767  21.963  25.747  1.00  0.00     0.002 A 
ATOM     90  C   UNL A   1      32.915  21.527  25.078  1.00  0.00     0.000 A 
ENDBRANCH  80  82
ENDBRANCH  75  80
BRANCH  76  91
ATOM     91  N   UNL A   1      29.789  29.761  22.731  1.00  0.00     0.063 N 
ATOM     92  O   UNL A   1      30.342  29.683  21.626  1.00  0.00    -0.258 OA
ATOM     93  O   UNL A   1      29.170  30.749  23.143  1.00  0.00    -0.258 OA
ENDBRANCH  76  91
ENDBRANCH  72  74
ENDBRANCH  71  72
ENDBRANCH  70  71
ENDBRANCH   1  70
TORSDOF 14
ENDMDL
MODEL 3
REMARK VINA RESULT:     -11.8      5.209      9.774
REMARK SMILES O=C(OCCOC(=O)c1c(C(=O)N2CCc3ccccc32)cccc1[N+](=O)[O-])c1ccc(-c2c3nc(c(-c4c(F)c(F)c(F)c(F)c4F)c4ccc([nH]4)c(-c4c(F)c(F)c(F)c(F)c4F)c4nc(c(-c5c(F)c(F)c(F)c(F)c5F)c5ccc2[nH]5)C=C4)C=C3)cc1
REMARK SMILES IDX 4 1 3 2 2 3 1 4 29 5 30 6 91 7 31 8 90 9 32 10 33 11 34 12
REMARK SMILES IDX 84 13 35 14 89 15 83 16 85 17 36 18 88 19 82 20 81 21 37 23
REMARK SMILES IDX 69 24 49 25 68 26 50 27 53 28 67 29 86 30 51 31 52 32 66 34
REMARK SMILES IDX 87 35 54 36 38 37 39 38 47 39 40 40 41 41 45 42 48 43 42 44
REMARK SMILES IDX 43 45 46 46 44 47 70 48 71 49 79 50 72 51 73 52 77 53 80 54
REMARK SMILES IDX 74 55 75 56 78 57 76 58 55 59 56 60 64 61 57 62 58 63 62 64
REMARK SMILES IDX 65 65 59 66 60 67 63 68 61 69 5 70 6 71 7 72 8 73 9 74 10 75
REMARK SMILES IDX 25 76 22 77 24 78 23 79 11 80 12 81 13 82 14 83 21 84 15 85
REMARK SMILES IDX 16 86 20 87 17 88 19 89 18 90 26 91 27 92 28 93
REMARK H PARENT 85 22 53 33
REMARK Flexibility Score: inf
ROOT
ATOM      1  C   UNL A   1      38.632  20.192  25.794  1.00  0.00     0.275 C 
ENDROOT
BRANCH   1   2
ATOM      2  O   UNL A   1      40.026  20.553  25.810  1.00  0.00    -0.458 OA
BRANCH   2   3
ATOM      3  C   UNL A   1      40.641  20.667  26.997  1.00  0.00     0.338 C 
ATOM      4  O   UNL A   1      40.717  19.780  27.834  1.00  0.00    -0.246 OA
BRANCH   3   5
ATOM      5  C   UNL A   1      41.151  22.052  27.176  1.00  0.00     0.060 A 
ATOM      6  C   UNL A   1      40.846  23.048  26.237  1.00  0.00     0.016 A 
ATOM      7  C   UNL A   1      41.779  22.396  28.374  1.00  0.00     0.016 A 
ATOM      8  C   UNL A   1      41.144  24.376  26.498  1.00  0.00     0.010 A 
ATOM      9  C   UNL A   1      42.044  23.735  28.657  1.00  0.00     0.010 A 
ATOM     10  C   UNL A   1      41.736  24.727  27.710  1.00  0.00    -0.014 A 
BRANCH  10  11
ATOM     11  C   UNL A   1      42.176  26.121  27.913  1.00  0.00     0.031 A 
ATOM     12  C   UNL A   1      43.553  26.485  27.461  1.00  0.00     0.074 A 
ATOM     13  C   UNL A   1      41.344  27.041  28.434  1.00  0.00     0.049 A 
ATOM     14  N   UNL A   1      44.151  27.643  27.509  1.00  0.00    -0.248 NA
ATOM     15  C   UNL A   1      44.353  25.417  26.834  1.00  0.00     0.031 C 
ATOM     16  C   UNL A   1      39.944  26.812  28.775  1.00  0.00     0.029 A 
ATOM     17  N   UNL A   1      41.551  28.348  28.789  1.00  0.00    -0.354 N 
ATOM     18  C   UNL A   1      45.372  27.451  26.883  1.00  0.00     0.074 A 
ATOM     19  C   UNL A   1      45.476  26.052  26.544  1.00  0.00     0.031 C 
ATOM     20  C   UNL A   1      39.446  27.895  29.394  1.00  0.00     0.029 A 
ATOM     21  C   UNL A   1      40.488  28.908  29.460  1.00  0.00     0.049 A 
ATOM     22  H   UNL A   1      42.379  28.838  28.584  1.00  0.00     0.167 HD
ATOM     23  C   UNL A   1      46.297  28.385  26.574  1.00  0.00     0.037 A 
ATOM     24  C   UNL A   1      40.383  30.107  30.061  1.00  0.00     0.037 A 
ATOM     25  C   UNL A   1      46.158  29.772  26.912  1.00  0.00     0.049 A 
ATOM     26  C   UNL A   1      41.505  31.085  29.853  1.00  0.00     0.074 A 
ATOM     27  C   UNL A   1      47.001  30.822  26.607  1.00  0.00     0.029 A 
ATOM     28  N   UNL A   1      45.105  30.295  27.651  1.00  0.00    -0.354 N 
ATOM     29  N   UNL A   1      42.620  30.921  29.180  1.00  0.00    -0.248 NA
ATOM     30  C   UNL A   1      41.342  32.425  30.429  1.00  0.00     0.031 C 
ATOM     31  C   UNL A   1      46.495  31.969  27.226  1.00  0.00     0.029 A 
ATOM     32  C   UNL A   1      45.308  31.645  27.869  1.00  0.00     0.049 A 
ATOM     33  H   UNL A   1      44.330  29.781  27.973  1.00  0.00     0.167 HD
ATOM     34  C   UNL A   1      43.263  32.147  29.201  1.00  0.00     0.074 A 
ATOM     35  C   UNL A   1      42.414  33.047  29.957  1.00  0.00     0.031 C 
ATOM     36  C   UNL A   1      44.440  32.506  28.631  1.00  0.00     0.037 A 
BRANCH  23  37
ATOM     37  C   UNL A   1      47.523  27.925  25.850  1.00  0.00     0.064 A 
ATOM     38  C   UNL A   1      47.540  27.756  24.456  1.00  0.00     0.173 A 
ATOM     39  C   UNL A   1      48.700  27.656  26.561  1.00  0.00     0.173 A 
ATOM     40  F   UNL A   1      46.429  27.972  23.736  1.00  0.00    -0.203 F 
ATOM     41  C   UNL A   1      48.687  27.316  23.804  1.00  0.00     0.198 A 
ATOM     42  C   UNL A   1      49.853  27.243  25.902  1.00  0.00     0.198 A 
ATOM     43  F   UNL A   1      48.729  27.791  27.895  1.00  0.00    -0.203 F 
ATOM     44  F   UNL A   1      48.668  27.115  22.478  1.00  0.00    -0.200 F 
ATOM     45  C   UNL A   1      49.845  27.069  24.526  1.00  0.00     0.200 A 
ATOM     46  F   UNL A   1      50.972  27.005  26.600  1.00  0.00    -0.200 F 
ATOM     47  F   UNL A   1      50.952  26.651  23.895  1.00  0.00    -0.200 F 
ENDBRANCH  23  37
BRANCH  24  48
ATOM     48  C   UNL A   1      39.198  30.439  30.897  1.00  0.00     0.064 A 
ATOM     49  C   UNL A   1      38.083  31.104  30.371  1.00  0.00     0.173 A 
ATOM     50  C   UNL A   1      39.184  30.139  32.270  1.00  0.00     0.173 A 
ATOM     51  F   UNL A   1      38.048  31.422  29.069  1.00  0.00    -0.203 F 
ATOM     52  C   UNL A   1      37.021  31.496  31.189  1.00  0.00     0.198 A 
ATOM     53  C   UNL A   1      38.113  30.511  33.082  1.00  0.00     0.198 A 
ATOM     54  F   UNL A   1      40.218  29.491  32.827  1.00  0.00    -0.203 F 
ATOM     55  F   UNL A   1      35.998  32.186  30.667  1.00  0.00    -0.200 F 
ATOM     56  C   UNL A   1      37.039  31.202  32.543  1.00  0.00     0.200 A 
ATOM     57  F   UNL A   1      38.133  30.217  34.389  1.00  0.00    -0.200 F 
ATOM     58  F   UNL A   1      36.030  31.598  33.331  1.00  0.00    -0.200 F 
ENDBRANCH  24  48
BRANCH  36  59
ATOM     59  C   UNL A   1      44.867  33.930  28.800  1.00  0.00     0.064 A 
ATOM     60  C   UNL A   1      45.701  34.320  29.857  1.00  0.00     0.173 A 
ATOM     61  C   UNL A   1      44.492  34.899  27.857  1.00  0.00     0.173 A 
ATOM     62  F   UNL A   1      46.069  33.429  30.791  1.00  0.00    -0.203 F 
ATOM     63  C   UNL A   1      46.133  35.636  29.973  1.00  0.00     0.198 A 
ATOM     64  C   UNL A   1      44.955  36.206  27.957  1.00  0.00     0.198 A 
ATOM     65  F   UNL A   1      43.700  34.571  26.826  1.00  0.00    -0.203 F 
ATOM     66  F   UNL A   1      46.895  35.998  31.014  1.00  0.00    -0.200 F 
ATOM     67  C   UNL A   1      45.770  36.575  29.018  1.00  0.00     0.200 A 
ATOM     68  F   UNL A   1      44.620  37.107  27.024  1.00  0.00    -0.200 F 
ATOM     69  F   UNL A   1      46.205  37.837  29.121  1.00  0.00    -0.200 F 
ENDBRANCH  36  59
ENDBRANCH  10  11
ENDBRANCH   3   5
ENDBRANCH   2   3
ENDBRANCH   1   2
BRANCH   1  70
ATOM     70  C   UNL A   1      37.562  21.158  25.231  1.00  0.00     0.275 C 
BRANCH  70  71
ATOM     71  O   UNL A   1      36.303  20.546  24.904  1.00  0.00    -0.458 OA
BRANCH  71  72
ATOM     72  C   UNL A   1      35.193  21.202  25.322  1.00  0.00     0.346 C 
ATOM     73  O   UNL A   1      34.941  21.549  26.461  1.00  0.00    -0.246 OA
BRANCH  72  74
ATOM     74  C   UNL A   1      34.193  21.229  24.230  1.00  0.00     0.150 A 
ATOM     75  C   UNL A   1      33.979  22.365  23.406  1.00  0.00     0.061 A 
ATOM     76  C   UNL A   1      33.286  20.159  24.147  1.00  0.00     0.284 A 
ATOM     77  C   UNL A   1      32.853  22.391  22.572  1.00  0.00     0.015 A 
ATOM     78  C   UNL A   1      32.211  20.179  23.246  1.00  0.00     0.086 A 
ATOM     79  C   UNL A   1      32.008  21.289  22.442  1.00  0.00     0.008 A 
BRANCH  75  80
ATOM     80  C   UNL A   1      34.722  23.625  23.636  1.00  0.00     0.259 C 
ATOM     81  O   UNL A   1      35.876  23.618  23.201  1.00  0.00    -0.269 OA
BRANCH  80  82
ATOM     82  N   UNL A   1      34.165  24.785  24.175  1.00  0.00    -0.308 N 
ATOM     83  C   UNL A   1      34.040  24.824  25.649  1.00  0.00     0.131 C 
ATOM     84  C   UNL A   1      33.330  25.829  23.689  1.00  0.00     0.047 A 
ATOM     85  C   UNL A   1      33.679  26.255  26.014  1.00  0.00     0.059 C 
ATOM     86  C   UNL A   1      32.913  26.617  24.781  1.00  0.00    -0.022 A 
ATOM     87  C   UNL A   1      32.775  26.088  22.451  1.00  0.00     0.026 A 
ATOM     88  C   UNL A   1      31.901  27.565  24.692  1.00  0.00     0.006 A 
ATOM     89  C   UNL A   1      31.731  27.028  22.348  1.00  0.00     0.002 A 
ATOM     90  C   UNL A   1      31.279  27.740  23.464  1.00  0.00     0.000 A 
ENDBRANCH  80  82
ENDBRANCH  75  80
BRANCH  76  91
ATOM     91  N   UNL A   1      33.381  18.997  25.023  1.00  0.00     0.063 N 
ATOM     92  O   UNL A   1      32.605  18.956  25.987  1.00  0.00    -0.258 OA
ATOM     93  O   UNL A   1      34.141  18.080  24.688  1.00  0.00    -0.258 OA
ENDBRANCH  76  91
ENDBRANCH  72  74
ENDBRANCH  71  72
ENDBRANCH  70  71
ENDBRANCH   1  70
TORSDOF 14
ENDMDL
