MODEL 1
REMARK VINA RESULT:     -14.1      0.000      0.000
REMARK SMILES CS(=O)(=O)c1ccc(-c2cc(Cl)cc3c2O[C@H](C(F)(F)F)C(C(=O)OCCOC(=O)c2ccc(-c4c5nc(c(-c6c(F)c(F)c(F)c(F)c6F)c6ccc([nH]6)c(-c6c(F)c(F)c(F)c(F)c6F)c6nc(c(-c7c(F)c(F)c(F)c(F)c7F)c7ccc4[nH]7)C=C6)C=C5)cc2)=C3)cc1
REMARK SMILES IDX 26 1 25 2 23 3 24 4 22 5 9 6 10 7 15 8 11 9 14 10 16 11
REMARK SMILES IDX 12 12 13 13 94 14 17 15 8 16 5 17 6 18 96 19 7 20 95 21 2 22
REMARK SMILES IDX 1 23 3 24 4 25 18 26 19 27 20 28 21 29 27 30 28 31 29 32
REMARK SMILES IDX 30 33 31 34 32 35 93 36 33 37 92 38 34 39 35 40 36 41 86 42
REMARK SMILES IDX 37 43 91 44 85 45 87 46 38 47 90 48 84 49 83 50 39 52 71 53
REMARK SMILES IDX 51 54 70 55 52 56 55 57 69 58 88 59 53 60 54 61 68 63 89 64
REMARK SMILES IDX 56 65 40 66 41 67 49 68 42 69 43 70 47 71 50 72 44 73 45 74
REMARK SMILES IDX 48 75 46 76 72 77 73 78 81 79 74 80 75 81 79 82 82 83 76 84
REMARK SMILES IDX 77 85 80 86 78 87 57 88 58 89 66 90 59 91 60 92 64 93 67 94
REMARK SMILES IDX 61 95 62 96 65 97 63 98
REMARK H PARENT 87 51 55 62
REMARK Flexibility Score: inf
ROOT
ATOM      1  C   UNL A   1      31.407  29.152  24.705  1.00  0.00     0.275 C 
ENDROOT
BRANCH   1   2
ATOM      2  O   UNL A   1      30.781  27.986  25.294  1.00  0.00    -0.459 OA
BRANCH   2   3
ATOM      3  C   UNL A   1      30.672  26.957  24.417  1.00  0.00     0.338 C 
ATOM      4  O   UNL A   1      29.634  26.651  23.839  1.00  0.00    -0.246 OA
BRANCH   3   5
ATOM      5  C   UNL A   1      31.952  26.254  24.141  1.00  0.00     0.087 C 
ATOM      6  C   UNL A   1      32.049  22.225  24.666  1.00  0.00     0.026 A 
ATOM      7  C   UNL A   1      31.037  22.012  25.631  1.00  0.00     0.033 A 
ATOM      8  C   UNL A   1      32.394  23.562  24.467  1.00  0.00     0.135 A 
ATOM      9  C   UNL A   1      30.560  23.018  26.476  1.00  0.00     0.042 A 
ATOM     10  C   UNL A   1      32.085  24.510  25.470  1.00  0.00     0.019 A 
ATOM     11  O   UNL A   1      32.879  24.070  23.271  1.00  0.00    -0.475 OA
ATOM     12  Cl  UNL A   1      29.248  22.776  27.553  1.00  0.00    -0.084 Cl
ATOM     13  C   UNL A   1      31.163  24.252  26.468  1.00  0.00     0.032 A 
ATOM     14  C   UNL A   1      32.568  25.891  25.279  1.00  0.00     0.027 C 
ATOM     15  C   UNL A   1      32.204  25.376  22.922  1.00  0.00     0.316 C 
BRANCH   6  16
ATOM     16  C   UNL A   1      32.737  20.993  24.194  1.00  0.00    -0.015 A 
ATOM     17  C   UNL A   1      33.714  18.320  24.119  1.00  0.00     0.067 A 
ATOM     18  C   UNL A   1      32.622  18.706  23.332  1.00  0.00     0.021 A 
ATOM     19  C   UNL A   1      34.382  19.273  24.879  1.00  0.00     0.021 A 
ATOM     20  C   UNL A   1      32.164  20.041  23.344  1.00  0.00     0.010 A 
ATOM     21  C   UNL A   1      33.893  20.590  24.909  1.00  0.00     0.010 A 
BRANCH  17  22
ATOM     22  S   UNL A   1      34.179  16.596  24.162  1.00  0.00     0.175 S 
ATOM     23  C   UNL A   1      32.910  15.724  25.037  1.00  0.00     0.163 C 
ATOM     24  O   UNL A   1      35.392  16.522  24.963  1.00  0.00    -0.224 OA
ATOM     25  O   UNL A   1      34.153  16.125  22.797  1.00  0.00    -0.224 OA
ENDBRANCH  17  22
ENDBRANCH   6  16
BRANCH  15  26
ATOM     26  C   UNL A   1      33.075  26.192  21.962  1.00  0.00     0.430 C 
ATOM     27  F   UNL A   1      34.389  26.106  22.280  1.00  0.00    -0.167 F 
ATOM     28  F   UNL A   1      32.934  25.789  20.681  1.00  0.00    -0.167 F 
ATOM     29  F   UNL A   1      32.743  27.508  22.004  1.00  0.00    -0.167 F 
ENDBRANCH  15  26
ENDBRANCH   3   5
ENDBRANCH   2   3
ENDBRANCH   1   2
BRANCH   1  30
ATOM     30  C   UNL A   1      31.567  30.310  25.691  1.00  0.00     0.275 C 
BRANCH  30  31
ATOM     31  O   UNL A   1      32.906  30.360  26.220  1.00  0.00    -0.458 OA
BRANCH  31  32
ATOM     32  C   UNL A   1      33.130  31.412  27.043  1.00  0.00     0.338 C 
ATOM     33  O   UNL A   1      32.327  32.293  27.317  1.00  0.00    -0.246 OA
BRANCH  32  34
ATOM     34  C   UNL A   1      34.460  31.329  27.693  1.00  0.00     0.060 A 
ATOM     35  C   UNL A   1      34.807  30.086  28.220  1.00  0.00     0.016 A 
ATOM     36  C   UNL A   1      35.355  32.399  27.824  1.00  0.00     0.016 A 
ATOM     37  C   UNL A   1      36.043  29.911  28.837  1.00  0.00     0.010 A 
ATOM     38  C   UNL A   1      36.603  32.213  28.461  1.00  0.00     0.010 A 
ATOM     39  C   UNL A   1      36.974  30.955  28.957  1.00  0.00    -0.014 A 
BRANCH  39  40
ATOM     40  C   UNL A   1      38.287  30.631  29.612  1.00  0.00     0.031 A 
ATOM     41  C   UNL A   1      38.505  31.015  31.048  1.00  0.00     0.074 A 
ATOM     42  C   UNL A   1      39.187  29.807  29.032  1.00  0.00     0.049 A 
ATOM     43  N   UNL A   1      39.439  30.620  31.873  1.00  0.00    -0.248 NA
ATOM     44  C   UNL A   1      37.539  31.959  31.630  1.00  0.00     0.031 C 
ATOM     45  C   UNL A   1      39.102  29.326  27.667  1.00  0.00     0.029 A 
ATOM     46  N   UNL A   1      40.289  29.147  29.533  1.00  0.00    -0.354 N 
ATOM     47  C   UNL A   1      39.158  31.239  33.081  1.00  0.00     0.074 A 
ATOM     48  C   UNL A   1      37.959  32.028  32.884  1.00  0.00     0.031 C 
ATOM     49  C   UNL A   1      39.967  28.318  27.484  1.00  0.00     0.029 A 
ATOM     50  C   UNL A   1      40.791  28.184  28.678  1.00  0.00     0.049 A 
ATOM     51  H   UNL A   1      40.682  29.344  30.413  1.00  0.00     0.167 HD
ATOM     52  C   UNL A   1      39.859  31.197  34.238  1.00  0.00     0.037 A 
ATOM     53  C   UNL A   1      41.808  27.309  28.823  1.00  0.00     0.037 A 
ATOM     54  C   UNL A   1      41.111  30.513  34.416  1.00  0.00     0.049 A 
ATOM     55  C   UNL A   1      42.665  27.414  30.055  1.00  0.00     0.074 A 
ATOM     56  C   UNL A   1      41.974  30.554  35.496  1.00  0.00     0.029 A 
ATOM     57  N   UNL A   1      41.682  29.661  33.483  1.00  0.00    -0.354 N 
ATOM     58  N   UNL A   1      42.434  28.064  31.166  1.00  0.00    -0.248 NA
ATOM     59  C   UNL A   1      43.944  26.687  30.038  1.00  0.00     0.031 C 
ATOM     60  C   UNL A   1      43.101  29.782  35.188  1.00  0.00     0.029 A 
ATOM     61  C   UNL A   1      42.911  29.209  33.941  1.00  0.00     0.049 A 
ATOM     62  H   UNL A   1      41.275  29.413  32.621  1.00  0.00     0.167 HD
ATOM     63  C   UNL A   1      43.528  27.824  31.985  1.00  0.00     0.074 A 
ATOM     64  C   UNL A   1      44.409  26.937  31.254  1.00  0.00     0.031 C 
ATOM     65  C   UNL A   1      43.775  28.305  33.226  1.00  0.00     0.037 A 
BRANCH  52  66
ATOM     66  C   UNL A   1      39.328  32.025  35.364  1.00  0.00     0.064 A 
ATOM     67  C   UNL A   1      39.665  33.378  35.505  1.00  0.00     0.173 A 
ATOM     68  C   UNL A   1      38.503  31.442  36.338  1.00  0.00     0.173 A 
ATOM     69  F   UNL A   1      40.486  33.967  34.622  1.00  0.00    -0.203 F 
ATOM     70  C   UNL A   1      39.208  34.115  36.594  1.00  0.00     0.198 A 
ATOM     71  C   UNL A   1      38.032  32.187  37.413  1.00  0.00     0.198 A 
ATOM     72  F   UNL A   1      38.172  30.145  36.254  1.00  0.00    -0.203 F 
ATOM     73  F   UNL A   1      39.583  35.393  36.743  1.00  0.00    -0.200 F 
ATOM     74  C   UNL A   1      38.390  33.519  37.544  1.00  0.00     0.200 A 
ATOM     75  F   UNL A   1      37.247  31.608  38.332  1.00  0.00    -0.200 F 
ATOM     76  F   UNL A   1      37.962  34.227  38.599  1.00  0.00    -0.200 F 
ENDBRANCH  52  66
BRANCH  53  77
ATOM     77  C   UNL A   1      42.119  26.273  27.793  1.00  0.00     0.064 A 
ATOM     78  C   UNL A   1      43.079  26.520  26.796  1.00  0.00     0.173 A 
ATOM     79  C   UNL A   1      41.436  25.051  27.729  1.00  0.00     0.173 A 
ATOM     80  F   UNL A   1      43.748  27.683  26.781  1.00  0.00    -0.203 F 
ATOM     81  C   UNL A   1      43.328  25.601  25.777  1.00  0.00     0.198 A 
ATOM     82  C   UNL A   1      41.714  24.112  26.735  1.00  0.00     0.198 A 
ATOM     83  F   UNL A   1      40.489  24.762  28.633  1.00  0.00    -0.203 F 
ATOM     84  F   UNL A   1      44.208  25.896  24.811  1.00  0.00    -0.200 F 
ATOM     85  C   UNL A   1      42.651  24.393  25.753  1.00  0.00     0.200 A 
ATOM     86  F   UNL A   1      41.063  22.941  26.723  1.00  0.00    -0.200 F 
ATOM     87  F   UNL A   1      42.890  23.506  24.777  1.00  0.00    -0.200 F 
ENDBRANCH  53  77
BRANCH  65  88
ATOM     88  C   UNL A   1      45.024  27.836  33.916  1.00  0.00     0.064 A 
ATOM     89  C   UNL A   1      45.057  26.663  34.684  1.00  0.00     0.173 A 
ATOM     90  C   UNL A   1      46.217  28.560  33.770  1.00  0.00     0.173 A 
ATOM     91  F   UNL A   1      43.938  25.946  34.874  1.00  0.00    -0.203 F 
ATOM     92  C   UNL A   1      46.234  26.245  35.301  1.00  0.00     0.198 A 
ATOM     93  C   UNL A   1      47.398  28.123  34.360  1.00  0.00     0.198 A 
ATOM     94  F   UNL A   1      46.236  29.692  33.050  1.00  0.00    -0.203 F 
ATOM     95  F   UNL A   1      46.233  25.149  36.072  1.00  0.00    -0.200 F 
ATOM     96  C   UNL A   1      47.405  26.970  35.131  1.00  0.00     0.200 A 
ATOM     97  F   UNL A   1      48.529  28.821  34.190  1.00  0.00    -0.200 F 
ATOM     98  F   UNL A   1      48.538  26.564  35.720  1.00  0.00    -0.200 F 
ENDBRANCH  65  88
ENDBRANCH  39  40
ENDBRANCH  32  34
ENDBRANCH  31  32
ENDBRANCH  30  31
ENDBRANCH   1  30
TORSDOF 14
ENDMDL
MODEL 2
REMARK VINA RESULT:     -14.0      0.311      1.900
REMARK SMILES CS(=O)(=O)c1ccc(-c2cc(Cl)cc3c2O[C@H](C(F)(F)F)C(C(=O)OCCOC(=O)c2ccc(-c4c5nc(c(-c6c(F)c(F)c(F)c(F)c6F)c6ccc([nH]6)c(-c6c(F)c(F)c(F)c(F)c6F)c6nc(c(-c7c(F)c(F)c(F)c(F)c7F)c7ccc4[nH]7)C=C6)C=C5)cc2)=C3)cc1
REMARK SMILES IDX 26 1 25 2 23 3 24 4 22 5 9 6 10 7 15 8 11 9 14 10 16 11
REMARK SMILES IDX 12 12 13 13 94 14 17 15 8 16 5 17 6 18 96 19 7 20 95 21 2 22
REMARK SMILES IDX 1 23 3 24 4 25 18 26 19 27 20 28 21 29 27 30 28 31 29 32
REMARK SMILES IDX 30 33 31 34 32 35 93 36 33 37 92 38 34 39 35 40 36 41 86 42
REMARK SMILES IDX 37 43 91 44 85 45 87 46 38 47 90 48 84 49 83 50 39 52 71 53
REMARK SMILES IDX 51 54 70 55 52 56 55 57 69 58 88 59 53 60 54 61 68 63 89 64
REMARK SMILES IDX 56 65 40 66 41 67 49 68 42 69 43 70 47 71 50 72 44 73 45 74
REMARK SMILES IDX 48 75 46 76 72 77 73 78 81 79 74 80 75 81 79 82 82 83 76 84
REMARK SMILES IDX 77 85 80 86 78 87 57 88 58 89 66 90 59 91 60 92 64 93 67 94
REMARK SMILES IDX 61 95 62 96 65 97 63 98
REMARK H PARENT 87 51 55 62
REMARK Flexibility Score: inf
ROOT
ATOM      1  C   UNL A   1      31.416  29.254  24.739  1.00  0.00     0.275 C 
ENDROOT
BRANCH   1   2
ATOM      2  O   UNL A   1      30.812  28.091  25.357  1.00  0.00    -0.459 OA
BRANCH   2   3
ATOM      3  C   UNL A   1      30.693  27.049  24.495  1.00  0.00     0.338 C 
ATOM      4  O   UNL A   1      29.648  26.737  23.932  1.00  0.00    -0.246 OA
BRANCH   3   5
ATOM      5  C   UNL A   1      31.969  26.340  24.216  1.00  0.00     0.087 C 
ATOM      6  C   UNL A   1      32.045  22.310  24.731  1.00  0.00     0.026 A 
ATOM      7  C   UNL A   1      31.033  22.099  25.697  1.00  0.00     0.033 A 
ATOM      8  C   UNL A   1      32.397  23.645  24.535  1.00  0.00     0.135 A 
ATOM      9  C   UNL A   1      30.562  23.105  26.545  1.00  0.00     0.042 A 
ATOM     10  C   UNL A   1      32.094  24.592  25.541  1.00  0.00     0.019 A 
ATOM     11  O   UNL A   1      32.884  24.154  23.340  1.00  0.00    -0.475 OA
ATOM     12  Cl  UNL A   1      29.250  22.868  27.623  1.00  0.00    -0.084 Cl
ATOM     13  C   UNL A   1      31.172  24.336  26.539  1.00  0.00     0.032 A 
ATOM     14  C   UNL A   1      32.584  25.972  25.353  1.00  0.00     0.027 C 
ATOM     15  C   UNL A   1      32.215  25.464  22.995  1.00  0.00     0.316 C 
BRANCH   6  16
ATOM     16  C   UNL A   1      32.726  21.075  24.255  1.00  0.00    -0.015 A 
ATOM     17  C   UNL A   1      33.678  18.394  24.166  1.00  0.00     0.067 A 
ATOM     18  C   UNL A   1      32.598  18.797  23.371  1.00  0.00     0.021 A 
ATOM     19  C   UNL A   1      34.347  19.333  24.942  1.00  0.00     0.021 A 
ATOM     20  C   UNL A   1      32.153  20.137  23.390  1.00  0.00     0.010 A 
ATOM     21  C   UNL A   1      33.871  20.654  24.979  1.00  0.00     0.010 A 
BRANCH  17  22
ATOM     22  S   UNL A   1      34.126  16.664  24.198  1.00  0.00     0.175 S 
ATOM     23  C   UNL A   1      32.846  15.799  25.064  1.00  0.00     0.163 C 
ATOM     24  O   UNL A   1      35.336  16.573  25.001  1.00  0.00    -0.224 OA
ATOM     25  O   UNL A   1      34.097  16.203  22.830  1.00  0.00    -0.224 OA
ENDBRANCH  17  22
ENDBRANCH   6  16
BRANCH  15  26
ATOM     26  C   UNL A   1      33.089  26.278  22.036  1.00  0.00     0.430 C 
ATOM     27  F   UNL A   1      34.409  26.101  22.287  1.00  0.00    -0.167 F 
ATOM     28  F   UNL A   1      32.868  25.951  20.745  1.00  0.00    -0.167 F 
ATOM     29  F   UNL A   1      32.838  27.607  22.159  1.00  0.00    -0.167 F 
ENDBRANCH  15  26
ENDBRANCH   3   5
ENDBRANCH   2   3
ENDBRANCH   1   2
BRANCH   1  30
ATOM     30  C   UNL A   1      31.634  30.408  25.718  1.00  0.00     0.275 C 
BRANCH  30  31
ATOM     31  O   UNL A   1      32.968  30.383  26.262  1.00  0.00    -0.458 OA
BRANCH  31  32
ATOM     32  C   UNL A   1      33.269  31.463  27.021  1.00  0.00     0.338 C 
ATOM     33  O   UNL A   1      32.529  32.407  27.252  1.00  0.00    -0.246 OA
BRANCH  32  34
ATOM     34  C   UNL A   1      34.600  31.330  27.663  1.00  0.00     0.060 A 
ATOM     35  C   UNL A   1      34.932  30.058  28.125  1.00  0.00     0.016 A 
ATOM     36  C   UNL A   1      35.508  32.382  27.846  1.00  0.00     0.016 A 
ATOM     37  C   UNL A   1      36.167  29.836  28.729  1.00  0.00     0.010 A 
ATOM     38  C   UNL A   1      36.755  32.148  28.470  1.00  0.00     0.010 A 
ATOM     39  C   UNL A   1      37.111  30.861  28.900  1.00  0.00    -0.014 A 
BRANCH  39  40
ATOM     40  C   UNL A   1      38.421  30.489  29.535  1.00  0.00     0.031 A 
ATOM     41  C   UNL A   1      38.672  30.853  30.970  1.00  0.00     0.074 A 
ATOM     42  C   UNL A   1      39.284  29.639  28.936  1.00  0.00     0.049 A 
ATOM     43  N   UNL A   1      39.603  30.421  31.779  1.00  0.00    -0.248 NA
ATOM     44  C   UNL A   1      37.746  31.825  31.572  1.00  0.00     0.031 C 
ATOM     45  C   UNL A   1      39.165  29.172  27.569  1.00  0.00     0.029 A 
ATOM     46  N   UNL A   1      40.371  28.938  29.417  1.00  0.00    -0.354 N 
ATOM     47  C   UNL A   1      39.360  31.040  32.995  1.00  0.00     0.074 A 
ATOM     48  C   UNL A   1      38.186  31.870  32.821  1.00  0.00     0.031 C 
ATOM     49  C   UNL A   1      39.993  28.136  27.367  1.00  0.00     0.029 A 
ATOM     50  C   UNL A   1      40.828  27.966  28.549  1.00  0.00     0.049 A 
ATOM     51  H   UNL A   1      40.782  29.115  30.293  1.00  0.00     0.167 HD
ATOM     52  C   UNL A   1      40.074  30.965  34.142  1.00  0.00     0.037 A 
ATOM     53  C   UNL A   1      41.817  27.055  28.673  1.00  0.00     0.037 A 
ATOM     54  C   UNL A   1      41.305  30.238  34.298  1.00  0.00     0.049 A 
ATOM     55  C   UNL A   1      42.693  27.122  29.894  1.00  0.00     0.074 A 
ATOM     56  C   UNL A   1      42.183  30.242  35.366  1.00  0.00     0.029 A 
ATOM     57  N   UNL A   1      41.834  29.374  33.351  1.00  0.00    -0.354 N 
ATOM     58  N   UNL A   1      42.500  27.770  31.013  1.00  0.00    -0.248 NA
ATOM     59  C   UNL A   1      43.946  26.352  29.854  1.00  0.00     0.031 C 
ATOM     60  C   UNL A   1      43.280  29.434  35.037  1.00  0.00     0.029 A 
ATOM     61  C   UNL A   1      43.053  28.878  33.789  1.00  0.00     0.049 A 
ATOM     62  H   UNL A   1      41.407  29.147  32.493  1.00  0.00     0.167 HD
ATOM     63  C   UNL A   1      43.596  27.488  31.814  1.00  0.00     0.074 A 
ATOM     64  C   UNL A   1      44.437  26.578  31.065  1.00  0.00     0.031 C 
ATOM     65  C   UNL A   1      43.876  27.951  33.056  1.00  0.00     0.037 A 
BRANCH  52  66
ATOM     66  C   UNL A   1      39.587  31.802  35.282  1.00  0.00     0.064 A 
ATOM     67  C   UNL A   1      38.645  31.317  36.200  1.00  0.00     0.173 A 
ATOM     68  C   UNL A   1      40.040  33.122  35.429  1.00  0.00     0.173 A 
ATOM     69  F   UNL A   1      38.151  30.077  36.073  1.00  0.00    -0.203 F 
ATOM     70  C   UNL A   1      38.161  32.134  37.218  1.00  0.00     0.198 A 
ATOM     71  C   UNL A   1      39.569  33.927  36.460  1.00  0.00     0.198 A 
ATOM     72  F   UNL A   1      40.926  33.633  34.562  1.00  0.00    -0.203 F 
ATOM     73  F   UNL A   1      37.221  31.674  38.055  1.00  0.00    -0.200 F 
ATOM     74  C   UNL A   1      38.625  33.436  37.348  1.00  0.00     0.200 A 
ATOM     75  F   UNL A   1      40.015  35.185  36.580  1.00  0.00    -0.200 F 
ATOM     76  F   UNL A   1      38.147  34.225  38.321  1.00  0.00    -0.200 F 
ENDBRANCH  52  66
BRANCH  53  77
ATOM     77  C   UNL A   1      42.078  26.017  27.631  1.00  0.00     0.064 A 
ATOM     78  C   UNL A   1      41.450  24.761  27.698  1.00  0.00     0.173 A 
ATOM     79  C   UNL A   1      42.995  26.215  26.590  1.00  0.00     0.173 A 
ATOM     80  F   UNL A   1      40.583  24.495  28.687  1.00  0.00    -0.203 F 
ATOM     81  C   UNL A   1      41.739  23.750  26.782  1.00  0.00     0.198 A 
ATOM     82  C   UNL A   1      43.254  25.218  25.648  1.00  0.00     0.198 A 
ATOM     83  F   UNL A   1      43.650  27.380  26.483  1.00  0.00    -0.203 F 
ATOM     84  F   UNL A   1      41.164  22.547  26.913  1.00  0.00    -0.200 F 
ATOM     85  C   UNL A   1      42.635  23.982  25.752  1.00  0.00     0.200 A 
ATOM     86  F   UNL A   1      44.114  25.453  24.648  1.00  0.00    -0.200 F 
ATOM     87  F   UNL A   1      42.914  23.014  24.869  1.00  0.00    -0.200 F 
ENDBRANCH  53  77
BRANCH  65  88
ATOM     88  C   UNL A   1      45.117  27.434  33.724  1.00  0.00     0.064 A 
ATOM     89  C   UNL A   1      46.353  28.089  33.613  1.00  0.00     0.173 A 
ATOM     90  C   UNL A   1      45.054  26.282  34.521  1.00  0.00     0.173 A 
ATOM     91  F   UNL A   1      46.473  29.182  32.845  1.00  0.00    -0.203 F 
ATOM     92  C   UNL A   1      47.485  27.593  34.257  1.00  0.00     0.198 A 
ATOM     93  C   UNL A   1      46.179  25.807  35.188  1.00  0.00     0.198 A 
ATOM     94  F   UNL A   1      43.897  25.616  34.655  1.00  0.00    -0.203 F 
ATOM     95  F   UNL A   1      48.667  28.204  34.097  1.00  0.00    -0.200 F 
ATOM     96  C   UNL A   1      47.394  26.459  35.050  1.00  0.00     0.200 A 
ATOM     97  F   UNL A   1      46.087  24.715  35.960  1.00  0.00    -0.200 F 
ATOM     98  F   UNL A   1      48.483  25.986  35.674  1.00  0.00    -0.200 F 
ENDBRANCH  65  88
ENDBRANCH  39  40
ENDBRANCH  32  34
ENDBRANCH  31  32
ENDBRANCH  30  31
ENDBRANCH   1  30
TORSDOF 14
ENDMDL
MODEL 3
REMARK VINA RESULT:     -13.8      4.407      9.776
REMARK SMILES CS(=O)(=O)c1ccc(-c2cc(Cl)cc3c2O[C@H](C(F)(F)F)C(C(=O)OCCOC(=O)c2ccc(-c4c5nc(c(-c6c(F)c(F)c(F)c(F)c6F)c6ccc([nH]6)c(-c6c(F)c(F)c(F)c(F)c6F)c6nc(c(-c7c(F)c(F)c(F)c(F)c7F)c7ccc4[nH]7)C=C6)C=C5)cc2)=C3)cc1
REMARK SMILES IDX 26 1 25 2 23 3 24 4 22 5 9 6 10 7 15 8 11 9 14 10 16 11
REMARK SMILES IDX 12 12 13 13 94 14 17 15 8 16 5 17 6 18 96 19 7 20 95 21 2 22
REMARK SMILES IDX 1 23 3 24 4 25 18 26 19 27 20 28 21 29 27 30 28 31 29 32
REMARK SMILES IDX 30 33 31 34 32 35 93 36 33 37 92 38 34 39 35 40 36 41 86 42
REMARK SMILES IDX 37 43 91 44 85 45 87 46 38 47 90 48 84 49 83 50 39 52 71 53
REMARK SMILES IDX 51 54 70 55 52 56 55 57 69 58 88 59 53 60 54 61 68 63 89 64
REMARK SMILES IDX 56 65 40 66 41 67 49 68 42 69 43 70 47 71 50 72 44 73 45 74
REMARK SMILES IDX 48 75 46 76 72 77 73 78 81 79 74 80 75 81 79 82 82 83 76 84
REMARK SMILES IDX 77 85 80 86 78 87 57 88 58 89 66 90 59 91 60 92 64 93 67 94
REMARK SMILES IDX 61 95 62 96 65 97 63 98
REMARK H PARENT 87 51 55 62
REMARK Flexibility Score: inf
ROOT
ATOM      1  C   UNL A   1      34.896  20.831  24.866  1.00  0.00     0.275 C 
ENDROOT
BRANCH   1   2
ATOM      2  O   UNL A   1      34.521  21.772  23.829  1.00  0.00    -0.459 OA
BRANCH   2   3
ATOM      3  C   UNL A   1      33.218  22.141  23.911  1.00  0.00     0.338 C 
ATOM      4  O   UNL A   1      32.295  21.533  23.376  1.00  0.00    -0.246 OA
BRANCH   3   5
ATOM      5  C   UNL A   1      32.971  23.322  24.778  1.00  0.00     0.087 C 
ATOM      6  C   UNL A   1      31.073  26.515  23.132  1.00  0.00     0.026 A 
ATOM      7  C   UNL A   1      31.393  26.395  21.759  1.00  0.00     0.033 A 
ATOM      8  C   UNL A   1      31.793  25.670  23.976  1.00  0.00     0.135 A 
ATOM      9  C   UNL A   1      32.481  25.655  21.289  1.00  0.00     0.042 A 
ATOM     10  C   UNL A   1      33.017  25.124  23.524  1.00  0.00     0.019 A 
ATOM     11  O   UNL A   1      31.315  25.186  25.185  1.00  0.00    -0.475 OA
ATOM     12  Cl  UNL A   1      32.783  25.416  19.618  1.00  0.00    -0.084 Cl
ATOM     13  C   UNL A   1      33.362  25.101  22.185  1.00  0.00     0.032 A 
ATOM     14  C   UNL A   1      33.809  24.330  24.483  1.00  0.00     0.027 C 
ATOM     15  C   UNL A   1      31.607  23.711  25.332  1.00  0.00     0.316 C 
BRANCH   6  16
ATOM     16  C   UNL A   1      30.200  27.671  23.475  1.00  0.00    -0.015 A 
ATOM     17  C   UNL A   1      28.971  30.237  23.370  1.00  0.00     0.067 A 
ATOM     18  C   UNL A   1      28.275  29.092  22.962  1.00  0.00     0.021 A 
ATOM     19  C   UNL A   1      30.244  30.108  23.913  1.00  0.00     0.021 A 
ATOM     20  C   UNL A   1      28.875  27.817  23.051  1.00  0.00     0.010 A 
ATOM     21  C   UNL A   1      30.842  28.838  23.962  1.00  0.00     0.010 A 
BRANCH  17  22
ATOM     22  S   UNL A   1      28.216  31.837  23.125  1.00  0.00     0.175 S 
ATOM     23  C   UNL A   1      28.035  32.079  21.380  1.00  0.00     0.163 C 
ATOM     24  O   UNL A   1      29.177  32.818  23.606  1.00  0.00    -0.224 OA
ATOM     25  O   UNL A   1      26.885  31.757  23.682  1.00  0.00    -0.224 OA
ENDBRANCH  17  22
ENDBRANCH   6  16
BRANCH  15  26
ATOM     26  C   UNL A   1      31.598  23.306  26.809  1.00  0.00     0.430 C 
ATOM     27  F   UNL A   1      30.344  23.034  27.246  1.00  0.00    -0.167 F 
ATOM     28  F   UNL A   1      32.361  22.217  27.043  1.00  0.00    -0.167 F 
ATOM     29  F   UNL A   1      32.082  24.306  27.591  1.00  0.00    -0.167 F 
ENDBRANCH  15  26
ENDBRANCH   3   5
ENDBRANCH   2   3
ENDBRANCH   1   2
BRANCH   1  30
ATOM     30  C   UNL A   1      35.805  21.445  25.932  1.00  0.00     0.275 C 
BRANCH  30  31
ATOM     31  O   UNL A   1      36.915  22.138  25.330  1.00  0.00    -0.458 OA
BRANCH  31  32
ATOM     32  C   UNL A   1      38.124  21.622  25.657  1.00  0.00     0.338 C 
ATOM     33  O   UNL A   1      38.527  20.503  25.377  1.00  0.00    -0.246 OA
BRANCH  32  34
ATOM     34  C   UNL A   1      38.991  22.628  26.319  1.00  0.00     0.060 A 
ATOM     35  C   UNL A   1      38.698  23.962  26.045  1.00  0.00     0.016 A 
ATOM     36  C   UNL A   1      40.068  22.324  27.163  1.00  0.00     0.016 A 
ATOM     37  C   UNL A   1      39.450  24.976  26.634  1.00  0.00     0.010 A 
ATOM     38  C   UNL A   1      40.831  23.360  27.747  1.00  0.00     0.010 A 
ATOM     39  C   UNL A   1      40.516  24.706  27.507  1.00  0.00    -0.014 A 
BRANCH  39  40
ATOM     40  C   UNL A   1      41.229  25.886  28.104  1.00  0.00     0.031 A 
ATOM     41  C   UNL A   1      42.636  26.189  27.675  1.00  0.00     0.074 A 
ATOM     42  C   UNL A   1      40.576  26.815  28.837  1.00  0.00     0.049 A 
ATOM     43  N   UNL A   1      43.339  27.275  27.861  1.00  0.00    -0.248 NA
ATOM     44  C   UNL A   1      43.337  25.132  26.929  1.00  0.00     0.031 C 
ATOM     45  C   UNL A   1      39.210  26.683  29.304  1.00  0.00     0.029 A 
ATOM     46  N   UNL A   1      40.925  28.088  29.234  1.00  0.00    -0.354 N 
ATOM     47  C   UNL A   1      44.552  27.050  27.232  1.00  0.00     0.074 A 
ATOM     48  C   UNL A   1      44.486  25.726  26.646  1.00  0.00     0.031 C 
ATOM     49  C   UNL A   1      38.762  27.867  29.745  1.00  0.00     0.029 A 
ATOM     50  C   UNL A   1      39.867  28.816  29.744  1.00  0.00     0.049 A 
ATOM     51  H   UNL A   1      41.840  28.444  29.163  1.00  0.00     0.167 HD
ATOM     52  C   UNL A   1      45.643  27.849  27.183  1.00  0.00     0.037 A 
ATOM     53  C   UNL A   1      39.794  30.091  30.182  1.00  0.00     0.037 A 
ATOM     54  C   UNL A   1      45.765  29.115  27.855  1.00  0.00     0.049 A 
ATOM     55  C   UNL A   1      41.068  30.887  30.269  1.00  0.00     0.074 A 
ATOM     56  C   UNL A   1      46.886  29.912  28.002  1.00  0.00     0.029 A 
ATOM     57  N   UNL A   1      44.725  29.769  28.497  1.00  0.00    -0.354 N 
ATOM     58  N   UNL A   1      42.235  30.632  29.738  1.00  0.00    -0.248 NA
ATOM     59  C   UNL A   1      41.020  32.134  31.047  1.00  0.00     0.031 C 
ATOM     60  C   UNL A   1      46.540  31.014  28.794  1.00  0.00     0.029 A 
ATOM     61  C   UNL A   1      45.189  30.936  29.086  1.00  0.00     0.049 A 
ATOM     62  H   UNL A   1      43.794  29.451  28.531  1.00  0.00     0.167 HD
ATOM     63  C   UNL A   1      43.062  31.683  30.107  1.00  0.00     0.074 A 
ATOM     64  C   UNL A   1      42.250  32.600  30.881  1.00  0.00     0.031 C 
ATOM     65  C   UNL A   1      44.375  31.862  29.832  1.00  0.00     0.037 A 
BRANCH  52  66
ATOM     66  C   UNL A   1      46.835  27.300  26.466  1.00  0.00     0.064 A 
ATOM     67  C   UNL A   1      47.777  26.492  27.117  1.00  0.00     0.173 A 
ATOM     68  C   UNL A   1      47.056  27.624  25.119  1.00  0.00     0.173 A 
ATOM     69  F   UNL A   1      47.630  26.192  28.416  1.00  0.00    -0.203 F 
ATOM     70  C   UNL A   1      48.910  26.040  26.447  1.00  0.00     0.198 A 
ATOM     71  C   UNL A   1      48.179  27.154  24.447  1.00  0.00     0.198 A 
ATOM     72  F   UNL A   1      46.191  28.411  24.462  1.00  0.00    -0.203 F 
ATOM     73  F   UNL A   1      49.828  25.313  27.098  1.00  0.00    -0.200 F 
ATOM     74  C   UNL A   1      49.108  26.369  25.112  1.00  0.00     0.200 A 
ATOM     75  F   UNL A   1      48.371  27.477  23.161  1.00  0.00    -0.200 F 
ATOM     76  F   UNL A   1      50.207  25.945  24.472  1.00  0.00    -0.200 F 
ENDBRANCH  52  66
BRANCH  53  77
ATOM     77  C   UNL A   1      38.504  30.713  30.606  1.00  0.00     0.064 A 
ATOM     78  C   UNL A   1      37.657  31.320  29.662  1.00  0.00     0.173 A 
ATOM     79  C   UNL A   1      38.110  30.781  31.950  1.00  0.00     0.173 A 
ATOM     80  F   UNL A   1      37.989  31.317  28.362  1.00  0.00    -0.203 F 
ATOM     81  C   UNL A   1      36.487  31.976  30.044  1.00  0.00     0.198 A 
ATOM     82  C   UNL A   1      36.919  31.401  32.329  1.00  0.00     0.198 A 
ATOM     83  F   UNL A   1      38.884  30.247  32.905  1.00  0.00    -0.203 F 
ATOM     84  F   UNL A   1      35.736  32.593  29.122  1.00  0.00    -0.200 F 
ATOM     85  C   UNL A   1      36.115  32.009  31.378  1.00  0.00     0.200 A 
ATOM     86  F   UNL A   1      36.559  31.420  33.619  1.00  0.00    -0.200 F 
ATOM     87  F   UNL A   1      34.990  32.637  31.748  1.00  0.00    -0.200 F 
ENDBRANCH  53  77
BRANCH  65  88
ATOM     88  C   UNL A   1      45.018  33.130  30.312  1.00  0.00     0.064 A 
ATOM     89  C   UNL A   1      45.046  34.296  29.532  1.00  0.00     0.173 A 
ATOM     90  C   UNL A   1      45.584  33.185  31.595  1.00  0.00     0.173 A 
ATOM     91  F   UNL A   1      44.539  34.291  28.290  1.00  0.00    -0.203 F 
ATOM     92  C   UNL A   1      45.638  35.463  30.011  1.00  0.00     0.198 A 
ATOM     93  C   UNL A   1      46.145  34.361  32.082  1.00  0.00     0.198 A 
ATOM     94  F   UNL A   1      45.588  32.095  32.378  1.00  0.00    -0.203 F 
ATOM     95  F   UNL A   1      45.699  36.551  29.231  1.00  0.00    -0.200 F 
ATOM     96  C   UNL A   1      46.179  35.496  31.288  1.00  0.00     0.200 A 
ATOM     97  F   UNL A   1      46.662  34.392  33.319  1.00  0.00    -0.200 F 
ATOM     98  F   UNL A   1      46.743  36.622  31.750  1.00  0.00    -0.200 F 
ENDBRANCH  65  88
ENDBRANCH  39  40
ENDBRANCH  32  34
ENDBRANCH  31  32
ENDBRANCH  30  31
ENDBRANCH   1  30
TORSDOF 14
ENDMDL
