MODEL 1
REMARK VINA RESULT:     -13.5      0.000      0.000
REMARK SMILES Cc1cc(C)cc(Oc2nc3ccccn3c(=O)c2/C=C2\SC(=S)N(CCC(=O)OCCOC(=O)c3ccc(-c4c5nc(c(-c6c(F)c(F)c(F)c(F)c6F)c6ccc([nH]6)c(-c6c(F)c(F)c(F)c(F)c6F)c6nc(c(-c7c(F)c(F)c(F)c(F)c7F)c7ccc4[nH]7)C=C6)C=C5)cc3)C2=O)c1
REMARK SMILES IDX 30 1 28 2 29 3 27 4 26 5 25 6 20 7 21 8 22 9 99 10 23 11
REMARK SMILES IDX 100 12 24 13 19 14 9 15 10 16 11 17 17 18 12 19 16 20 18 21
REMARK SMILES IDX 13 22 15 23 14 24 8 25 7 26 1 27 2 28 3 29 101 30 4 31 5 32
REMARK SMILES IDX 6 33 31 34 32 35 33 36 34 37 35 38 36 39 37 40 98 41 38 42
REMARK SMILES IDX 97 43 39 44 40 45 41 46 91 47 42 48 96 49 90 50 92 51 43 52
REMARK SMILES IDX 95 53 89 54 88 55 44 57 76 58 56 59 75 60 57 61 60 62 74 63
REMARK SMILES IDX 93 64 58 65 59 66 73 68 94 69 61 70 45 71 46 72 54 73 47 74
REMARK SMILES IDX 48 75 52 76 55 77 49 78 50 79 53 80 51 81 77 82 78 83 86 84
REMARK SMILES IDX 79 85 80 86 84 87 87 88 81 89 82 90 85 91 83 92 62 93 63 94
REMARK SMILES IDX 71 95 64 96 65 97 69 98 72 99 66 100 67 101 70 102 68 103
REMARK H PARENT 92 56 60 67
REMARK Flexibility Score: inf
ROOT
ATOM      1  O   UNL A   1      43.221  20.901  25.205  1.00  0.00    -0.462 OA
ENDROOT
BRANCH   1   2
ATOM      2  C   UNL A   1      42.279  20.717  26.159  1.00  0.00     0.307 C 
ATOM      3  O   UNL A   1      42.246  19.785  26.953  1.00  0.00    -0.252 OA
BRANCH   2   4
ATOM      4  C   UNL A   1      41.215  21.788  26.112  1.00  0.00     0.144 C 
BRANCH   4   5
ATOM      5  C   UNL A   1      39.874  21.364  26.720  1.00  0.00     0.139 C 
BRANCH   5   6
ATOM      6  N   UNL A   1      38.752  22.094  26.129  1.00  0.00    -0.292 N 
ATOM      7  C   UNL A   1      35.591  21.579  24.586  1.00  0.00     0.041 C 
ATOM      8  C   UNL A   1      36.693  22.194  25.035  1.00  0.00     0.081 C 
ATOM      9  S   UNL A   1      36.881  23.793  25.631  1.00  0.00    -0.054 SA
ATOM     10  C   UNL A   1      37.951  21.450  25.208  1.00  0.00     0.266 C 
ATOM     11  C   UNL A   1      38.393  23.390  26.439  1.00  0.00     0.148 C 
ATOM     12  O   UNL A   1      38.195  20.415  24.614  1.00  0.00    -0.268 OA
ATOM     13  S   UNL A   1      39.181  24.464  27.443  1.00  0.00    -0.052 S 
BRANCH   7  14
ATOM     14  C   UNL A   1      34.309  22.232  24.426  1.00  0.00     0.104 A 
ATOM     15  C   UNL A   1      33.168  21.867  25.045  1.00  0.00     0.234 A 
ATOM     16  N   UNL A   1      31.982  22.540  24.892  1.00  0.00    -0.194 NA
ATOM     17  C   UNL A   1      31.965  23.602  24.149  1.00  0.00     0.143 A 
ATOM     18  C   UNL A   1      34.257  23.404  23.506  1.00  0.00     0.269 A 
ATOM     19  C   UNL A   1      30.693  24.367  24.008  1.00  0.00     0.048 A 
ATOM     20  N   UNL A   1      33.061  24.090  23.458  1.00  0.00    -0.267 N 
ATOM     21  O   UNL A   1      35.245  23.695  22.827  1.00  0.00    -0.268 OA
ATOM     22  C   UNL A   1      30.660  25.477  23.260  1.00  0.00     0.005 A 
ATOM     23  C   UNL A   1      32.978  25.240  22.684  1.00  0.00     0.096 A 
ATOM     24  C   UNL A   1      31.840  25.934  22.576  1.00  0.00     0.019 A 
BRANCH  15  25
ATOM     25  O   UNL A   1      33.077  20.684  25.781  1.00  0.00    -0.438 OA
BRANCH  25  26
ATOM     26  C   UNL A   1      32.880  19.460  25.181  1.00  0.00     0.130 A 
ATOM     27  C   UNL A   1      32.896  15.696  25.752  1.00  0.00     0.044 C 
ATOM     28  C   UNL A   1      32.782  17.036  25.088  1.00  0.00    -0.047 A 
ATOM     29  C   UNL A   1      32.563  17.104  23.705  1.00  0.00     0.007 A 
ATOM     30  C   UNL A   1      32.905  18.224  25.825  1.00  0.00     0.050 A 
ATOM     31  C   UNL A   1      32.453  18.337  23.058  1.00  0.00    -0.047 A 
ATOM     32  C   UNL A   1      32.153  18.385  21.588  1.00  0.00     0.044 C 
ATOM     33  C   UNL A   1      32.632  19.510  23.803  1.00  0.00     0.050 A 
ENDBRANCH  25  26
ENDBRANCH  15  25
ENDBRANCH   7  14
ENDBRANCH   5   6
ENDBRANCH   4   5
ENDBRANCH   2   4
ENDBRANCH   1   2
BRANCH   1  34
ATOM     34  C   UNL A   1      44.181  21.954  25.420  1.00  0.00     0.274 C 
BRANCH  34  35
ATOM     35  C   UNL A   1      44.202  22.951  24.259  1.00  0.00     0.275 C 
BRANCH  35  36
ATOM     36  O   UNL A   1      43.545  24.168  24.648  1.00  0.00    -0.458 OA
BRANCH  36  37
ATOM     37  C   UNL A   1      44.340  25.182  25.051  1.00  0.00     0.338 C 
ATOM     38  O   UNL A   1      45.424  25.531  24.627  1.00  0.00    -0.246 OA
BRANCH  37  39
ATOM     39  C   UNL A   1      43.684  25.864  26.167  1.00  0.00     0.060 A 
ATOM     40  C   UNL A   1      43.873  27.235  26.353  1.00  0.00     0.016 A 
ATOM     41  C   UNL A   1      42.951  25.104  27.077  1.00  0.00     0.016 A 
ATOM     42  C   UNL A   1      43.322  27.859  27.467  1.00  0.00     0.010 A 
ATOM     43  C   UNL A   1      42.382  25.733  28.180  1.00  0.00     0.010 A 
ATOM     44  C   UNL A   1      42.574  27.110  28.385  1.00  0.00    -0.014 A 
BRANCH  44  45
ATOM     45  C   UNL A   1      42.002  27.749  29.587  1.00  0.00     0.031 A 
ATOM     46  C   UNL A   1      40.739  28.548  29.471  1.00  0.00     0.074 A 
ATOM     47  C   UNL A   1      42.642  27.634  30.763  1.00  0.00     0.049 A 
ATOM     48  N   UNL A   1      40.154  29.305  30.362  1.00  0.00    -0.248 NA
ATOM     49  C   UNL A   1      40.043  28.490  28.176  1.00  0.00     0.031 C 
ATOM     50  C   UNL A   1      43.855  26.849  30.989  1.00  0.00     0.029 A 
ATOM     51  N   UNL A   1      42.368  28.191  31.986  1.00  0.00    -0.354 N 
ATOM     52  C   UNL A   1      39.030  29.823  29.735  1.00  0.00     0.074 A 
ATOM     53  C   UNL A   1      39.023  29.310  28.381  1.00  0.00     0.031 C 
ATOM     54  C   UNL A   1      44.227  26.980  32.273  1.00  0.00     0.029 A 
ATOM     55  C   UNL A   1      43.308  27.895  32.941  1.00  0.00     0.049 A 
ATOM     56  H   UNL A   1      41.575  28.747  32.160  1.00  0.00     0.167 HD
ATOM     57  C   UNL A   1      38.089  30.649  30.250  1.00  0.00     0.037 A 
ATOM     58  C   UNL A   1      43.425  28.344  34.204  1.00  0.00     0.037 A 
ATOM     59  C   UNL A   1      38.112  31.155  31.597  1.00  0.00     0.049 A 
ATOM     60  C   UNL A   1      42.405  29.316  34.728  1.00  0.00     0.074 A 
ATOM     61  C   UNL A   1      37.221  32.012  32.216  1.00  0.00     0.029 A 
ATOM     62  N   UNL A   1      39.086  30.843  32.536  1.00  0.00    -0.354 N 
ATOM     63  N   UNL A   1      41.352  29.815  34.127  1.00  0.00    -0.248 NA
ATOM     64  C   UNL A   1      42.595  29.795  36.104  1.00  0.00     0.031 C 
ATOM     65  C   UNL A   1      37.671  32.243  33.521  1.00  0.00     0.029 A 
ATOM     66  C   UNL A   1      38.822  31.499  33.727  1.00  0.00     0.049 A 
ATOM     67  H   UNL A   1      39.852  30.245  32.379  1.00  0.00     0.167 HD
ATOM     68  C   UNL A   1      40.739  30.644  35.055  1.00  0.00     0.074 A 
ATOM     69  C   UNL A   1      41.533  30.574  36.265  1.00  0.00     0.031 C 
ATOM     70  C   UNL A   1      39.621  31.398  34.919  1.00  0.00     0.037 A 
BRANCH  57  71
ATOM     71  C   UNL A   1      36.969  31.070  29.349  1.00  0.00     0.064 A 
ATOM     72  C   UNL A   1      35.906  30.203  29.047  1.00  0.00     0.173 A 
ATOM     73  C   UNL A   1      36.936  32.363  28.807  1.00  0.00     0.173 A 
ATOM     74  F   UNL A   1      35.900  28.952  29.528  1.00  0.00    -0.203 F 
ATOM     75  C   UNL A   1      34.862  30.612  28.222  1.00  0.00     0.198 A 
ATOM     76  C   UNL A   1      35.878  32.776  28.001  1.00  0.00     0.198 A 
ATOM     77  F   UNL A   1      37.927  33.230  29.066  1.00  0.00    -0.203 F 
ATOM     78  F   UNL A   1      33.875  29.757  27.919  1.00  0.00    -0.200 F 
ATOM     79  C   UNL A   1      34.845  31.899  27.705  1.00  0.00     0.200 A 
ATOM     80  F   UNL A   1      35.859  34.023  27.509  1.00  0.00    -0.200 F 
ATOM     81  F   UNL A   1      33.834  32.294  26.917  1.00  0.00    -0.200 F 
ENDBRANCH  57  71
BRANCH  58  82
ATOM     82  C   UNL A   1      44.556  27.890  35.051  1.00  0.00     0.064 A 
ATOM     83  C   UNL A   1      45.767  28.595  35.068  1.00  0.00     0.173 A 
ATOM     84  C   UNL A   1      44.454  26.745  35.854  1.00  0.00     0.173 A 
ATOM     85  F   UNL A   1      45.921  29.682  34.300  1.00  0.00    -0.203 F 
ATOM     86  C   UNL A   1      46.840  28.161  35.845  1.00  0.00     0.198 A 
ATOM     87  C   UNL A   1      45.518  26.327  36.651  1.00  0.00     0.198 A 
ATOM     88  F   UNL A   1      43.316  26.036  35.872  1.00  0.00    -0.203 F 
ATOM     89  F   UNL A   1      48.002  28.828  35.811  1.00  0.00    -0.200 F 
ATOM     90  C   UNL A   1      46.712  27.031  36.640  1.00  0.00     0.200 A 
ATOM     91  F   UNL A   1      45.387  25.241  37.425  1.00  0.00    -0.200 F 
ATOM     92  F   UNL A   1      47.744  26.616  37.388  1.00  0.00    -0.200 F 
ENDBRANCH  58  82
BRANCH  70  93
ATOM     93  C   UNL A   1      39.171  32.169  36.124  1.00  0.00     0.064 A 
ATOM     94  C   UNL A   1      39.629  33.470  36.374  1.00  0.00     0.173 A 
ATOM     95  C   UNL A   1      38.247  31.609  37.017  1.00  0.00     0.173 A 
ATOM     96  F   UNL A   1      40.528  34.039  35.557  1.00  0.00    -0.203 F 
ATOM     97  C   UNL A   1      39.190  34.177  37.490  1.00  0.00     0.198 A 
ATOM     98  C   UNL A   1      37.792  32.328  38.118  1.00  0.00     0.198 A 
ATOM     99  F   UNL A   1      37.778  30.368  36.816  1.00  0.00    -0.203 F 
ATOM    100  F   UNL A   1      39.670  35.404  37.734  1.00  0.00    -0.200 F 
ATOM    101  C   UNL A   1      38.268  33.608  38.357  1.00  0.00     0.200 A 
ATOM    102  F   UNL A   1      36.895  31.781  38.950  1.00  0.00    -0.200 F 
ATOM    103  F   UNL A   1      37.844  34.292  39.428  1.00  0.00    -0.200 F 
ENDBRANCH  70  93
ENDBRANCH  44  45
ENDBRANCH  37  39
ENDBRANCH  36  37
ENDBRANCH  35  36
ENDBRANCH  34  35
ENDBRANCH   1  34
TORSDOF 16
ENDMDL
MODEL 2
REMARK VINA RESULT:     -13.4      3.002      8.565
REMARK SMILES Cc1cc(C)cc(Oc2nc3ccccn3c(=O)c2/C=C2\SC(=S)N(CCC(=O)OCCOC(=O)c3ccc(-c4c5nc(c(-c6c(F)c(F)c(F)c(F)c6F)c6ccc([nH]6)c(-c6c(F)c(F)c(F)c(F)c6F)c6nc(c(-c7c(F)c(F)c(F)c(F)c7F)c7ccc4[nH]7)C=C6)C=C5)cc3)C2=O)c1
REMARK SMILES IDX 30 1 28 2 29 3 27 4 26 5 25 6 20 7 21 8 22 9 99 10 23 11
REMARK SMILES IDX 100 12 24 13 19 14 9 15 10 16 11 17 17 18 12 19 16 20 18 21
REMARK SMILES IDX 13 22 15 23 14 24 8 25 7 26 1 27 2 28 3 29 101 30 4 31 5 32
REMARK SMILES IDX 6 33 31 34 32 35 33 36 34 37 35 38 36 39 37 40 98 41 38 42
REMARK SMILES IDX 97 43 39 44 40 45 41 46 91 47 42 48 96 49 90 50 92 51 43 52
REMARK SMILES IDX 95 53 89 54 88 55 44 57 76 58 56 59 75 60 57 61 60 62 74 63
REMARK SMILES IDX 93 64 58 65 59 66 73 68 94 69 61 70 45 71 46 72 54 73 47 74
REMARK SMILES IDX 48 75 52 76 55 77 49 78 50 79 53 80 51 81 77 82 78 83 86 84
REMARK SMILES IDX 79 85 80 86 84 87 87 88 81 89 82 90 85 91 83 92 62 93 63 94
REMARK SMILES IDX 71 95 64 96 65 97 69 98 72 99 66 100 67 101 70 102 68 103
REMARK H PARENT 92 56 60 67
REMARK Flexibility Score: inf
ROOT
ATOM      1  O   UNL A   1      32.136  29.284  24.669  1.00  0.00    -0.462 OA
ENDROOT
BRANCH   1   2
ATOM      2  C   UNL A   1      31.364  29.022  23.589  1.00  0.00     0.307 C 
ATOM      3  O   UNL A   1      30.311  29.584  23.317  1.00  0.00    -0.252 OA
BRANCH   2   4
ATOM      4  C   UNL A   1      31.928  27.897  22.754  1.00  0.00     0.144 C 
BRANCH   4   5
ATOM      5  C   UNL A   1      31.229  26.550  22.964  1.00  0.00     0.139 C 
BRANCH   5   6
ATOM      6  N   UNL A   1      32.180  25.438  22.980  1.00  0.00    -0.292 N 
ATOM      7  C   UNL A   1      33.289  22.746  25.021  1.00  0.00     0.041 C 
ATOM      8  C   UNL A   1      33.224  23.623  24.010  1.00  0.00     0.081 C 
ATOM      9  S   UNL A   1      33.641  23.411  22.358  1.00  0.00    -0.054 SA
ATOM     10  C   UNL A   1      32.602  24.943  24.198  1.00  0.00     0.266 C 
ATOM     11  C   UNL A   1      32.682  24.802  21.864  1.00  0.00     0.148 C 
ATOM     12  O   UNL A   1      32.486  25.471  25.290  1.00  0.00    -0.268 OA
ATOM     13  S   UNL A   1      32.438  25.193  20.260  1.00  0.00    -0.052 S 
BRANCH   7  14
ATOM     14  C   UNL A   1      33.850  21.417  24.905  1.00  0.00     0.104 A 
ATOM     15  C   UNL A   1      35.154  21.139  24.705  1.00  0.00     0.234 A 
ATOM     16  N   UNL A   1      35.648  19.860  24.638  1.00  0.00    -0.194 NA
ATOM     17  C   UNL A   1      34.830  18.872  24.818  1.00  0.00     0.143 A 
ATOM     18  C   UNL A   1      32.905  20.271  25.024  1.00  0.00     0.269 A 
ATOM     19  C   UNL A   1      35.360  17.478  24.792  1.00  0.00     0.048 A 
ATOM     20  N   UNL A   1      33.469  19.012  25.035  1.00  0.00    -0.267 N 
ATOM     21  O   UNL A   1      31.690  20.481  25.085  1.00  0.00    -0.268 OA
ATOM     22  C   UNL A   1      34.534  16.444  24.994  1.00  0.00     0.005 A 
ATOM     23  C   UNL A   1      32.648  17.909  25.229  1.00  0.00     0.096 A 
ATOM     24  C   UNL A   1      33.131  16.663  25.224  1.00  0.00     0.019 A 
BRANCH  15  25
ATOM     25  O   UNL A   1      36.081  22.139  24.405  1.00  0.00    -0.438 OA
BRANCH  25  26
ATOM     26  C   UNL A   1      37.167  22.399  25.211  1.00  0.00     0.130 A 
ATOM     27  C   UNL A   1      38.882  25.056  27.330  1.00  0.00     0.044 C 
ATOM     28  C   UNL A   1      38.584  23.760  26.636  1.00  0.00    -0.047 A 
ATOM     29  C   UNL A   1      39.520  22.718  26.691  1.00  0.00     0.007 A 
ATOM     30  C   UNL A   1      37.391  23.578  25.920  1.00  0.00     0.050 A 
ATOM     31  C   UNL A   1      39.271  21.500  26.054  1.00  0.00    -0.047 A 
ATOM     32  C   UNL A   1      40.258  20.376  26.182  1.00  0.00     0.044 C 
ATOM     33  C   UNL A   1      38.099  21.357  25.300  1.00  0.00     0.050 A 
ENDBRANCH  25  26
ENDBRANCH  15  25
ENDBRANCH   7  14
ENDBRANCH   5   6
ENDBRANCH   4   5
ENDBRANCH   2   4
ENDBRANCH   1   2
BRANCH   1  34
ATOM     34  C   UNL A   1      31.490  29.282  25.957  1.00  0.00     0.274 C 
BRANCH  34  35
ATOM     35  C   UNL A   1      31.879  30.507  26.791  1.00  0.00     0.275 C 
BRANCH  35  36
ATOM     36  O   UNL A   1      33.286  30.763  26.656  1.00  0.00    -0.458 OA
BRANCH  36  37
ATOM     37  C   UNL A   1      33.770  31.840  27.310  1.00  0.00     0.338 C 
ATOM     38  O   UNL A   1      33.323  32.968  27.380  1.00  0.00    -0.246 OA
BRANCH  37  39
ATOM     39  C   UNL A   1      35.014  31.453  27.976  1.00  0.00     0.060 A 
ATOM     40  C   UNL A   1      35.179  30.144  28.434  1.00  0.00     0.016 A 
ATOM     41  C   UNL A   1      35.976  32.432  28.216  1.00  0.00     0.016 A 
ATOM     42  C   UNL A   1      36.325  29.806  29.146  1.00  0.00     0.010 A 
ATOM     43  C   UNL A   1      37.132  32.088  28.910  1.00  0.00     0.010 A 
ATOM     44  C   UNL A   1      37.306  30.778  29.387  1.00  0.00    -0.014 A 
BRANCH  44  45
ATOM     45  C   UNL A   1      38.518  30.446  30.164  1.00  0.00     0.031 A 
ATOM     46  C   UNL A   1      39.557  29.546  29.565  1.00  0.00     0.074 A 
ATOM     47  C   UNL A   1      38.655  30.928  31.410  1.00  0.00     0.049 A 
ATOM     48  N   UNL A   1      40.613  29.015  30.124  1.00  0.00    -0.248 NA
ATOM     49  C   UNL A   1      39.381  29.194  28.148  1.00  0.00     0.031 C 
ATOM     50  C   UNL A   1      37.721  31.840  32.070  1.00  0.00     0.029 A 
ATOM     51  N   UNL A   1      39.627  30.704  32.351  1.00  0.00    -0.354 N 
ATOM     52  C   UNL A   1      41.221  28.257  29.134  1.00  0.00     0.074 A 
ATOM     53  C   UNL A   1      40.407  28.380  27.943  1.00  0.00     0.031 C 
ATOM     54  C   UNL A   1      38.161  32.093  33.312  1.00  0.00     0.029 A 
ATOM     55  C   UNL A   1      39.377  31.323  33.550  1.00  0.00     0.049 A 
ATOM     56  H   UNL A   1      40.426  30.154  32.182  1.00  0.00     0.167 HD
ATOM     57  C   UNL A   1      42.358  27.529  29.217  1.00  0.00     0.037 A 
ATOM     58  C   UNL A   1      40.043  31.245  34.716  1.00  0.00     0.037 A 
ATOM     59  C   UNL A   1      43.155  27.412  30.410  1.00  0.00     0.049 A 
ATOM     60  C   UNL A   1      41.265  30.373  34.800  1.00  0.00     0.074 A 
ATOM     61  C   UNL A   1      44.315  26.686  30.610  1.00  0.00     0.029 A 
ATOM     62  N   UNL A   1      42.866  28.045  31.611  1.00  0.00    -0.354 N 
ATOM     63  N   UNL A   1      41.828  29.646  33.866  1.00  0.00    -0.248 NA
ATOM     64  C   UNL A   1      41.939  30.303  36.103  1.00  0.00     0.031 C 
ATOM     65  C   UNL A   1      44.713  26.856  31.941  1.00  0.00     0.029 A 
ATOM     66  C   UNL A   1      43.822  27.719  32.559  1.00  0.00     0.049 A 
ATOM     67  H   UNL A   1      42.096  28.637  31.767  1.00  0.00     0.167 HD
ATOM     68  C   UNL A   1      42.935  29.055  34.457  1.00  0.00     0.074 A 
ATOM     69  C   UNL A   1      42.970  29.515  35.830  1.00  0.00     0.031 C 
ATOM     70  C   UNL A   1      43.840  28.204  33.914  1.00  0.00     0.037 A 
BRANCH  57  71
ATOM     71  C   UNL A   1      42.799  26.790  27.990  1.00  0.00     0.064 A 
ATOM     72  C   UNL A   1      43.525  27.427  26.972  1.00  0.00     0.173 A 
ATOM     73  C   UNL A   1      42.523  25.423  27.843  1.00  0.00     0.173 A 
ATOM     74  F   UNL A   1      43.800  28.737  27.059  1.00  0.00    -0.203 F 
ATOM     75  C   UNL A   1      43.943  26.725  25.845  1.00  0.00     0.198 A 
ATOM     76  C   UNL A   1      42.963  24.719  26.725  1.00  0.00     0.198 A 
ATOM     77  F   UNL A   1      41.833  24.766  28.789  1.00  0.00    -0.203 F 
ATOM     78  F   UNL A   1      44.605  27.362  24.868  1.00  0.00    -0.200 F 
ATOM     79  C   UNL A   1      43.668  25.371  25.725  1.00  0.00     0.200 A 
ATOM     80  F   UNL A   1      42.703  23.408  26.615  1.00  0.00    -0.200 F 
ATOM     81  F   UNL A   1      44.078  24.695  24.642  1.00  0.00    -0.200 F 
ENDBRANCH  57  71
BRANCH  58  82
ATOM     82  C   UNL A   1      39.561  32.003  35.899  1.00  0.00     0.064 A 
ATOM     83  C   UNL A   1      40.128  33.237  36.240  1.00  0.00     0.173 A 
ATOM     84  C   UNL A   1      38.530  31.510  36.711  1.00  0.00     0.173 A 
ATOM     85  F   UNL A   1      41.133  33.739  35.507  1.00  0.00    -0.203 F 
ATOM     86  C   UNL A   1      39.694  33.943  37.361  1.00  0.00     0.198 A 
ATOM     87  C   UNL A   1      38.077  32.228  37.816  1.00  0.00     0.198 A 
ATOM     88  F   UNL A   1      37.954  30.332  36.426  1.00  0.00    -0.203 F 
ATOM     89  F   UNL A   1      40.283  35.101  37.691  1.00  0.00    -0.200 F 
ATOM     90  C   UNL A   1      38.665  33.440  38.144  1.00  0.00     0.200 A 
ATOM     91  F   UNL A   1      37.077  31.744  38.564  1.00  0.00    -0.200 F 
ATOM     92  F   UNL A   1      38.247  34.120  39.220  1.00  0.00    -0.200 F 
ENDBRANCH  58  82
BRANCH  70  93
ATOM     93  C   UNL A   1      44.965  27.756  34.797  1.00  0.00     0.064 A 
ATOM     94  C   UNL A   1      46.147  28.501  34.912  1.00  0.00     0.173 A 
ATOM     95  C   UNL A   1      44.843  26.586  35.560  1.00  0.00     0.173 A 
ATOM     96  F   UNL A   1      46.316  29.617  34.188  1.00  0.00    -0.203 F 
ATOM     97  C   UNL A   1      47.177  28.078  35.748  1.00  0.00     0.198 A 
ATOM     98  C   UNL A   1      45.865  26.179  36.412  1.00  0.00     0.198 A 
ATOM     99  F   UNL A   1      43.728  25.843  35.485  1.00  0.00    -0.203 F 
ATOM    100  F   UNL A   1      48.315  28.781  35.814  1.00  0.00    -0.200 F 
ATOM    101  C   UNL A   1      47.032  26.921  36.501  1.00  0.00     0.200 A 
ATOM    102  F   UNL A   1      45.721  25.066  37.145  1.00  0.00    -0.200 F 
ATOM    103  F   UNL A   1      48.023  26.518  37.307  1.00  0.00    -0.200 F 
ENDBRANCH  70  93
ENDBRANCH  44  45
ENDBRANCH  37  39
ENDBRANCH  36  37
ENDBRANCH  35  36
ENDBRANCH  34  35
ENDBRANCH   1  34
TORSDOF 16
ENDMDL
MODEL 3
REMARK VINA RESULT:     -13.3      0.689      7.008
REMARK SMILES Cc1cc(C)cc(Oc2nc3ccccn3c(=O)c2/C=C2\SC(=S)N(CCC(=O)OCCOC(=O)c3ccc(-c4c5nc(c(-c6c(F)c(F)c(F)c(F)c6F)c6ccc([nH]6)c(-c6c(F)c(F)c(F)c(F)c6F)c6nc(c(-c7c(F)c(F)c(F)c(F)c7F)c7ccc4[nH]7)C=C6)C=C5)cc3)C2=O)c1
REMARK SMILES IDX 30 1 28 2 29 3 27 4 26 5 25 6 20 7 21 8 22 9 99 10 23 11
REMARK SMILES IDX 100 12 24 13 19 14 9 15 10 16 11 17 17 18 12 19 16 20 18 21
REMARK SMILES IDX 13 22 15 23 14 24 8 25 7 26 1 27 2 28 3 29 101 30 4 31 5 32
REMARK SMILES IDX 6 33 31 34 32 35 33 36 34 37 35 38 36 39 37 40 98 41 38 42
REMARK SMILES IDX 97 43 39 44 40 45 41 46 91 47 42 48 96 49 90 50 92 51 43 52
REMARK SMILES IDX 95 53 89 54 88 55 44 57 76 58 56 59 75 60 57 61 60 62 74 63
REMARK SMILES IDX 93 64 58 65 59 66 73 68 94 69 61 70 45 71 46 72 54 73 47 74
REMARK SMILES IDX 48 75 52 76 55 77 49 78 50 79 53 80 51 81 77 82 78 83 86 84
REMARK SMILES IDX 79 85 80 86 84 87 87 88 81 89 82 90 85 91 83 92 62 93 63 94
REMARK SMILES IDX 71 95 64 96 65 97 69 98 72 99 66 100 67 101 70 102 68 103
REMARK H PARENT 92 56 60 67
REMARK Flexibility Score: inf
ROOT
ATOM      1  O   UNL A   1      43.466  20.580  26.215  1.00  0.00    -0.462 OA
ENDROOT
BRANCH   1   2
ATOM      2  C   UNL A   1      42.168  20.388  25.886  1.00  0.00     0.307 C 
ATOM      3  O   UNL A   1      41.700  19.360  25.412  1.00  0.00    -0.252 OA
BRANCH   2   4
ATOM      4  C   UNL A   1      41.339  21.628  26.125  1.00  0.00     0.144 C 
BRANCH   4   5
ATOM      5  C   UNL A   1      40.015  21.365  26.849  1.00  0.00     0.139 C 
BRANCH   5   6
ATOM      6  N   UNL A   1      38.899  22.070  26.218  1.00  0.00    -0.292 N 
ATOM      7  C   UNL A   1      35.774  21.488  24.624  1.00  0.00     0.041 C 
ATOM      8  C   UNL A   1      36.862  22.124  25.080  1.00  0.00     0.081 C 
ATOM      9  S   UNL A   1      37.023  23.738  25.641  1.00  0.00    -0.054 SA
ATOM     10  C   UNL A   1      38.122  21.396  25.297  1.00  0.00     0.266 C 
ATOM     11  C   UNL A   1      38.521  23.369  26.489  1.00  0.00     0.148 C 
ATOM     12  O   UNL A   1      38.388  20.349  24.733  1.00  0.00    -0.268 OA
ATOM     13  S   UNL A   1      39.279  24.475  27.482  1.00  0.00    -0.052 S 
BRANCH   7  14
ATOM     14  C   UNL A   1      34.490  22.125  24.422  1.00  0.00     0.104 A 
ATOM     15  C   UNL A   1      33.337  21.751  25.011  1.00  0.00     0.234 A 
ATOM     16  N   UNL A   1      32.147  22.409  24.819  1.00  0.00    -0.194 NA
ATOM     17  C   UNL A   1      32.139  23.464  24.067  1.00  0.00     0.143 A 
ATOM     18  C   UNL A   1      34.451  23.288  23.492  1.00  0.00     0.269 A 
ATOM     19  C   UNL A   1      30.864  24.214  23.884  1.00  0.00     0.048 A 
ATOM     20  N   UNL A   1      33.249  23.960  23.404  1.00  0.00    -0.267 N 
ATOM     21  O   UNL A   1      35.455  23.585  22.838  1.00  0.00    -0.268 OA
ATOM     22  C   UNL A   1      30.839  25.317  23.126  1.00  0.00     0.005 A 
ATOM     23  C   UNL A   1      33.175  25.103  22.619  1.00  0.00     0.096 A 
ATOM     24  C   UNL A   1      32.033  25.783  22.473  1.00  0.00     0.019 A 
BRANCH  15  25
ATOM     25  O   UNL A   1      33.238  20.573  25.754  1.00  0.00    -0.438 OA
BRANCH  25  26
ATOM     26  C   UNL A   1      32.990  19.353  25.165  1.00  0.00     0.130 A 
ATOM     27  C   UNL A   1      32.902  15.593  25.756  1.00  0.00     0.044 C 
ATOM     28  C   UNL A   1      32.815  16.933  25.087  1.00  0.00    -0.047 A 
ATOM     29  C   UNL A   1      32.569  17.001  23.709  1.00  0.00     0.007 A 
ATOM     30  C   UNL A   1      32.990  18.120  25.815  1.00  0.00     0.050 A 
ATOM     31  C   UNL A   1      32.483  18.234  23.058  1.00  0.00    -0.047 A 
ATOM     32  C   UNL A   1      32.153  18.284  21.595  1.00  0.00     0.044 C 
ATOM     33  C   UNL A   1      32.714  19.404  23.793  1.00  0.00     0.050 A 
ENDBRANCH  25  26
ENDBRANCH  15  25
ENDBRANCH   7  14
ENDBRANCH   5   6
ENDBRANCH   4   5
ENDBRANCH   2   4
ENDBRANCH   1   2
BRANCH   1  34
ATOM     34  C   UNL A   1      44.418  20.644  25.134  1.00  0.00     0.274 C 
BRANCH  34  35
ATOM     35  C   UNL A   1      45.448  21.756  25.348  1.00  0.00     0.275 C 
BRANCH  35  36
ATOM     36  O   UNL A   1      44.931  22.731  26.269  1.00  0.00    -0.458 OA
BRANCH  36  37
ATOM     37  C   UNL A   1      44.335  23.816  25.729  1.00  0.00     0.338 C 
ATOM     38  O   UNL A   1      44.129  24.085  24.562  1.00  0.00    -0.246 OA
BRANCH  37  39
ATOM     39  C   UNL A   1      43.941  24.712  26.816  1.00  0.00     0.060 A 
ATOM     40  C   UNL A   1      43.108  24.245  27.836  1.00  0.00     0.016 A 
ATOM     41  C   UNL A   1      44.339  26.046  26.760  1.00  0.00     0.016 A 
ATOM     42  C   UNL A   1      42.663  25.125  28.816  1.00  0.00     0.010 A 
ATOM     43  C   UNL A   1      43.911  26.922  27.753  1.00  0.00     0.010 A 
ATOM     44  C   UNL A   1      43.063  26.468  28.778  1.00  0.00    -0.014 A 
BRANCH  44  45
ATOM     45  C   UNL A   1      42.581  27.425  29.795  1.00  0.00     0.031 A 
ATOM     46  C   UNL A   1      43.301  27.539  31.105  1.00  0.00     0.074 A 
ATOM     47  C   UNL A   1      41.482  28.156  29.544  1.00  0.00     0.049 A 
ATOM     48  N   UNL A   1      42.963  28.200  32.180  1.00  0.00    -0.248 NA
ATOM     49  C   UNL A   1      44.571  26.805  31.220  1.00  0.00     0.031 C 
ATOM     50  C   UNL A   1      40.731  28.147  28.288  1.00  0.00     0.029 A 
ATOM     51  N   UNL A   1      40.796  29.036  30.340  1.00  0.00    -0.354 N 
ATOM     52  C   UNL A   1      43.968  27.955  33.104  1.00  0.00     0.074 A 
ATOM     53  C   UNL A   1      44.921  27.068  32.471  1.00  0.00     0.031 C 
ATOM     54  C   UNL A   1      39.682  28.977  28.400  1.00  0.00     0.029 A 
ATOM     55  C   UNL A   1      39.662  29.535  29.749  1.00  0.00     0.049 A 
ATOM     56  H   UNL A   1      41.088  29.286  31.246  1.00  0.00     0.167 HD
ATOM     57  C   UNL A   1      44.082  28.433  34.365  1.00  0.00     0.037 A 
ATOM     58  C   UNL A   1      38.701  30.328  30.257  1.00  0.00     0.037 A 
ATOM     59  C   UNL A   1      43.123  29.311  34.983  1.00  0.00     0.049 A 
ATOM     60  C   UNL A   1      38.817  30.788  31.684  1.00  0.00     0.074 A 
ATOM     61  C   UNL A   1      43.131  29.841  36.260  1.00  0.00     0.029 A 
ATOM     62  N   UNL A   1      41.979  29.789  34.358  1.00  0.00    -0.354 N 
ATOM     63  N   UNL A   1      39.761  30.541  32.558  1.00  0.00    -0.248 NA
ATOM     64  C   UNL A   1      37.727  31.629  32.197  1.00  0.00     0.031 C 
ATOM     65  C   UNL A   1      41.976  30.616  36.419  1.00  0.00     0.029 A 
ATOM     66  C   UNL A   1      41.269  30.600  35.227  1.00  0.00     0.049 A 
ATOM     67  H   UNL A   1      41.712  29.581  33.433  1.00  0.00     0.167 HD
ATOM     68  C   UNL A   1      39.397  31.216  33.714  1.00  0.00     0.074 A 
ATOM     69  C   UNL A   1      38.148  31.891  33.427  1.00  0.00     0.031 C 
ATOM     70  C   UNL A   1      40.036  31.271  34.908  1.00  0.00     0.037 A 
BRANCH  57  71
ATOM     71  C   UNL A   1      45.275  28.004  35.163  1.00  0.00     0.064 A 
ATOM     72  C   UNL A   1      46.468  28.744  35.154  1.00  0.00     0.173 A 
ATOM     73  C   UNL A   1      45.217  26.861  35.974  1.00  0.00     0.173 A 
ATOM     74  F   UNL A   1      46.578  29.836  34.384  1.00  0.00    -0.203 F 
ATOM     75  C   UNL A   1      47.563  28.344  35.914  1.00  0.00     0.198 A 
ATOM     76  C   UNL A   1      46.308  26.477  36.751  1.00  0.00     0.198 A 
ATOM     77  F   UNL A   1      44.099  26.120  36.019  1.00  0.00    -0.203 F 
ATOM     78  F   UNL A   1      48.704  29.046  35.864  1.00  0.00    -0.200 F 
ATOM     79  C   UNL A   1      47.480  27.215  36.717  1.00  0.00     0.200 A 
ATOM     80  F   UNL A   1      46.223  25.390  37.531  1.00  0.00    -0.200 F 
ATOM     81  F   UNL A   1      48.534  26.836  37.454  1.00  0.00    -0.200 F 
ENDBRANCH  57  71
BRANCH  58  82
ATOM     82  C   UNL A   1      37.543  30.722  29.416  1.00  0.00     0.064 A 
ATOM     83  C   UNL A   1      37.455  32.012  28.877  1.00  0.00     0.173 A 
ATOM     84  C   UNL A   1      36.502  29.825  29.139  1.00  0.00     0.173 A 
ATOM     85  F   UNL A   1      38.414  32.913  29.133  1.00  0.00    -0.203 F 
ATOM     86  C   UNL A   1      36.360  32.396  28.104  1.00  0.00     0.198 A 
ATOM     87  C   UNL A   1      35.420  30.200  28.345  1.00  0.00     0.198 A 
ATOM     88  F   UNL A   1      36.539  28.578  29.633  1.00  0.00    -0.203 F 
ATOM     89  F   UNL A   1      36.278  33.648  27.636  1.00  0.00    -0.200 F 
ATOM     90  C   UNL A   1      35.347  31.487  27.834  1.00  0.00     0.200 A 
ATOM     91  F   UNL A   1      34.449  29.316  28.078  1.00  0.00    -0.200 F 
ATOM     92  F   UNL A   1      34.295  31.856  27.090  1.00  0.00    -0.200 F 
ENDBRANCH  58  82
BRANCH  70  93
ATOM     93  C   UNL A   1      39.416  32.124  35.973  1.00  0.00     0.064 A 
ATOM     94  C   UNL A   1      38.411  31.629  36.816  1.00  0.00     0.173 A 
ATOM     95  C   UNL A   1      39.856  33.441  36.170  1.00  0.00     0.173 A 
ATOM     96  F   UNL A   1      37.947  30.381  36.653  1.00  0.00    -0.203 F 
ATOM     97  C   UNL A   1      37.856  32.430  37.809  1.00  0.00     0.198 A 
ATOM     98  C   UNL A   1      39.314  34.231  37.179  1.00  0.00     0.198 A 
ATOM     99  F   UNL A   1      40.817  33.957  35.389  1.00  0.00    -0.203 F 
ATOM    100  F   UNL A   1      36.868  31.952  38.579  1.00  0.00    -0.200 F 
ATOM    101  C   UNL A   1      38.311  33.728  37.994  1.00  0.00     0.200 A 
ATOM    102  F   UNL A   1      39.760  35.481  37.361  1.00  0.00    -0.200 F 
ATOM    103  F   UNL A   1      37.777  34.496  38.952  1.00  0.00    -0.200 F 
ENDBRANCH  70  93
ENDBRANCH  44  45
ENDBRANCH  37  39
ENDBRANCH  36  37
ENDBRANCH  35  36
ENDBRANCH  34  35
ENDBRANCH   1  34
TORSDOF 16
ENDMDL
