MODEL 1
REMARK VINA RESULT:     -11.4      0.000      0.000
REMARK SMILES CCC(CC)([NH2+]CC(=O)Nc1ccc(C)cc1)C(=O)OCCOC(=O)c1ccc(-c2c3nc(c(-c4c(F)c(F)c(F)c(F)c4F)c4ccc([nH]4)c(-c4c(F)c(F)c(F)c(F)c4F)c4nc(c(-c5c(F)c(F)c(F)c(F)c5F)c5ccc2[nH]5)C=C4)C=C3)cc1
REMARK SMILES IDX 21 1 20 2 18 3 19 4 3 5 2 6 1 7 4 8 5 9 6 10 7 13 8 14 9 15
REMARK SMILES IDX 10 16 11 18 12 19 17 20 13 21 16 22 14 23 15 24 22 25 23 26
REMARK SMILES IDX 24 27 25 28 26 29 27 30 88 31 28 32 87 33 29 34 30 35 31 36
REMARK SMILES IDX 81 37 32 38 86 39 80 40 82 41 33 42 85 43 79 44 78 45 34 47
REMARK SMILES IDX 66 48 46 49 65 50 47 51 50 52 64 53 83 54 48 55 49 56 63 58
REMARK SMILES IDX 84 59 51 60 35 61 36 62 44 63 37 64 38 65 42 66 45 67 39 68
REMARK SMILES IDX 40 69 43 70 41 71 67 72 68 73 76 74 69 75 70 76 74 77 77 78
REMARK SMILES IDX 71 79 72 80 75 81 73 82 52 83 53 84 61 85 54 86 55 87 59 88
REMARK SMILES IDX 62 89 56 90 57 91 60 92 58 93
REMARK H PARENT 6 11 6 12 10 17 82 46 50 57
REMARK Flexibility Score: inf
ROOT
ATOM      1  C   UNL A   1      38.659  24.083  26.500  1.00  0.00     0.274 C 
ENDROOT
BRANCH   1   2
ATOM      2  O   UNL A   1      37.256  23.743  26.174  1.00  0.00    -0.457 OA
BRANCH   2   3
ATOM      3  C   UNL A   1      36.436  23.677  25.071  1.00  0.00     0.368 C 
ATOM      4  O   UNL A   1      36.896  23.386  23.974  1.00  0.00    -0.245 OA
BRANCH   3   5
ATOM      5  C   UNL A   1      34.689  23.782  25.470  1.00  0.00     0.194 C 
BRANCH   5   6
ATOM      6  C   UNL A   1      34.379  25.180  24.777  1.00  0.00     0.077 C 
ATOM      7  C   UNL A   1      33.651  26.207  25.717  1.00  0.00     0.011 C 
ENDBRANCH   5   6
BRANCH   5   8
ATOM      8  C   UNL A   1      33.414  23.689  26.548  1.00  0.00     0.077 C 
ATOM      9  C   UNL A   1      33.409  22.571  27.612  1.00  0.00     0.011 C 
ENDBRANCH   5   8
BRANCH   5  10
ATOM     10  N   UNL A   1      34.545  22.363  25.165  1.00  0.00    -0.324 N 
ATOM     11  H   UNL A   1      34.121  21.897  25.966  1.00  0.00     0.347 HD
ATOM     12  H   UNL A   1      35.475  21.994  24.967  1.00  0.00     0.347 HD
BRANCH  10  13
ATOM     13  C   UNL A   1      33.658  22.110  23.909  1.00  0.00     0.363 C 
BRANCH  13  14
ATOM     14  C   UNL A   1      32.176  22.656  23.395  1.00  0.00     0.279 C 
ATOM     15  O   UNL A   1      31.700  21.773  22.609  1.00  0.00    -0.268 OA
ATOM     16  N   UNL A   1      31.105  23.687  23.481  1.00  0.00    -0.321 N 
ATOM     17  H   UNL A   1      30.281  23.198  23.257  1.00  0.00     0.170 HD
BRANCH  16  18
ATOM     18  C   UNL A   1      30.483  25.577  23.821  1.00  0.00     0.041 A 
ATOM     19  C   UNL A   1      30.856  26.933  23.178  1.00  0.00     0.026 A 
ATOM     20  C   UNL A   1      29.263  26.047  24.353  1.00  0.00     0.026 A 
ATOM     21  C   UNL A   1      30.079  28.069  22.856  1.00  0.00     0.005 A 
ATOM     22  C   UNL A   1      28.301  26.954  23.814  1.00  0.00     0.005 A 
ATOM     23  C   UNL A   1      28.731  28.012  23.055  1.00  0.00    -0.051 A 
ATOM     24  C   UNL A   1      27.868  29.172  22.693  1.00  0.00     0.044 C 
ENDBRANCH  16  18
ENDBRANCH  13  14
ENDBRANCH  10  13
ENDBRANCH   5  10
ENDBRANCH   3   5
ENDBRANCH   2   3
ENDBRANCH   1   2
BRANCH   1  25
ATOM     25  C   UNL A   1      39.089  24.666  27.864  1.00  0.00     0.275 C 
BRANCH  25  26
ATOM     26  O   UNL A   1      40.272  25.439  27.918  1.00  0.00    -0.458 OA
BRANCH  26  27
ATOM     27  C   UNL A   1      40.002  26.738  28.129  1.00  0.00     0.338 C 
ATOM     28  O   UNL A   1      39.879  27.548  27.234  1.00  0.00    -0.246 OA
BRANCH  27  29
ATOM     29  C   UNL A   1      40.052  26.962  29.624  1.00  0.00     0.060 A 
ATOM     30  C   UNL A   1      38.588  27.052  30.816  1.00  0.00     0.016 A 
ATOM     31  C   UNL A   1      41.559  27.878  29.999  1.00  0.00     0.016 A 
ATOM     32  C   UNL A   1      38.724  28.187  32.300  1.00  0.00     0.010 A 
ATOM     33  C   UNL A   1      41.675  28.909  31.389  1.00  0.00     0.010 A 
ATOM     34  C   UNL A   1      40.301  29.134  32.524  1.00  0.00    -0.014 A 
BRANCH  34  35
ATOM     35  C   UNL A   1      40.607  30.257  33.405  1.00  0.00     0.031 A 
ATOM     36  C   UNL A   1      41.171  29.737  34.660  1.00  0.00     0.074 A 
ATOM     37  C   UNL A   1      40.437  31.560  32.941  1.00  0.00     0.049 A 
ATOM     38  N   UNL A   1      40.922  30.170  35.846  1.00  0.00    -0.248 NA
ATOM     39  C   UNL A   1      41.975  28.489  34.724  1.00  0.00     0.031 C 
ATOM     40  C   UNL A   1      40.914  32.839  33.429  1.00  0.00     0.029 A 
ATOM     41  N   UNL A   1      39.688  32.043  31.812  1.00  0.00    -0.354 N 
ATOM     42  C   UNL A   1      42.071  29.806  36.517  1.00  0.00     0.074 A 
ATOM     43  C   UNL A   1      42.360  28.503  36.004  1.00  0.00     0.031 C 
ATOM     44  C   UNL A   1      40.197  33.858  32.885  1.00  0.00     0.029 A 
ATOM     45  C   UNL A   1      39.155  33.331  31.993  1.00  0.00     0.049 A 
ATOM     46  H   UNL A   1      39.559  31.519  30.989  1.00  0.00     0.167 HD
ATOM     47  C   UNL A   1      42.887  30.827  36.941  1.00  0.00     0.037 A 
ATOM     48  C   UNL A   1      37.790  33.547  32.094  1.00  0.00     0.037 A 
ATOM     49  C   UNL A   1      42.179  32.143  36.843  1.00  0.00     0.049 A 
ATOM     50  C   UNL A   1      37.435  33.460  33.619  1.00  0.00     0.074 A 
ATOM     51  C   UNL A   1      42.415  33.421  36.364  1.00  0.00     0.029 A 
ATOM     52  N   UNL A   1      40.816  32.151  37.100  1.00  0.00    -0.354 N 
ATOM     53  N   UNL A   1      38.368  33.417  34.541  1.00  0.00    -0.248 NA
ATOM     54  C   UNL A   1      36.112  33.359  34.247  1.00  0.00     0.031 C 
ATOM     55  C   UNL A   1      41.152  34.135  36.304  1.00  0.00     0.029 A 
ATOM     56  C   UNL A   1      40.146  33.285  36.722  1.00  0.00     0.049 A 
ATOM     57  H   UNL A   1      40.358  31.391  37.526  1.00  0.00     0.167 HD
ATOM     58  C   UNL A   1      37.868  33.293  35.799  1.00  0.00     0.074 A 
ATOM     59  C   UNL A   1      36.429  33.230  35.559  1.00  0.00     0.031 C 
ATOM     60  C   UNL A   1      38.685  33.274  36.908  1.00  0.00     0.037 A 
BRANCH  47  61
ATOM     61  C   UNL A   1      44.380  30.660  37.239  1.00  0.00     0.064 A 
ATOM     62  C   UNL A   1      44.850  30.887  38.549  1.00  0.00     0.173 A 
ATOM     63  C   UNL A   1      45.406  30.284  36.330  1.00  0.00     0.173 A 
ATOM     64  F   UNL A   1      44.017  31.243  39.534  1.00  0.00    -0.203 F 
ATOM     65  C   UNL A   1      46.193  30.742  38.917  1.00  0.00     0.198 A 
ATOM     66  C   UNL A   1      46.743  30.102  36.708  1.00  0.00     0.198 A 
ATOM     67  F   UNL A   1      45.198  30.087  35.028  1.00  0.00    -0.203 F 
ATOM     68  F   UNL A   1      46.561  30.998  40.179  1.00  0.00    -0.200 F 
ATOM     69  C   UNL A   1      47.137  30.329  38.003  1.00  0.00     0.200 A 
ATOM     70  F   UNL A   1      47.642  29.705  35.795  1.00  0.00    -0.200 F 
ATOM     71  F   UNL A   1      48.413  30.148  38.368  1.00  0.00    -0.200 F 
ENDBRANCH  47  61
BRANCH  48  72
ATOM     72  C   UNL A   1      36.903  33.152  30.888  1.00  0.00     0.064 A 
ATOM     73  C   UNL A   1      36.842  33.664  29.578  1.00  0.00     0.173 A 
ATOM     74  C   UNL A   1      36.126  32.017  30.937  1.00  0.00     0.173 A 
ATOM     75  F   UNL A   1      37.279  34.899  29.308  1.00  0.00    -0.203 F 
ATOM     76  C   UNL A   1      36.323  32.885  28.484  1.00  0.00     0.198 A 
ATOM     77  C   UNL A   1      36.210  31.067  29.916  1.00  0.00     0.198 A 
ATOM     78  F   UNL A   1      34.827  32.402  31.067  1.00  0.00    -0.203 F 
ATOM     79  F   UNL A   1      36.152  33.418  27.267  1.00  0.00    -0.200 F 
ATOM     80  C   UNL A   1      36.096  31.531  28.647  1.00  0.00     0.200 A 
ATOM     81  F   UNL A   1      36.376  29.764  30.168  1.00  0.00    -0.200 F 
ATOM     82  F   UNL A   1      35.852  30.696  27.629  1.00  0.00    -0.200 F 
ENDBRANCH  48  72
BRANCH  60  83
ATOM     83  C   UNL A   1      38.201  33.257  38.346  1.00  0.00     0.064 A 
ATOM     84  C   UNL A   1      38.485  34.306  39.225  1.00  0.00     0.173 A 
ATOM     85  C   UNL A   1      37.629  32.102  38.948  1.00  0.00     0.173 A 
ATOM     86  F   UNL A   1      39.099  35.417  38.797  1.00  0.00    -0.203 F 
ATOM     87  C   UNL A   1      38.188  34.221  40.589  1.00  0.00     0.198 A 
ATOM     88  C   UNL A   1      37.417  31.987  40.316  1.00  0.00     0.198 A 
ATOM     89  F   UNL A   1      37.217  31.041  38.244  1.00  0.00    -0.203 F 
ATOM     90  F   UNL A   1      38.425  35.273  41.381  1.00  0.00    -0.200 F 
ATOM     91  C   UNL A   1      37.679  33.055  41.136  1.00  0.00     0.200 A 
ATOM     92  F   UNL A   1      36.958  30.831  40.820  1.00  0.00    -0.200 F 
ATOM     93  F   UNL A   1      37.435  32.965  42.450  1.00  0.00    -0.200 F 
ENDBRANCH  60  83
ENDBRANCH  34  35
ENDBRANCH  27  29
ENDBRANCH  26  27
ENDBRANCH  25  26
ENDBRANCH   1  25
TORSDOF 17
ENDMDL
MODEL 2
REMARK VINA RESULT:     -11.3      1.297      2.139
REMARK SMILES CCC(CC)([NH2+]CC(=O)Nc1ccc(C)cc1)C(=O)OCCOC(=O)c1ccc(-c2c3nc(c(-c4c(F)c(F)c(F)c(F)c4F)c4ccc([nH]4)c(-c4c(F)c(F)c(F)c(F)c4F)c4nc(c(-c5c(F)c(F)c(F)c(F)c5F)c5ccc2[nH]5)C=C4)C=C3)cc1
REMARK SMILES IDX 21 1 20 2 18 3 19 4 3 5 2 6 1 7 4 8 5 9 6 10 7 13 8 14 9 15
REMARK SMILES IDX 10 16 11 18 12 19 17 20 13 21 16 22 14 23 15 24 22 25 23 26
REMARK SMILES IDX 24 27 25 28 26 29 27 30 88 31 28 32 87 33 29 34 30 35 31 36
REMARK SMILES IDX 81 37 32 38 86 39 80 40 82 41 33 42 85 43 79 44 78 45 34 47
REMARK SMILES IDX 66 48 46 49 65 50 47 51 50 52 64 53 83 54 48 55 49 56 63 58
REMARK SMILES IDX 84 59 51 60 35 61 36 62 44 63 37 64 38 65 42 66 45 67 39 68
REMARK SMILES IDX 40 69 43 70 41 71 67 72 68 73 76 74 69 75 70 76 74 77 77 78
REMARK SMILES IDX 71 79 72 80 75 81 73 82 52 83 53 84 61 85 54 86 55 87 59 88
REMARK SMILES IDX 62 89 56 90 57 91 60 92 58 93
REMARK H PARENT 6 11 6 12 10 17 82 46 50 57
REMARK Flexibility Score: inf
ROOT
ATOM      1  C   UNL A   1      39.422  24.568  26.903  1.00  0.00     0.274 C 
ENDROOT
BRANCH   1   2
ATOM      2  O   UNL A   1      38.216  24.156  26.151  1.00  0.00    -0.457 OA
BRANCH   2   3
ATOM      3  C   UNL A   1      37.639  23.003  25.671  1.00  0.00     0.368 C 
ATOM      4  O   UNL A   1      38.262  21.948  25.680  1.00  0.00    -0.245 OA
BRANCH   3   5
ATOM      5  C   UNL A   1      35.886  23.172  25.321  1.00  0.00     0.194 C 
BRANCH   5   6
ATOM      6  C   UNL A   1      35.936  22.884  23.757  1.00  0.00     0.077 C 
ATOM      7  C   UNL A   1      34.573  23.140  23.020  1.00  0.00     0.011 C 
ENDBRANCH   5   6
BRANCH   5   8
ATOM      8  C   UNL A   1      34.433  23.989  25.432  1.00  0.00     0.077 C 
ATOM      9  C   UNL A   1      34.443  25.524  25.596  1.00  0.00     0.011 C 
ENDBRANCH   5   8
BRANCH   5  10
ATOM     10  N   UNL A   1      35.583  22.446  26.549  1.00  0.00    -0.324 N 
ATOM     11  H   UNL A   1      35.204  23.103  27.231  1.00  0.00     0.347 HD
ATOM     12  H   UNL A   1      36.449  22.022  26.880  1.00  0.00     0.347 HD
BRANCH  10  13
ATOM     13  C   UNL A   1      34.549  21.302  26.326  1.00  0.00     0.363 C 
BRANCH  13  14
ATOM     14  C   UNL A   1      32.997  21.225  25.740  1.00  0.00     0.279 C 
ATOM     15  O   UNL A   1      32.719  19.994  25.567  1.00  0.00    -0.268 OA
ATOM     16  N   UNL A   1      31.742  21.940  25.379  1.00  0.00    -0.321 N 
ATOM     17  H   UNL A   1      31.034  21.268  25.515  1.00  0.00     0.170 HD
BRANCH  16  18
ATOM     18  C   UNL A   1      30.750  23.583  24.753  1.00  0.00     0.041 A 
ATOM     19  C   UNL A   1      30.293  24.869  25.481  1.00  0.00     0.026 A 
ATOM     20  C   UNL A   1      30.670  24.157  23.467  1.00  0.00     0.026 A 
ATOM     21  C   UNL A   1      30.251  26.220  25.067  1.00  0.00     0.005 A 
ATOM     22  C   UNL A   1      30.989  25.472  23.014  1.00  0.00     0.005 A 
ATOM     23  C   UNL A   1      30.751  26.541  23.840  1.00  0.00    -0.051 A 
ATOM     24  C   UNL A   1      30.762  27.958  23.380  1.00  0.00     0.044 C 
ENDBRANCH  16  18
ENDBRANCH  13  14
ENDBRANCH  10  13
ENDBRANCH   5  10
ENDBRANCH   3   5
ENDBRANCH   2   3
ENDBRANCH   1   2
BRANCH   1  25
ATOM     25  C   UNL A   1      39.410  25.688  27.966  1.00  0.00     0.275 C 
BRANCH  25  26
ATOM     26  O   UNL A   1      40.251  26.807  27.769  1.00  0.00    -0.458 OA
BRANCH  26  27
ATOM     27  C   UNL A   1      39.660  27.944  28.172  1.00  0.00     0.338 C 
ATOM     28  O   UNL A   1      39.211  28.771  27.405  1.00  0.00    -0.246 OA
BRANCH  27  29
ATOM     29  C   UNL A   1      39.825  28.020  29.673  1.00  0.00     0.060 A 
ATOM     30  C   UNL A   1      38.467  27.880  30.981  1.00  0.00     0.016 A 
ATOM     31  C   UNL A   1      41.295  29.004  30.022  1.00  0.00     0.016 A 
ATOM     32  C   UNL A   1      38.657  28.867  32.562  1.00  0.00     0.010 A 
ATOM     33  C   UNL A   1      41.463  29.896  31.500  1.00  0.00     0.010 A 
ATOM     34  C   UNL A   1      40.181  29.902  32.758  1.00  0.00    -0.014 A 
BRANCH  34  35
ATOM     35  C   UNL A   1      40.487  30.951  33.727  1.00  0.00     0.031 A 
ATOM     36  C   UNL A   1      41.144  30.343  34.895  1.00  0.00     0.074 A 
ATOM     37  C   UNL A   1      40.234  32.283  33.401  1.00  0.00     0.049 A 
ATOM     38  N   UNL A   1      40.944  30.650  36.128  1.00  0.00    -0.248 NA
ATOM     39  C   UNL A   1      42.004  29.135  34.795  1.00  0.00     0.031 C 
ATOM     40  C   UNL A   1      40.682  33.531  33.984  1.00  0.00     0.029 A 
ATOM     41  N   UNL A   1      39.402  32.832  32.365  1.00  0.00    -0.354 N 
ATOM     42  C   UNL A   1      42.145  30.281  36.700  1.00  0.00     0.074 A 
ATOM     43  C   UNL A   1      42.460  29.048  36.048  1.00  0.00     0.031 C 
ATOM     44  C   UNL A   1      39.892  34.561  33.580  1.00  0.00     0.029 A 
ATOM     45  C   UNL A   1      38.825  34.070  32.697  1.00  0.00     0.049 A 
ATOM     46  H   UNL A   1      39.250  32.383  31.503  1.00  0.00     0.167 HD
ATOM     47  C   UNL A   1      42.938  31.296  37.176  1.00  0.00     0.037 A 
ATOM     48  C   UNL A   1      37.460  34.209  32.890  1.00  0.00     0.037 A 
ATOM     49  C   UNL A   1      42.169  32.579  37.244  1.00  0.00     0.049 A 
ATOM     50  C   UNL A   1      37.196  33.961  34.416  1.00  0.00     0.074 A 
ATOM     51  C   UNL A   1      42.322  33.907  36.879  1.00  0.00     0.029 A 
ATOM     52  N   UNL A   1      40.823  32.497  37.571  1.00  0.00    -0.354 N 
ATOM     53  N   UNL A   1      38.182  33.877  35.279  1.00  0.00    -0.248 NA
ATOM     54  C   UNL A   1      35.916  33.736  35.100  1.00  0.00     0.031 C 
ATOM     55  C   UNL A   1      41.027  34.561  36.955  1.00  0.00     0.029 A 
ATOM     56  C   UNL A   1      40.084  33.627  37.341  1.00  0.00     0.049 A 
ATOM     57  H   UNL A   1      40.425  31.678  37.945  1.00  0.00     0.167 HD
ATOM     58  C   UNL A   1      37.760  33.611  36.544  1.00  0.00     0.074 A 
ATOM     59  C   UNL A   1      36.314  33.501  36.375  1.00  0.00     0.031 C 
ATOM     60  C   UNL A   1      38.638  33.527  37.601  1.00  0.00     0.037 A 
BRANCH  47  61
ATOM     61  C   UNL A   1      44.451  31.175  37.379  1.00  0.00     0.064 A 
ATOM     62  C   UNL A   1      44.980  31.255  38.683  1.00  0.00     0.173 A 
ATOM     63  C   UNL A   1      45.444  30.978  36.380  1.00  0.00     0.173 A 
ATOM     64  F   UNL A   1      44.186  31.432  39.745  1.00  0.00    -0.203 F 
ATOM     65  C   UNL A   1      46.347  31.138  38.964  1.00  0.00     0.198 A 
ATOM     66  C   UNL A   1      46.807  30.823  36.666  1.00  0.00     0.198 A 
ATOM     67  F   UNL A   1      45.175  30.941  35.074  1.00  0.00    -0.203 F 
ATOM     68  F   UNL A   1      46.771  31.248  40.230  1.00  0.00    -0.200 F 
ATOM     69  C   UNL A   1      47.259  30.900  37.960  1.00  0.00     0.200 A 
ATOM     70  F   UNL A   1      47.673  30.599  35.666  1.00  0.00    -0.200 F 
ATOM     71  F   UNL A   1      48.560  30.744  38.236  1.00  0.00    -0.200 F 
ENDBRANCH  47  61
BRANCH  48  72
ATOM     72  C   UNL A   1      36.524  33.886  31.700  1.00  0.00     0.064 A 
ATOM     73  C   UNL A   1      35.230  34.347  31.390  1.00  0.00     0.173 A 
ATOM     74  C   UNL A   1      36.991  33.174  30.618  1.00  0.00     0.173 A 
ATOM     75  F   UNL A   1      34.433  34.835  32.347  1.00  0.00    -0.203 F 
ATOM     76  C   UNL A   1      34.720  34.323  30.044  1.00  0.00     0.198 A 
ATOM     77  C   UNL A   1      36.825  33.677  29.325  1.00  0.00     0.198 A 
ATOM     78  F   UNL A   1      36.451  31.925  30.672  1.00  0.00    -0.203 F 
ATOM     79  F   UNL A   1      33.448  34.646  29.774  1.00  0.00    -0.200 F 
ATOM     80  C   UNL A   1      35.574  34.073  28.986  1.00  0.00     0.200 A 
ATOM     81  F   UNL A   1      37.838  33.750  28.455  1.00  0.00    -0.200 F 
ATOM     82  F   UNL A   1      35.240  34.272  27.704  1.00  0.00    -0.200 F 
ENDBRANCH  48  72
BRANCH  60  83
ATOM     83  C   UNL A   1      38.238  33.351  39.054  1.00  0.00     0.064 A 
ATOM     84  C   UNL A   1      37.527  32.227  39.486  1.00  0.00     0.173 A 
ATOM     85  C   UNL A   1      38.362  34.393  40.015  1.00  0.00     0.173 A 
ATOM     86  F   UNL A   1      37.271  31.212  38.651  1.00  0.00    -0.203 F 
ATOM     87  C   UNL A   1      37.013  32.139  40.783  1.00  0.00     0.198 A 
ATOM     88  C   UNL A   1      37.775  34.339  41.272  1.00  0.00     0.198 A 
ATOM     89  F   UNL A   1      39.082  35.501  39.800  1.00  0.00    -0.203 F 
ATOM     90  F   UNL A   1      36.390  31.019  41.169  1.00  0.00    -0.200 F 
ATOM     91  C   UNL A   1      37.115  33.202  41.665  1.00  0.00     0.200 A 
ATOM     92  F   UNL A   1      37.859  35.400  42.089  1.00  0.00    -0.200 F 
ATOM     93  F   UNL A   1      36.585  33.126  42.892  1.00  0.00    -0.200 F 
ENDBRANCH  60  83
ENDBRANCH  34  35
ENDBRANCH  27  29
ENDBRANCH  26  27
ENDBRANCH  25  26
ENDBRANCH   1  25
TORSDOF 17
ENDMDL
MODEL 3
REMARK VINA RESULT:     -11.2      6.333     12.078
REMARK SMILES CCC(CC)([NH2+]CC(=O)Nc1ccc(C)cc1)C(=O)OCCOC(=O)c1ccc(-c2c3nc(c(-c4c(F)c(F)c(F)c(F)c4F)c4ccc([nH]4)c(-c4c(F)c(F)c(F)c(F)c4F)c4nc(c(-c5c(F)c(F)c(F)c(F)c5F)c5ccc2[nH]5)C=C4)C=C3)cc1
REMARK SMILES IDX 21 1 20 2 18 3 19 4 3 5 2 6 1 7 4 8 5 9 6 10 7 13 8 14 9 15
REMARK SMILES IDX 10 16 11 18 12 19 17 20 13 21 16 22 14 23 15 24 22 25 23 26
REMARK SMILES IDX 24 27 25 28 26 29 27 30 88 31 28 32 87 33 29 34 30 35 31 36
REMARK SMILES IDX 81 37 32 38 86 39 80 40 82 41 33 42 85 43 79 44 78 45 34 47
REMARK SMILES IDX 66 48 46 49 65 50 47 51 50 52 64 53 83 54 48 55 49 56 63 58
REMARK SMILES IDX 84 59 51 60 35 61 36 62 44 63 37 64 38 65 42 66 45 67 39 68
REMARK SMILES IDX 40 69 43 70 41 71 67 72 68 73 76 74 69 75 70 76 74 77 77 78
REMARK SMILES IDX 71 79 72 80 75 81 73 82 52 83 53 84 61 85 54 86 55 87 59 88
REMARK SMILES IDX 62 89 56 90 57 91 60 92 58 93
REMARK H PARENT 6 11 6 12 10 17 82 46 50 57
REMARK Flexibility Score: inf
ROOT
ATOM      1  C   UNL A   1      37.827  30.878  33.055  1.00  0.00     0.274 C 
ENDROOT
BRANCH   1   2
ATOM      2  O   UNL A   1      36.436  31.383  33.054  1.00  0.00    -0.457 OA
BRANCH   2   3
ATOM      3  C   UNL A   1      35.769  32.579  33.176  1.00  0.00     0.368 C 
ATOM      4  O   UNL A   1      35.530  33.045  34.283  1.00  0.00    -0.245 OA
BRANCH   3   5
ATOM      5  C   UNL A   1      35.561  33.446  31.617  1.00  0.00     0.194 C 
BRANCH   5   6
ATOM      6  C   UNL A   1      37.052  33.977  31.450  1.00  0.00     0.077 C 
ATOM      7  C   UNL A   1      37.478  34.210  29.957  1.00  0.00     0.011 C 
ENDBRANCH   5   6
BRANCH   5   8
ATOM      8  C   UNL A   1      34.746  34.511  30.620  1.00  0.00     0.077 C 
ATOM      9  C   UNL A   1      33.515  35.263  31.168  1.00  0.00     0.011 C 
ENDBRANCH   5   8
BRANCH   5  10
ATOM     10  N   UNL A   1      34.739  32.345  31.128  1.00  0.00    -0.324 N 
ATOM     11  H   UNL A   1      33.780  32.676  31.022  1.00  0.00     0.347 HD
ATOM     12  H   UNL A   1      34.801  31.587  31.808  1.00  0.00     0.347 HD
BRANCH  10  13
ATOM     13  C   UNL A   1      35.234  31.794  29.757  1.00  0.00     0.363 C 
BRANCH  13  14
ATOM     14  C   UNL A   1      34.620  31.774  28.213  1.00  0.00     0.279 C 
ATOM     15  O   UNL A   1      35.133  32.760  27.590  1.00  0.00    -0.268 OA
ATOM     16  N   UNL A   1      33.784  31.087  27.192  1.00  0.00    -0.321 N 
ATOM     17  H   UNL A   1      34.190  31.347  26.333  1.00  0.00     0.170 HD
BRANCH  16  18
ATOM     18  C   UNL A   1      32.241  29.895  26.668  1.00  0.00     0.041 A 
ATOM     19  C   UNL A   1      31.683  29.449  25.296  1.00  0.00     0.026 A 
ATOM     20  C   UNL A   1      31.633  28.837  27.376  1.00  0.00     0.026 A 
ATOM     21  C   UNL A   1      31.152  28.217  24.850  1.00  0.00     0.005 A 
ATOM     22  C   UNL A   1      31.431  27.471  27.015  1.00  0.00     0.005 A 
ATOM     23  C   UNL A   1      31.162  27.157  25.707  1.00  0.00    -0.051 A 
ATOM     24  C   UNL A   1      30.649  25.829  25.267  1.00  0.00     0.044 C 
ENDBRANCH  16  18
ENDBRANCH  13  14
ENDBRANCH  10  13
ENDBRANCH   5  10
ENDBRANCH   3   5
ENDBRANCH   2   3
ENDBRANCH   1   2
BRANCH   1  25
ATOM     25  C   UNL A   1      38.956  31.519  33.891  1.00  0.00     0.275 C 
BRANCH  25  26
ATOM     26  O   UNL A   1      40.240  30.930  33.846  1.00  0.00    -0.458 OA
BRANCH  26  27
ATOM     27  C   UNL A   1      40.304  29.828  34.610  1.00  0.00     0.338 C 
ATOM     28  O   UNL A   1      39.825  29.759  35.723  1.00  0.00    -0.246 OA
BRANCH  27  29
ATOM     29  C   UNL A   1      41.186  28.837  33.883  1.00  0.00     0.060 A 
ATOM     30  C   UNL A   1      43.076  28.795  33.854  1.00  0.00     0.016 A 
ATOM     31  C   UNL A   1      40.262  28.204  32.470  1.00  0.00     0.016 A 
ATOM     32  C   UNL A   1      43.923  28.190  32.296  1.00  0.00     0.010 A 
ATOM     33  C   UNL A   1      41.064  27.628  31.044  1.00  0.00     0.010 A 
ATOM     34  C   UNL A   1      42.853  27.642  30.887  1.00  0.00    -0.014 A 
BRANCH  34  35
ATOM     35  C   UNL A   1      43.198  27.372  29.494  1.00  0.00     0.031 A 
ATOM     36  C   UNL A   1      43.696  25.992  29.385  1.00  0.00     0.074 A 
ATOM     37  C   UNL A   1      42.935  28.336  28.522  1.00  0.00     0.049 A 
ATOM     38  N   UNL A   1      44.682  25.591  28.663  1.00  0.00    -0.248 NA
ATOM     39  C   UNL A   1      43.224  24.895  30.270  1.00  0.00     0.031 C 
ATOM     40  C   UNL A   1      42.876  28.272  27.075  1.00  0.00     0.029 A 
ATOM     41  N   UNL A   1      42.659  29.740  28.672  1.00  0.00    -0.354 N 
ATOM     42  C   UNL A   1      44.346  24.269  28.451  1.00  0.00     0.074 A 
ATOM     43  C   UNL A   1      43.842  23.846  29.720  1.00  0.00     0.031 C 
ATOM     44  C   UNL A   1      42.961  29.517  26.535  1.00  0.00     0.029 A 
ATOM     45  C   UNL A   1      43.106  30.524  27.594  1.00  0.00     0.049 A 
ATOM     46  H   UNL A   1      42.201  30.116  29.456  1.00  0.00     0.167 HD
ATOM     47  C   UNL A   1      44.012  23.916  27.167  1.00  0.00     0.037 A 
ATOM     48  C   UNL A   1      44.142  31.434  27.736  1.00  0.00     0.037 A 
ATOM     49  C   UNL A   1      44.388  25.001  26.206  1.00  0.00     0.049 A 
ATOM     50  C   UNL A   1      45.465  30.663  27.397  1.00  0.00     0.074 A 
ATOM     51  C   UNL A   1      43.826  25.702  25.152  1.00  0.00     0.029 A 
ATOM     52  N   UNL A   1      45.541  25.722  26.482  1.00  0.00    -0.354 N 
ATOM     53  N   UNL A   1      45.444  29.460  26.870  1.00  0.00    -0.248 NA
ATOM     54  C   UNL A   1      46.853  31.076  27.635  1.00  0.00     0.031 C 
ATOM     55  C   UNL A   1      44.653  26.862  24.871  1.00  0.00     0.029 A 
ATOM     56  C   UNL A   1      45.704  26.881  25.770  1.00  0.00     0.049 A 
ATOM     57  H   UNL A   1      46.201  25.420  27.148  1.00  0.00     0.167 HD
ATOM     58  C   UNL A   1      46.685  28.936  26.693  1.00  0.00     0.074 A 
ATOM     59  C   UNL A   1      47.549  29.988  27.222  1.00  0.00     0.031 C 
ATOM     60  C   UNL A   1      46.878  27.701  26.114  1.00  0.00     0.037 A 
BRANCH  47  61
ATOM     61  C   UNL A   1      43.162  22.692  26.811  1.00  0.00     0.064 A 
ATOM     62  C   UNL A   1      43.761  21.611  26.132  1.00  0.00     0.173 A 
ATOM     63  C   UNL A   1      41.783  22.487  27.090  1.00  0.00     0.173 A 
ATOM     64  F   UNL A   1      45.056  21.633  25.797  1.00  0.00    -0.203 F 
ATOM     65  C   UNL A   1      43.067  20.447  25.782  1.00  0.00     0.198 A 
ATOM     66  C   UNL A   1      41.099  21.306  26.773  1.00  0.00     0.198 A 
ATOM     67  F   UNL A   1      41.005  23.406  27.663  1.00  0.00    -0.203 F 
ATOM     68  F   UNL A   1      43.705  19.474  25.118  1.00  0.00    -0.200 F 
ATOM     69  C   UNL A   1      41.742  20.284  26.121  1.00  0.00     0.200 A 
ATOM     70  F   UNL A   1      39.806  21.178  27.109  1.00  0.00    -0.200 F 
ATOM     71  F   UNL A   1      41.091  19.151  25.824  1.00  0.00    -0.200 F 
ENDBRANCH  47  61
BRANCH  48  72
ATOM     72  C   UNL A   1      43.952  32.597  28.740  1.00  0.00     0.064 A 
ATOM     73  C   UNL A   1      43.398  33.880  28.575  1.00  0.00     0.173 A 
ATOM     74  C   UNL A   1      44.170  32.399  30.086  1.00  0.00     0.173 A 
ATOM     75  F   UNL A   1      43.334  34.443  27.363  1.00  0.00    -0.203 F 
ATOM     76  C   UNL A   1      42.874  34.629  29.687  1.00  0.00     0.198 A 
ATOM     77  C   UNL A   1      43.187  32.755  31.013  1.00  0.00     0.198 A 
ATOM     78  F   UNL A   1      45.331  33.026  30.420  1.00  0.00    -0.203 F 
ATOM     79  F   UNL A   1      42.463  35.896  29.545  1.00  0.00    -0.200 F 
ATOM     80  C   UNL A   1      42.681  34.008  30.908  1.00  0.00     0.200 A 
ATOM     81  F   UNL A   1      42.774  31.916  31.969  1.00  0.00    -0.200 F 
ATOM     82  F   UNL A   1      41.980  34.553  31.910  1.00  0.00    -0.200 F 
ENDBRANCH  48  72
BRANCH  60  83
ATOM     83  C   UNL A   1      48.228  27.098  25.776  1.00  0.00     0.064 A 
ATOM     84  C   UNL A   1      49.015  26.473  26.748  1.00  0.00     0.173 A 
ATOM     85  C   UNL A   1      48.872  27.313  24.525  1.00  0.00     0.173 A 
ATOM     86  F   UNL A   1      48.552  26.286  27.992  1.00  0.00    -0.203 F 
ATOM     87  C   UNL A   1      50.325  26.066  26.481  1.00  0.00     0.198 A 
ATOM     88  C   UNL A   1      50.201  26.988  24.291  1.00  0.00     0.198 A 
ATOM     89  F   UNL A   1      48.241  27.820  23.459  1.00  0.00    -0.203 F 
ATOM     90  F   UNL A   1      51.019  25.420  27.426  1.00  0.00    -0.200 F 
ATOM     91  C   UNL A   1      50.924  26.345  25.264  1.00  0.00     0.200 A 
ATOM     92  F   UNL A   1      50.764  27.306  23.116  1.00  0.00    -0.200 F 
ATOM     93  F   UNL A   1      52.193  25.989  25.028  1.00  0.00    -0.200 F 
ENDBRANCH  60  83
ENDBRANCH  34  35
ENDBRANCH  27  29
ENDBRANCH  26  27
ENDBRANCH  25  26
ENDBRANCH   1  25
TORSDOF 17
ENDMDL
