MODEL 1
REMARK VINA RESULT:     -13.0      0.000      0.000
REMARK SMILES COc1ccc(F)c(NC(=O)N[C@H]2CCC[C@H]2C(=O)OCCOC(=O)c2ccc(-c3c4nc(c(-c5c(F)c(F)c(F)c(F)c5F)c5ccc([nH]5)c(-c5c(F)c(F)c(F)c(F)c5F)c5nc(c(-c6c(F)c(F)c(F)c(F)c6F)c6ccc3[nH]6)C=C5)C=C4)cc2)c1
REMARK SMILES IDX 21 1 20 2 18 3 19 4 17 5 13 6 14 7 15 8 16 9 12 10 9 11
REMARK SMILES IDX 10 12 11 14 8 16 3 17 4 18 89 19 5 20 6 21 7 22 2 23 1 24
REMARK SMILES IDX 22 25 23 26 24 27 25 28 26 29 27 30 88 31 28 32 87 33 29 34
REMARK SMILES IDX 30 35 31 36 81 37 32 38 86 39 80 40 82 41 33 42 85 43 79 44
REMARK SMILES IDX 78 45 34 47 66 48 46 49 65 50 47 51 50 52 64 53 83 54 48 55
REMARK SMILES IDX 49 56 63 58 84 59 51 60 35 61 36 62 44 63 37 64 38 65 42 66
REMARK SMILES IDX 45 67 39 68 40 69 43 70 41 71 67 72 68 73 76 74 69 75 70 76
REMARK SMILES IDX 74 77 77 78 71 79 72 80 75 81 73 82 52 83 53 84 61 85 54 86
REMARK SMILES IDX 55 87 59 88 62 89 56 90 57 91 60 92 58 93
REMARK H PARENT 9 13 12 15 82 46 50 57
REMARK Flexibility Score: inf
ROOT
ATOM      1  C   UNL A   1      31.519  28.294  25.936  1.00  0.00     0.274 C 
ENDROOT
BRANCH   1   2
ATOM      2  O   UNL A   1      32.407  27.176  25.709  1.00  0.00    -0.462 OA
BRANCH   2   3
ATOM      3  C   UNL A   1      32.021  25.925  26.105  1.00  0.00     0.311 C 
ATOM      4  O   UNL A   1      30.972  25.676  26.657  1.00  0.00    -0.252 OA
BRANCH   3   5
ATOM      5  C   UNL A   1      33.027  24.874  25.647  1.00  0.00     0.121 C 
ATOM      6  C   UNL A   1      32.928  24.675  24.151  1.00  0.00     0.098 C 
ATOM      7  C   UNL A   1      33.931  23.528  23.957  1.00  0.00     0.026 C 
ATOM      8  C   UNL A   1      35.139  23.975  24.774  1.00  0.00     0.003 C 
ATOM      9  C   UNL A   1      34.561  24.996  25.762  1.00  0.00     0.017 C 
BRANCH   6  10
ATOM     10  N   UNL A   1      33.367  25.836  23.331  1.00  0.00    -0.334 N 
ATOM     11  N   UNL A   1      31.949  27.234  21.950  1.00  0.00    -0.305 N 
ATOM     12  C   UNL A   1      32.952  26.385  22.192  1.00  0.00     0.319 C 
ATOM     13  H   UNL A   1      32.067  27.482  21.005  1.00  0.00     0.171 HD
ATOM     14  O   UNL A   1      33.733  26.239  21.237  1.00  0.00    -0.248 OA
ATOM     15  H   UNL A   1      34.140  26.306  23.719  1.00  0.00     0.165 HD
BRANCH  11  16
ATOM     16  C   UNL A   1      30.798  27.963  22.359  1.00  0.00     0.082 A 
ATOM     17  C   UNL A   1      29.223  29.822  22.727  1.00  0.00     0.121 A 
ATOM     18  C   UNL A   1      28.282  28.957  23.276  1.00  0.00     0.049 A 
ATOM     19  C   UNL A   1      30.462  29.316  22.280  1.00  0.00     0.075 A 
ATOM     20  C   UNL A   1      28.597  27.618  23.433  1.00  0.00     0.045 A 
ATOM     21  C   UNL A   1      29.833  27.151  22.991  1.00  0.00     0.147 A 
ATOM     22  F   UNL A   1      30.111  25.848  23.172  1.00  0.00    -0.205 F 
BRANCH  17  23
ATOM     23  O   UNL A   1      28.812  31.127  22.692  1.00  0.00    -0.497 OA
ATOM     24  C   UNL A   1      27.649  31.503  23.422  1.00  0.00     0.278 C 
ENDBRANCH  17  23
ENDBRANCH  11  16
ENDBRANCH   6  10
ENDBRANCH   3   5
ENDBRANCH   2   3
ENDBRANCH   1   2
BRANCH   1  25
ATOM     25  C   UNL A   1      32.193  29.651  25.821  1.00  0.00     0.275 C 
BRANCH  25  26
ATOM     26  O   UNL A   1      32.389  30.145  27.151  1.00  0.00    -0.458 OA
BRANCH  26  27
ATOM     27  C   UNL A   1      33.064  31.304  27.263  1.00  0.00     0.338 C 
ATOM     28  O   UNL A   1      32.622  32.434  27.116  1.00  0.00    -0.246 OA
BRANCH  27  29
ATOM     29  C   UNL A   1      34.464  31.022  27.635  1.00  0.00     0.060 A 
ATOM     30  C   UNL A   1      34.902  29.711  27.840  1.00  0.00     0.016 A 
ATOM     31  C   UNL A   1      35.308  32.090  27.930  1.00  0.00     0.016 A 
ATOM     32  C   UNL A   1      36.107  29.477  28.492  1.00  0.00     0.010 A 
ATOM     33  C   UNL A   1      36.569  31.843  28.475  1.00  0.00     0.010 A 
ATOM     34  C   UNL A   1      36.956  30.538  28.826  1.00  0.00    -0.014 A 
BRANCH  34  35
ATOM     35  C   UNL A   1      38.195  30.322  29.622  1.00  0.00     0.031 A 
ATOM     36  C   UNL A   1      39.304  29.485  29.040  1.00  0.00     0.074 A 
ATOM     37  C   UNL A   1      38.355  30.866  30.844  1.00  0.00     0.049 A 
ATOM     38  N   UNL A   1      40.292  28.875  29.644  1.00  0.00    -0.248 NA
ATOM     39  C   UNL A   1      39.284  29.290  27.580  1.00  0.00     0.031 C 
ATOM     40  C   UNL A   1      37.433  31.795  31.498  1.00  0.00     0.029 A 
ATOM     41  N   UNL A   1      39.367  30.706  31.761  1.00  0.00    -0.354 N 
ATOM     42  C   UNL A   1      40.953  28.157  28.655  1.00  0.00     0.074 A 
ATOM     43  C   UNL A   1      40.269  28.420  27.407  1.00  0.00     0.031 C 
ATOM     44  C   UNL A   1      37.936  32.154  32.687  1.00  0.00     0.029 A 
ATOM     45  C   UNL A   1      39.146  31.382  32.938  1.00  0.00     0.049 A 
ATOM     46  H   UNL A   1      40.170  30.162  31.593  1.00  0.00     0.167 HD
ATOM     47  C   UNL A   1      42.026  27.343  28.790  1.00  0.00     0.037 A 
ATOM     48  C   UNL A   1      39.799  31.327  34.114  1.00  0.00     0.037 A 
ATOM     49  C   UNL A   1      42.738  27.156  30.027  1.00  0.00     0.049 A 
ATOM     50  C   UNL A   1      40.948  30.372  34.267  1.00  0.00     0.074 A 
ATOM     51  C   UNL A   1      43.826  26.342  30.285  1.00  0.00     0.029 A 
ATOM     52  N   UNL A   1      42.445  27.823  31.208  1.00  0.00    -0.354 N 
ATOM     53  N   UNL A   1      41.485  29.578  33.373  1.00  0.00    -0.248 NA
ATOM     54  C   UNL A   1      41.555  30.275  35.601  1.00  0.00     0.031 C 
ATOM     55  C   UNL A   1      44.174  26.495  31.631  1.00  0.00     0.029 A 
ATOM     56  C   UNL A   1      43.330  27.436  32.199  1.00  0.00     0.049 A 
ATOM     57  H   UNL A   1      41.715  28.474  31.324  1.00  0.00     0.167 HD
ATOM     58  C   UNL A   1      42.495  28.892  34.030  1.00  0.00     0.074 A 
ATOM     59  C   UNL A   1      42.509  29.376  35.395  1.00  0.00     0.031 C 
ATOM     60  C   UNL A   1      43.331  27.940  33.548  1.00  0.00     0.037 A 
BRANCH  47  61
ATOM     61  C   UNL A   1      42.475  26.561  27.590  1.00  0.00     0.064 A 
ATOM     62  C   UNL A   1      41.904  25.306  27.317  1.00  0.00     0.173 A 
ATOM     63  C   UNL A   1      43.498  27.010  26.745  1.00  0.00     0.173 A 
ATOM     64  F   UNL A   1      40.923  24.827  28.098  1.00  0.00    -0.203 F 
ATOM     65  C   UNL A   1      42.349  24.530  26.252  1.00  0.00     0.198 A 
ATOM     66  C   UNL A   1      43.922  26.243  25.662  1.00  0.00     0.198 A 
ATOM     67  F   UNL A   1      44.067  28.208  26.952  1.00  0.00    -0.203 F 
ATOM     68  F   UNL A   1      41.808  23.323  26.031  1.00  0.00    -0.200 F 
ATOM     69  C   UNL A   1      43.355  24.999  25.422  1.00  0.00     0.200 A 
ATOM     70  F   UNL A   1      44.878  26.709  24.846  1.00  0.00    -0.200 F 
ATOM     71  F   UNL A   1      43.775  24.256  24.389  1.00  0.00    -0.200 F 
ENDBRANCH  47  61
BRANCH  48  72
ATOM     72  C   UNL A   1      39.327  32.159  35.253  1.00  0.00     0.064 A 
ATOM     73  C   UNL A   1      39.735  33.493  35.406  1.00  0.00     0.173 A 
ATOM     74  C   UNL A   1      38.493  31.615  36.238  1.00  0.00     0.173 A 
ATOM     75  F   UNL A   1      40.532  34.061  34.489  1.00  0.00    -0.203 F 
ATOM     76  C   UNL A   1      39.359  34.238  36.520  1.00  0.00     0.198 A 
ATOM     77  C   UNL A   1      38.090  32.373  37.337  1.00  0.00     0.198 A 
ATOM     78  F   UNL A   1      38.053  30.354  36.122  1.00  0.00    -0.203 F 
ATOM     79  F   UNL A   1      39.807  35.492  36.668  1.00  0.00    -0.200 F 
ATOM     80  C   UNL A   1      38.535  33.678  37.483  1.00  0.00     0.200 A 
ATOM     81  F   UNL A   1      37.272  31.838  38.253  1.00  0.00    -0.200 F 
ATOM     82  F   UNL A   1      38.168  34.397  38.553  1.00  0.00    -0.200 F 
ENDBRANCH  48  72
BRANCH  60  83
ATOM     83  C   UNL A   1      44.353  27.379  34.489  1.00  0.00     0.064 A 
ATOM     84  C   UNL A   1      45.616  27.979  34.601  1.00  0.00     0.173 A 
ATOM     85  C   UNL A   1      44.109  26.207  35.218  1.00  0.00     0.173 A 
ATOM     86  F   UNL A   1      45.896  29.098  33.917  1.00  0.00    -0.203 F 
ATOM     87  C   UNL A   1      46.606  27.415  35.399  1.00  0.00     0.198 A 
ATOM     88  C   UNL A   1      45.094  25.659  36.034  1.00  0.00     0.198 A 
ATOM     89  F   UNL A   1      42.911  25.608  35.153  1.00  0.00    -0.203 F 
ATOM     90  F   UNL A   1      47.816  27.985  35.466  1.00  0.00    -0.200 F 
ATOM     91  C   UNL A   1      46.344  26.256  36.116  1.00  0.00     0.200 A 
ATOM     92  F   UNL A   1      44.834  24.553  36.744  1.00  0.00    -0.200 F 
ATOM     93  F   UNL A   1      47.296  25.717  36.889  1.00  0.00    -0.200 F 
ENDBRANCH  60  83
ENDBRANCH  34  35
ENDBRANCH  27  29
ENDBRANCH  26  27
ENDBRANCH  25  26
ENDBRANCH   1  25
TORSDOF 14
ENDMDL
MODEL 2
REMARK VINA RESULT:     -12.8      0.433      1.650
REMARK SMILES COc1ccc(F)c(NC(=O)N[C@H]2CCC[C@H]2C(=O)OCCOC(=O)c2ccc(-c3c4nc(c(-c5c(F)c(F)c(F)c(F)c5F)c5ccc([nH]5)c(-c5c(F)c(F)c(F)c(F)c5F)c5nc(c(-c6c(F)c(F)c(F)c(F)c6F)c6ccc3[nH]6)C=C5)C=C4)cc2)c1
REMARK SMILES IDX 21 1 20 2 18 3 19 4 17 5 13 6 14 7 15 8 16 9 12 10 9 11
REMARK SMILES IDX 10 12 11 14 8 16 3 17 4 18 89 19 5 20 6 21 7 22 2 23 1 24
REMARK SMILES IDX 22 25 23 26 24 27 25 28 26 29 27 30 88 31 28 32 87 33 29 34
REMARK SMILES IDX 30 35 31 36 81 37 32 38 86 39 80 40 82 41 33 42 85 43 79 44
REMARK SMILES IDX 78 45 34 47 66 48 46 49 65 50 47 51 50 52 64 53 83 54 48 55
REMARK SMILES IDX 49 56 63 58 84 59 51 60 35 61 36 62 44 63 37 64 38 65 42 66
REMARK SMILES IDX 45 67 39 68 40 69 43 70 41 71 67 72 68 73 76 74 69 75 70 76
REMARK SMILES IDX 74 77 77 78 71 79 72 80 75 81 73 82 52 83 53 84 61 85 54 86
REMARK SMILES IDX 55 87 59 88 62 89 56 90 57 91 60 92 58 93
REMARK H PARENT 9 13 12 15 82 46 50 57
REMARK Flexibility Score: inf
ROOT
ATOM      1  C   UNL A   1      31.425  28.812  25.783  1.00  0.00     0.274 C 
ENDROOT
BRANCH   1   2
ATOM      2  O   UNL A   1      32.134  27.608  25.410  1.00  0.00    -0.462 OA
BRANCH   2   3
ATOM      3  C   UNL A   1      31.873  26.445  26.080  1.00  0.00     0.311 C 
ATOM      4  O   UNL A   1      30.901  26.263  26.781  1.00  0.00    -0.252 OA
BRANCH   3   5
ATOM      5  C   UNL A   1      32.897  25.371  25.727  1.00  0.00     0.121 C 
ATOM      6  C   UNL A   1      32.775  24.993  24.267  1.00  0.00     0.098 C 
ATOM      7  C   UNL A   1      33.803  23.856  24.188  1.00  0.00     0.026 C 
ATOM      8  C   UNL A   1      35.014  24.425  24.920  1.00  0.00     0.003 C 
ATOM      9  C   UNL A   1      34.429  25.542  25.793  1.00  0.00     0.017 C 
BRANCH   6  10
ATOM     10  N   UNL A   1      33.167  26.060  23.307  1.00  0.00    -0.334 N 
ATOM     11  N   UNL A   1      31.674  27.311  21.865  1.00  0.00    -0.305 N 
ATOM     12  C   UNL A   1      32.689  26.487  22.141  1.00  0.00     0.319 C 
ATOM     13  H   UNL A   1      31.740  27.457  20.895  1.00  0.00     0.171 HD
ATOM     14  O   UNL A   1      33.417  26.237  21.166  1.00  0.00    -0.248 OA
ATOM     15  H   UNL A   1      33.959  26.564  23.601  1.00  0.00     0.165 HD
BRANCH  11  16
ATOM     16  C   UNL A   1      30.546  28.085  22.258  1.00  0.00     0.082 A 
ATOM     17  C   UNL A   1      29.006  29.988  22.536  1.00  0.00     0.121 A 
ATOM     18  C   UNL A   1      28.077  29.181  23.183  1.00  0.00     0.049 A 
ATOM     19  C   UNL A   1      30.223  29.433  22.086  1.00  0.00     0.075 A 
ATOM     20  C   UNL A   1      28.383  27.853  23.433  1.00  0.00     0.045 A 
ATOM     21  C   UNL A   1      29.597  27.337  22.984  1.00  0.00     0.147 A 
ATOM     22  F   UNL A   1      29.867  26.048  23.256  1.00  0.00    -0.205 F 
BRANCH  17  23
ATOM     23  O   UNL A   1      28.608  31.292  22.415  1.00  0.00    -0.497 OA
ATOM     24  C   UNL A   1      28.524  31.869  21.117  1.00  0.00     0.278 C 
ENDBRANCH  17  23
ENDBRANCH  11  16
ENDBRANCH   6  10
ENDBRANCH   3   5
ENDBRANCH   2   3
ENDBRANCH   1   2
BRANCH   1  25
ATOM     25  C   UNL A   1      32.291  30.060  25.794  1.00  0.00     0.275 C 
BRANCH  25  26
ATOM     26  O   UNL A   1      32.584  30.364  27.163  1.00  0.00    -0.458 OA
BRANCH  26  27
ATOM     27  C   UNL A   1      33.272  31.499  27.387  1.00  0.00     0.338 C 
ATOM     28  O   UNL A   1      32.851  32.645  27.314  1.00  0.00    -0.246 OA
BRANCH  27  29
ATOM     29  C   UNL A   1      34.654  31.166  27.781  1.00  0.00     0.060 A 
ATOM     30  C   UNL A   1      35.030  29.844  28.030  1.00  0.00     0.016 A 
ATOM     31  C   UNL A   1      35.544  32.203  28.050  1.00  0.00     0.016 A 
ATOM     32  C   UNL A   1      36.218  29.576  28.700  1.00  0.00     0.010 A 
ATOM     33  C   UNL A   1      36.788  31.916  28.614  1.00  0.00     0.010 A 
ATOM     34  C   UNL A   1      37.112  30.606  29.010  1.00  0.00    -0.014 A 
BRANCH  34  35
ATOM     35  C   UNL A   1      38.333  30.359  29.824  1.00  0.00     0.031 A 
ATOM     36  C   UNL A   1      39.438  29.511  29.250  1.00  0.00     0.074 A 
ATOM     37  C   UNL A   1      38.482  30.884  31.055  1.00  0.00     0.049 A 
ATOM     38  N   UNL A   1      40.405  28.877  29.861  1.00  0.00    -0.248 NA
ATOM     39  C   UNL A   1      39.440  29.336  27.786  1.00  0.00     0.031 C 
ATOM     40  C   UNL A   1      37.564  31.820  31.705  1.00  0.00     0.029 A 
ATOM     41  N   UNL A   1      39.474  30.696  31.987  1.00  0.00    -0.354 N 
ATOM     42  C   UNL A   1      41.071  28.160  28.875  1.00  0.00     0.074 A 
ATOM     43  C   UNL A   1      40.413  28.451  27.620  1.00  0.00     0.031 C 
ATOM     44  C   UNL A   1      38.053  32.156  32.907  1.00  0.00     0.029 A 
ATOM     45  C   UNL A   1      39.245  31.360  33.168  1.00  0.00     0.049 A 
ATOM     46  H   UNL A   1      40.271  30.141  31.825  1.00  0.00     0.167 HD
ATOM     47  C   UNL A   1      42.128  27.326  29.017  1.00  0.00     0.037 A 
ATOM     48  C   UNL A   1      39.876  31.280  34.355  1.00  0.00     0.037 A 
ATOM     49  C   UNL A   1      42.815  27.111  30.263  1.00  0.00     0.049 A 
ATOM     50  C   UNL A   1      41.006  30.303  34.514  1.00  0.00     0.074 A 
ATOM     51  C   UNL A   1      43.885  26.276  30.530  1.00  0.00     0.029 A 
ATOM     52  N   UNL A   1      42.513  27.768  31.448  1.00  0.00    -0.354 N 
ATOM     53  N   UNL A   1      41.545  29.511  33.619  1.00  0.00    -0.248 NA
ATOM     54  C   UNL A   1      41.589  30.179  35.857  1.00  0.00     0.031 C 
ATOM     55  C   UNL A   1      44.211  26.406  31.883  1.00  0.00     0.029 A 
ATOM     56  C   UNL A   1      43.374  27.354  32.449  1.00  0.00     0.049 A 
ATOM     57  H   UNL A   1      41.792  28.430  31.560  1.00  0.00     0.167 HD
ATOM     58  C   UNL A   1      42.532  28.800  34.285  1.00  0.00     0.074 A 
ATOM     59  C   UNL A   1      42.531  29.267  35.656  1.00  0.00     0.031 C 
ATOM     60  C   UNL A   1      43.360  27.841  33.805  1.00  0.00     0.037 A 
BRANCH  47  61
ATOM     61  C   UNL A   1      42.584  26.552  27.815  1.00  0.00     0.064 A 
ATOM     62  C   UNL A   1      43.539  27.106  26.946  1.00  0.00     0.173 A 
ATOM     63  C   UNL A   1      42.047  25.301  27.485  1.00  0.00     0.173 A 
ATOM     64  F   UNL A   1      44.082  28.303  27.214  1.00  0.00    -0.203 F 
ATOM     65  C   UNL A   1      43.929  26.440  25.788  1.00  0.00     0.198 A 
ATOM     66  C   UNL A   1      42.460  24.624  26.338  1.00  0.00     0.198 A 
ATOM     67  F   UNL A   1      41.143  24.720  28.288  1.00  0.00    -0.203 F 
ATOM     68  F   UNL A   1      44.820  27.003  24.960  1.00  0.00    -0.200 F 
ATOM     69  C   UNL A   1      43.392  25.198  25.486  1.00  0.00     0.200 A 
ATOM     70  F   UNL A   1      41.959  23.412  26.061  1.00  0.00    -0.200 F 
ATOM     71  F   UNL A   1      43.777  24.552  24.377  1.00  0.00    -0.200 F 
ENDBRANCH  47  61
BRANCH  48  72
ATOM     72  C   UNL A   1      39.398  32.104  35.496  1.00  0.00     0.064 A 
ATOM     73  C   UNL A   1      39.868  33.410  35.705  1.00  0.00     0.173 A 
ATOM     74  C   UNL A   1      38.496  31.579  36.429  1.00  0.00     0.173 A 
ATOM     75  F   UNL A   1      40.734  33.960  34.839  1.00  0.00    -0.203 F 
ATOM     76  C   UNL A   1      39.483  34.145  36.823  1.00  0.00     0.198 A 
ATOM     77  C   UNL A   1      38.085  32.328  37.531  1.00  0.00     0.198 A 
ATOM     78  F   UNL A   1      37.996  30.347  36.258  1.00  0.00    -0.203 F 
ATOM     79  F   UNL A   1      39.989  35.369  37.026  1.00  0.00    -0.200 F 
ATOM     80  C   UNL A   1      38.590  33.604  37.734  1.00  0.00     0.200 A 
ATOM     81  F   UNL A   1      37.201  31.813  38.396  1.00  0.00    -0.200 F 
ATOM     82  F   UNL A   1      38.215  34.312  38.808  1.00  0.00    -0.200 F 
ENDBRANCH  48  72
BRANCH  60  83
ATOM     83  C   UNL A   1      44.356  27.250  34.755  1.00  0.00     0.064 A 
ATOM     84  C   UNL A   1      44.034  26.102  35.495  1.00  0.00     0.173 A 
ATOM     85  C   UNL A   1      45.594  27.864  34.991  1.00  0.00     0.173 A 
ATOM     86  F   UNL A   1      42.858  25.485  35.308  1.00  0.00    -0.203 F 
ATOM     87  C   UNL A   1      44.912  25.599  36.449  1.00  0.00     0.198 A 
ATOM     88  C   UNL A   1      46.480  27.343  35.929  1.00  0.00     0.198 A 
ATOM     89  F   UNL A   1      45.950  28.955  34.296  1.00  0.00    -0.203 F 
ATOM     90  F   UNL A   1      44.572  24.521  37.168  1.00  0.00    -0.200 F 
ATOM     91  C   UNL A   1      46.134  26.218  36.665  1.00  0.00     0.200 A 
ATOM     92  F   UNL A   1      47.670  27.928  36.121  1.00  0.00    -0.200 F 
ATOM     93  F   UNL A   1      46.982  25.729  37.580  1.00  0.00    -0.200 F 
ENDBRANCH  60  83
ENDBRANCH  34  35
ENDBRANCH  27  29
ENDBRANCH  26  27
ENDBRANCH  25  26
ENDBRANCH   1  25
TORSDOF 14
ENDMDL
MODEL 3
REMARK VINA RESULT:     -12.7      1.138      3.155
REMARK SMILES COc1ccc(F)c(NC(=O)N[C@H]2CCC[C@H]2C(=O)OCCOC(=O)c2ccc(-c3c4nc(c(-c5c(F)c(F)c(F)c(F)c5F)c5ccc([nH]5)c(-c5c(F)c(F)c(F)c(F)c5F)c5nc(c(-c6c(F)c(F)c(F)c(F)c6F)c6ccc3[nH]6)C=C5)C=C4)cc2)c1
REMARK SMILES IDX 21 1 20 2 18 3 19 4 17 5 13 6 14 7 15 8 16 9 12 10 9 11
REMARK SMILES IDX 10 12 11 14 8 16 3 17 4 18 89 19 5 20 6 21 7 22 2 23 1 24
REMARK SMILES IDX 22 25 23 26 24 27 25 28 26 29 27 30 88 31 28 32 87 33 29 34
REMARK SMILES IDX 30 35 31 36 81 37 32 38 86 39 80 40 82 41 33 42 85 43 79 44
REMARK SMILES IDX 78 45 34 47 66 48 46 49 65 50 47 51 50 52 64 53 83 54 48 55
REMARK SMILES IDX 49 56 63 58 84 59 51 60 35 61 36 62 44 63 37 64 38 65 42 66
REMARK SMILES IDX 45 67 39 68 40 69 43 70 41 71 67 72 68 73 76 74 69 75 70 76
REMARK SMILES IDX 74 77 77 78 71 79 72 80 75 81 73 82 52 83 53 84 61 85 54 86
REMARK SMILES IDX 55 87 59 88 62 89 56 90 57 91 60 92 58 93
REMARK H PARENT 9 13 12 15 82 46 50 57
REMARK Flexibility Score: inf
ROOT
ATOM      1  C   UNL A   1      32.100  27.491  27.061  1.00  0.00     0.274 C 
ENDROOT
BRANCH   1   2
ATOM      2  O   UNL A   1      30.952  26.698  26.681  1.00  0.00    -0.462 OA
BRANCH   2   3
ATOM      3  C   UNL A   1      30.840  26.262  25.389  1.00  0.00     0.311 C 
ATOM      4  O   UNL A   1      30.837  25.097  25.059  1.00  0.00    -0.252 OA
BRANCH   3   5
ATOM      5  C   UNL A   1      30.594  27.430  24.439  1.00  0.00     0.121 C 
ATOM      6  C   UNL A   1      31.777  27.606  23.513  1.00  0.00     0.098 C 
ATOM      7  C   UNL A   1      31.347  28.870  22.753  1.00  0.00     0.026 C 
ATOM      8  C   UNL A   1      29.895  28.584  22.387  1.00  0.00     0.003 C 
ATOM      9  C   UNL A   1      29.466  27.503  23.388  1.00  0.00     0.017 C 
BRANCH   6  10
ATOM     10  N   UNL A   1      31.979  26.505  22.534  1.00  0.00    -0.334 N 
ATOM     11  N   UNL A   1      33.712  24.813  22.615  1.00  0.00    -0.305 N 
ATOM     12  C   UNL A   1      33.040  25.838  22.085  1.00  0.00     0.319 C 
ATOM     13  H   UNL A   1      34.342  24.547  21.908  1.00  0.00     0.171 HD
ATOM     14  O   UNL A   1      33.332  26.077  20.901  1.00  0.00    -0.248 OA
ATOM     15  H   UNL A   1      31.137  26.200  22.125  1.00  0.00     0.165 HD
BRANCH  11  16
ATOM     16  C   UNL A   1      33.983  23.910  23.681  1.00  0.00     0.082 A 
ATOM     17  C   UNL A   1      34.286  21.816  24.944  1.00  0.00     0.121 A 
ATOM     18  C   UNL A   1      34.705  22.518  26.068  1.00  0.00     0.049 A 
ATOM     19  C   UNL A   1      33.932  22.517  23.772  1.00  0.00     0.075 A 
ATOM     20  C   UNL A   1      34.709  23.903  26.045  1.00  0.00     0.045 A 
ATOM     21  C   UNL A   1      34.344  24.567  24.876  1.00  0.00     0.147 A 
ATOM     22  F   UNL A   1      34.347  25.912  24.893  1.00  0.00    -0.205 F 
BRANCH  17  23
ATOM     23  O   UNL A   1      34.263  20.459  25.123  1.00  0.00    -0.497 OA
ATOM     24  C   UNL A   1      33.009  19.787  25.141  1.00  0.00     0.278 C 
ENDBRANCH  17  23
ENDBRANCH  11  16
ENDBRANCH   6  10
ENDBRANCH   3   5
ENDBRANCH   2   3
ENDBRANCH   1   2
BRANCH   1  25
ATOM     25  C   UNL A   1      31.787  28.961  27.287  1.00  0.00     0.275 C 
BRANCH  25  26
ATOM     26  O   UNL A   1      32.695  29.720  26.481  1.00  0.00    -0.458 OA
BRANCH  26  27
ATOM     27  C   UNL A   1      33.152  30.867  27.017  1.00  0.00     0.338 C 
ATOM     28  O   UNL A   1      32.524  31.900  27.197  1.00  0.00    -0.246 OA
BRANCH  27  29
ATOM     29  C   UNL A   1      34.565  30.697  27.408  1.00  0.00     0.060 A 
ATOM     30  C   UNL A   1      35.149  29.428  27.453  1.00  0.00     0.016 A 
ATOM     31  C   UNL A   1      35.269  31.802  27.880  1.00  0.00     0.016 A 
ATOM     32  C   UNL A   1      36.355  29.245  28.118  1.00  0.00     0.010 A 
ATOM     33  C   UNL A   1      36.535  31.627  28.440  1.00  0.00     0.010 A 
ATOM     34  C   UNL A   1      37.064  30.338  28.628  1.00  0.00    -0.014 A 
BRANCH  34  35
ATOM     35  C   UNL A   1      38.298  30.156  29.441  1.00  0.00     0.031 A 
ATOM     36  C   UNL A   1      39.427  29.328  28.883  1.00  0.00     0.074 A 
ATOM     37  C   UNL A   1      38.436  30.721  30.655  1.00  0.00     0.049 A 
ATOM     38  N   UNL A   1      40.418  28.745  29.506  1.00  0.00    -0.248 NA
ATOM     39  C   UNL A   1      39.425  29.110  27.426  1.00  0.00     0.031 C 
ATOM     40  C   UNL A   1      37.492  31.645  31.284  1.00  0.00     0.029 A 
ATOM     41  N   UNL A   1      39.440  30.594  31.585  1.00  0.00    -0.354 N 
ATOM     42  C   UNL A   1      41.101  28.022  28.536  1.00  0.00     0.074 A 
ATOM     43  C   UNL A   1      40.427  28.254  27.278  1.00  0.00     0.031 C 
ATOM     44  C   UNL A   1      37.977  32.032  32.472  1.00  0.00     0.029 A 
ATOM     45  C   UNL A   1      39.197  31.284  32.748  1.00  0.00     0.049 A 
ATOM     46  H   UNL A   1      40.254  30.061  31.433  1.00  0.00     0.167 HD
ATOM     47  C   UNL A   1      42.187  27.228  28.695  1.00  0.00     0.037 A 
ATOM     48  C   UNL A   1      39.837  31.260  33.932  1.00  0.00     0.037 A 
ATOM     49  C   UNL A   1      42.888  27.073  29.942  1.00  0.00     0.049 A 
ATOM     50  C   UNL A   1      41.001  30.326  34.111  1.00  0.00     0.074 A 
ATOM     51  C   UNL A   1      43.987  26.282  30.225  1.00  0.00     0.029 A 
ATOM     52  N   UNL A   1      42.572  27.754  31.110  1.00  0.00    -0.354 N 
ATOM     53  N   UNL A   1      41.560  29.527  33.236  1.00  0.00    -0.248 NA
ATOM     54  C   UNL A   1      41.596  30.261  35.453  1.00  0.00     0.031 C 
ATOM     55  C   UNL A   1      44.318  26.462  31.572  1.00  0.00     0.029 A 
ATOM     56  C   UNL A   1      43.453  27.398  32.116  1.00  0.00     0.049 A 
ATOM     57  H   UNL A   1      41.831  28.394  31.208  1.00  0.00     0.167 HD
ATOM     58  C   UNL A   1      42.575  28.869  33.915  1.00  0.00     0.074 A 
ATOM     59  C   UNL A   1      42.566  29.375  35.272  1.00  0.00     0.031 C 
ATOM     60  C   UNL A   1      43.431  27.924  33.457  1.00  0.00     0.037 A 
BRANCH  47  61
ATOM     61  C   UNL A   1      42.661  26.435  27.513  1.00  0.00     0.064 A 
ATOM     62  C   UNL A   1      42.113  25.168  27.254  1.00  0.00     0.173 A 
ATOM     63  C   UNL A   1      43.686  26.888  26.672  1.00  0.00     0.173 A 
ATOM     64  F   UNL A   1      41.132  24.684  28.032  1.00  0.00    -0.203 F 
ATOM     65  C   UNL A   1      42.582  24.382  26.206  1.00  0.00     0.198 A 
ATOM     66  C   UNL A   1      44.134  26.110  25.605  1.00  0.00     0.198 A 
ATOM     67  F   UNL A   1      44.233  28.098  26.865  1.00  0.00    -0.203 F 
ATOM     68  F   UNL A   1      42.063  23.163  25.998  1.00  0.00    -0.200 F 
ATOM     69  C   UNL A   1      43.590  24.854  25.380  1.00  0.00     0.200 A 
ATOM     70  F   UNL A   1      45.091  26.579  24.792  1.00  0.00    -0.200 F 
ATOM     71  F   UNL A   1      44.033  24.102  24.363  1.00  0.00    -0.200 F 
ENDBRANCH  47  61
BRANCH  48  72
ATOM     72  C   UNL A   1      39.340  32.101  35.052  1.00  0.00     0.064 A 
ATOM     73  C   UNL A   1      39.708  33.450  35.176  1.00  0.00     0.173 A 
ATOM     74  C   UNL A   1      38.522  31.554  36.048  1.00  0.00     0.173 A 
ATOM     75  F   UNL A   1      40.488  34.022  34.247  1.00  0.00    -0.203 F 
ATOM     76  C   UNL A   1      39.309  34.208  36.274  1.00  0.00     0.198 A 
ATOM     77  C   UNL A   1      38.096  32.323  37.130  1.00  0.00     0.198 A 
ATOM     78  F   UNL A   1      38.120  30.278  35.960  1.00  0.00    -0.203 F 
ATOM     79  F   UNL A   1      39.719  35.478  36.394  1.00  0.00    -0.200 F 
ATOM     80  C   UNL A   1      38.501  33.644  37.249  1.00  0.00     0.200 A 
ATOM     81  F   UNL A   1      37.293  31.784  38.058  1.00  0.00    -0.200 F 
ATOM     82  F   UNL A   1      38.112  34.375  38.302  1.00  0.00    -0.200 F 
ENDBRANCH  48  72
BRANCH  60  83
ATOM     83  C   UNL A   1      44.452  27.395  34.417  1.00  0.00     0.064 A 
ATOM     84  C   UNL A   1      45.705  28.017  34.531  1.00  0.00     0.173 A 
ATOM     85  C   UNL A   1      44.220  26.232  35.164  1.00  0.00     0.173 A 
ATOM     86  F   UNL A   1      45.975  29.128  33.830  1.00  0.00    -0.203 F 
ATOM     87  C   UNL A   1      46.696  27.482  35.347  1.00  0.00     0.198 A 
ATOM     88  C   UNL A   1      45.205  25.714  35.998  1.00  0.00     0.198 A 
ATOM     89  F   UNL A   1      43.032  25.613  35.097  1.00  0.00    -0.203 F 
ATOM     90  F   UNL A   1      47.896  28.072  35.416  1.00  0.00    -0.200 F 
ATOM     91  C   UNL A   1      46.445  26.332  36.081  1.00  0.00     0.200 A 
ATOM     92  F   UNL A   1      44.955  24.616  36.725  1.00  0.00    -0.200 F 
ATOM     93  F   UNL A   1      47.398  25.820  36.873  1.00  0.00    -0.200 F 
ENDBRANCH  60  83
ENDBRANCH  34  35
ENDBRANCH  27  29
ENDBRANCH  26  27
ENDBRANCH  25  26
ENDBRANCH   1  25
TORSDOF 14
ENDMDL
