MODEL 1
REMARK VINA RESULT:     -13.1      0.000      0.000
REMARK SMILES O=C(CC1CCN(C(=O)[C@@H]2Cc3[nH]cnc3C[NH2+]2)CC1)OCCOC(=O)c1ccc(-c2c3nc(c(-c4c(F)c(F)c(F)c(F)c4F)c4ccc([nH]4)c(-c4c(F)c(F)c(F)c(F)c4F)c4nc(c(-c5c(F)c(F)c(F)c(F)c5F)c5ccc2[nH]5)C=C4)C=C3)cc1
REMARK SMILES IDX 22 1 21 2 2 3 1 4 3 5 4 6 5 7 20 8 6 9 19 10 7 11 8 12 9 13
REMARK SMILES IDX 10 14 11 15 18 16 12 17 17 18 13 21 16 22 14 23 15 25 23 26
REMARK SMILES IDX 24 27 25 28 26 29 27 30 28 31 89 32 29 33 88 34 30 35 31 36
REMARK SMILES IDX 32 37 82 38 33 39 87 40 81 41 83 42 34 43 86 44 80 45 79 46
REMARK SMILES IDX 35 48 67 49 47 50 66 51 48 52 51 53 65 54 84 55 49 56 50 57
REMARK SMILES IDX 64 59 85 60 52 61 36 62 37 63 45 64 38 65 39 66 43 67 46 68
REMARK SMILES IDX 40 69 41 70 44 71 42 72 68 73 69 74 77 75 70 76 71 77 75 78
REMARK SMILES IDX 78 79 72 80 73 81 76 82 74 83 53 84 54 85 62 86 55 87 56 88
REMARK SMILES IDX 60 89 63 90 57 91 58 92 61 93 59 94
REMARK H PARENT 18 19 18 20 13 24 83 47 51 58
REMARK Flexibility Score: inf
ROOT
ATOM      1  C   UNL A   1      37.012  21.667  25.075  1.00  0.00     0.274 C 
ENDROOT
BRANCH   1   2
ATOM      2  O   UNL A   1      36.049  20.699  25.524  1.00  0.00    -0.462 OA
BRANCH   2   3
ATOM      3  C   UNL A   1      34.758  20.577  25.150  1.00  0.00     0.306 C 
ATOM      4  O   UNL A   1      34.394  19.521  24.631  1.00  0.00    -0.252 OA
BRANCH   3   5
ATOM      5  C   UNL A   1      33.780  21.747  25.213  1.00  0.00     0.126 C 
BRANCH   5   6
ATOM      6  C   UNL A   1      33.971  22.828  26.299  1.00  0.00     0.003 C 
ATOM      7  C   UNL A   1      32.680  23.095  27.142  1.00  0.00     0.026 C 
ATOM      8  C   UNL A   1      34.400  24.185  25.723  1.00  0.00     0.026 C 
ATOM      9  C   UNL A   1      31.623  24.044  26.511  1.00  0.00     0.120 C 
ATOM     10  C   UNL A   1      33.270  24.804  24.933  1.00  0.00     0.120 C 
ATOM     11  N   UNL A   1      32.228  25.196  25.825  1.00  0.00    -0.338 N 
ATOM     12  C   UNL A   1      31.769  26.494  25.977  1.00  0.00     0.281 C 
ATOM     13  O   UNL A   1      30.777  26.710  26.686  1.00  0.00    -0.268 OA
BRANCH  12  14
ATOM     14  C   UNL A   1      32.465  27.733  25.276  1.00  0.00     0.279 C 
ATOM     15  C   UNL A   1      33.844  28.178  25.859  1.00  0.00     0.131 C 
ATOM     16  N   UNL A   1      31.512  28.798  24.858  1.00  0.00    -0.331 N 
ATOM     17  C   UNL A   1      33.767  29.553  26.415  1.00  0.00     0.050 A 
ATOM     18  C   UNL A   1      31.407  30.046  25.628  1.00  0.00     0.320 C 
ATOM     19  H   UNL A   1      30.583  28.376  24.858  1.00  0.00     0.347 HD
ATOM     20  H   UNL A   1      31.890  29.108  23.963  1.00  0.00     0.347 HD
ATOM     21  N   UNL A   1      34.703  30.267  27.112  1.00  0.00    -0.348 N 
ATOM     22  C   UNL A   1      32.664  30.370  26.358  1.00  0.00     0.116 A 
ATOM     23  C   UNL A   1      34.028  31.299  27.713  1.00  0.00     0.197 A 
ATOM     24  H   UNL A   1      35.667  30.078  27.171  1.00  0.00     0.167 HD
ATOM     25  N   UNL A   1      32.800  31.405  27.250  1.00  0.00    -0.236 NA
ENDBRANCH  12  14
ENDBRANCH   5   6
ENDBRANCH   3   5
ENDBRANCH   2   3
ENDBRANCH   1   2
BRANCH   1  26
ATOM     26  C   UNL A   1      38.397  21.427  25.657  1.00  0.00     0.275 C 
BRANCH  26  27
ATOM     27  O   UNL A   1      38.977  22.633  26.139  1.00  0.00    -0.458 OA
BRANCH  27  28
ATOM     28  C   UNL A   1      39.991  22.532  27.042  1.00  0.00     0.338 C 
ATOM     29  O   UNL A   1      40.375  21.540  27.610  1.00  0.00    -0.246 OA
BRANCH  28  30
ATOM     30  C   UNL A   1      40.464  23.911  27.308  1.00  0.00     0.060 A 
ATOM     31  C   UNL A   1      41.517  24.161  28.193  1.00  0.00     0.016 A 
ATOM     32  C   UNL A   1      39.741  24.975  26.773  1.00  0.00     0.016 A 
ATOM     33  C   UNL A   1      41.716  25.461  28.662  1.00  0.00     0.010 A 
ATOM     34  C   UNL A   1      39.993  26.254  27.179  1.00  0.00     0.010 A 
ATOM     35  C   UNL A   1      40.879  26.481  28.210  1.00  0.00    -0.014 A 
BRANCH  35  36
ATOM     36  C   UNL A   1      40.891  27.836  28.724  1.00  0.00     0.031 A 
ATOM     37  C   UNL A   1      41.954  28.688  28.148  1.00  0.00     0.074 A 
ATOM     38  C   UNL A   1      39.867  28.371  29.425  1.00  0.00     0.049 A 
ATOM     39  N   UNL A   1      43.045  29.046  28.733  1.00  0.00    -0.248 NA
ATOM     40  C   UNL A   1      41.886  29.064  26.727  1.00  0.00     0.031 C 
ATOM     41  C   UNL A   1      38.554  27.794  29.732  1.00  0.00     0.029 A 
ATOM     42  N   UNL A   1      39.780  29.617  29.970  1.00  0.00    -0.354 N 
ATOM     43  C   UNL A   1      43.705  29.864  27.826  1.00  0.00     0.074 A 
ATOM     44  C   UNL A   1      43.072  29.651  26.554  1.00  0.00     0.031 C 
ATOM     45  C   UNL A   1      37.751  28.747  30.269  1.00  0.00     0.029 A 
ATOM     46  C   UNL A   1      38.528  29.959  30.473  1.00  0.00     0.049 A 
ATOM     47  H   UNL A   1      40.548  30.233  30.005  1.00  0.00     0.167 HD
ATOM     48  C   UNL A   1      44.529  30.855  28.262  1.00  0.00     0.037 A 
ATOM     49  C   UNL A   1      38.173  31.159  31.006  1.00  0.00     0.037 A 
ATOM     50  C   UNL A   1      44.847  30.676  29.659  1.00  0.00     0.049 A 
ATOM     51  C   UNL A   1      39.426  31.853  31.401  1.00  0.00     0.074 A 
ATOM     52  C   UNL A   1      45.430  29.661  30.394  1.00  0.00     0.029 A 
ATOM     53  N   UNL A   1      44.177  31.455  30.572  1.00  0.00    -0.354 N 
ATOM     54  N   UNL A   1      40.200  31.455  32.371  1.00  0.00    -0.248 NA
ATOM     55  C   UNL A   1      40.052  32.724  30.418  1.00  0.00     0.031 C 
ATOM     56  C   UNL A   1      44.679  29.605  31.607  1.00  0.00     0.029 A 
ATOM     57  C   UNL A   1      43.738  30.635  31.579  1.00  0.00     0.049 A 
ATOM     58  H   UNL A   1      44.037  32.428  30.512  1.00  0.00     0.167 HD
ATOM     59  C   UNL A   1      41.486  31.645  31.892  1.00  0.00     0.074 A 
ATOM     60  C   UNL A   1      41.335  32.510  30.724  1.00  0.00     0.031 C 
ATOM     61  C   UNL A   1      42.513  30.850  32.313  1.00  0.00     0.037 A 
BRANCH  48  62
ATOM     62  C   UNL A   1      44.731  32.171  27.554  1.00  0.00     0.064 A 
ATOM     63  C   UNL A   1      45.948  32.395  26.883  1.00  0.00     0.173 A 
ATOM     64  C   UNL A   1      43.921  33.313  27.740  1.00  0.00     0.173 A 
ATOM     65  F   UNL A   1      46.808  31.386  26.672  1.00  0.00    -0.203 F 
ATOM     66  C   UNL A   1      46.357  33.676  26.502  1.00  0.00     0.198 A 
ATOM     67  C   UNL A   1      44.304  34.580  27.303  1.00  0.00     0.198 A 
ATOM     68  F   UNL A   1      42.789  33.283  28.452  1.00  0.00    -0.203 F 
ATOM     69  F   UNL A   1      47.581  33.856  25.992  1.00  0.00    -0.200 F 
ATOM     70  C   UNL A   1      45.536  34.767  26.715  1.00  0.00     0.200 A 
ATOM     71  F   UNL A   1      43.504  35.627  27.542  1.00  0.00    -0.200 F 
ATOM     72  F   UNL A   1      45.950  36.002  26.409  1.00  0.00    -0.200 F 
ENDBRANCH  48  62
BRANCH  49  73
ATOM     73  C   UNL A   1      36.877  31.881  30.959  1.00  0.00     0.064 A 
ATOM     74  C   UNL A   1      36.057  31.991  32.099  1.00  0.00     0.173 A 
ATOM     75  C   UNL A   1      36.572  32.743  29.890  1.00  0.00     0.173 A 
ATOM     76  F   UNL A   1      36.305  31.240  33.182  1.00  0.00    -0.203 F 
ATOM     77  C   UNL A   1      35.022  32.930  32.176  1.00  0.00     0.198 A 
ATOM     78  C   UNL A   1      35.537  33.678  29.966  1.00  0.00     0.198 A 
ATOM     79  F   UNL A   1      37.342  32.766  28.792  1.00  0.00    -0.203 F 
ATOM     80  F   UNL A   1      34.310  33.052  33.305  1.00  0.00    -0.200 F 
ATOM     81  C   UNL A   1      34.771  33.782  31.114  1.00  0.00     0.200 A 
ATOM     82  F   UNL A   1      35.332  34.526  28.948  1.00  0.00    -0.200 F 
ATOM     83  F   UNL A   1      33.829  34.732  31.213  1.00  0.00    -0.200 F 
ENDBRANCH  49  73
BRANCH  61  84
ATOM     84  C   UNL A   1      42.272  29.971  33.511  1.00  0.00     0.064 A 
ATOM     85  C   UNL A   1      41.793  28.650  33.445  1.00  0.00     0.173 A 
ATOM     86  C   UNL A   1      42.671  30.447  34.768  1.00  0.00     0.173 A 
ATOM     87  F   UNL A   1      41.482  28.084  32.273  1.00  0.00    -0.203 F 
ATOM     88  C   UNL A   1      41.681  27.863  34.591  1.00  0.00     0.198 A 
ATOM     89  C   UNL A   1      42.594  29.646  35.903  1.00  0.00     0.198 A 
ATOM     90  F   UNL A   1      43.182  31.682  34.885  1.00  0.00    -0.203 F 
ATOM     91  F   UNL A   1      41.207  26.610  34.503  1.00  0.00    -0.200 F 
ATOM     92  C   UNL A   1      42.088  28.360  35.818  1.00  0.00     0.200 A 
ATOM     93  F   UNL A   1      43.035  30.115  37.078  1.00  0.00    -0.200 F 
ATOM     94  F   UNL A   1      42.018  27.590  36.913  1.00  0.00    -0.200 F 
ENDBRANCH  61  84
ENDBRANCH  35  36
ENDBRANCH  28  30
ENDBRANCH  27  28
ENDBRANCH  26  27
ENDBRANCH   1  26
TORSDOF 13
ENDMDL
MODEL 2
REMARK VINA RESULT:     -13.1      3.194      9.074
REMARK SMILES O=C(CC1CCN(C(=O)[C@@H]2Cc3[nH]cnc3C[NH2+]2)CC1)OCCOC(=O)c1ccc(-c2c3nc(c(-c4c(F)c(F)c(F)c(F)c4F)c4ccc([nH]4)c(-c4c(F)c(F)c(F)c(F)c4F)c4nc(c(-c5c(F)c(F)c(F)c(F)c5F)c5ccc2[nH]5)C=C4)C=C3)cc1
REMARK SMILES IDX 22 1 21 2 2 3 1 4 3 5 4 6 5 7 20 8 6 9 19 10 7 11 8 12 9 13
REMARK SMILES IDX 10 14 11 15 18 16 12 17 17 18 13 21 16 22 14 23 15 25 23 26
REMARK SMILES IDX 24 27 25 28 26 29 27 30 28 31 89 32 29 33 88 34 30 35 31 36
REMARK SMILES IDX 32 37 82 38 33 39 87 40 81 41 83 42 34 43 86 44 80 45 79 46
REMARK SMILES IDX 35 48 67 49 47 50 66 51 48 52 51 53 65 54 84 55 49 56 50 57
REMARK SMILES IDX 64 59 85 60 52 61 36 62 37 63 45 64 38 65 39 66 43 67 46 68
REMARK SMILES IDX 40 69 41 70 44 71 42 72 68 73 69 74 77 75 70 76 71 77 75 78
REMARK SMILES IDX 78 79 72 80 73 81 76 82 74 83 53 84 54 85 62 86 55 87 56 88
REMARK SMILES IDX 60 89 63 90 57 91 58 92 61 93 59 94
REMARK H PARENT 18 19 18 20 13 24 83 47 51 58
REMARK Flexibility Score: inf
ROOT
ATOM      1  C   UNL A   1      32.043  30.453  26.841  1.00  0.00     0.274 C 
ENDROOT
BRANCH   1   2
ATOM      2  O   UNL A   1      31.462  29.440  26.004  1.00  0.00    -0.462 OA
BRANCH   2   3
ATOM      3  C   UNL A   1      31.151  29.522  24.693  1.00  0.00     0.306 C 
ATOM      4  O   UNL A   1      30.297  30.336  24.341  1.00  0.00    -0.252 OA
BRANCH   3   5
ATOM      5  C   UNL A   1      31.711  28.545  23.663  1.00  0.00     0.126 C 
BRANCH   5   6
ATOM      6  C   UNL A   1      33.225  28.240  23.661  1.00  0.00     0.003 C 
ATOM      7  C   UNL A   1      33.715  27.538  22.352  1.00  0.00     0.026 C 
ATOM      8  C   UNL A   1      33.654  27.335  24.824  1.00  0.00     0.026 C 
ATOM      9  C   UNL A   1      33.498  26.001  22.265  1.00  0.00     0.120 C 
ATOM     10  C   UNL A   1      33.106  25.939  24.636  1.00  0.00     0.120 C 
ATOM     11  N   UNL A   1      33.767  25.315  23.538  1.00  0.00    -0.338 N 
ATOM     12  C   UNL A   1      34.511  24.149  23.626  1.00  0.00     0.281 C 
ATOM     13  O   UNL A   1      34.942  23.621  22.592  1.00  0.00    -0.268 OA
BRANCH  12  14
ATOM     14  C   UNL A   1      34.842  23.450  25.009  1.00  0.00     0.279 C 
ATOM     15  C   UNL A   1      36.128  23.942  25.747  1.00  0.00     0.131 C 
ATOM     16  N   UNL A   1      34.544  21.991  25.029  1.00  0.00    -0.331 N 
ATOM     17  C   UNL A   1      37.123  22.846  25.867  1.00  0.00     0.050 A 
ATOM     18  C   UNL A   1      35.636  21.010  24.948  1.00  0.00     0.320 C 
ATOM     19  H   UNL A   1      33.926  21.807  24.238  1.00  0.00     0.347 HD
ATOM     20  H   UNL A   1      34.170  21.845  25.966  1.00  0.00     0.347 HD
ATOM     21  N   UNL A   1      38.408  22.881  26.334  1.00  0.00    -0.348 N 
ATOM     22  C   UNL A   1      36.925  21.549  25.465  1.00  0.00     0.116 A 
ATOM     23  C   UNL A   1      39.009  21.731  25.891  1.00  0.00     0.197 A 
ATOM     24  H   UNL A   1      38.819  23.590  26.881  1.00  0.00     0.167 HD
ATOM     25  N   UNL A   1      38.128  20.891  25.388  1.00  0.00    -0.236 NA
ENDBRANCH  12  14
ENDBRANCH   5   6
ENDBRANCH   3   5
ENDBRANCH   2   3
ENDBRANCH   1   2
BRANCH   1  26
ATOM     26  C   UNL A   1      33.539  30.611  26.615  1.00  0.00     0.275 C 
BRANCH  26  27
ATOM     27  O   UNL A   1      34.243  30.723  27.846  1.00  0.00    -0.458 OA
BRANCH  27  28
ATOM     28  C   UNL A   1      35.149  31.732  27.967  1.00  0.00     0.338 C 
ATOM     29  O   UNL A   1      35.061  32.857  27.543  1.00  0.00    -0.246 OA
BRANCH  28  30
ATOM     30  C   UNL A   1      36.349  31.152  28.616  1.00  0.00     0.060 A 
ATOM     31  C   UNL A   1      37.469  31.937  28.910  1.00  0.00     0.016 A 
ATOM     32  C   UNL A   1      36.404  29.772  28.795  1.00  0.00     0.016 A 
ATOM     33  C   UNL A   1      38.679  31.308  29.212  1.00  0.00     0.010 A 
ATOM     34  C   UNL A   1      37.572  29.170  29.165  1.00  0.00     0.010 A 
ATOM     35  C   UNL A   1      38.729  29.914  29.243  1.00  0.00    -0.014 A 
BRANCH  35  36
ATOM     36  C   UNL A   1      39.948  29.145  29.403  1.00  0.00     0.031 A 
ATOM     37  C   UNL A   1      40.304  28.869  30.812  1.00  0.00     0.074 A 
ATOM     38  C   UNL A   1      40.543  28.483  28.387  1.00  0.00     0.049 A 
ATOM     39  N   UNL A   1      41.235  29.446  31.491  1.00  0.00    -0.248 NA
ATOM     40  C   UNL A   1      39.451  27.973  31.609  1.00  0.00     0.031 C 
ATOM     41  C   UNL A   1      40.091  28.311  27.002  1.00  0.00     0.029 A 
ATOM     42  N   UNL A   1      41.693  27.751  28.419  1.00  0.00    -0.354 N 
ATOM     43  C   UNL A   1      41.221  28.838  32.738  1.00  0.00     0.074 A 
ATOM     44  C   UNL A   1      39.977  28.124  32.826  1.00  0.00     0.031 C 
ATOM     45  C   UNL A   1      40.875  27.398  26.376  1.00  0.00     0.029 A 
ATOM     46  C   UNL A   1      41.965  27.023  27.264  1.00  0.00     0.049 A 
ATOM     47  H   UNL A   1      42.288  27.738  29.203  1.00  0.00     0.167 HD
ATOM     48  C   UNL A   1      42.360  28.746  33.475  1.00  0.00     0.037 A 
ATOM     49  C   UNL A   1      43.010  26.174  27.073  1.00  0.00     0.037 A 
ATOM     50  C   UNL A   1      43.379  29.626  32.951  1.00  0.00     0.049 A 
ATOM     51  C   UNL A   1      44.045  26.517  28.082  1.00  0.00     0.074 A 
ATOM     52  C   UNL A   1      43.455  30.987  32.723  1.00  0.00     0.029 A 
ATOM     53  N   UNL A   1      44.372  29.067  32.182  1.00  0.00    -0.354 N 
ATOM     54  N   UNL A   1      44.723  27.630  28.076  1.00  0.00    -0.248 NA
ATOM     55  C   UNL A   1      43.998  25.820  29.359  1.00  0.00     0.031 C 
ATOM     56  C   UNL A   1      44.142  31.116  31.478  1.00  0.00     0.029 A 
ATOM     57  C   UNL A   1      44.515  29.838  31.058  1.00  0.00     0.049 A 
ATOM     58  H   UNL A   1      44.887  28.256  32.400  1.00  0.00     0.167 HD
ATOM     59  C   UNL A   1      44.803  27.998  29.409  1.00  0.00     0.074 A 
ATOM     60  C   UNL A   1      44.418  26.804  30.159  1.00  0.00     0.031 C 
ATOM     61  C   UNL A   1      44.890  29.312  29.766  1.00  0.00     0.037 A 
BRANCH  48  62
ATOM     62  C   UNL A   1      42.686  27.607  34.408  1.00  0.00     0.064 A 
ATOM     63  C   UNL A   1      43.181  26.408  33.861  1.00  0.00     0.173 A 
ATOM     64  C   UNL A   1      42.272  27.534  35.756  1.00  0.00     0.173 A 
ATOM     65  F   UNL A   1      43.579  26.356  32.580  1.00  0.00    -0.203 F 
ATOM     66  C   UNL A   1      43.185  25.213  34.583  1.00  0.00     0.198 A 
ATOM     67  C   UNL A   1      42.336  26.353  36.494  1.00  0.00     0.198 A 
ATOM     68  F   UNL A   1      41.681  28.557  36.383  1.00  0.00    -0.203 F 
ATOM     69  F   UNL A   1      43.536  24.072  33.976  1.00  0.00    -0.200 F 
ATOM     70  C   UNL A   1      42.760  25.186  35.898  1.00  0.00     0.200 A 
ATOM     71  F   UNL A   1      41.896  26.344  37.760  1.00  0.00    -0.200 F 
ATOM     72  F   UNL A   1      42.704  24.031  36.573  1.00  0.00    -0.200 F 
ENDBRANCH  48  62
BRANCH  49  73
ATOM     73  C   UNL A   1      43.091  24.918  26.285  1.00  0.00     0.064 A 
ATOM     74  C   UNL A   1      44.058  24.749  25.275  1.00  0.00     0.173 A 
ATOM     75  C   UNL A   1      42.436  23.753  26.720  1.00  0.00     0.173 A 
ATOM     76  F   UNL A   1      44.764  25.800  24.833  1.00  0.00    -0.203 F 
ATOM     77  C   UNL A   1      44.374  23.485  24.761  1.00  0.00     0.198 A 
ATOM     78  C   UNL A   1      42.750  22.492  26.204  1.00  0.00     0.198 A 
ATOM     79  F   UNL A   1      41.555  23.802  27.730  1.00  0.00    -0.203 F 
ATOM     80  F   UNL A   1      45.351  23.357  23.852  1.00  0.00    -0.200 F 
ATOM     81  C   UNL A   1      43.729  22.357  25.236  1.00  0.00     0.200 A 
ATOM     82  F   UNL A   1      42.149  21.403  26.704  1.00  0.00    -0.200 F 
ATOM     83  F   UNL A   1      44.081  21.138  24.799  1.00  0.00    -0.200 F 
ENDBRANCH  49  73
BRANCH  61  84
ATOM     84  C   UNL A   1      45.191  30.314  28.683  1.00  0.00     0.064 A 
ATOM     85  C   UNL A   1      44.218  30.917  27.865  1.00  0.00     0.173 A 
ATOM     86  C   UNL A   1      46.508  30.778  28.562  1.00  0.00     0.173 A 
ATOM     87  F   UNL A   1      42.922  30.603  27.983  1.00  0.00    -0.203 F 
ATOM     88  C   UNL A   1      44.560  31.906  26.942  1.00  0.00     0.198 A 
ATOM     89  C   UNL A   1      46.840  31.792  27.668  1.00  0.00     0.198 A 
ATOM     90  F   UNL A   1      47.470  30.276  29.350  1.00  0.00    -0.203 F 
ATOM     91  F   UNL A   1      43.615  32.455  26.164  1.00  0.00    -0.200 F 
ATOM     92  C   UNL A   1      45.869  32.347  26.850  1.00  0.00     0.200 A 
ATOM     93  F   UNL A   1      48.098  32.248  27.619  1.00  0.00    -0.200 F 
ATOM     94  F   UNL A   1      46.192  33.326  25.993  1.00  0.00    -0.200 F 
ENDBRANCH  61  84
ENDBRANCH  35  36
ENDBRANCH  28  30
ENDBRANCH  27  28
ENDBRANCH  26  27
ENDBRANCH   1  26
TORSDOF 13
ENDMDL
MODEL 3
REMARK VINA RESULT:     -12.8      1.508      2.045
REMARK SMILES O=C(CC1CCN(C(=O)[C@@H]2Cc3[nH]cnc3C[NH2+]2)CC1)OCCOC(=O)c1ccc(-c2c3nc(c(-c4c(F)c(F)c(F)c(F)c4F)c4ccc([nH]4)c(-c4c(F)c(F)c(F)c(F)c4F)c4nc(c(-c5c(F)c(F)c(F)c(F)c5F)c5ccc2[nH]5)C=C4)C=C3)cc1
REMARK SMILES IDX 22 1 21 2 2 3 1 4 3 5 4 6 5 7 20 8 6 9 19 10 7 11 8 12 9 13
REMARK SMILES IDX 10 14 11 15 18 16 12 17 17 18 13 21 16 22 14 23 15 25 23 26
REMARK SMILES IDX 24 27 25 28 26 29 27 30 28 31 89 32 29 33 88 34 30 35 31 36
REMARK SMILES IDX 32 37 82 38 33 39 87 40 81 41 83 42 34 43 86 44 80 45 79 46
REMARK SMILES IDX 35 48 67 49 47 50 66 51 48 52 51 53 65 54 84 55 49 56 50 57
REMARK SMILES IDX 64 59 85 60 52 61 36 62 37 63 45 64 38 65 39 66 43 67 46 68
REMARK SMILES IDX 40 69 41 70 44 71 42 72 68 73 69 74 77 75 70 76 71 77 75 78
REMARK SMILES IDX 78 79 72 80 73 81 76 82 74 83 53 84 54 85 62 86 55 87 56 88
REMARK SMILES IDX 60 89 63 90 57 91 58 92 61 93 59 94
REMARK H PARENT 18 19 18 20 13 24 83 47 51 58
REMARK Flexibility Score: inf
ROOT
ATOM      1  C   UNL A   1      37.368  22.877  25.125  1.00  0.00     0.274 C 
ENDROOT
BRANCH   1   2
ATOM      2  O   UNL A   1      36.021  22.725  25.599  1.00  0.00    -0.462 OA
BRANCH   2   3
ATOM      3  C   UNL A   1      34.950  22.256  24.924  1.00  0.00     0.306 C 
ATOM      4  O   UNL A   1      34.929  21.066  24.607  1.00  0.00    -0.252 OA
BRANCH   3   5
ATOM      5  C   UNL A   1      33.844  23.177  24.416  1.00  0.00     0.126 C 
BRANCH   5   6
ATOM      6  C   UNL A   1      34.184  24.648  24.088  1.00  0.00     0.003 C 
ATOM      7  C   UNL A   1      34.062  25.602  25.322  1.00  0.00     0.026 C 
ATOM      8  C   UNL A   1      33.285  25.240  22.994  1.00  0.00     0.026 C 
ATOM      9  C   UNL A   1      32.634  26.105  25.673  1.00  0.00     0.120 C 
ATOM     10  C   UNL A   1      31.872  25.405  23.503  1.00  0.00     0.120 C 
ATOM     11  N   UNL A   1      31.839  26.441  24.482  1.00  0.00    -0.338 N 
ATOM     12  C   UNL A   1      31.085  27.599  24.377  1.00  0.00     0.281 C 
ATOM     13  O   UNL A   1      31.031  28.379  25.337  1.00  0.00    -0.268 OA
BRANCH  12  14
ATOM     14  C   UNL A   1      30.279  27.978  23.067  1.00  0.00     0.279 C 
ATOM     15  C   UNL A   1      30.666  29.325  22.377  1.00  0.00     0.131 C 
ATOM     16  N   UNL A   1      28.836  27.617  23.126  1.00  0.00    -0.331 N 
ATOM     17  C   UNL A   1      29.525  30.276  22.391  1.00  0.00     0.050 A 
ATOM     18  C   UNL A   1      27.819  28.657  23.339  1.00  0.00     0.320 C 
ATOM     19  H   UNL A   1      28.733  26.947  23.889  1.00  0.00     0.347 HD
ATOM     20  H   UNL A   1      28.640  27.291  22.180  1.00  0.00     0.347 HD
ATOM     21  N   UNL A   1      29.475  31.586  22.001  1.00  0.00    -0.348 N 
ATOM     22  C   UNL A   1      28.267  29.996  22.867  1.00  0.00     0.116 A 
ATOM     23  C   UNL A   1      28.334  32.108  22.556  1.00  0.00     0.197 A 
ATOM     24  H   UNL A   1      30.127  32.059  21.434  1.00  0.00     0.167 HD
ATOM     25  N   UNL A   1      27.568  31.163  23.059  1.00  0.00    -0.236 NA
ENDBRANCH  12  14
ENDBRANCH   5   6
ENDBRANCH   3   5
ENDBRANCH   2   3
ENDBRANCH   1   2
BRANCH   1  26
ATOM     26  C   UNL A   1      38.349  21.963  25.844  1.00  0.00     0.275 C 
BRANCH  26  27
ATOM     27  O   UNL A   1      39.132  22.680  26.790  1.00  0.00    -0.458 OA
BRANCH  27  28
ATOM     28  C   UNL A   1      40.474  22.758  26.572  1.00  0.00     0.338 C 
ATOM     29  O   UNL A   1      41.217  21.873  26.227  1.00  0.00    -0.246 OA
BRANCH  28  30
ATOM     30  C   UNL A   1      40.892  24.123  26.969  1.00  0.00     0.060 A 
ATOM     31  C   UNL A   1      41.719  24.338  28.076  1.00  0.00     0.016 A 
ATOM     32  C   UNL A   1      40.324  25.210  26.307  1.00  0.00     0.016 A 
ATOM     33  C   UNL A   1      41.823  25.625  28.607  1.00  0.00     0.010 A 
ATOM     34  C   UNL A   1      40.493  26.476  26.789  1.00  0.00     0.010 A 
ATOM     35  C   UNL A   1      41.124  26.668  27.999  1.00  0.00    -0.014 A 
BRANCH  35  36
ATOM     36  C   UNL A   1      41.036  28.013  28.533  1.00  0.00     0.031 A 
ATOM     37  C   UNL A   1      42.078  28.931  28.023  1.00  0.00     0.074 A 
ATOM     38  C   UNL A   1      39.951  28.479  29.188  1.00  0.00     0.049 A 
ATOM     39  N   UNL A   1      43.118  29.337  28.667  1.00  0.00    -0.248 NA
ATOM     40  C   UNL A   1      42.060  29.327  26.606  1.00  0.00     0.031 C 
ATOM     41  C   UNL A   1      38.657  27.827  29.420  1.00  0.00     0.029 A 
ATOM     42  N   UNL A   1      39.769  29.710  29.746  1.00  0.00    -0.354 N 
ATOM     43  C   UNL A   1      43.776  30.205  27.807  1.00  0.00     0.074 A 
ATOM     44  C   UNL A   1      43.219  29.980  26.501  1.00  0.00     0.031 C 
ATOM     45  C   UNL A   1      37.778  28.726  29.929  1.00  0.00     0.029 A 
ATOM     46  C   UNL A   1      38.476  29.975  30.190  1.00  0.00     0.049 A 
ATOM     47  H   UNL A   1      40.499  30.365  29.828  1.00  0.00     0.167 HD
ATOM     48  C   UNL A   1      44.521  31.231  28.297  1.00  0.00     0.037 A 
ATOM     49  C   UNL A   1      38.030  31.145  30.721  1.00  0.00     0.037 A 
ATOM     50  C   UNL A   1      44.780  31.046  29.706  1.00  0.00     0.049 A 
ATOM     51  C   UNL A   1      39.222  31.898  31.189  1.00  0.00     0.074 A 
ATOM     52  C   UNL A   1      45.380  30.051  30.455  1.00  0.00     0.029 A 
ATOM     53  N   UNL A   1      44.023  31.772  30.595  1.00  0.00    -0.354 N 
ATOM     54  N   UNL A   1      39.968  31.526  32.191  1.00  0.00    -0.248 NA
ATOM     55  C   UNL A   1      39.847  32.819  30.251  1.00  0.00     0.031 C 
ATOM     56  C   UNL A   1      44.573  29.934  31.628  1.00  0.00     0.029 A 
ATOM     57  C   UNL A   1      43.580  30.912  31.567  1.00  0.00     0.049 A 
ATOM     58  H   UNL A   1      43.833  32.737  30.543  1.00  0.00     0.167 HD
ATOM     59  C   UNL A   1      41.263  31.794  31.781  1.00  0.00     0.074 A 
ATOM     60  C   UNL A   1      41.123  32.669  30.619  1.00  0.00     0.031 C 
ATOM     61  C   UNL A   1      42.310  31.049  32.241  1.00  0.00     0.037 A 
BRANCH  48  62
ATOM     62  C   UNL A   1      44.686  32.569  27.620  1.00  0.00     0.064 A 
ATOM     63  C   UNL A   1      45.842  32.795  26.849  1.00  0.00     0.173 A 
ATOM     64  C   UNL A   1      43.920  33.717  27.919  1.00  0.00     0.173 A 
ATOM     65  F   UNL A   1      46.657  31.779  26.526  1.00  0.00    -0.203 F 
ATOM     66  C   UNL A   1      46.241  34.081  26.476  1.00  0.00     0.198 A 
ATOM     67  C   UNL A   1      44.289  34.992  27.492  1.00  0.00     0.198 A 
ATOM     68  F   UNL A   1      42.857  33.681  28.729  1.00  0.00    -0.203 F 
ATOM     69  F   UNL A   1      47.418  34.258  25.863  1.00  0.00    -0.200 F 
ATOM     70  C   UNL A   1      45.466  35.179  26.801  1.00  0.00     0.200 A 
ATOM     71  F   UNL A   1      43.535  36.044  27.839  1.00  0.00    -0.200 F 
ATOM     72  F   UNL A   1      45.876  36.417  26.500  1.00  0.00    -0.200 F 
ENDBRANCH  48  62
BRANCH  49  73
ATOM     73  C   UNL A   1      36.700  31.797  30.619  1.00  0.00     0.064 A 
ATOM     74  C   UNL A   1      35.879  31.967  31.750  1.00  0.00     0.173 A 
ATOM     75  C   UNL A   1      36.351  32.545  29.480  1.00  0.00     0.173 A 
ATOM     76  F   UNL A   1      36.165  31.327  32.894  1.00  0.00    -0.203 F 
ATOM     77  C   UNL A   1      34.799  32.858  31.751  1.00  0.00     0.198 A 
ATOM     78  C   UNL A   1      35.272  33.432  29.481  1.00  0.00     0.198 A 
ATOM     79  F   UNL A   1      37.117  32.508  28.379  1.00  0.00    -0.203 F 
ATOM     80  F   UNL A   1      34.084  33.045  32.870  1.00  0.00    -0.200 F 
ATOM     81  C   UNL A   1      34.505  33.600  30.620  1.00  0.00     0.200 A 
ATOM     82  F   UNL A   1      35.025  34.176  28.393  1.00  0.00    -0.200 F 
ATOM     83  F   UNL A   1      33.518  34.508  30.640  1.00  0.00    -0.200 F 
ENDBRANCH  49  73
BRANCH  61  84
ATOM     84  C   UNL A   1      42.058  30.137  33.413  1.00  0.00     0.064 A 
ATOM     85  C   UNL A   1      41.662  28.792  33.304  1.00  0.00     0.173 A 
ATOM     86  C   UNL A   1      42.362  30.614  34.695  1.00  0.00     0.173 A 
ATOM     87  F   UNL A   1      41.446  28.228  32.109  1.00  0.00    -0.203 F 
ATOM     88  C   UNL A   1      41.535  27.981  34.432  1.00  0.00     0.198 A 
ATOM     89  C   UNL A   1      42.273  29.792  35.815  1.00  0.00     0.198 A 
ATOM     90  F   UNL A   1      42.793  31.875  34.856  1.00  0.00    -0.203 F 
ATOM     91  F   UNL A   1      41.141  26.705  34.301  1.00  0.00    -0.200 F 
ATOM     92  C   UNL A   1      41.848  28.480  35.685  1.00  0.00     0.200 A 
ATOM     93  F   UNL A   1      42.624  30.267  37.017  1.00  0.00    -0.200 F 
ATOM     94  F   UNL A   1      41.766  27.690  36.764  1.00  0.00    -0.200 F 
ENDBRANCH  61  84
ENDBRANCH  35  36
ENDBRANCH  28  30
ENDBRANCH  27  28
ENDBRANCH  26  27
ENDBRANCH   1  26
TORSDOF 13
ENDMDL
