MODEL 1
REMARK VINA RESULT:     -13.8      0.000      0.000
REMARK SMILES Cc1nn(Cc2ccc(Cl)cc2Cl)c(C)c1NC(=O)c1c(C(=O)OCCOC(=O)c2ccc(-c3c4nc(c(-c5c(F)c(F)c(F)c(F)c5F)c5ccc([nH]5)c(-c5c(F)c(F)c(F)c(F)c5F)c5nc(c(-c6c(F)c(F)c(F)c(F)c6F)c6ccc3[nH]6)C=C5)C=C4)cc2)cnn1C
REMARK SMILES IDX 25 1 24 2 22 3 23 4 21 5 20 6 95 7 93 8 94 9 96 10 18 11
REMARK SMILES IDX 17 12 19 14 16 15 1 16 2 17 3 18 4 19 14 20 15 21 5 22 6 23
REMARK SMILES IDX 7 24 12 25 8 26 11 27 13 28 9 29 10 30 26 31 27 32 28 33
REMARK SMILES IDX 29 34 30 35 31 36 92 37 32 38 91 39 33 40 34 41 35 42 85 43
REMARK SMILES IDX 36 44 90 45 84 46 86 47 37 48 89 49 83 50 82 51 38 53 70 54
REMARK SMILES IDX 50 55 69 56 51 57 54 58 68 59 87 60 52 61 53 62 67 64 88 65
REMARK SMILES IDX 55 66 39 67 40 68 48 69 41 70 42 71 46 72 49 73 43 74 44 75
REMARK SMILES IDX 47 76 45 77 71 78 72 79 80 80 73 81 74 82 78 83 81 84 75 85
REMARK SMILES IDX 76 86 79 87 77 88 56 89 57 90 65 91 58 92 59 93 63 94 66 95
REMARK SMILES IDX 60 96 61 97 64 98 62 99
REMARK H PARENT 17 13 86 52 54 63
REMARK Flexibility Score: inf
ROOT
ATOM      1  C   UNL A   1      33.700  30.521  27.117  1.00  0.00     0.275 C 
ENDROOT
BRANCH   1   2
ATOM      2  O   UNL A   1      33.266  30.168  25.793  1.00  0.00    -0.458 OA
BRANCH   2   3
ATOM      3  C   UNL A   1      31.934  29.908  25.699  1.00  0.00     0.342 C 
ATOM      4  O   UNL A   1      31.074  30.774  25.594  1.00  0.00    -0.246 OA
BRANCH   3   5
ATOM      5  C   UNL A   1      31.570  28.524  25.901  1.00  0.00     0.111 A 
ATOM      6  C   UNL A   1      30.816  27.628  25.144  1.00  0.00     0.140 A 
ATOM      7  N   UNL A   1      30.497  26.630  26.044  1.00  0.00    -0.262 N 
ATOM      8  C   UNL A   1      31.862  27.822  27.092  1.00  0.00     0.151 A 
ATOM      9  N   UNL A   1      31.273  26.631  27.145  1.00  0.00    -0.180 NA
ATOM     10  C   UNL A   1      29.483  25.607  25.927  1.00  0.00     0.174 C 
BRANCH   6  11
ATOM     11  C   UNL A   1      30.271  27.677  23.812  1.00  0.00     0.274 C 
ATOM     12  N   UNL A   1      30.881  27.024  22.767  1.00  0.00    -0.317 N 
ATOM     13  H   UNL A   1      30.530  27.268  21.880  1.00  0.00     0.170 HD
ATOM     14  O   UNL A   1      29.236  28.297  23.554  1.00  0.00    -0.267 OA
BRANCH  12  15
ATOM     15  C   UNL A   1      31.894  26.091  22.734  1.00  0.00     0.085 A 
ATOM     16  C   UNL A   1      33.825  27.476  21.679  1.00  0.00     0.071 C 
ATOM     17  C   UNL A   1      33.216  26.298  22.271  1.00  0.00     0.083 A 
ATOM     18  N   UNL A   1      33.992  25.238  22.436  1.00  0.00    -0.175 NA
ATOM     19  N   UNL A   1      33.141  24.291  22.843  1.00  0.00    -0.263 N 
ATOM     20  C   UNL A   1      31.843  24.735  22.971  1.00  0.00     0.060 A 
ATOM     21  C   UNL A   1      30.687  23.830  23.149  1.00  0.00     0.069 C 
BRANCH  19  22
ATOM     22  C   UNL A   1      33.680  22.940  22.926  1.00  0.00     0.181 C 
BRANCH  22  23
ATOM     23  C   UNL A   1      34.923  22.945  23.784  1.00  0.00    -0.008 A 
ATOM     24  C   UNL A   1      36.178  22.707  23.181  1.00  0.00     0.009 A 
ATOM     25  C   UNL A   1      34.862  23.067  25.177  1.00  0.00     0.047 A 
ATOM     26  C   UNL A   1      37.321  22.524  23.958  1.00  0.00     0.021 A 
ATOM     27  C   UNL A   1      36.000  22.859  25.955  1.00  0.00     0.041 A 
ATOM     28  Cl  UNL A   1      33.396  23.464  26.002  1.00  0.00    -0.084 Cl
ATOM     29  C   UNL A   1      37.220  22.577  25.344  1.00  0.00     0.042 A 
ATOM     30  Cl  UNL A   1      38.609  22.289  26.315  1.00  0.00    -0.084 Cl
ENDBRANCH  22  23
ENDBRANCH  19  22
ENDBRANCH  12  15
ENDBRANCH   6  11
ENDBRANCH   3   5
ENDBRANCH   2   3
ENDBRANCH   1   2
BRANCH   1  31
ATOM     31  C   UNL A   1      34.967  29.770  27.475  1.00  0.00     0.275 C 
BRANCH  31  32
ATOM     32  O   UNL A   1      36.080  30.504  28.046  1.00  0.00    -0.458 OA
BRANCH  32  33
ATOM     33  C   UNL A   1      36.868  29.992  29.032  1.00  0.00     0.338 C 
ATOM     34  O   UNL A   1      36.929  30.346  30.182  1.00  0.00    -0.246 OA
BRANCH  33  35
ATOM     35  C   UNL A   1      37.899  29.111  28.390  1.00  0.00     0.060 A 
ATOM     36  C   UNL A   1      38.149  27.883  29.010  1.00  0.00     0.016 A 
ATOM     37  C   UNL A   1      38.835  29.637  27.490  1.00  0.00     0.016 A 
ATOM     38  C   UNL A   1      39.439  27.354  28.982  1.00  0.00     0.010 A 
ATOM     39  C   UNL A   1      40.119  29.099  27.447  1.00  0.00     0.010 A 
ATOM     40  C   UNL A   1      40.455  28.027  28.287  1.00  0.00    -0.014 A 
BRANCH  40  41
ATOM     41  C   UNL A   1      41.822  27.467  28.264  1.00  0.00     0.031 A 
ATOM     42  C   UNL A   1      42.585  27.846  29.484  1.00  0.00     0.074 A 
ATOM     43  C   UNL A   1      42.260  26.552  27.359  1.00  0.00     0.049 A 
ATOM     44  N   UNL A   1      43.827  28.201  29.567  1.00  0.00    -0.248 NA
ATOM     45  C   UNL A   1      41.825  28.017  30.744  1.00  0.00     0.031 C 
ATOM     46  C   UNL A   1      41.617  26.114  26.128  1.00  0.00     0.029 A 
ATOM     47  N   UNL A   1      43.307  25.667  27.431  1.00  0.00    -0.354 N 
ATOM     48  C   UNL A   1      44.040  28.413  30.924  1.00  0.00     0.074 A 
ATOM     49  C   UNL A   1      42.755  28.503  31.558  1.00  0.00     0.031 C 
ATOM     50  C   UNL A   1      42.030  24.890  25.763  1.00  0.00     0.029 A 
ATOM     51  C   UNL A   1      43.103  24.521  26.649  1.00  0.00     0.049 A 
ATOM     52  H   UNL A   1      44.114  25.821  27.972  1.00  0.00     0.167 HD
ATOM     53  C   UNL A   1      45.230  28.102  31.494  1.00  0.00     0.037 A 
ATOM     54  C   UNL A   1      43.729  23.323  26.716  1.00  0.00     0.037 A 
ATOM     55  C   UNL A   1      46.324  28.202  30.574  1.00  0.00     0.049 A 
ATOM     56  C   UNL A   1      44.988  23.540  27.453  1.00  0.00     0.074 A 
ATOM     57  C   UNL A   1      46.829  29.218  29.787  1.00  0.00     0.029 A 
ATOM     58  N   UNL A   1      46.890  27.045  30.107  1.00  0.00    -0.354 N 
ATOM     59  N   UNL A   1      46.006  24.186  26.959  1.00  0.00    -0.248 NA
ATOM     60  C   UNL A   1      44.951  23.428  28.900  1.00  0.00     0.031 C 
ATOM     61  C   UNL A   1      47.336  28.581  28.620  1.00  0.00     0.029 A 
ATOM     62  C   UNL A   1      47.146  27.208  28.770  1.00  0.00     0.049 A 
ATOM     63  H   UNL A   1      47.080  26.239  30.638  1.00  0.00     0.167 HD
ATOM     64  C   UNL A   1      46.484  24.931  28.024  1.00  0.00     0.074 A 
ATOM     65  C   UNL A   1      45.872  24.343  29.210  1.00  0.00     0.031 C 
ATOM     66  C   UNL A   1      47.089  26.134  27.808  1.00  0.00     0.037 A 
BRANCH  53  67
ATOM     67  C   UNL A   1      45.265  27.306  32.768  1.00  0.00     0.064 A 
ATOM     68  C   UNL A   1      44.686  26.032  32.816  1.00  0.00     0.173 A 
ATOM     69  C   UNL A   1      45.641  27.864  34.015  1.00  0.00     0.173 A 
ATOM     70  F   UNL A   1      44.228  25.454  31.697  1.00  0.00    -0.203 F 
ATOM     71  C   UNL A   1      44.500  25.365  34.029  1.00  0.00     0.198 A 
ATOM     72  C   UNL A   1      45.522  27.168  35.212  1.00  0.00     0.198 A 
ATOM     73  F   UNL A   1      46.032  29.139  34.134  1.00  0.00    -0.203 F 
ATOM     74  F   UNL A   1      43.849  24.194  34.048  1.00  0.00    -0.200 F 
ATOM     75  C   UNL A   1      44.930  25.926  35.222  1.00  0.00     0.200 A 
ATOM     76  F   UNL A   1      45.918  27.746  36.354  1.00  0.00    -0.200 F 
ATOM     77  F   UNL A   1      44.721  25.298  36.386  1.00  0.00    -0.200 F 
ENDBRANCH  53  67
BRANCH  54  78
ATOM     78  C   UNL A   1      43.168  21.981  26.422  1.00  0.00     0.064 A 
ATOM     79  C   UNL A   1      43.789  21.121  25.502  1.00  0.00     0.173 A 
ATOM     80  C   UNL A   1      42.153  21.409  27.219  1.00  0.00     0.173 A 
ATOM     81  F   UNL A   1      44.787  21.571  24.728  1.00  0.00    -0.203 F 
ATOM     82  C   UNL A   1      43.440  19.769  25.410  1.00  0.00     0.198 A 
ATOM     83  C   UNL A   1      41.796  20.064  27.115  1.00  0.00     0.198 A 
ATOM     84  F   UNL A   1      41.545  22.118  28.181  1.00  0.00    -0.203 F 
ATOM     85  F   UNL A   1      44.103  18.966  24.565  1.00  0.00    -0.200 F 
ATOM     86  C   UNL A   1      42.451  19.239  26.222  1.00  0.00     0.200 A 
ATOM     87  F   UNL A   1      40.856  19.561  27.929  1.00  0.00    -0.200 F 
ATOM     88  F   UNL A   1      42.160  17.933  26.176  1.00  0.00    -0.200 F 
ENDBRANCH  54  78
BRANCH  66  89
ATOM     89  C   UNL A   1      47.505  26.458  26.400  1.00  0.00     0.064 A 
ATOM     90  C   UNL A   1      46.708  27.181  25.492  1.00  0.00     0.173 A 
ATOM     91  C   UNL A   1      48.809  26.137  26.003  1.00  0.00     0.173 A 
ATOM     92  F   UNL A   1      45.487  27.609  25.838  1.00  0.00    -0.203 F 
ATOM     93  C   UNL A   1      47.187  27.522  24.228  1.00  0.00     0.198 A 
ATOM     94  C   UNL A   1      49.296  26.511  24.754  1.00  0.00     0.198 A 
ATOM     95  F   UNL A   1      49.630  25.498  26.850  1.00  0.00    -0.203 F 
ATOM     96  F   UNL A   1      46.404  28.197  23.373  1.00  0.00    -0.200 F 
ATOM     97  C   UNL A   1      48.482  27.192  23.863  1.00  0.00     0.200 A 
ATOM     98  F   UNL A   1      50.565  26.234  24.425  1.00  0.00    -0.200 F 
ATOM     99  F   UNL A   1      48.957  27.555  22.663  1.00  0.00    -0.200 F 
ENDBRANCH  66  89
ENDBRANCH  40  41
ENDBRANCH  33  35
ENDBRANCH  32  33
ENDBRANCH  31  32
ENDBRANCH   1  31
TORSDOF 15
ENDMDL
MODEL 2
REMARK VINA RESULT:     -13.7      6.003     10.808
REMARK SMILES Cc1nn(Cc2ccc(Cl)cc2Cl)c(C)c1NC(=O)c1c(C(=O)OCCOC(=O)c2ccc(-c3c4nc(c(-c5c(F)c(F)c(F)c(F)c5F)c5ccc([nH]5)c(-c5c(F)c(F)c(F)c(F)c5F)c5nc(c(-c6c(F)c(F)c(F)c(F)c6F)c6ccc3[nH]6)C=C5)C=C4)cc2)cnn1C
REMARK SMILES IDX 25 1 24 2 22 3 23 4 21 5 20 6 95 7 93 8 94 9 96 10 18 11
REMARK SMILES IDX 17 12 19 14 16 15 1 16 2 17 3 18 4 19 14 20 15 21 5 22 6 23
REMARK SMILES IDX 7 24 12 25 8 26 11 27 13 28 9 29 10 30 26 31 27 32 28 33
REMARK SMILES IDX 29 34 30 35 31 36 92 37 32 38 91 39 33 40 34 41 35 42 85 43
REMARK SMILES IDX 36 44 90 45 84 46 86 47 37 48 89 49 83 50 82 51 38 53 70 54
REMARK SMILES IDX 50 55 69 56 51 57 54 58 68 59 87 60 52 61 53 62 67 64 88 65
REMARK SMILES IDX 55 66 39 67 40 68 48 69 41 70 42 71 46 72 49 73 43 74 44 75
REMARK SMILES IDX 47 76 45 77 71 78 72 79 80 80 73 81 74 82 78 83 81 84 75 85
REMARK SMILES IDX 76 86 79 87 77 88 56 89 57 90 65 91 58 92 59 93 63 94 66 95
REMARK SMILES IDX 60 96 61 97 64 98 62 99
REMARK H PARENT 17 13 86 52 54 63
REMARK Flexibility Score: inf
ROOT
ATOM      1  C   UNL A   1      38.168  22.152  25.848  1.00  0.00     0.275 C 
ENDROOT
BRANCH   1   2
ATOM      2  O   UNL A   1      36.833  21.724  26.164  1.00  0.00    -0.458 OA
BRANCH   2   3
ATOM      3  C   UNL A   1      36.187  21.122  25.129  1.00  0.00     0.342 C 
ATOM      4  O   UNL A   1      36.322  19.941  24.832  1.00  0.00    -0.246 OA
BRANCH   3   5
ATOM      5  C   UNL A   1      35.438  22.019  24.278  1.00  0.00     0.111 A 
ATOM      6  C   UNL A   1      34.118  22.007  23.828  1.00  0.00     0.140 A 
ATOM      7  N   UNL A   1      34.135  22.871  22.750  1.00  0.00    -0.262 N 
ATOM      8  C   UNL A   1      36.032  23.106  23.601  1.00  0.00     0.151 A 
ATOM      9  N   UNL A   1      35.211  23.679  22.726  1.00  0.00    -0.180 NA
ATOM     10  C   UNL A   1      33.149  23.018  21.703  1.00  0.00     0.174 C 
BRANCH   6  11
ATOM     11  C   UNL A   1      32.965  21.215  24.172  1.00  0.00     0.274 C 
ATOM     12  N   UNL A   1      31.985  21.707  25.002  1.00  0.00    -0.317 N 
ATOM     13  H   UNL A   1      31.341  21.029  25.310  1.00  0.00     0.170 HD
ATOM     14  O   UNL A   1      32.804  20.074  23.735  1.00  0.00    -0.267 OA
BRANCH  12  15
ATOM     15  C   UNL A   1      31.738  22.975  25.481  1.00  0.00     0.085 A 
ATOM     16  C   UNL A   1      32.315  22.688  27.999  1.00  0.00     0.071 C 
ATOM     17  C   UNL A   1      31.909  23.421  26.813  1.00  0.00     0.083 A 
ATOM     18  N   UNL A   1      31.668  24.715  26.959  1.00  0.00    -0.175 NA
ATOM     19  N   UNL A   1      31.178  25.075  25.768  1.00  0.00    -0.263 N 
ATOM     20  C   UNL A   1      31.131  24.043  24.858  1.00  0.00     0.060 A 
ATOM     21  C   UNL A   1      30.397  24.122  23.576  1.00  0.00     0.069 C 
BRANCH  19  22
ATOM     22  C   UNL A   1      30.637  26.425  25.683  1.00  0.00     0.181 C 
BRANCH  22  23
ATOM     23  C   UNL A   1      31.684  27.418  26.128  1.00  0.00    -0.008 A 
ATOM     24  C   UNL A   1      31.470  28.162  27.310  1.00  0.00     0.009 A 
ATOM     25  C   UNL A   1      32.810  27.708  25.349  1.00  0.00     0.047 A 
ATOM     26  C   UNL A   1      32.320  29.211  27.658  1.00  0.00     0.021 A 
ATOM     27  C   UNL A   1      33.645  28.773  25.684  1.00  0.00     0.041 A 
ATOM     28  Cl  UNL A   1      33.219  26.786  23.945  1.00  0.00    -0.084 Cl
ATOM     29  C   UNL A   1      33.390  29.526  26.828  1.00  0.00     0.042 A 
ATOM     30  Cl  UNL A   1      34.408  30.858  27.211  1.00  0.00    -0.084 Cl
ENDBRANCH  22  23
ENDBRANCH  19  22
ENDBRANCH  12  15
ENDBRANCH   6  11
ENDBRANCH   3   5
ENDBRANCH   2   3
ENDBRANCH   1   2
BRANCH   1  31
ATOM     31  C   UNL A   1      38.357  23.610  26.221  1.00  0.00     0.275 C 
BRANCH  31  32
ATOM     32  O   UNL A   1      39.374  23.958  27.195  1.00  0.00    -0.458 OA
BRANCH  32  33
ATOM     33  C   UNL A   1      40.112  25.099  27.108  1.00  0.00     0.338 C 
ATOM     34  O   UNL A   1      41.237  25.217  26.695  1.00  0.00    -0.246 OA
BRANCH  33  35
ATOM     35  C   UNL A   1      39.418  26.160  27.911  1.00  0.00     0.060 A 
ATOM     36  C   UNL A   1      39.300  27.421  27.317  1.00  0.00     0.016 A 
ATOM     37  C   UNL A   1      39.271  26.031  29.298  1.00  0.00     0.016 A 
ATOM     38  C   UNL A   1      39.356  28.561  28.117  1.00  0.00     0.010 A 
ATOM     39  C   UNL A   1      39.309  27.171  30.099  1.00  0.00     0.010 A 
ATOM     40  C   UNL A   1      39.473  28.432  29.510  1.00  0.00    -0.014 A 
BRANCH  40  41
ATOM     41  C   UNL A   1      39.537  29.643  30.354  1.00  0.00     0.031 A 
ATOM     42  C   UNL A   1      40.912  30.214  30.380  1.00  0.00     0.074 A 
ATOM     43  C   UNL A   1      38.451  30.278  30.867  1.00  0.00     0.049 A 
ATOM     44  N   UNL A   1      41.547  30.711  31.392  1.00  0.00    -0.248 NA
ATOM     45  C   UNL A   1      41.744  30.056  29.165  1.00  0.00     0.031 C 
ATOM     46  C   UNL A   1      37.070  29.818  30.917  1.00  0.00     0.029 A 
ATOM     47  N   UNL A   1      38.306  31.572  31.304  1.00  0.00    -0.354 N 
ATOM     48  C   UNL A   1      42.767  31.127  30.869  1.00  0.00     0.074 A 
ATOM     49  C   UNL A   1      42.920  30.512  29.581  1.00  0.00     0.031 C 
ATOM     50  C   UNL A   1      36.210  30.844  31.002  1.00  0.00     0.029 A 
ATOM     51  C   UNL A   1      36.990  32.039  31.185  1.00  0.00     0.049 A 
ATOM     52  H   UNL A   1      39.047  32.111  31.664  1.00  0.00     0.167 HD
ATOM     53  C   UNL A   1      43.375  32.245  31.337  1.00  0.00     0.037 A 
ATOM     54  C   UNL A   1      36.536  33.315  31.199  1.00  0.00     0.037 A 
ATOM     55  C   UNL A   1      43.056  32.512  32.709  1.00  0.00     0.049 A 
ATOM     56  C   UNL A   1      37.595  34.138  31.811  1.00  0.00     0.074 A 
ATOM     57  C   UNL A   1      43.192  31.800  33.884  1.00  0.00     0.029 A 
ATOM     58  N   UNL A   1      42.201  33.545  32.990  1.00  0.00    -0.354 N 
ATOM     59  N   UNL A   1      37.894  34.098  33.078  1.00  0.00    -0.248 NA
ATOM     60  C   UNL A   1      38.623  34.676  30.936  1.00  0.00     0.031 C 
ATOM     61  C   UNL A   1      42.086  32.184  34.693  1.00  0.00     0.029 A 
ATOM     62  C   UNL A   1      41.353  33.135  33.985  1.00  0.00     0.049 A 
ATOM     63  H   UNL A   1      42.197  34.427  32.552  1.00  0.00     0.167 HD
ATOM     64  C   UNL A   1      39.276  34.181  33.105  1.00  0.00     0.074 A 
ATOM     65  C   UNL A   1      39.659  34.645  31.776  1.00  0.00     0.031 C 
ATOM     66  C   UNL A   1      39.984  33.577  34.103  1.00  0.00     0.037 A 
BRANCH  53  67
ATOM     67  C   UNL A   1      43.896  33.272  30.373  1.00  0.00     0.064 A 
ATOM     68  C   UNL A   1      43.020  33.918  29.493  1.00  0.00     0.173 A 
ATOM     69  C   UNL A   1      45.278  33.465  30.125  1.00  0.00     0.173 A 
ATOM     70  F   UNL A   1      41.696  33.734  29.598  1.00  0.00    -0.203 F 
ATOM     71  C   UNL A   1      43.497  34.702  28.439  1.00  0.00     0.198 A 
ATOM     72  C   UNL A   1      45.748  34.304  29.123  1.00  0.00     0.198 A 
ATOM     73  F   UNL A   1      46.220  32.764  30.770  1.00  0.00    -0.203 F 
ATOM     74  F   UNL A   1      42.634  35.219  27.555  1.00  0.00    -0.200 F 
ATOM     75  C   UNL A   1      44.856  34.906  28.265  1.00  0.00     0.200 A 
ATOM     76  F   UNL A   1      47.069  34.460  28.958  1.00  0.00    -0.200 F 
ATOM     77  F   UNL A   1      45.312  35.633  27.236  1.00  0.00    -0.200 F 
ENDBRANCH  53  67
BRANCH  54  78
ATOM     78  C   UNL A   1      35.373  33.879  30.470  1.00  0.00     0.064 A 
ATOM     79  C   UNL A   1      34.297  34.459  31.161  1.00  0.00     0.173 A 
ATOM     80  C   UNL A   1      35.400  34.088  29.075  1.00  0.00     0.173 A 
ATOM     81  F   UNL A   1      34.210  34.340  32.494  1.00  0.00    -0.203 F 
ATOM     82  C   UNL A   1      33.331  35.228  30.502  1.00  0.00     0.198 A 
ATOM     83  C   UNL A   1      34.427  34.841  28.417  1.00  0.00     0.198 A 
ATOM     84  F   UNL A   1      36.420  33.642  28.327  1.00  0.00    -0.203 F 
ATOM     85  F   UNL A   1      32.356  35.821  31.207  1.00  0.00    -0.200 F 
ATOM     86  C   UNL A   1      33.402  35.426  29.133  1.00  0.00     0.200 A 
ATOM     87  F   UNL A   1      34.527  35.047  27.096  1.00  0.00    -0.200 F 
ATOM     88  F   UNL A   1      32.511  36.211  28.512  1.00  0.00    -0.200 F 
ENDBRANCH  54  78
BRANCH  66  89
ATOM     89  C   UNL A   1      39.221  33.118  35.314  1.00  0.00     0.064 A 
ATOM     90  C   UNL A   1      38.753  31.804  35.497  1.00  0.00     0.173 A 
ATOM     91  C   UNL A   1      39.076  34.011  36.384  1.00  0.00     0.173 A 
ATOM     92  F   UNL A   1      38.945  30.869  34.557  1.00  0.00    -0.203 F 
ATOM     93  C   UNL A   1      38.126  31.422  36.682  1.00  0.00     0.198 A 
ATOM     94  C   UNL A   1      38.484  33.616  37.579  1.00  0.00     0.198 A 
ATOM     95  F   UNL A   1      39.556  35.261  36.284  1.00  0.00    -0.203 F 
ATOM     96  F   UNL A   1      37.672  30.168  36.828  1.00  0.00    -0.200 F 
ATOM     97  C   UNL A   1      37.998  32.326  37.724  1.00  0.00     0.200 A 
ATOM     98  F   UNL A   1      38.407  34.479  38.601  1.00  0.00    -0.200 F 
ATOM     99  F   UNL A   1      37.432  31.948  38.879  1.00  0.00    -0.200 F 
ENDBRANCH  66  89
ENDBRANCH  40  41
ENDBRANCH  33  35
ENDBRANCH  32  33
ENDBRANCH  31  32
ENDBRANCH   1  31
TORSDOF 15
ENDMDL
MODEL 3
REMARK VINA RESULT:     -13.7      5.974     10.596
REMARK SMILES Cc1nn(Cc2ccc(Cl)cc2Cl)c(C)c1NC(=O)c1c(C(=O)OCCOC(=O)c2ccc(-c3c4nc(c(-c5c(F)c(F)c(F)c(F)c5F)c5ccc([nH]5)c(-c5c(F)c(F)c(F)c(F)c5F)c5nc(c(-c6c(F)c(F)c(F)c(F)c6F)c6ccc3[nH]6)C=C5)C=C4)cc2)cnn1C
REMARK SMILES IDX 25 1 24 2 22 3 23 4 21 5 20 6 95 7 93 8 94 9 96 10 18 11
REMARK SMILES IDX 17 12 19 14 16 15 1 16 2 17 3 18 4 19 14 20 15 21 5 22 6 23
REMARK SMILES IDX 7 24 12 25 8 26 11 27 13 28 9 29 10 30 26 31 27 32 28 33
REMARK SMILES IDX 29 34 30 35 31 36 92 37 32 38 91 39 33 40 34 41 35 42 85 43
REMARK SMILES IDX 36 44 90 45 84 46 86 47 37 48 89 49 83 50 82 51 38 53 70 54
REMARK SMILES IDX 50 55 69 56 51 57 54 58 68 59 87 60 52 61 53 62 67 64 88 65
REMARK SMILES IDX 55 66 39 67 40 68 48 69 41 70 42 71 46 72 49 73 43 74 44 75
REMARK SMILES IDX 47 76 45 77 71 78 72 79 80 80 73 81 74 82 78 83 81 84 75 85
REMARK SMILES IDX 76 86 79 87 77 88 56 89 57 90 65 91 58 92 59 93 63 94 66 95
REMARK SMILES IDX 60 96 61 97 64 98 62 99
REMARK H PARENT 17 13 86 52 54 63
REMARK Flexibility Score: inf
ROOT
ATOM      1  C   UNL A   1      37.451  22.774  25.824  1.00  0.00     0.275 C 
ENDROOT
BRANCH   1   2
ATOM      2  O   UNL A   1      36.064  22.963  26.151  1.00  0.00    -0.458 OA
BRANCH   2   3
ATOM      3  C   UNL A   1      35.329  21.818  26.124  1.00  0.00     0.342 C 
ATOM      4  O   UNL A   1      35.737  20.753  25.678  1.00  0.00    -0.246 OA
BRANCH   3   5
ATOM      5  C   UNL A   1      33.945  21.977  26.512  1.00  0.00     0.111 A 
ATOM      6  C   UNL A   1      32.746  21.674  25.868  1.00  0.00     0.140 A 
ATOM      7  N   UNL A   1      31.810  22.422  26.556  1.00  0.00    -0.262 N 
ATOM      8  C   UNL A   1      33.554  22.646  27.692  1.00  0.00     0.151 A 
ATOM      9  N   UNL A   1      32.241  22.846  27.759  1.00  0.00    -0.180 NA
ATOM     10  C   UNL A   1      30.463  22.761  26.155  1.00  0.00     0.174 C 
BRANCH   6  11
ATOM     11  C   UNL A   1      32.427  20.939  24.672  1.00  0.00     0.274 C 
ATOM     12  N   UNL A   1      32.337  21.567  23.451  1.00  0.00    -0.317 N 
ATOM     13  H   UNL A   1      31.943  21.011  22.741  1.00  0.00     0.170 HD
ATOM     14  O   UNL A   1      32.228  19.722  24.688  1.00  0.00    -0.267 OA
BRANCH  12  15
ATOM     15  C   UNL A   1      32.697  22.832  23.041  1.00  0.00     0.085 A 
ATOM     16  C   UNL A   1      35.288  22.632  22.996  1.00  0.00     0.071 C 
ATOM     17  C   UNL A   1      34.012  23.301  22.814  1.00  0.00     0.083 A 
ATOM     18  N   UNL A   1      34.044  24.541  22.348  1.00  0.00    -0.175 NA
ATOM     19  N   UNL A   1      32.770  24.937  22.433  1.00  0.00    -0.263 N 
ATOM     20  C   UNL A   1      31.923  23.964  22.916  1.00  0.00     0.060 A 
ATOM     21  C   UNL A   1      30.533  24.236  23.345  1.00  0.00     0.069 C 
BRANCH  19  22
ATOM     22  C   UNL A   1      32.521  26.347  22.164  1.00  0.00     0.181 C 
BRANCH  22  23
ATOM     23  C   UNL A   1      32.442  27.103  23.469  1.00  0.00    -0.008 A 
ATOM     24  C   UNL A   1      33.526  27.033  24.373  1.00  0.00     0.009 A 
ATOM     25  C   UNL A   1      31.283  27.781  23.865  1.00  0.00     0.047 A 
ATOM     26  C   UNL A   1      33.421  27.563  25.658  1.00  0.00     0.021 A 
ATOM     27  C   UNL A   1      31.170  28.289  25.159  1.00  0.00     0.041 A 
ATOM     28  Cl  UNL A   1      29.945  28.015  22.798  1.00  0.00    -0.084 Cl
ATOM     29  C   UNL A   1      32.232  28.168  26.052  1.00  0.00     0.042 A 
ATOM     30  Cl  UNL A   1      32.068  28.768  27.654  1.00  0.00    -0.084 Cl
ENDBRANCH  22  23
ENDBRANCH  19  22
ENDBRANCH  12  15
ENDBRANCH   6  11
ENDBRANCH   3   5
ENDBRANCH   2   3
ENDBRANCH   1   2
BRANCH   1  31
ATOM     31  C   UNL A   1      38.237  24.039  26.108  1.00  0.00     0.275 C 
BRANCH  31  32
ATOM     32  O   UNL A   1      39.347  23.980  27.040  1.00  0.00    -0.458 OA
BRANCH  32  33
ATOM     33  C   UNL A   1      40.225  25.009  27.199  1.00  0.00     0.338 C 
ATOM     34  O   UNL A   1      41.418  24.989  27.031  1.00  0.00    -0.246 OA
BRANCH  33  35
ATOM     35  C   UNL A   1      39.519  26.111  27.932  1.00  0.00     0.060 A 
ATOM     36  C   UNL A   1      39.520  27.371  27.325  1.00  0.00     0.016 A 
ATOM     37  C   UNL A   1      39.242  26.001  29.302  1.00  0.00     0.016 A 
ATOM     38  C   UNL A   1      39.564  28.514  28.123  1.00  0.00     0.010 A 
ATOM     39  C   UNL A   1      39.268  27.144  30.098  1.00  0.00     0.010 A 
ATOM     40  C   UNL A   1      39.550  28.390  29.521  1.00  0.00    -0.014 A 
BRANCH  40  41
ATOM     41  C   UNL A   1      39.602  29.603  30.363  1.00  0.00     0.031 A 
ATOM     42  C   UNL A   1      40.973  30.182  30.396  1.00  0.00     0.074 A 
ATOM     43  C   UNL A   1      38.509  30.233  30.869  1.00  0.00     0.049 A 
ATOM     44  N   UNL A   1      41.599  30.685  31.411  1.00  0.00    -0.248 NA
ATOM     45  C   UNL A   1      41.814  30.026  29.187  1.00  0.00     0.031 C 
ATOM     46  C   UNL A   1      37.131  29.765  30.911  1.00  0.00     0.029 A 
ATOM     47  N   UNL A   1      38.354  31.526  31.302  1.00  0.00    -0.354 N 
ATOM     48  C   UNL A   1      42.819  31.107  30.895  1.00  0.00     0.074 A 
ATOM     49  C   UNL A   1      42.984  30.490  29.609  1.00  0.00     0.031 C 
ATOM     50  C   UNL A   1      36.264  30.786  30.989  1.00  0.00     0.029 A 
ATOM     51  C   UNL A   1      37.036  31.986  31.174  1.00  0.00     0.049 A 
ATOM     52  H   UNL A   1      39.089  32.071  31.665  1.00  0.00     0.167 HD
ATOM     53  C   UNL A   1      43.418  32.229  31.365  1.00  0.00     0.037 A 
ATOM     54  C   UNL A   1      36.574  33.259  31.182  1.00  0.00     0.037 A 
ATOM     55  C   UNL A   1      43.089  32.497  32.734  1.00  0.00     0.049 A 
ATOM     56  C   UNL A   1      37.625  34.090  31.799  1.00  0.00     0.074 A 
ATOM     57  C   UNL A   1      43.222  31.788  33.911  1.00  0.00     0.029 A 
ATOM     58  N   UNL A   1      42.226  33.526  33.007  1.00  0.00    -0.354 N 
ATOM     59  N   UNL A   1      37.916  34.054  33.068  1.00  0.00    -0.248 NA
ATOM     60  C   UNL A   1      38.654  34.632  30.930  1.00  0.00     0.031 C 
ATOM     61  C   UNL A   1      42.109  32.168  34.712  1.00  0.00     0.029 A 
ATOM     62  C   UNL A   1      41.374  33.113  33.998  1.00  0.00     0.049 A 
ATOM     63  H   UNL A   1      42.220  34.407  32.568  1.00  0.00     0.167 HD
ATOM     64  C   UNL A   1      39.297  34.145  33.103  1.00  0.00     0.074 A 
ATOM     65  C   UNL A   1      39.686  34.609  31.776  1.00  0.00     0.031 C 
ATOM     66  C   UNL A   1      40.003  33.548  34.106  1.00  0.00     0.037 A 
BRANCH  53  67
ATOM     67  C   UNL A   1      43.939  33.258  30.402  1.00  0.00     0.064 A 
ATOM     68  C   UNL A   1      43.064  33.900  29.518  1.00  0.00     0.173 A 
ATOM     69  C   UNL A   1      45.321  33.455  30.159  1.00  0.00     0.173 A 
ATOM     70  F   UNL A   1      41.740  33.711  29.619  1.00  0.00    -0.203 F 
ATOM     71  C   UNL A   1      43.542  34.685  28.465  1.00  0.00     0.198 A 
ATOM     72  C   UNL A   1      45.792  34.295  29.158  1.00  0.00     0.198 A 
ATOM     73  F   UNL A   1      46.263  32.758  30.807  1.00  0.00    -0.203 F 
ATOM     74  F   UNL A   1      42.680  35.199  27.578  1.00  0.00    -0.200 F 
ATOM     75  C   UNL A   1      44.901  34.893  28.295  1.00  0.00     0.200 A 
ATOM     76  F   UNL A   1      47.113  34.455  28.997  1.00  0.00    -0.200 F 
ATOM     77  F   UNL A   1      45.358  35.621  27.268  1.00  0.00    -0.200 F 
ENDBRANCH  53  67
BRANCH  54  78
ATOM     78  C   UNL A   1      35.412  33.814  30.445  1.00  0.00     0.064 A 
ATOM     79  C   UNL A   1      34.330  34.393  31.128  1.00  0.00     0.173 A 
ATOM     80  C   UNL A   1      35.446  34.018  29.050  1.00  0.00     0.173 A 
ATOM     81  F   UNL A   1      34.236  34.278  32.461  1.00  0.00    -0.203 F 
ATOM     82  C   UNL A   1      33.364  35.155  30.461  1.00  0.00     0.198 A 
ATOM     83  C   UNL A   1      34.473  34.765  28.384  1.00  0.00     0.198 A 
ATOM     84  F   UNL A   1      36.472  33.574  28.309  1.00  0.00    -0.203 F 
ATOM     85  F   UNL A   1      32.383  35.746  31.159  1.00  0.00    -0.200 F 
ATOM     86  C   UNL A   1      33.441  35.348  29.092  1.00  0.00     0.200 A 
ATOM     87  F   UNL A   1      34.579  34.966  27.062  1.00  0.00    -0.200 F 
ATOM     88  F   UNL A   1      32.550  36.126  28.463  1.00  0.00    -0.200 F 
ENDBRANCH  54  78
BRANCH  66  89
ATOM     89  C   UNL A   1      39.235  33.087  35.314  1.00  0.00     0.064 A 
ATOM     90  C   UNL A   1      38.760  31.774  35.490  1.00  0.00     0.173 A 
ATOM     91  C   UNL A   1      39.092  33.976  36.387  1.00  0.00     0.173 A 
ATOM     92  F   UNL A   1      38.950  30.842  34.546  1.00  0.00    -0.203 F 
ATOM     93  C   UNL A   1      38.129  31.389  36.672  1.00  0.00     0.198 A 
ATOM     94  C   UNL A   1      38.495  33.577  37.580  1.00  0.00     0.198 A 
ATOM     95  F   UNL A   1      39.578  35.223  36.294  1.00  0.00    -0.203 F 
ATOM     96  F   UNL A   1      37.669  30.137  36.811  1.00  0.00    -0.200 F 
ATOM     97  C   UNL A   1      38.003  32.289  37.718  1.00  0.00     0.200 A 
ATOM     98  F   UNL A   1      38.420  34.436  38.605  1.00  0.00    -0.200 F 
ATOM     99  F   UNL A   1      37.433  31.909  38.870  1.00  0.00    -0.200 F 
ENDBRANCH  66  89
ENDBRANCH  40  41
ENDBRANCH  33  35
ENDBRANCH  32  33
ENDBRANCH  31  32
ENDBRANCH   1  31
TORSDOF 15
ENDMDL
