MODEL 1
REMARK VINA RESULT:     -12.4      0.000      0.000
REMARK SMILES Cc1ccc([C@H](C)NC(=O)CC2(C(=O)OCCOC(=O)c3ccc(-c4c5nc(c(-c6c(F)c(F)c(F)c(F)c6F)c6ccc([nH]6)c(-c6c(F)c(F)c(F)c(F)c6F)c6nc(c(-c7c(F)c(F)c(F)c(F)c7F)c7ccc4[nH]7)C=C6)C=C5)cc3)CCCC2)o1
REMARK SMILES IDX 16 1 15 2 13 3 14 4 12 5 84 6 87 7 85 8 86 9 11 10 9 11 8 12
REMARK SMILES IDX 10 14 6 15 7 16 5 17 1 18 2 19 3 20 88 21 4 22 17 23 18 24
REMARK SMILES IDX 19 25 20 26 21 27 22 28 83 29 23 30 82 31 24 32 25 33 26 34
REMARK SMILES IDX 76 35 27 36 81 37 75 38 77 39 28 40 80 41 74 42 73 43 29 45
REMARK SMILES IDX 61 46 41 47 60 48 42 49 45 50 59 51 78 52 43 53 44 54 58 56
REMARK SMILES IDX 79 57 46 58 30 59 31 60 39 61 32 62 33 63 37 64 40 65 34 66
REMARK SMILES IDX 35 67 38 68 36 69 62 70 63 71 71 72 64 73 65 74 69 75 72 76
REMARK SMILES IDX 66 77 67 78 70 79 68 80 47 81 48 82 56 83 49 84 50 85 54 86
REMARK SMILES IDX 57 87 51 88 52 89 55 90 53 91
REMARK H PARENT 8 13 77 44 45 55
REMARK Flexibility Score: inf
ROOT
ATOM      1  C   UNL A   1      31.159  26.883  26.404  1.00  0.00     0.274 C 
ENDROOT
BRANCH   1   2
ATOM      2  O   UNL A   1      31.953  25.610  26.587  1.00  0.00    -0.462 OA
BRANCH   2   3
ATOM      3  C   UNL A   1      31.764  24.495  25.750  1.00  0.00     0.312 C 
ATOM      4  O   UNL A   1      30.922  23.635  25.990  1.00  0.00    -0.252 OA
BRANCH   3   5
ATOM      5  C   UNL A   1      32.600  24.521  24.353  1.00  0.00     0.077 C 
ATOM      6  C   UNL A   1      32.800  23.057  23.873  1.00  0.00     0.019 C 
ATOM      7  C   UNL A   1      34.054  24.967  24.563  1.00  0.00     0.019 C 
ATOM      8  C   UNL A   1      33.944  22.509  24.688  1.00  0.00     0.001 C 
ATOM      9  C   UNL A   1      34.816  23.715  25.012  1.00  0.00     0.001 C 
BRANCH   5  10
ATOM     10  C   UNL A   1      31.918  25.173  23.066  1.00  0.00     0.118 C 
BRANCH  10  11
ATOM     11  C   UNL A   1      32.649  25.939  21.949  1.00  0.00     0.221 C 
ATOM     12  N   UNL A   1      32.150  27.203  21.638  1.00  0.00    -0.346 N 
ATOM     13  H   UNL A   1      32.031  27.521  20.715  1.00  0.00     0.164 HD
ATOM     14  O   UNL A   1      33.638  25.499  21.372  1.00  0.00    -0.275 OA
BRANCH  12  15
ATOM     15  C   UNL A   1      31.827  27.993  22.782  1.00  0.00     0.145 C 
ATOM     16  C   UNL A   1      33.042  28.888  22.895  1.00  0.00     0.039 C 
BRANCH  15  17
ATOM     17  C   UNL A   1      30.562  28.806  22.929  1.00  0.00     0.126 A 
ATOM     18  C   UNL A   1      28.164  30.796  21.148  1.00  0.00     0.087 C 
ATOM     19  C   UNL A   1      28.979  30.159  22.208  1.00  0.00     0.101 A 
ATOM     20  C   UNL A   1      29.249  30.550  23.500  1.00  0.00     0.045 A 
ATOM     21  O   UNL A   1      29.711  29.041  21.883  1.00  0.00    -0.464 OA
ATOM     22  C   UNL A   1      30.240  29.666  23.974  1.00  0.00     0.048 A 
ENDBRANCH  15  17
ENDBRANCH  12  15
ENDBRANCH  10  11
ENDBRANCH   5  10
ENDBRANCH   3   5
ENDBRANCH   2   3
ENDBRANCH   1   2
BRANCH   1  23
ATOM     23  C   UNL A   1      31.726  28.268  27.136  1.00  0.00     0.275 C 
BRANCH  23  24
ATOM     24  O   UNL A   1      32.764  29.119  26.438  1.00  0.00    -0.458 OA
BRANCH  24  25
ATOM     25  C   UNL A   1      33.125  30.403  26.850  1.00  0.00     0.338 C 
ATOM     26  O   UNL A   1      32.358  31.347  26.835  1.00  0.00    -0.246 OA
BRANCH  25  27
ATOM     27  C   UNL A   1      34.560  30.524  27.458  1.00  0.00     0.060 A 
ATOM     28  C   UNL A   1      35.186  29.386  27.896  1.00  0.00     0.016 A 
ATOM     29  C   UNL A   1      35.305  31.672  27.741  1.00  0.00     0.016 A 
ATOM     30  C   UNL A   1      36.299  29.306  28.743  1.00  0.00     0.010 A 
ATOM     31  C   UNL A   1      36.573  31.604  28.462  1.00  0.00     0.010 A 
ATOM     32  C   UNL A   1      37.086  30.399  29.005  1.00  0.00    -0.014 A 
BRANCH  32  33
ATOM     33  C   UNL A   1      38.329  30.205  29.863  1.00  0.00     0.031 A 
ATOM     34  C   UNL A   1      39.500  29.449  29.292  1.00  0.00     0.074 A 
ATOM     35  C   UNL A   1      38.561  30.809  31.065  1.00  0.00     0.049 A 
ATOM     36  N   UNL A   1      40.488  28.839  29.897  1.00  0.00    -0.248 NA
ATOM     37  C   UNL A   1      39.579  29.408  27.826  1.00  0.00     0.031 C 
ATOM     38  C   UNL A   1      37.722  31.822  31.714  1.00  0.00     0.029 A 
ATOM     39  N   UNL A   1      39.609  30.671  31.967  1.00  0.00    -0.354 N 
ATOM     40  C   UNL A   1      41.234  28.238  28.892  1.00  0.00     0.074 A 
ATOM     41  C   UNL A   1      40.628  28.621  27.634  1.00  0.00     0.031 C 
ATOM     42  C   UNL A   1      38.287  32.225  32.863  1.00  0.00     0.029 A 
ATOM     43  C   UNL A   1      39.445  31.390  33.137  1.00  0.00     0.049 A 
ATOM     44  H   UNL A   1      40.399  30.112  31.790  1.00  0.00     0.167 HD
ATOM     45  C   UNL A   1      42.296  27.405  29.024  1.00  0.00     0.037 A 
ATOM     46  C   UNL A   1      40.072  31.322  34.335  1.00  0.00     0.037 A 
ATOM     47  C   UNL A   1      42.940  27.117  30.281  1.00  0.00     0.049 A 
ATOM     48  C   UNL A   1      41.154  30.287  34.522  1.00  0.00     0.074 A 
ATOM     49  C   UNL A   1      43.956  26.218  30.556  1.00  0.00     0.029 A 
ATOM     50  N   UNL A   1      42.648  27.763  31.473  1.00  0.00    -0.354 N 
ATOM     51  N   UNL A   1      41.695  29.492  33.633  1.00  0.00    -0.248 NA
ATOM     52  C   UNL A   1      41.675  30.102  35.886  1.00  0.00     0.031 C 
ATOM     53  C   UNL A   1      44.245  26.287  31.924  1.00  0.00     0.029 A 
ATOM     54  C   UNL A   1      43.451  27.272  32.489  1.00  0.00     0.049 A 
ATOM     55  H   UNL A   1      41.969  28.467  31.582  1.00  0.00     0.167 HD
ATOM     56  C   UNL A   1      42.625  28.723  34.322  1.00  0.00     0.074 A 
ATOM     57  C   UNL A   1      42.593  29.164  35.700  1.00  0.00     0.031 C 
ATOM     58  C   UNL A   1      43.423  27.733  33.854  1.00  0.00     0.037 A 
BRANCH  45  59
ATOM     59  C   UNL A   1      42.723  26.639  27.804  1.00  0.00     0.064 A 
ATOM     60  C   UNL A   1      43.722  27.081  26.928  1.00  0.00     0.173 A 
ATOM     61  C   UNL A   1      42.081  25.425  27.504  1.00  0.00     0.173 A 
ATOM     62  F   UNL A   1      44.356  28.243  27.155  1.00  0.00    -0.203 F 
ATOM     63  C   UNL A   1      44.036  26.359  25.777  1.00  0.00     0.198 A 
ATOM     64  C   UNL A   1      42.418  24.689  26.371  1.00  0.00     0.198 A 
ATOM     65  F   UNL A   1      41.119  24.951  28.309  1.00  0.00    -0.203 F 
ATOM     66  F   UNL A   1      44.948  26.833  24.917  1.00  0.00    -0.200 F 
ATOM     67  C   UNL A   1      43.387  25.163  25.501  1.00  0.00     0.200 A 
ATOM     68  F   UNL A   1      41.797  23.530  26.117  1.00  0.00    -0.200 F 
ATOM     69  F   UNL A   1      43.684  24.474  24.391  1.00  0.00    -0.200 F 
ENDBRANCH  45  59
BRANCH  46  70
ATOM     70  C   UNL A   1      39.601  32.132  35.508  1.00  0.00     0.064 A 
ATOM     71  C   UNL A   1      38.608  31.661  36.385  1.00  0.00     0.173 A 
ATOM     72  C   UNL A   1      40.079  33.435  35.734  1.00  0.00     0.173 A 
ATOM     73  F   UNL A   1      38.068  30.448  36.195  1.00  0.00    -0.203 F 
ATOM     74  C   UNL A   1      38.115  32.457  37.424  1.00  0.00     0.198 A 
ATOM     75  C   UNL A   1      39.617  34.213  36.796  1.00  0.00     0.198 A 
ATOM     76  F   UNL A   1      41.000  33.966  34.915  1.00  0.00    -0.203 F 
ATOM     77  F   UNL A   1      37.123  32.003  38.201  1.00  0.00    -0.200 F 
ATOM     78  C   UNL A   1      38.628  33.728  37.635  1.00  0.00     0.200 A 
ATOM     79  F   UNL A   1      40.121  35.439  36.995  1.00  0.00    -0.200 F 
ATOM     80  F   UNL A   1      38.156  34.490  38.631  1.00  0.00    -0.200 F 
ENDBRANCH  46  70
BRANCH  58  81
ATOM     81  C   UNL A   1      44.368  27.091  34.827  1.00  0.00     0.064 A 
ATOM     82  C   UNL A   1      45.622  27.649  35.118  1.00  0.00     0.173 A 
ATOM     83  C   UNL A   1      43.992  25.925  35.510  1.00  0.00     0.173 A 
ATOM     84  F   UNL A   1      46.036  28.753  34.479  1.00  0.00    -0.203 F 
ATOM     85  C   UNL A   1      46.473  27.050  36.044  1.00  0.00     0.198 A 
ATOM     86  C   UNL A   1      44.831  25.347  36.458  1.00  0.00     0.198 A 
ATOM     87  F   UNL A   1      42.801  25.355  35.269  1.00  0.00    -0.203 F 
ATOM     88  F   UNL A   1      47.684  27.573  36.276  1.00  0.00    -0.200 F 
ATOM     89  C   UNL A   1      46.073  25.906  36.720  1.00  0.00     0.200 A 
ATOM     90  F   UNL A   1      44.437  24.250  37.118  1.00  0.00    -0.200 F 
ATOM     91  F   UNL A   1      46.888  25.337  37.619  1.00  0.00    -0.200 F 
ENDBRANCH  58  81
ENDBRANCH  32  33
ENDBRANCH  25  27
ENDBRANCH  24  25
ENDBRANCH  23  24
ENDBRANCH   1  23
TORSDOF 15
ENDMDL
MODEL 2
REMARK VINA RESULT:     -12.2      1.805      3.900
REMARK SMILES Cc1ccc([C@H](C)NC(=O)CC2(C(=O)OCCOC(=O)c3ccc(-c4c5nc(c(-c6c(F)c(F)c(F)c(F)c6F)c6ccc([nH]6)c(-c6c(F)c(F)c(F)c(F)c6F)c6nc(c(-c7c(F)c(F)c(F)c(F)c7F)c7ccc4[nH]7)C=C6)C=C5)cc3)CCCC2)o1
REMARK SMILES IDX 16 1 15 2 13 3 14 4 12 5 84 6 87 7 85 8 86 9 11 10 9 11 8 12
REMARK SMILES IDX 10 14 6 15 7 16 5 17 1 18 2 19 3 20 88 21 4 22 17 23 18 24
REMARK SMILES IDX 19 25 20 26 21 27 22 28 83 29 23 30 82 31 24 32 25 33 26 34
REMARK SMILES IDX 76 35 27 36 81 37 75 38 77 39 28 40 80 41 74 42 73 43 29 45
REMARK SMILES IDX 61 46 41 47 60 48 42 49 45 50 59 51 78 52 43 53 44 54 58 56
REMARK SMILES IDX 79 57 46 58 30 59 31 60 39 61 32 62 33 63 37 64 40 65 34 66
REMARK SMILES IDX 35 67 38 68 36 69 62 70 63 71 71 72 64 73 65 74 69 75 72 76
REMARK SMILES IDX 66 77 67 78 70 79 68 80 47 81 48 82 56 83 49 84 50 85 54 86
REMARK SMILES IDX 57 87 51 88 52 89 55 90 53 91
REMARK H PARENT 8 13 77 44 45 55
REMARK Flexibility Score: inf
ROOT
ATOM      1  C   UNL A   1      33.867  27.154  24.829  1.00  0.00     0.274 C 
ENDROOT
BRANCH   1   2
ATOM      2  O   UNL A   1      33.731  25.874  25.621  1.00  0.00    -0.462 OA
BRANCH   2   3
ATOM      3  C   UNL A   1      33.343  24.667  25.013  1.00  0.00     0.312 C 
ATOM      4  O   UNL A   1      34.047  24.098  24.183  1.00  0.00    -0.252 OA
BRANCH   3   5
ATOM      5  C   UNL A   1      31.997  23.981  25.619  1.00  0.00     0.077 C 
ATOM      6  C   UNL A   1      31.157  23.419  24.437  1.00  0.00     0.019 C 
ATOM      7  C   UNL A   1      31.032  25.024  26.199  1.00  0.00     0.019 C 
ATOM      8  C   UNL A   1      30.434  24.603  23.847  1.00  0.00     0.001 C 
ATOM      9  C   UNL A   1      30.236  25.569  25.008  1.00  0.00     0.001 C 
BRANCH   5  10
ATOM     10  C   UNL A   1      32.145  22.681  26.532  1.00  0.00     0.118 C 
BRANCH  10  11
ATOM     11  C   UNL A   1      33.437  22.204  27.218  1.00  0.00     0.221 C 
ATOM     12  N   UNL A   1      33.948  20.979  26.790  1.00  0.00    -0.346 N 
ATOM     13  H   UNL A   1      34.286  20.292  27.409  1.00  0.00     0.164 HD
ATOM     14  O   UNL A   1      34.025  22.860  28.072  1.00  0.00    -0.275 OA
BRANCH  12  15
ATOM     15  C   UNL A   1      33.936  20.812  25.374  1.00  0.00     0.145 C 
ATOM     16  C   UNL A   1      35.404  20.941  25.032  1.00  0.00     0.039 C 
BRANCH  15  17
ATOM     17  C   UNL A   1      33.334  19.625  24.658  1.00  0.00     0.126 A 
ATOM     18  C   UNL A   1      34.047  16.365  23.334  1.00  0.00     0.087 C 
ATOM     19  C   UNL A   1      33.418  17.670  23.643  1.00  0.00     0.101 A 
ATOM     20  C   UNL A   1      32.494  18.417  22.947  1.00  0.00     0.045 A 
ATOM     21  O   UNL A   1      33.869  18.367  24.739  1.00  0.00    -0.464 OA
ATOM     22  C   UNL A   1      32.415  19.657  23.614  1.00  0.00     0.048 A 
ENDBRANCH  15  17
ENDBRANCH  12  15
ENDBRANCH  10  11
ENDBRANCH   5  10
ENDBRANCH   3   5
ENDBRANCH   2   3
ENDBRANCH   1   2
BRANCH   1  23
ATOM     23  C   UNL A   1      32.717  28.337  25.055  1.00  0.00     0.275 C 
BRANCH  23  24
ATOM     24  O   UNL A   1      33.144  29.757  25.352  1.00  0.00    -0.458 OA
BRANCH  24  25
ATOM     25  C   UNL A   1      33.145  30.320  26.630  1.00  0.00     0.338 C 
ATOM     26  O   UNL A   1      32.128  30.582  27.244  1.00  0.00    -0.246 OA
BRANCH  25  27
ATOM     27  C   UNL A   1      34.558  30.478  27.281  1.00  0.00     0.060 A 
ATOM     28  C   UNL A   1      35.250  29.347  27.630  1.00  0.00     0.016 A 
ATOM     29  C   UNL A   1      35.219  31.641  27.685  1.00  0.00     0.016 A 
ATOM     30  C   UNL A   1      36.351  29.263  28.493  1.00  0.00     0.010 A 
ATOM     31  C   UNL A   1      36.475  31.590  28.428  1.00  0.00     0.010 A 
ATOM     32  C   UNL A   1      37.057  30.377  28.872  1.00  0.00    -0.014 A 
BRANCH  32  33
ATOM     33  C   UNL A   1      38.295  30.186  29.739  1.00  0.00     0.031 A 
ATOM     34  C   UNL A   1      39.463  29.414  29.185  1.00  0.00     0.074 A 
ATOM     35  C   UNL A   1      38.524  30.803  30.934  1.00  0.00     0.049 A 
ATOM     36  N   UNL A   1      40.444  28.807  29.803  1.00  0.00    -0.248 NA
ATOM     37  C   UNL A   1      39.551  29.354  27.719  1.00  0.00     0.031 C 
ATOM     38  C   UNL A   1      37.688  31.831  31.566  1.00  0.00     0.029 A 
ATOM     39  N   UNL A   1      39.566  30.671  31.844  1.00  0.00    -0.354 N 
ATOM     40  C   UNL A   1      41.192  28.187  28.809  1.00  0.00     0.074 A 
ATOM     41  C   UNL A   1      40.595  28.557  27.543  1.00  0.00     0.031 C 
ATOM     42  C   UNL A   1      38.250  32.245  32.712  1.00  0.00     0.029 A 
ATOM     43  C   UNL A   1      39.401  31.406  33.004  1.00  0.00     0.049 A 
ATOM     44  H   UNL A   1      40.354  30.104  31.678  1.00  0.00     0.167 HD
ATOM     45  C   UNL A   1      42.248  27.349  28.957  1.00  0.00     0.037 A 
ATOM     46  C   UNL A   1      40.021  31.350  34.205  1.00  0.00     0.037 A 
ATOM     47  C   UNL A   1      42.883  27.074  30.222  1.00  0.00     0.049 A 
ATOM     48  C   UNL A   1      41.095  30.311  34.412  1.00  0.00     0.074 A 
ATOM     49  C   UNL A   1      43.892  26.172  30.514  1.00  0.00     0.029 A 
ATOM     50  N   UNL A   1      42.589  27.737  31.404  1.00  0.00    -0.354 N 
ATOM     51  N   UNL A   1      41.636  29.500  33.536  1.00  0.00    -0.248 NA
ATOM     52  C   UNL A   1      41.608  30.140  35.780  1.00  0.00     0.031 C 
ATOM     53  C   UNL A   1      44.174  26.257  31.883  1.00  0.00     0.029 A 
ATOM     54  C   UNL A   1      43.384  27.254  32.431  1.00  0.00     0.049 A 
ATOM     55  H   UNL A   1      41.914  28.447  31.500  1.00  0.00     0.167 HD
ATOM     56  C   UNL A   1      42.557  28.735  34.240  1.00  0.00     0.074 A 
ATOM     57  C   UNL A   1      42.521  29.194  35.612  1.00  0.00     0.031 C 
ATOM     58  C   UNL A   1      43.352  27.734  33.790  1.00  0.00     0.037 A 
BRANCH  45  59
ATOM     59  C   UNL A   1      42.676  26.565  27.751  1.00  0.00     0.064 A 
ATOM     60  C   UNL A   1      43.679  26.992  26.870  1.00  0.00     0.173 A 
ATOM     61  C   UNL A   1      42.033  25.348  27.466  1.00  0.00     0.173 A 
ATOM     62  F   UNL A   1      44.314  28.155  27.082  1.00  0.00    -0.203 F 
ATOM     63  C   UNL A   1      43.994  26.252  25.731  1.00  0.00     0.198 A 
ATOM     64  C   UNL A   1      42.371  24.595  26.345  1.00  0.00     0.198 A 
ATOM     65  F   UNL A   1      41.067  24.888  28.276  1.00  0.00    -0.203 F 
ATOM     66  F   UNL A   1      44.909  26.712  24.867  1.00  0.00    -0.200 F 
ATOM     67  C   UNL A   1      43.343  25.054  25.471  1.00  0.00     0.200 A 
ATOM     68  F   UNL A   1      41.748  23.433  26.107  1.00  0.00    -0.200 F 
ATOM     69  F   UNL A   1      43.642  24.348  24.372  1.00  0.00    -0.200 F 
ENDBRANCH  45  59
BRANCH  46  70
ATOM     70  C   UNL A   1      39.549  32.178  35.365  1.00  0.00     0.064 A 
ATOM     71  C   UNL A   1      38.612  31.692  36.293  1.00  0.00     0.173 A 
ATOM     72  C   UNL A   1      39.968  33.511  35.528  1.00  0.00     0.173 A 
ATOM     73  F   UNL A   1      38.127  30.447  36.164  1.00  0.00    -0.203 F 
ATOM     74  C   UNL A   1      38.114  32.499  37.319  1.00  0.00     0.198 A 
ATOM     75  C   UNL A   1      39.502  34.304  36.578  1.00  0.00     0.198 A 
ATOM     76  F   UNL A   1      40.833  34.056  34.660  1.00  0.00    -0.203 F 
ATOM     77  F   UNL A   1      37.172  32.026  38.147  1.00  0.00    -0.200 F 
ATOM     78  C   UNL A   1      38.568  33.801  37.467  1.00  0.00     0.200 A 
ATOM     79  F   UNL A   1      39.950  35.559  36.716  1.00  0.00    -0.200 F 
ATOM     80  F   UNL A   1      38.091  34.575  38.453  1.00  0.00    -0.200 F 
ENDBRANCH  46  70
BRANCH  58  81
ATOM     81  C   UNL A   1      44.287  27.099  34.775  1.00  0.00     0.064 A 
ATOM     82  C   UNL A   1      45.556  27.635  35.043  1.00  0.00     0.173 A 
ATOM     83  C   UNL A   1      43.888  25.962  35.495  1.00  0.00     0.173 A 
ATOM     84  F   UNL A   1      45.992  28.709  34.368  1.00  0.00    -0.203 F 
ATOM     85  C   UNL A   1      46.398  27.043  35.982  1.00  0.00     0.198 A 
ATOM     86  C   UNL A   1      44.719  25.393  36.455  1.00  0.00     0.198 A 
ATOM     87  F   UNL A   1      42.683  25.414  35.278  1.00  0.00    -0.203 F 
ATOM     88  F   UNL A   1      47.622  27.544  36.191  1.00  0.00    -0.200 F 
ATOM     89  C   UNL A   1      45.975  25.929  36.693  1.00  0.00     0.200 A 
ATOM     90  F   UNL A   1      44.303  24.325  37.150  1.00  0.00    -0.200 F 
ATOM     91  F   UNL A   1      46.782  25.368  37.604  1.00  0.00    -0.200 F 
ENDBRANCH  58  81
ENDBRANCH  32  33
ENDBRANCH  25  27
ENDBRANCH  24  25
ENDBRANCH  23  24
ENDBRANCH   1  23
TORSDOF 15
ENDMDL
MODEL 3
REMARK VINA RESULT:     -12.2      1.869      4.320
REMARK SMILES Cc1ccc([C@H](C)NC(=O)CC2(C(=O)OCCOC(=O)c3ccc(-c4c5nc(c(-c6c(F)c(F)c(F)c(F)c6F)c6ccc([nH]6)c(-c6c(F)c(F)c(F)c(F)c6F)c6nc(c(-c7c(F)c(F)c(F)c(F)c7F)c7ccc4[nH]7)C=C6)C=C5)cc3)CCCC2)o1
REMARK SMILES IDX 16 1 15 2 13 3 14 4 12 5 84 6 87 7 85 8 86 9 11 10 9 11 8 12
REMARK SMILES IDX 10 14 6 15 7 16 5 17 1 18 2 19 3 20 88 21 4 22 17 23 18 24
REMARK SMILES IDX 19 25 20 26 21 27 22 28 83 29 23 30 82 31 24 32 25 33 26 34
REMARK SMILES IDX 76 35 27 36 81 37 75 38 77 39 28 40 80 41 74 42 73 43 29 45
REMARK SMILES IDX 61 46 41 47 60 48 42 49 45 50 59 51 78 52 43 53 44 54 58 56
REMARK SMILES IDX 79 57 46 58 30 59 31 60 39 61 32 62 33 63 37 64 40 65 34 66
REMARK SMILES IDX 35 67 38 68 36 69 62 70 63 71 71 72 64 73 65 74 69 75 72 76
REMARK SMILES IDX 66 77 67 78 70 79 68 80 47 81 48 82 56 83 49 84 50 85 54 86
REMARK SMILES IDX 57 87 51 88 52 89 55 90 53 91
REMARK H PARENT 8 13 77 44 45 55
REMARK Flexibility Score: inf
ROOT
ATOM      1  C   UNL A   1      31.154  27.465  26.824  1.00  0.00     0.274 C 
ENDROOT
BRANCH   1   2
ATOM      2  O   UNL A   1      31.495  25.993  26.872  1.00  0.00    -0.462 OA
BRANCH   2   3
ATOM      3  C   UNL A   1      31.125  25.116  25.837  1.00  0.00     0.312 C 
ATOM      4  O   UNL A   1      30.184  25.353  25.085  1.00  0.00    -0.252 OA
BRANCH   3   5
ATOM      5  C   UNL A   1      32.139  23.868  25.583  1.00  0.00     0.077 C 
ATOM      6  C   UNL A   1      33.596  24.367  25.796  1.00  0.00     0.019 C 
ATOM      7  C   UNL A   1      32.180  23.453  24.106  1.00  0.00     0.019 C 
ATOM      8  C   UNL A   1      33.973  25.089  24.527  1.00  0.00     0.001 C 
ATOM      9  C   UNL A   1      33.166  24.410  23.428  1.00  0.00     0.001 C 
BRANCH   5  10
ATOM     10  C   UNL A   1      32.092  22.628  26.587  1.00  0.00     0.118 C 
BRANCH  10  11
ATOM     11  C   UNL A   1      33.306  21.977  27.273  1.00  0.00     0.221 C 
ATOM     12  N   UNL A   1      33.560  20.645  26.946  1.00  0.00    -0.346 N 
ATOM     13  H   UNL A   1      33.795  19.964  27.616  1.00  0.00     0.164 HD
ATOM     14  O   UNL A   1      34.046  22.582  28.041  1.00  0.00    -0.275 OA
BRANCH  12  15
ATOM     15  C   UNL A   1      33.447  20.362  25.553  1.00  0.00     0.145 C 
ATOM     16  C   UNL A   1      34.850  20.647  25.062  1.00  0.00     0.039 C 
BRANCH  15  17
ATOM     17  C   UNL A   1      32.950  19.053  24.984  1.00  0.00     0.126 A 
ATOM     18  C   UNL A   1      32.863  15.503  25.512  1.00  0.00     0.087 C 
ATOM     19  C   UNL A   1      32.787  16.856  24.914  1.00  0.00     0.101 A 
ATOM     20  C   UNL A   1      32.856  17.271  23.603  1.00  0.00     0.045 A 
ATOM     21  O   UNL A   1      32.753  17.941  25.758  1.00  0.00    -0.464 OA
ATOM     22  C   UNL A   1      32.929  18.679  23.644  1.00  0.00     0.048 A 
ENDBRANCH  15  17
ENDBRANCH  12  15
ENDBRANCH  10  11
ENDBRANCH   5  10
ENDBRANCH   3   5
ENDBRANCH   2   3
ENDBRANCH   1   2
BRANCH   1  23
ATOM     23  C   UNL A   1      31.703  28.352  25.524  1.00  0.00     0.275 C 
BRANCH  23  24
ATOM     24  O   UNL A   1      32.925  29.229  25.673  1.00  0.00    -0.458 OA
BRANCH  24  25
ATOM     25  C   UNL A   1      33.024  30.282  26.584  1.00  0.00     0.338 C 
ATOM     26  O   UNL A   1      32.072  30.958  26.927  1.00  0.00    -0.246 OA
BRANCH  25  27
ATOM     27  C   UNL A   1      34.431  30.459  27.242  1.00  0.00     0.060 A 
ATOM     28  C   UNL A   1      35.136  29.337  27.594  1.00  0.00     0.016 A 
ATOM     29  C   UNL A   1      35.075  31.630  27.647  1.00  0.00     0.016 A 
ATOM     30  C   UNL A   1      36.234  29.268  28.462  1.00  0.00     0.010 A 
ATOM     31  C   UNL A   1      36.328  31.596  28.396  1.00  0.00     0.010 A 
ATOM     32  C   UNL A   1      36.924  30.391  28.843  1.00  0.00    -0.014 A 
BRANCH  32  33
ATOM     33  C   UNL A   1      38.161  30.216  29.717  1.00  0.00     0.031 A 
ATOM     34  C   UNL A   1      39.347  29.473  29.162  1.00  0.00     0.074 A 
ATOM     35  C   UNL A   1      38.371  30.828  30.918  1.00  0.00     0.049 A 
ATOM     36  N   UNL A   1      40.336  28.879  29.781  1.00  0.00    -0.248 NA
ATOM     37  C   UNL A   1      39.444  29.427  27.696  1.00  0.00     0.031 C 
ATOM     38  C   UNL A   1      37.512  31.834  31.553  1.00  0.00     0.029 A 
ATOM     39  N   UNL A   1      39.411  30.708  31.832  1.00  0.00    -0.354 N 
ATOM     40  C   UNL A   1      41.102  28.283  28.786  1.00  0.00     0.074 A 
ATOM     41  C   UNL A   1      40.505  28.653  27.520  1.00  0.00     0.031 C 
ATOM     42  C   UNL A   1      38.059  32.249  32.707  1.00  0.00     0.029 A 
ATOM     43  C   UNL A   1      39.224  31.430  32.998  1.00  0.00     0.049 A 
ATOM     44  H   UNL A   1      40.210  30.159  31.666  1.00  0.00     0.167 HD
ATOM     45  C   UNL A   1      42.173  27.464  28.934  1.00  0.00     0.037 A 
ATOM     46  C   UNL A   1      39.838  31.376  34.202  1.00  0.00     0.037 A 
ATOM     47  C   UNL A   1      42.806  27.191  30.199  1.00  0.00     0.049 A 
ATOM     48  C   UNL A   1      40.931  30.356  34.406  1.00  0.00     0.074 A 
ATOM     49  C   UNL A   1      43.831  26.306  30.490  1.00  0.00     0.029 A 
ATOM     50  N   UNL A   1      42.493  27.838  31.385  1.00  0.00    -0.354 N 
ATOM     51  N   UNL A   1      41.494  29.564  33.527  1.00  0.00    -0.248 NA
ATOM     52  C   UNL A   1      41.440  30.184  35.776  1.00  0.00     0.031 C 
ATOM     53  C   UNL A   1      44.103  26.385  31.861  1.00  0.00     0.029 A 
ATOM     54  C   UNL A   1      43.291  27.362  32.413  1.00  0.00     0.049 A 
ATOM     55  H   UNL A   1      41.803  28.534  31.483  1.00  0.00     0.167 HD
ATOM     56  C   UNL A   1      42.425  28.811  34.229  1.00  0.00     0.074 A 
ATOM     57  C   UNL A   1      42.373  29.257  35.605  1.00  0.00     0.031 C 
ATOM     58  C   UNL A   1      43.242  27.829  33.775  1.00  0.00     0.037 A 
BRANCH  45  59
ATOM     59  C   UNL A   1      42.623  26.699  27.723  1.00  0.00     0.064 A 
ATOM     60  C   UNL A   1      42.113  25.442  27.373  1.00  0.00     0.173 A 
ATOM     61  C   UNL A   1      43.622  27.250  26.901  1.00  0.00     0.173 A 
ATOM     62  F   UNL A   1      41.172  24.859  28.132  1.00  0.00    -0.203 F 
ATOM     63  C   UNL A   1      42.612  24.749  26.270  1.00  0.00     0.198 A 
ATOM     64  C   UNL A   1      44.095  26.570  25.783  1.00  0.00     0.198 A 
ATOM     65  F   UNL A   1      44.145  28.452  27.186  1.00  0.00    -0.203 F 
ATOM     66  F   UNL A   1      42.157  23.519  25.992  1.00  0.00    -0.200 F 
ATOM     67  C   UNL A   1      43.599  25.314  25.475  1.00  0.00     0.200 A 
ATOM     68  F   UNL A   1      45.039  27.127  25.012  1.00  0.00    -0.200 F 
ATOM     69  F   UNL A   1      44.082  24.643  24.420  1.00  0.00    -0.200 F 
ENDBRANCH  45  59
BRANCH  46  70
ATOM     70  C   UNL A   1      39.344  32.184  35.367  1.00  0.00     0.064 A 
ATOM     71  C   UNL A   1      39.780  33.500  35.596  1.00  0.00     0.173 A 
ATOM     72  C   UNL A   1      38.479  31.627  36.326  1.00  0.00     0.173 A 
ATOM     73  F   UNL A   1      40.649  34.074  34.751  1.00  0.00    -0.203 F 
ATOM     74  C   UNL A   1      39.380  34.214  36.730  1.00  0.00     0.198 A 
ATOM     75  C   UNL A   1      38.047  32.355  37.436  1.00  0.00     0.198 A 
ATOM     76  F   UNL A   1      38.051  30.363  36.193  1.00  0.00    -0.203 F 
ATOM     77  F   UNL A   1      39.866  35.443  36.953  1.00  0.00    -0.200 F 
ATOM     78  C   UNL A   1      38.506  33.644  37.643  1.00  0.00     0.200 A 
ATOM     79  F   UNL A   1      37.199  31.798  38.311  1.00  0.00    -0.200 F 
ATOM     80  F   UNL A   1      38.122  34.329  38.729  1.00  0.00    -0.200 F 
ENDBRANCH  46  70
BRANCH  58  81
ATOM     81  C   UNL A   1      44.184  27.204  34.761  1.00  0.00     0.064 A 
ATOM     82  C   UNL A   1      45.438  27.765  35.045  1.00  0.00     0.173 A 
ATOM     83  C   UNL A   1      43.805  26.051  35.465  1.00  0.00     0.173 A 
ATOM     84  F   UNL A   1      45.855  28.857  34.385  1.00  0.00    -0.203 F 
ATOM     85  C   UNL A   1      46.286  27.181  35.983  1.00  0.00     0.198 A 
ATOM     86  C   UNL A   1      44.641  25.489  36.425  1.00  0.00     0.198 A 
ATOM     87  F   UNL A   1      42.614  25.478  35.232  1.00  0.00    -0.203 F 
ATOM     88  F   UNL A   1      47.497  27.708  36.208  1.00  0.00    -0.200 F 
ATOM     89  C   UNL A   1      45.883  26.051  36.679  1.00  0.00     0.200 A 
ATOM     90  F   UNL A   1      44.244  24.405  37.104  1.00  0.00    -0.200 F 
ATOM     91  F   UNL A   1      46.696  25.498  37.589  1.00  0.00    -0.200 F 
ENDBRANCH  58  81
ENDBRANCH  32  33
ENDBRANCH  25  27
ENDBRANCH  24  25
ENDBRANCH  23  24
ENDBRANCH   1  23
TORSDOF 15
ENDMDL
