MODEL 1
REMARK VINA RESULT:     -14.9      0.000      0.000
REMARK SMILES C[C@]12C(=O)N(c3ccc(C(=O)OCCOC(=O)c4ccc(-c5c6nc(c(-c7c(F)c(F)c(F)c(F)c7F)c7ccc([nH]7)c(-c7c(F)c(F)c(F)c(F)c7F)c7nc(c(-c8c(F)c(F)c(F)c(F)c8F)c8ccc5[nH]8)C=C7)C=C6)cc4)cc3)C(=O)[C@@H]1[C@H]1c3ccccc3[C@@H]2c2ccccc21
REMARK SMILES IDX 14 1 13 2 12 3 10 4 11 5 9 6 6 7 7 8 82 9 8 10 81 11 5 12
REMARK SMILES IDX 1 13 2 14 3 15 85 16 93 17 4 18 83 19 86 20 92 21 94 22
REMARK SMILES IDX 84 23 87 24 99 25 91 26 95 27 88 28 98 29 90 30 96 31 89 32
REMARK SMILES IDX 97 33 15 34 16 35 17 36 18 37 19 38 80 39 20 40 79 41 21 42
REMARK SMILES IDX 22 43 23 44 73 45 24 46 78 47 72 48 74 49 25 50 77 51 71 52
REMARK SMILES IDX 70 53 26 55 58 56 38 57 57 58 39 59 42 60 56 61 75 62 40 63
REMARK SMILES IDX 41 64 55 66 76 67 43 68 27 69 28 70 36 71 29 72 30 73 34 74
REMARK SMILES IDX 37 75 31 76 32 77 35 78 33 79 59 80 60 81 68 82 61 83 62 84
REMARK SMILES IDX 66 85 69 86 63 87 64 88 67 89 65 90 44 91 45 92 53 93 46 94
REMARK SMILES IDX 47 95 51 96 54 97 48 98 49 99 52 100 50 101
REMARK H PARENT 74 54 42 65
REMARK Flexibility Score: inf
ROOT
ATOM      1  C   UNL A   1      39.641  19.902  25.507  1.00  0.00     0.275 C 
ENDROOT
BRANCH   1   2
ATOM      2  C   UNL A   1      39.159  21.216  26.124  1.00  0.00     0.275 C 
BRANCH   2   3
ATOM      3  O   UNL A   1      38.086  21.783  25.345  1.00  0.00    -0.458 OA
BRANCH   3   4
ATOM      4  C   UNL A   1      37.755  23.053  25.671  1.00  0.00     0.338 C 
ATOM      5  O   UNL A   1      38.491  23.909  26.132  1.00  0.00    -0.246 OA
BRANCH   4   6
ATOM      6  C   UNL A   1      36.387  23.361  25.209  1.00  0.00     0.060 A 
ATOM      7  C   UNL A   1      33.923  23.994  23.968  1.00  0.00     0.052 A 
ATOM      8  C   UNL A   1      34.743  22.953  23.498  1.00  0.00     0.028 A 
ATOM      9  C   UNL A   1      34.339  24.669  25.127  1.00  0.00     0.028 A 
ATOM     10  C   UNL A   1      35.963  22.670  24.085  1.00  0.00     0.018 A 
ATOM     11  C   UNL A   1      35.560  24.341  25.761  1.00  0.00     0.018 A 
BRANCH   7  12
ATOM     12  N   UNL A   1      32.879  24.473  23.102  1.00  0.00    -0.250 N 
ATOM     13  C   UNL A   1      31.132  26.257  21.092  1.00  0.00     0.024 C 
ATOM     14  C   UNL A   1      31.831  26.472  22.456  1.00  0.00     0.071 C 
ATOM     15  C   UNL A   1      33.086  25.650  22.372  1.00  0.00     0.241 C 
ATOM     16  C   UNL A   1      31.129  25.781  23.637  1.00  0.00     0.107 C 
ATOM     17  C   UNL A   1      32.007  27.973  22.874  1.00  0.00     0.066 C 
ATOM     18  O   UNL A   1      34.060  25.980  21.709  1.00  0.00    -0.273 OA
ATOM     19  C   UNL A   1      31.514  24.342  23.470  1.00  0.00     0.238 C 
ATOM     20  C   UNL A   1      30.175  26.749  24.389  1.00  0.00     0.063 C 
ATOM     21  C   UNL A   1      32.296  28.073  24.396  1.00  0.00    -0.036 A 
ATOM     22  C   UNL A   1      30.597  28.555  22.727  1.00  0.00    -0.036 A 
ATOM     23  O   UNL A   1      30.857  23.358  23.751  1.00  0.00    -0.274 OA
ATOM     24  C   UNL A   1      31.249  27.530  25.229  1.00  0.00    -0.036 A 
ATOM     25  C   UNL A   1      29.608  27.849  23.480  1.00  0.00    -0.036 A 
ATOM     26  C   UNL A   1      33.485  28.492  24.969  1.00  0.00     0.005 A 
ATOM     27  C   UNL A   1      30.283  29.695  22.001  1.00  0.00     0.005 A 
ATOM     28  C   UNL A   1      31.397  27.428  26.605  1.00  0.00     0.004 A 
ATOM     29  C   UNL A   1      28.298  28.308  23.487  1.00  0.00     0.004 A 
ATOM     30  C   UNL A   1      33.634  28.370  26.356  1.00  0.00     0.000 A 
ATOM     31  C   UNL A   1      28.964  30.144  22.020  1.00  0.00     0.000 A 
ATOM     32  C   UNL A   1      32.603  27.852  27.162  1.00  0.00     0.000 A 
ATOM     33  C   UNL A   1      27.983  29.457  22.751  1.00  0.00     0.000 A 
ENDBRANCH   7  12
ENDBRANCH   4   6
ENDBRANCH   3   4
ENDBRANCH   2   3
ENDBRANCH   1   2
BRANCH   1  34
ATOM     34  O   UNL A   1      40.493  19.191  26.429  1.00  0.00    -0.458 OA
BRANCH  34  35
ATOM     35  C   UNL A   1      41.810  19.183  26.131  1.00  0.00     0.338 C 
ATOM     36  O   UNL A   1      42.484  18.239  25.751  1.00  0.00    -0.246 OA
BRANCH  35  37
ATOM     37  C   UNL A   1      42.375  20.524  26.349  1.00  0.00     0.060 A 
ATOM     38  C   UNL A   1      42.762  21.299  25.257  1.00  0.00     0.016 A 
ATOM     39  C   UNL A   1      42.411  21.060  27.634  1.00  0.00     0.016 A 
ATOM     40  C   UNL A   1      43.202  22.611  25.463  1.00  0.00     0.010 A 
ATOM     41  C   UNL A   1      42.722  22.407  27.821  1.00  0.00     0.010 A 
ATOM     42  C   UNL A   1      43.158  23.193  26.744  1.00  0.00    -0.014 A 
BRANCH  42  43
ATOM     43  C   UNL A   1      43.601  24.600  26.970  1.00  0.00     0.031 A 
ATOM     44  C   UNL A   1      42.636  25.630  27.505  1.00  0.00     0.074 A 
ATOM     45  C   UNL A   1      44.863  24.972  26.671  1.00  0.00     0.049 A 
ATOM     46  N   UNL A   1      42.833  26.903  27.750  1.00  0.00    -0.248 NA
ATOM     47  C   UNL A   1      41.258  25.185  27.767  1.00  0.00     0.031 C 
ATOM     48  C   UNL A   1      45.883  24.107  26.078  1.00  0.00     0.029 A 
ATOM     49  N   UNL A   1      45.505  26.176  26.836  1.00  0.00    -0.354 N 
ATOM     50  C   UNL A   1      41.605  27.407  28.157  1.00  0.00     0.074 A 
ATOM     51  C   UNL A   1      40.654  26.322  28.079  1.00  0.00     0.031 C 
ATOM     52  C   UNL A   1      47.036  24.789  25.980  1.00  0.00     0.029 A 
ATOM     53  C   UNL A   1      46.831  26.148  26.475  1.00  0.00     0.049 A 
ATOM     54  H   UNL A   1      45.058  26.983  27.179  1.00  0.00     0.167 HD
ATOM     55  C   UNL A   1      41.298  28.651  28.594  1.00  0.00     0.037 A 
ATOM     56  C   UNL A   1      47.779  27.101  26.548  1.00  0.00     0.037 A 
ATOM     57  C   UNL A   1      42.249  29.718  28.749  1.00  0.00     0.049 A 
ATOM     58  C   UNL A   1      47.432  28.456  27.100  1.00  0.00     0.074 A 
ATOM     59  C   UNL A   1      42.047  30.985  29.268  1.00  0.00     0.029 A 
ATOM     60  N   UNL A   1      43.588  29.635  28.401  1.00  0.00    -0.354 N 
ATOM     61  N   UNL A   1      46.280  28.897  27.541  1.00  0.00    -0.248 NA
ATOM     62  C   UNL A   1      48.518  29.445  27.169  1.00  0.00     0.031 C 
ATOM     63  C   UNL A   1      43.260  31.679  29.214  1.00  0.00     0.029 A 
ATOM     64  C   UNL A   1      44.223  30.832  28.688  1.00  0.00     0.049 A 
ATOM     65  H   UNL A   1      44.023  28.843  28.009  1.00  0.00     0.167 HD
ATOM     66  C   UNL A   1      46.503  30.204  27.949  1.00  0.00     0.074 A 
ATOM     67  C   UNL A   1      47.904  30.483  27.723  1.00  0.00     0.031 C 
ATOM     68  C   UNL A   1      45.620  31.093  28.462  1.00  0.00     0.037 A 
BRANCH  55  69
ATOM     69  C   UNL A   1      39.873  28.925  28.974  1.00  0.00     0.064 A 
ATOM     70  C   UNL A   1      38.926  29.328  28.020  1.00  0.00     0.173 A 
ATOM     71  C   UNL A   1      39.435  28.729  30.293  1.00  0.00     0.173 A 
ATOM     72  F   UNL A   1      39.298  29.538  26.748  1.00  0.00    -0.203 F 
ATOM     73  C   UNL A   1      37.598  29.546  28.376  1.00  0.00     0.198 A 
ATOM     74  C   UNL A   1      38.100  28.923  30.639  1.00  0.00     0.198 A 
ATOM     75  F   UNL A   1      40.298  28.336  31.241  1.00  0.00    -0.203 F 
ATOM     76  F   UNL A   1      36.721  29.968  27.454  1.00  0.00    -0.200 F 
ATOM     77  C   UNL A   1      37.184  29.336  29.682  1.00  0.00     0.200 A 
ATOM     78  F   UNL A   1      37.698  28.708  31.900  1.00  0.00    -0.200 F 
ATOM     79  F   UNL A   1      35.903  29.536  30.021  1.00  0.00    -0.200 F 
ENDBRANCH  55  69
BRANCH  56  80
ATOM     80  C   UNL A   1      49.172  26.784  26.141  1.00  0.00     0.064 A 
ATOM     81  C   UNL A   1      49.594  26.994  24.820  1.00  0.00     0.173 A 
ATOM     82  C   UNL A   1      50.110  26.290  27.057  1.00  0.00     0.173 A 
ATOM     83  F   UNL A   1      48.724  27.444  23.904  1.00  0.00    -0.203 F 
ATOM     84  C   UNL A   1      50.901  26.713  24.429  1.00  0.00     0.198 A 
ATOM     85  C   UNL A   1      51.423  26.029  26.670  1.00  0.00     0.198 A 
ATOM     86  F   UNL A   1      49.753  26.073  28.331  1.00  0.00    -0.203 F 
ATOM     87  F   UNL A   1      51.270  26.894  23.154  1.00  0.00    -0.200 F 
ATOM     88  C   UNL A   1      51.817  26.237  25.356  1.00  0.00     0.200 A 
ATOM     89  F   UNL A   1      52.308  25.577  27.569  1.00  0.00    -0.200 F 
ATOM     90  F   UNL A   1      53.075  25.975  24.982  1.00  0.00    -0.200 F 
ENDBRANCH  56  80
BRANCH  68  91
ATOM     91  C   UNL A   1      46.135  32.452  28.825  1.00  0.00     0.064 A 
ATOM     92  C   UNL A   1      46.137  33.501  27.896  1.00  0.00     0.173 A 
ATOM     93  C   UNL A   1      46.556  32.729  30.134  1.00  0.00     0.173 A 
ATOM     94  F   UNL A   1      45.753  33.281  26.629  1.00  0.00    -0.203 F 
ATOM     95  C   UNL A   1      46.551  34.778  28.261  1.00  0.00     0.198 A 
ATOM     96  C   UNL A   1      46.950  34.012  30.502  1.00  0.00     0.198 A 
ATOM     97  F   UNL A   1      46.564  31.759  31.061  1.00  0.00    -0.203 F 
ATOM     98  F   UNL A   1      46.568  35.762  27.351  1.00  0.00    -0.200 F 
ATOM     99  C   UNL A   1      46.950  35.035  29.565  1.00  0.00     0.200 A 
ATOM    100  F   UNL A   1      47.325  34.261  31.765  1.00  0.00    -0.200 F 
ATOM    101  F   UNL A   1      47.335  36.268  29.919  1.00  0.00    -0.200 F 
ENDBRANCH  68  91
ENDBRANCH  42  43
ENDBRANCH  35  37
ENDBRANCH  34  35
ENDBRANCH   1  34
TORSDOF 12
ENDMDL
MODEL 2
REMARK VINA RESULT:     -14.9      5.238      9.450
REMARK SMILES C[C@]12C(=O)N(c3ccc(C(=O)OCCOC(=O)c4ccc(-c5c6nc(c(-c7c(F)c(F)c(F)c(F)c7F)c7ccc([nH]7)c(-c7c(F)c(F)c(F)c(F)c7F)c7nc(c(-c8c(F)c(F)c(F)c(F)c8F)c8ccc5[nH]8)C=C7)C=C6)cc4)cc3)C(=O)[C@@H]1[C@H]1c3ccccc3[C@@H]2c2ccccc21
REMARK SMILES IDX 14 1 13 2 12 3 10 4 11 5 9 6 6 7 7 8 82 9 8 10 81 11 5 12
REMARK SMILES IDX 1 13 2 14 3 15 85 16 93 17 4 18 83 19 86 20 92 21 94 22
REMARK SMILES IDX 84 23 87 24 99 25 91 26 95 27 88 28 98 29 90 30 96 31 89 32
REMARK SMILES IDX 97 33 15 34 16 35 17 36 18 37 19 38 80 39 20 40 79 41 21 42
REMARK SMILES IDX 22 43 23 44 73 45 24 46 78 47 72 48 74 49 25 50 77 51 71 52
REMARK SMILES IDX 70 53 26 55 58 56 38 57 57 58 39 59 42 60 56 61 75 62 40 63
REMARK SMILES IDX 41 64 55 66 76 67 43 68 27 69 28 70 36 71 29 72 30 73 34 74
REMARK SMILES IDX 37 75 31 76 32 77 35 78 33 79 59 80 60 81 68 82 61 83 62 84
REMARK SMILES IDX 66 85 69 86 63 87 64 88 67 89 65 90 44 91 45 92 53 93 46 94
REMARK SMILES IDX 47 95 51 96 54 97 48 98 49 99 52 100 50 101
REMARK H PARENT 74 54 42 65
REMARK Flexibility Score: inf
ROOT
ATOM      1  C   UNL A   1      32.062  32.742  27.251  1.00  0.00     0.275 C 
ENDROOT
BRANCH   1   2
ATOM      2  C   UNL A   1      32.676  31.496  26.613  1.00  0.00     0.275 C 
BRANCH   2   3
ATOM      3  O   UNL A   1      32.957  30.495  27.612  1.00  0.00    -0.458 OA
BRANCH   3   4
ATOM      4  C   UNL A   1      33.914  29.603  27.271  1.00  0.00     0.338 C 
ATOM      5  O   UNL A   1      35.088  29.625  27.597  1.00  0.00    -0.246 OA
BRANCH   4   6
ATOM      6  C   UNL A   1      33.312  28.441  26.586  1.00  0.00     0.060 A 
ATOM      7  C   UNL A   1      31.989  26.134  25.617  1.00  0.00     0.052 A 
ATOM      8  C   UNL A   1      31.292  27.176  26.252  1.00  0.00     0.028 A 
ATOM      9  C   UNL A   1      33.368  26.310  25.416  1.00  0.00     0.028 A 
ATOM     10  C   UNL A   1      31.946  28.286  26.756  1.00  0.00     0.018 A 
ATOM     11  C   UNL A   1      34.028  27.472  25.881  1.00  0.00     0.018 A 
BRANCH   7  12
ATOM     12  N   UNL A   1      31.320  24.869  25.464  1.00  0.00    -0.250 N 
ATOM     13  C   UNL A   1      30.377  21.829  25.834  1.00  0.00     0.024 C 
ATOM     14  C   UNL A   1      31.726  22.566  25.659  1.00  0.00     0.071 C 
ATOM     15  C   UNL A   1      31.551  23.859  26.404  1.00  0.00     0.241 C 
ATOM     16  C   UNL A   1      31.971  23.100  24.238  1.00  0.00     0.107 C 
ATOM     17  C   UNL A   1      32.991  21.715  26.027  1.00  0.00     0.066 C 
ATOM     18  O   UNL A   1      31.554  23.933  27.626  1.00  0.00    -0.273 OA
ATOM     19  C   UNL A   1      31.099  24.317  24.175  1.00  0.00     0.238 C 
ATOM     20  C   UNL A   1      32.819  22.113  23.389  1.00  0.00     0.063 C 
ATOM     21  C   UNL A   1      34.264  22.359  25.415  1.00  0.00    -0.036 A 
ATOM     22  C   UNL A   1      32.805  20.426  25.219  1.00  0.00    -0.036 A 
ATOM     23  O   UNL A   1      30.517  24.766  23.206  1.00  0.00    -0.274 OA
ATOM     24  C   UNL A   1      34.236  22.460  23.974  1.00  0.00    -0.036 A 
ATOM     25  C   UNL A   1      32.637  20.651  23.818  1.00  0.00    -0.036 A 
ATOM     26  C   UNL A   1      35.300  22.940  26.127  1.00  0.00     0.005 A 
ATOM     27  C   UNL A   1      32.858  19.144  25.750  1.00  0.00     0.005 A 
ATOM     28  C   UNL A   1      35.237  23.119  23.274  1.00  0.00     0.004 A 
ATOM     29  C   UNL A   1      32.521  19.566  22.960  1.00  0.00     0.004 A 
ATOM     30  C   UNL A   1      36.297  23.617  25.415  1.00  0.00     0.000 A 
ATOM     31  C   UNL A   1      32.741  18.066  24.876  1.00  0.00     0.000 A 
ATOM     32  C   UNL A   1      36.269  23.699  24.010  1.00  0.00     0.000 A 
ATOM     33  C   UNL A   1      32.571  18.274  23.498  1.00  0.00     0.000 A 
ENDBRANCH   7  12
ENDBRANCH   4   6
ENDBRANCH   3   4
ENDBRANCH   2   3
ENDBRANCH   1   2
BRANCH   1  34
ATOM     34  O   UNL A   1      33.010  33.829  27.257  1.00  0.00    -0.458 OA
BRANCH  34  35
ATOM     35  C   UNL A   1      33.179  34.461  28.439  1.00  0.00     0.338 C 
ATOM     36  O   UNL A   1      32.529  35.390  28.889  1.00  0.00    -0.246 OA
BRANCH  35  37
ATOM     37  C   UNL A   1      34.323  33.873  29.154  1.00  0.00     0.060 A 
ATOM     38  C   UNL A   1      34.139  32.734  29.936  1.00  0.00     0.016 A 
ATOM     39  C   UNL A   1      35.603  34.385  28.954  1.00  0.00     0.016 A 
ATOM     40  C   UNL A   1      35.247  32.119  30.530  1.00  0.00     0.010 A 
ATOM     41  C   UNL A   1      36.715  33.694  29.437  1.00  0.00     0.010 A 
ATOM     42  C   UNL A   1      36.553  32.572  30.264  1.00  0.00    -0.014 A 
BRANCH  42  43
ATOM     43  C   UNL A   1      37.742  31.908  30.872  1.00  0.00     0.031 A 
ATOM     44  C   UNL A   1      38.177  32.253  32.276  1.00  0.00     0.074 A 
ATOM     45  C   UNL A   1      38.459  31.014  30.162  1.00  0.00     0.049 A 
ATOM     46  N   UNL A   1      39.193  31.794  32.967  1.00  0.00    -0.248 NA
ATOM     47  C   UNL A   1      37.390  33.272  32.990  1.00  0.00     0.031 C 
ATOM     48  C   UNL A   1      38.206  30.638  28.771  1.00  0.00     0.029 A 
ATOM     49  N   UNL A   1      39.545  30.249  30.518  1.00  0.00    -0.354 N 
ATOM     50  C   UNL A   1      39.182  32.490  34.168  1.00  0.00     0.074 A 
ATOM     51  C   UNL A   1      38.095  33.439  34.099  1.00  0.00     0.031 C 
ATOM     52  C   UNL A   1      39.072  29.677  28.409  1.00  0.00     0.029 A 
ATOM     53  C   UNL A   1      39.961  29.388  29.531  1.00  0.00     0.049 A 
ATOM     54  H   UNL A   1      39.983  30.312  31.397  1.00  0.00     0.167 HD
ATOM     55  C   UNL A   1      39.980  32.331  35.251  1.00  0.00     0.037 A 
ATOM     56  C   UNL A   1      40.937  28.460  29.532  1.00  0.00     0.037 A 
ATOM     57  C   UNL A   1      41.015  31.340  35.361  1.00  0.00     0.049 A 
ATOM     58  C   UNL A   1      41.767  28.254  30.769  1.00  0.00     0.074 A 
ATOM     59  C   UNL A   1      41.816  31.046  36.452  1.00  0.00     0.029 A 
ATOM     60  N   UNL A   1      41.381  30.467  34.348  1.00  0.00    -0.354 N 
ATOM     61  N   UNL A   1      41.702  28.878  31.919  1.00  0.00    -0.248 NA
ATOM     62  C   UNL A   1      42.804  27.213  30.709  1.00  0.00     0.031 C 
ATOM     63  C   UNL A   1      42.683  30.010  36.092  1.00  0.00     0.029 A 
ATOM     64  C   UNL A   1      42.401  29.639  34.787  1.00  0.00     0.049 A 
ATOM     65  H   UNL A   1      40.976  30.440  33.451  1.00  0.00     0.167 HD
ATOM     66  C   UNL A   1      42.676  28.299  32.722  1.00  0.00     0.074 A 
ATOM     67  C   UNL A   1      43.307  27.261  31.936  1.00  0.00     0.031 C 
ATOM     68  C   UNL A   1      43.016  28.607  33.995  1.00  0.00     0.037 A 
BRANCH  55  69
ATOM     69  C   UNL A   1      39.746  33.231  36.428  1.00  0.00     0.064 A 
ATOM     70  C   UNL A   1      40.423  34.452  36.561  1.00  0.00     0.173 A 
ATOM     71  C   UNL A   1      38.794  32.897  37.403  1.00  0.00     0.173 A 
ATOM     72  F   UNL A   1      41.350  34.811  35.659  1.00  0.00    -0.203 F 
ATOM     73  C   UNL A   1      40.173  35.297  37.639  1.00  0.00     0.198 A 
ATOM     74  C   UNL A   1      38.528  33.757  38.466  1.00  0.00     0.198 A 
ATOM     75  F   UNL A   1      38.113  31.745  37.318  1.00  0.00    -0.203 F 
ATOM     76  F   UNL A   1      40.861  36.440  37.765  1.00  0.00    -0.200 F 
ATOM     77  C   UNL A   1      39.220  34.953  38.586  1.00  0.00     0.200 A 
ATOM     78  F   UNL A   1      37.598  33.430  39.374  1.00  0.00    -0.200 F 
ATOM     79  F   UNL A   1      38.973  35.772  39.617  1.00  0.00    -0.200 F 
ENDBRANCH  55  69
BRANCH  56  80
ATOM     80  C   UNL A   1      41.140  27.607  28.333  1.00  0.00     0.064 A 
ATOM     81  C   UNL A   1      42.027  28.002  27.321  1.00  0.00     0.173 A 
ATOM     82  C   UNL A   1      40.478  26.382  28.183  1.00  0.00     0.173 A 
ATOM     83  F   UNL A   1      42.666  29.178  27.412  1.00  0.00    -0.203 F 
ATOM     84  C   UNL A   1      42.236  27.204  26.198  1.00  0.00     0.198 A 
ATOM     85  C   UNL A   1      40.704  25.575  27.070  1.00  0.00     0.198 A 
ATOM     86  F   UNL A   1      39.621  25.963  29.126  1.00  0.00    -0.203 F 
ATOM     87  F   UNL A   1      43.066  27.618  25.231  1.00  0.00    -0.200 F 
ATOM     88  C   UNL A   1      41.581  25.989  26.076  1.00  0.00     0.200 A 
ATOM     89  F   UNL A   1      40.075  24.398  26.958  1.00  0.00    -0.200 F 
ATOM     90  F   UNL A   1      41.789  25.219  25.000  1.00  0.00    -0.200 F 
ENDBRANCH  56  80
BRANCH  68  91
ATOM     91  C   UNL A   1      44.115  27.812  34.632  1.00  0.00     0.064 A 
ATOM     92  C   UNL A   1      45.439  28.270  34.628  1.00  0.00     0.173 A 
ATOM     93  C   UNL A   1      43.828  26.623  35.319  1.00  0.00     0.173 A 
ATOM     94  F   UNL A   1      45.762  29.396  33.974  1.00  0.00    -0.203 F 
ATOM     95  C   UNL A   1      46.441  27.560  35.282  1.00  0.00     0.198 A 
ATOM     96  C   UNL A   1      44.829  25.926  35.990  1.00  0.00     0.198 A 
ATOM     97  F   UNL A   1      42.573  26.149  35.357  1.00  0.00    -0.203 F 
ATOM     98  F   UNL A   1      47.706  28.002  35.246  1.00  0.00    -0.200 F 
ATOM     99  C   UNL A   1      46.135  26.394  35.969  1.00  0.00     0.200 A 
ATOM    100  F   UNL A   1      44.530  24.806  36.661  1.00  0.00    -0.200 F 
ATOM    101  F   UNL A   1      47.099  25.719  36.610  1.00  0.00    -0.200 F 
ENDBRANCH  68  91
ENDBRANCH  42  43
ENDBRANCH  35  37
ENDBRANCH  34  35
ENDBRANCH   1  34
TORSDOF 12
ENDMDL
MODEL 3
REMARK VINA RESULT:     -14.9      5.580     10.897
REMARK SMILES C[C@]12C(=O)N(c3ccc(C(=O)OCCOC(=O)c4ccc(-c5c6nc(c(-c7c(F)c(F)c(F)c(F)c7F)c7ccc([nH]7)c(-c7c(F)c(F)c(F)c(F)c7F)c7nc(c(-c8c(F)c(F)c(F)c(F)c8F)c8ccc5[nH]8)C=C7)C=C6)cc4)cc3)C(=O)[C@@H]1[C@H]1c3ccccc3[C@@H]2c2ccccc21
REMARK SMILES IDX 14 1 13 2 12 3 10 4 11 5 9 6 6 7 7 8 82 9 8 10 81 11 5 12
REMARK SMILES IDX 1 13 2 14 3 15 85 16 93 17 4 18 83 19 86 20 92 21 94 22
REMARK SMILES IDX 84 23 87 24 99 25 91 26 95 27 88 28 98 29 90 30 96 31 89 32
REMARK SMILES IDX 97 33 15 34 16 35 17 36 18 37 19 38 80 39 20 40 79 41 21 42
REMARK SMILES IDX 22 43 23 44 73 45 24 46 78 47 72 48 74 49 25 50 77 51 71 52
REMARK SMILES IDX 70 53 26 55 58 56 38 57 57 58 39 59 42 60 56 61 75 62 40 63
REMARK SMILES IDX 41 64 55 66 76 67 43 68 27 69 28 70 36 71 29 72 30 73 34 74
REMARK SMILES IDX 37 75 31 76 32 77 35 78 33 79 59 80 60 81 68 82 61 83 62 84
REMARK SMILES IDX 66 85 69 86 63 87 64 88 67 89 65 90 44 91 45 92 53 93 46 94
REMARK SMILES IDX 47 95 51 96 54 97 48 98 49 99 52 100 50 101
REMARK H PARENT 74 54 42 65
REMARK Flexibility Score: inf
ROOT
ATOM      1  C   UNL A   1      32.491  33.062  27.771  1.00  0.00     0.275 C 
ENDROOT
BRANCH   1   2
ATOM      2  C   UNL A   1      33.606  32.043  27.536  1.00  0.00     0.275 C 
BRANCH   2   3
ATOM      3  O   UNL A   1      33.058  30.734  27.280  1.00  0.00    -0.458 OA
BRANCH   3   4
ATOM      4  C   UNL A   1      33.966  29.733  27.247  1.00  0.00     0.338 C 
ATOM      5  O   UNL A   1      35.045  29.700  27.813  1.00  0.00    -0.246 OA
BRANCH   4   6
ATOM      6  C   UNL A   1      33.398  28.548  26.573  1.00  0.00     0.060 A 
ATOM      7  C   UNL A   1      32.102  26.223  25.609  1.00  0.00     0.052 A 
ATOM      8  C   UNL A   1      31.380  27.323  26.102  1.00  0.00     0.028 A 
ATOM      9  C   UNL A   1      33.500  26.347  25.544  1.00  0.00     0.028 A 
ATOM     10  C   UNL A   1      32.017  28.443  26.606  1.00  0.00     0.018 A 
ATOM     11  C   UNL A   1      34.148  27.516  26.007  1.00  0.00     0.018 A 
BRANCH   7  12
ATOM     12  N   UNL A   1      31.408  24.971  25.461  1.00  0.00    -0.250 N 
ATOM     13  C   UNL A   1      30.408  21.951  25.843  1.00  0.00     0.024 C 
ATOM     14  C   UNL A   1      31.771  22.661  25.663  1.00  0.00     0.071 C 
ATOM     15  C   UNL A   1      31.622  23.959  26.404  1.00  0.00     0.241 C 
ATOM     16  C   UNL A   1      32.023  23.185  24.240  1.00  0.00     0.107 C 
ATOM     17  C   UNL A   1      33.020  21.787  26.030  1.00  0.00     0.066 C 
ATOM     18  O   UNL A   1      31.630  24.038  27.626  1.00  0.00    -0.273 OA
ATOM     19  C   UNL A   1      31.174  24.419  24.174  1.00  0.00     0.238 C 
ATOM     20  C   UNL A   1      32.850  22.180  23.392  1.00  0.00     0.063 C 
ATOM     21  C   UNL A   1      34.304  22.404  25.413  1.00  0.00    -0.036 A 
ATOM     22  C   UNL A   1      32.807  20.499  25.228  1.00  0.00    -0.036 A 
ATOM     23  O   UNL A   1      30.598  24.876  23.206  1.00  0.00    -0.274 OA
ATOM     24  C   UNL A   1      34.274  22.501  23.973  1.00  0.00    -0.036 A 
ATOM     25  C   UNL A   1      32.640  20.723  23.826  1.00  0.00    -0.036 A 
ATOM     26  C   UNL A   1      35.352  22.967  26.121  1.00  0.00     0.005 A 
ATOM     27  C   UNL A   1      32.837  19.219  25.762  1.00  0.00     0.005 A 
ATOM     28  C   UNL A   1      35.286  23.138  23.268  1.00  0.00     0.004 A 
ATOM     29  C   UNL A   1      32.501  19.638  22.972  1.00  0.00     0.004 A 
ATOM     30  C   UNL A   1      36.361  23.623  25.404  1.00  0.00     0.000 A 
ATOM     31  C   UNL A   1      32.697  18.140  24.892  1.00  0.00     0.000 A 
ATOM     32  C   UNL A   1      36.331  23.701  23.999  1.00  0.00     0.000 A 
ATOM     33  C   UNL A   1      32.528  18.347  23.514  1.00  0.00     0.000 A 
ENDBRANCH   7  12
ENDBRANCH   4   6
ENDBRANCH   3   4
ENDBRANCH   2   3
ENDBRANCH   1   2
BRANCH   1  34
ATOM     34  O   UNL A   1      32.990  34.406  27.617  1.00  0.00    -0.458 OA
BRANCH  34  35
ATOM     35  C   UNL A   1      33.149  35.112  28.758  1.00  0.00     0.338 C 
ATOM     36  O   UNL A   1      32.520  36.092  29.123  1.00  0.00    -0.246 OA
BRANCH  35  37
ATOM     37  C   UNL A   1      34.250  34.537  29.547  1.00  0.00     0.060 A 
ATOM     38  C   UNL A   1      33.971  33.856  30.731  1.00  0.00     0.016 A 
ATOM     39  C   UNL A   1      35.550  34.572  29.049  1.00  0.00     0.016 A 
ATOM     40  C   UNL A   1      35.009  33.223  31.423  1.00  0.00     0.010 A 
ATOM     41  C   UNL A   1      36.555  33.829  29.670  1.00  0.00     0.010 A 
ATOM     42  C   UNL A   1      36.310  33.174  30.886  1.00  0.00    -0.014 A 
BRANCH  42  43
ATOM     43  C   UNL A   1      37.418  32.480  31.603  1.00  0.00     0.031 A 
ATOM     44  C   UNL A   1      38.168  31.348  30.943  1.00  0.00     0.074 A 
ATOM     45  C   UNL A   1      37.742  32.837  32.863  1.00  0.00     0.049 A 
ATOM     46  N   UNL A   1      39.148  30.614  31.414  1.00  0.00    -0.248 NA
ATOM     47  C   UNL A   1      37.742  30.963  29.588  1.00  0.00     0.031 C 
ATOM     48  C   UNL A   1      37.057  33.859  33.656  1.00  0.00     0.029 A 
ATOM     49  N   UNL A   1      38.739  32.386  33.695  1.00  0.00    -0.354 N 
ATOM     50  C   UNL A   1      39.424  29.672  30.434  1.00  0.00     0.074 A 
ATOM     51  C   UNL A   1      38.479  29.886  29.361  1.00  0.00     0.031 C 
ATOM     52  C   UNL A   1      37.686  33.996  34.834  1.00  0.00     0.029 A 
ATOM     53  C   UNL A   1      38.800  33.054  34.895  1.00  0.00     0.049 A 
ATOM     54  H   UNL A   1      39.351  31.654  33.454  1.00  0.00     0.167 HD
ATOM     55  C   UNL A   1      40.399  28.732  30.406  1.00  0.00     0.037 A 
ATOM     56  C   UNL A   1      39.663  32.932  35.922  1.00  0.00     0.037 A 
ATOM     57  C   UNL A   1      41.391  28.559  31.431  1.00  0.00     0.049 A 
ATOM     58  C   UNL A   1      40.781  31.930  35.841  1.00  0.00     0.074 A 
ATOM     59  C   UNL A   1      42.471  27.693  31.449  1.00  0.00     0.029 A 
ATOM     60  N   UNL A   1      41.435  29.279  32.615  1.00  0.00    -0.354 N 
ATOM     61  N   UNL A   1      41.066  31.089  34.877  1.00  0.00    -0.248 NA
ATOM     62  C   UNL A   1      41.698  31.861  36.988  1.00  0.00     0.031 C 
ATOM     63  C   UNL A   1      43.157  27.873  32.654  1.00  0.00     0.029 A 
ATOM     64  C   UNL A   1      42.520  28.872  33.373  1.00  0.00     0.049 A 
ATOM     65  H   UNL A   1      40.791  29.976  32.877  1.00  0.00     0.167 HD
ATOM     66  C   UNL A   1      42.198  30.402  35.294  1.00  0.00     0.074 A 
ATOM     67  C   UNL A   1      42.561  30.936  36.589  1.00  0.00     0.031 C 
ATOM     68  C   UNL A   1      42.872  29.415  34.658  1.00  0.00     0.037 A 
BRANCH  55  69
ATOM     69  C   UNL A   1      40.468  27.834  29.207  1.00  0.00     0.064 A 
ATOM     70  C   UNL A   1      39.687  26.672  29.119  1.00  0.00     0.173 A 
ATOM     71  C   UNL A   1      41.279  28.166  28.111  1.00  0.00     0.173 A 
ATOM     72  F   UNL A   1      38.903  26.306  30.145  1.00  0.00    -0.203 F 
ATOM     73  C   UNL A   1      39.732  25.862  27.987  1.00  0.00     0.198 A 
ATOM     74  C   UNL A   1      41.302  27.367  26.970  1.00  0.00     0.198 A 
ATOM     75  F   UNL A   1      42.038  29.271  28.142  1.00  0.00    -0.203 F 
ATOM     76  F   UNL A   1      39.006  24.736  27.942  1.00  0.00    -0.200 F 
ATOM     77  C   UNL A   1      40.533  26.215  26.911  1.00  0.00     0.200 A 
ATOM     78  F   UNL A   1      42.066  27.715  25.926  1.00  0.00    -0.200 F 
ATOM     79  F   UNL A   1      40.566  25.440  25.818  1.00  0.00    -0.200 F 
ENDBRANCH  55  69
BRANCH  56  80
ATOM     80  C   UNL A   1      39.540  33.835  37.095  1.00  0.00     0.064 A 
ATOM     81  C   UNL A   1      40.145  35.100  37.086  1.00  0.00     0.173 A 
ATOM     82  C   UNL A   1      38.805  33.468  38.229  1.00  0.00     0.173 A 
ATOM     83  F   UNL A   1      40.877  35.485  36.030  1.00  0.00    -0.203 F 
ATOM     84  C   UNL A   1      40.025  35.962  38.175  1.00  0.00     0.198 A 
ATOM     85  C   UNL A   1      38.668  34.338  39.309  1.00  0.00     0.198 A 
ATOM     86  F   UNL A   1      38.209  32.268  38.283  1.00  0.00    -0.203 F 
ATOM     87  F   UNL A   1      40.637  37.153  38.154  1.00  0.00    -0.200 F 
ATOM     88  C   UNL A   1      39.281  35.583  39.282  1.00  0.00     0.200 A 
ATOM     89  F   UNL A   1      37.943  33.974  40.374  1.00  0.00    -0.200 F 
ATOM     90  F   UNL A   1      39.160  36.415  40.325  1.00  0.00    -0.200 F 
ENDBRANCH  56  80
BRANCH  68  91
ATOM     91  C   UNL A   1      44.077  28.845  35.342  1.00  0.00     0.064 A 
ATOM     92  C   UNL A   1      43.977  27.725  36.178  1.00  0.00     0.173 A 
ATOM     93  C   UNL A   1      45.352  29.375  35.095  1.00  0.00     0.173 A 
ATOM     94  F   UNL A   1      42.777  27.192  36.451  1.00  0.00    -0.203 F 
ATOM     95  C   UNL A   1      45.111  27.160  36.753  1.00  0.00     0.198 A 
ATOM     96  C   UNL A   1      46.487  28.794  35.655  1.00  0.00     0.198 A 
ATOM     97  F   UNL A   1      45.500  30.441  34.294  1.00  0.00    -0.203 F 
ATOM     98  F   UNL A   1      44.991  26.104  37.569  1.00  0.00    -0.200 F 
ATOM     99  C   UNL A   1      46.366  27.689  36.484  1.00  0.00     0.200 A 
ATOM    100  F   UNL A   1      47.699  29.300  35.387  1.00  0.00    -0.200 F 
ATOM    101  F   UNL A   1      47.458  27.135  37.028  1.00  0.00    -0.200 F 
ENDBRANCH  68  91
ENDBRANCH  42  43
ENDBRANCH  35  37
ENDBRANCH  34  35
ENDBRANCH   1  34
TORSDOF 12
ENDMDL
