MODEL 1
REMARK VINA RESULT:     -11.7      0.000      0.000
REMARK SMILES O=C(Cc1csc(NC(=O)[C@H]2CC(=O)N(C3CC3)C2)n1)OCCOC(=O)c1ccc(-c2c3nc(c(-c4c(F)c(F)c(F)c(F)c4F)c4ccc([nH]4)c(-c4c(F)c(F)c(F)c(F)c4F)c4nc(c(-c5c(F)c(F)c(F)c(F)c5F)c5ccc2[nH]5)C=C4)C=C3)cc1
REMARK SMILES IDX 22 1 21 2 2 3 1 4 3 5 4 6 5 7 20 8 6 9 7 10 8 11 9 12 10 14
REMARK SMILES IDX 11 15 12 16 19 17 13 18 15 19 14 20 16 21 17 22 18 23 23 24
REMARK SMILES IDX 24 25 25 26 26 27 27 28 28 29 89 30 29 31 88 32 30 33 31 34
REMARK SMILES IDX 32 35 82 36 33 37 87 38 81 39 83 40 34 41 86 42 80 43 79 44
REMARK SMILES IDX 35 46 67 47 47 48 66 49 48 50 51 51 65 52 84 53 49 54 50 55
REMARK SMILES IDX 64 57 85 58 52 59 36 60 37 61 45 62 38 63 39 64 43 65 46 66
REMARK SMILES IDX 40 67 41 68 44 69 42 70 68 71 69 72 77 73 70 74 71 75 75 76
REMARK SMILES IDX 78 77 72 78 73 79 76 80 74 81 53 82 54 83 62 84 55 85 56 86
REMARK SMILES IDX 60 87 63 88 57 89 58 90 61 91 59 92
REMARK H PARENT 8 13 83 45 51 56
REMARK Flexibility Score: inf
ROOT
ATOM      1  C   UNL A   1      31.267  31.574  26.445  1.00  0.00     0.274 C 
ENDROOT
BRANCH   1   2
ATOM      2  O   UNL A   1      32.335  30.796  25.855  1.00  0.00    -0.462 OA
BRANCH   2   3
ATOM      3  C   UNL A   1      32.858  29.650  26.353  1.00  0.00     0.312 C 
ATOM      4  O   UNL A   1      34.037  29.368  26.145  1.00  0.00    -0.252 OA
BRANCH   3   5
ATOM      5  C   UNL A   1      31.987  28.720  27.159  1.00  0.00     0.179 C 
BRANCH   5   6
ATOM      6  C   UNL A   1      31.354  27.639  26.352  1.00  0.00     0.065 A 
ATOM      7  C   UNL A   1      31.029  27.676  25.006  1.00  0.00     0.093 A 
ATOM      8  N   UNL A   1      31.072  26.431  26.986  1.00  0.00    -0.224 NA
ATOM      9  S   UNL A   1      30.487  26.127  24.503  1.00  0.00    -0.105 S 
ATOM     10  C   UNL A   1      30.444  25.653  26.145  1.00  0.00     0.189 A 
BRANCH  10  11
ATOM     11  N   UNL A   1      29.703  24.555  26.490  1.00  0.00    -0.302 N 
ATOM     12  C   UNL A   1      30.275  23.302  26.628  1.00  0.00     0.231 C 
ATOM     13  H   UNL A   1      28.737  24.659  26.645  1.00  0.00     0.172 HD
ATOM     14  O   UNL A   1      29.570  22.323  26.861  1.00  0.00    -0.274 OA
BRANCH  12  15
ATOM     15  C   UNL A   1      31.759  23.173  26.354  1.00  0.00     0.107 C 
ATOM     16  C   UNL A   1      32.693  22.486  27.339  1.00  0.00     0.115 C 
ATOM     17  C   UNL A   1      31.971  22.309  25.127  1.00  0.00     0.133 C 
ATOM     18  C   UNL A   1      33.894  22.255  26.421  1.00  0.00     0.223 C 
ATOM     19  N   UNL A   1      33.399  22.192  25.108  1.00  0.00    -0.339 N 
ATOM     20  O   UNL A   1      35.053  22.192  26.793  1.00  0.00    -0.275 OA
BRANCH  19  21
ATOM     21  C   UNL A   1      34.107  22.275  23.870  1.00  0.00     0.085 C 
ATOM     22  C   UNL A   1      33.736  23.237  22.777  1.00  0.00     0.027 C 
ATOM     23  C   UNL A   1      35.030  23.401  23.527  1.00  0.00     0.027 C 
ENDBRANCH  19  21
ENDBRANCH  12  15
ENDBRANCH  10  11
ENDBRANCH   5   6
ENDBRANCH   3   5
ENDBRANCH   2   3
ENDBRANCH   1   2
BRANCH   1  24
ATOM     24  C   UNL A   1      31.778  32.878  27.047  1.00  0.00     0.275 C 
BRANCH  24  25
ATOM     25  O   UNL A   1      33.212  32.929  26.955  1.00  0.00    -0.458 OA
BRANCH  25  26
ATOM     26  C   UNL A   1      33.822  33.626  27.944  1.00  0.00     0.338 C 
ATOM     27  O   UNL A   1      33.403  34.627  28.500  1.00  0.00    -0.246 OA
BRANCH  26  28
ATOM     28  C   UNL A   1      35.023  32.890  28.387  1.00  0.00     0.060 A 
ATOM     29  C   UNL A   1      34.864  31.560  28.793  1.00  0.00     0.016 A 
ATOM     30  C   UNL A   1      36.286  33.491  28.412  1.00  0.00     0.016 A 
ATOM     31  C   UNL A   1      35.958  30.842  29.274  1.00  0.00     0.010 A 
ATOM     32  C   UNL A   1      37.382  32.772  28.895  1.00  0.00     0.010 A 
ATOM     33  C   UNL A   1      37.216  31.456  29.360  1.00  0.00    -0.014 A 
BRANCH  33  34
ATOM     34  C   UNL A   1      38.318  30.780  30.083  1.00  0.00     0.031 A 
ATOM     35  C   UNL A   1      38.568  31.139  31.521  1.00  0.00     0.074 A 
ATOM     36  C   UNL A   1      39.079  29.852  29.476  1.00  0.00     0.049 A 
ATOM     37  N   UNL A   1      39.469  30.679  32.350  1.00  0.00    -0.248 NA
ATOM     38  C   UNL A   1      37.682  32.161  32.102  1.00  0.00     0.031 C 
ATOM     39  C   UNL A   1      38.928  29.405  28.094  1.00  0.00     0.029 A 
ATOM     40  N   UNL A   1      40.140  29.124  29.954  1.00  0.00    -0.354 N 
ATOM     41  C   UNL A   1      39.249  31.341  33.550  1.00  0.00     0.074 A 
ATOM     42  C   UNL A   1      38.164  32.271  33.330  1.00  0.00     0.031 C 
ATOM     43  C   UNL A   1      39.871  28.482  27.830  1.00  0.00     0.029 A 
ATOM     44  C   UNL A   1      40.700  28.289  29.019  1.00  0.00     0.049 A 
ATOM     45  H   UNL A   1      40.469  29.194  30.880  1.00  0.00     0.167 HD
ATOM     46  C   UNL A   1      39.883  31.176  34.735  1.00  0.00     0.037 A 
ATOM     47  C   UNL A   1      41.766  27.471  29.115  1.00  0.00     0.037 A 
ATOM     48  C   UNL A   1      40.972  30.263  34.954  1.00  0.00     0.049 A 
ATOM     49  C   UNL A   1      42.504  27.363  30.427  1.00  0.00     0.074 A 
ATOM     50  C   UNL A   1      41.672  30.017  36.123  1.00  0.00     0.029 A 
ATOM     51  N   UNL A   1      41.528  29.451  33.976  1.00  0.00    -0.354 N 
ATOM     52  N   UNL A   1      42.257  27.954  31.570  1.00  0.00    -0.248 NA
ATOM     53  C   UNL A   1      43.668  26.464  30.459  1.00  0.00     0.031 C 
ATOM     54  C   UNL A   1      42.681  29.091  35.842  1.00  0.00     0.029 A 
ATOM     55  C   UNL A   1      42.578  28.722  34.510  1.00  0.00     0.049 A 
ATOM     56  H   UNL A   1      41.220  29.401  33.043  1.00  0.00     0.167 HD
ATOM     57  C   UNL A   1      43.206  27.473  32.463  1.00  0.00     0.074 A 
ATOM     58  C   UNL A   1      44.030  26.534  31.732  1.00  0.00     0.031 C 
ATOM     59  C   UNL A   1      43.380  27.780  33.773  1.00  0.00     0.037 A 
BRANCH  46  60
ATOM     60  C   UNL A   1      39.413  32.014  35.887  1.00  0.00     0.064 A 
ATOM     61  C   UNL A   1      38.390  31.576  36.740  1.00  0.00     0.173 A 
ATOM     62  C   UNL A   1      40.008  33.256  36.154  1.00  0.00     0.173 A 
ATOM     63  F   UNL A   1      37.778  30.403  36.515  1.00  0.00    -0.203 F 
ATOM     64  C   UNL A   1      37.962  32.364  37.806  1.00  0.00     0.198 A 
ATOM     65  C   UNL A   1      39.595  34.028  37.237  1.00  0.00     0.198 A 
ATOM     66  F   UNL A   1      40.991  33.718  35.368  1.00  0.00    -0.203 F 
ATOM     67  F   UNL A   1      36.950  31.946  38.581  1.00  0.00    -0.200 F 
ATOM     68  C   UNL A   1      38.568  33.585  38.057  1.00  0.00     0.200 A 
ATOM     69  F   UNL A   1      40.189  35.204  37.484  1.00  0.00    -0.200 F 
ATOM     70  F   UNL A   1      38.157  34.339  39.085  1.00  0.00    -0.200 F 
ENDBRANCH  46  60
BRANCH  47  71
ATOM     71  C   UNL A   1      42.208  26.680  27.938  1.00  0.00     0.064 A 
ATOM     72  C   UNL A   1      43.130  27.204  27.021  1.00  0.00     0.173 A 
ATOM     73  C   UNL A   1      41.686  25.404  27.682  1.00  0.00     0.173 A 
ATOM     74  F   UNL A   1      43.636  28.431  27.209  1.00  0.00    -0.203 F 
ATOM     75  C   UNL A   1      43.494  26.492  25.880  1.00  0.00     0.198 A 
ATOM     76  C   UNL A   1      42.071  24.682  26.555  1.00  0.00     0.198 A 
ATOM     77  F   UNL A   1      40.798  24.859  28.527  1.00  0.00    -0.203 F 
ATOM     78  F   UNL A   1      44.334  27.040  24.991  1.00  0.00    -0.200 F 
ATOM     79  C   UNL A   1      42.966  25.231  25.649  1.00  0.00     0.200 A 
ATOM     80  F   UNL A   1      41.563  23.461  26.339  1.00  0.00    -0.200 F 
ATOM     81  F   UNL A   1      43.309  24.550  24.547  1.00  0.00    -0.200 F 
ENDBRANCH  47  71
BRANCH  59  82
ATOM     82  C   UNL A   1      44.472  27.064  34.513  1.00  0.00     0.064 A 
ATOM     83  C   UNL A   1      45.758  27.608  34.637  1.00  0.00     0.173 A 
ATOM     84  C   UNL A   1      44.214  25.838  35.148  1.00  0.00     0.173 A 
ATOM     85  F   UNL A   1      46.060  28.770  34.039  1.00  0.00    -0.203 F 
ATOM     86  C   UNL A   1      46.752  26.941  35.348  1.00  0.00     0.198 A 
ATOM     87  C   UNL A   1      45.202  25.188  35.882  1.00  0.00     0.198 A 
ATOM     88  F   UNL A   1      42.997  25.279  35.067  1.00  0.00    -0.203 F 
ATOM     89  F   UNL A   1      47.988  27.457  35.416  1.00  0.00    -0.200 F 
ATOM     90  C   UNL A   1      46.471  25.736  35.976  1.00  0.00     0.200 A 
ATOM     91  F   UNL A   1      44.924  24.032  36.499  1.00  0.00    -0.200 F 
ATOM     92  F   UNL A   1      47.428  25.100  36.667  1.00  0.00    -0.200 F 
ENDBRANCH  59  82
ENDBRANCH  33  34
ENDBRANCH  26  28
ENDBRANCH  25  26
ENDBRANCH  24  25
ENDBRANCH   1  24
TORSDOF 15
ENDMDL
MODEL 2
REMARK VINA RESULT:     -11.6      1.391      2.164
REMARK SMILES O=C(Cc1csc(NC(=O)[C@H]2CC(=O)N(C3CC3)C2)n1)OCCOC(=O)c1ccc(-c2c3nc(c(-c4c(F)c(F)c(F)c(F)c4F)c4ccc([nH]4)c(-c4c(F)c(F)c(F)c(F)c4F)c4nc(c(-c5c(F)c(F)c(F)c(F)c5F)c5ccc2[nH]5)C=C4)C=C3)cc1
REMARK SMILES IDX 22 1 21 2 2 3 1 4 3 5 4 6 5 7 20 8 6 9 7 10 8 11 9 12 10 14
REMARK SMILES IDX 11 15 12 16 19 17 13 18 15 19 14 20 16 21 17 22 18 23 23 24
REMARK SMILES IDX 24 25 25 26 26 27 27 28 28 29 89 30 29 31 88 32 30 33 31 34
REMARK SMILES IDX 32 35 82 36 33 37 87 38 81 39 83 40 34 41 86 42 80 43 79 44
REMARK SMILES IDX 35 46 67 47 47 48 66 49 48 50 51 51 65 52 84 53 49 54 50 55
REMARK SMILES IDX 64 57 85 58 52 59 36 60 37 61 45 62 38 63 39 64 43 65 46 66
REMARK SMILES IDX 40 67 41 68 44 69 42 70 68 71 69 72 77 73 70 74 71 75 75 76
REMARK SMILES IDX 78 77 72 78 73 79 76 80 74 81 53 82 54 83 62 84 55 85 56 86
REMARK SMILES IDX 60 87 63 88 57 89 58 90 61 91 59 92
REMARK H PARENT 8 13 83 45 51 56
REMARK Flexibility Score: inf
ROOT
ATOM      1  C   UNL A   1      31.409  31.173  26.250  1.00  0.00     0.274 C 
ENDROOT
BRANCH   1   2
ATOM      2  O   UNL A   1      31.785  30.181  27.233  1.00  0.00    -0.462 OA
BRANCH   2   3
ATOM      3  C   UNL A   1      32.001  28.864  26.997  1.00  0.00     0.312 C 
ATOM      4  O   UNL A   1      31.448  28.014  27.693  1.00  0.00    -0.252 OA
BRANCH   3   5
ATOM      5  C   UNL A   1      32.925  28.448  25.881  1.00  0.00     0.179 C 
BRANCH   5   6
ATOM      6  C   UNL A   1      32.220  28.098  24.616  1.00  0.00     0.065 A 
ATOM      7  C   UNL A   1      30.853  28.050  24.402  1.00  0.00     0.093 A 
ATOM      8  N   UNL A   1      32.996  27.810  23.495  1.00  0.00    -0.224 NA
ATOM      9  S   UNL A   1      30.541  27.772  22.737  1.00  0.00    -0.105 S 
ATOM     10  C   UNL A   1      32.205  27.442  22.522  1.00  0.00     0.189 A 
BRANCH  10  11
ATOM     11  N   UNL A   1      32.597  26.755  21.405  1.00  0.00    -0.302 N 
ATOM     12  C   UNL A   1      32.796  25.385  21.422  1.00  0.00     0.231 C 
ATOM     13  H   UNL A   1      32.742  27.249  20.567  1.00  0.00     0.172 HD
ATOM     14  O   UNL A   1      33.225  24.811  20.423  1.00  0.00    -0.274 OA
BRANCH  12  15
ATOM     15  C   UNL A   1      32.593  24.661  22.736  1.00  0.00     0.107 C 
ATOM     16  C   UNL A   1      31.248  24.058  23.112  1.00  0.00     0.115 C 
ATOM     17  C   UNL A   1      33.468  23.425  22.771  1.00  0.00     0.133 C 
ATOM     18  C   UNL A   1      31.700  23.131  24.241  1.00  0.00     0.223 C 
ATOM     19  N   UNL A   1      33.047  22.816  23.998  1.00  0.00    -0.339 N 
ATOM     20  O   UNL A   1      31.005  22.792  25.184  1.00  0.00    -0.275 OA
BRANCH  19  21
ATOM     21  C   UNL A   1      34.012  22.232  24.875  1.00  0.00     0.085 C 
ATOM     22  C   UNL A   1      34.351  20.768  24.863  1.00  0.00     0.027 C 
ATOM     23  C   UNL A   1      35.368  21.787  24.425  1.00  0.00     0.027 C 
ENDBRANCH  19  21
ENDBRANCH  12  15
ENDBRANCH  10  11
ENDBRANCH   5   6
ENDBRANCH   3   5
ENDBRANCH   2   3
ENDBRANCH   1   2
BRANCH   1  24
ATOM     24  C   UNL A   1      31.781  32.584  26.694  1.00  0.00     0.275 C 
BRANCH  24  25
ATOM     25  O   UNL A   1      32.649  32.522  27.838  1.00  0.00    -0.458 OA
BRANCH  25  26
ATOM     26  C   UNL A   1      33.672  33.411  27.825  1.00  0.00     0.338 C 
ATOM     27  O   UNL A   1      33.597  34.612  27.634  1.00  0.00    -0.246 OA
BRANCH  26  28
ATOM     28  C   UNL A   1      34.911  32.730  28.254  1.00  0.00     0.060 A 
ATOM     29  C   UNL A   1      34.845  31.359  28.527  1.00  0.00     0.016 A 
ATOM     30  C   UNL A   1      36.119  33.421  28.393  1.00  0.00     0.016 A 
ATOM     31  C   UNL A   1      35.974  30.684  28.989  1.00  0.00     0.010 A 
ATOM     32  C   UNL A   1      37.251  32.745  28.858  1.00  0.00     0.010 A 
ATOM     33  C   UNL A   1      37.173  31.382  29.190  1.00  0.00    -0.014 A 
BRANCH  33  34
ATOM     34  C   UNL A   1      38.298  30.726  29.898  1.00  0.00     0.031 A 
ATOM     35  C   UNL A   1      38.556  31.086  31.335  1.00  0.00     0.074 A 
ATOM     36  C   UNL A   1      39.071  29.817  29.279  1.00  0.00     0.049 A 
ATOM     37  N   UNL A   1      39.476  30.641  32.152  1.00  0.00    -0.248 NA
ATOM     38  C   UNL A   1      37.655  32.086  31.930  1.00  0.00     0.031 C 
ATOM     39  C   UNL A   1      38.914  29.373  27.897  1.00  0.00     0.029 A 
ATOM     40  N   UNL A   1      40.152  29.110  29.742  1.00  0.00    -0.354 N 
ATOM     41  C   UNL A   1      39.256  31.293  33.357  1.00  0.00     0.074 A 
ATOM     42  C   UNL A   1      38.149  32.202  33.152  1.00  0.00     0.031 C 
ATOM     43  C   UNL A   1      39.873  28.471  27.619  1.00  0.00     0.029 A 
ATOM     44  C   UNL A   1      40.719  28.291  28.797  1.00  0.00     0.049 A 
ATOM     45  H   UNL A   1      40.490  29.183  30.664  1.00  0.00     0.167 HD
ATOM     46  C   UNL A   1      39.906  31.137  34.534  1.00  0.00     0.037 A 
ATOM     47  C   UNL A   1      41.802  27.495  28.878  1.00  0.00     0.037 A 
ATOM     48  C   UNL A   1      41.016  30.247  34.737  1.00  0.00     0.049 A 
ATOM     49  C   UNL A   1      42.558  27.397  30.181  1.00  0.00     0.074 A 
ATOM     50  C   UNL A   1      41.735  30.011  35.897  1.00  0.00     0.029 A 
ATOM     51  N   UNL A   1      41.578  29.450  33.750  1.00  0.00    -0.354 N 
ATOM     52  N   UNL A   1      42.311  27.978  31.329  1.00  0.00    -0.248 NA
ATOM     53  C   UNL A   1      43.740  26.522  30.196  1.00  0.00     0.031 C 
ATOM     54  C   UNL A   1      42.760  29.107  35.600  1.00  0.00     0.029 A 
ATOM     55  C   UNL A   1      42.650  28.741  34.269  1.00  0.00     0.049 A 
ATOM     56  H   UNL A   1      41.261  29.397  32.820  1.00  0.00     0.167 HD
ATOM     57  C   UNL A   1      43.281  27.514  32.210  1.00  0.00     0.074 A 
ATOM     58  C   UNL A   1      44.115  26.596  31.465  1.00  0.00     0.031 C 
ATOM     59  C   UNL A   1      43.462  27.819  33.519  1.00  0.00     0.037 A 
BRANCH  46  60
ATOM     60  C   UNL A   1      39.432  31.961  35.694  1.00  0.00     0.064 A 
ATOM     61  C   UNL A   1      38.452  31.485  36.577  1.00  0.00     0.173 A 
ATOM     62  C   UNL A   1      39.980  33.228  35.940  1.00  0.00     0.173 A 
ATOM     63  F   UNL A   1      37.885  30.285  36.373  1.00  0.00    -0.203 F 
ATOM     64  C   UNL A   1      38.019  32.259  37.651  1.00  0.00     0.198 A 
ATOM     65  C   UNL A   1      39.564  33.988  37.030  1.00  0.00     0.198 A 
ATOM     66  F   UNL A   1      40.921  33.728  35.126  1.00  0.00    -0.203 F 
ATOM     67  F   UNL A   1      37.047  31.803  38.454  1.00  0.00    -0.200 F 
ATOM     68  C   UNL A   1      38.579  33.506  37.880  1.00  0.00     0.200 A 
ATOM     69  F   UNL A   1      40.113  35.190  37.256  1.00  0.00    -0.200 F 
ATOM     70  F   UNL A   1      38.164  34.248  38.915  1.00  0.00    -0.200 F 
ENDBRANCH  46  60
BRANCH  47  71
ATOM     71  C   UNL A   1      42.248  26.717  27.692  1.00  0.00     0.064 A 
ATOM     72  C   UNL A   1      41.738  25.437  27.436  1.00  0.00     0.173 A 
ATOM     73  C   UNL A   1      43.222  27.219  26.818  1.00  0.00     0.173 A 
ATOM     74  F   UNL A   1      40.824  24.903  28.260  1.00  0.00    -0.203 F 
ATOM     75  C   UNL A   1      42.204  24.678  26.365  1.00  0.00     0.198 A 
ATOM     76  C   UNL A   1      43.668  26.471  25.732  1.00  0.00     0.198 A 
ATOM     77  F   UNL A   1      43.743  28.439  27.022  1.00  0.00    -0.203 F 
ATOM     78  F   UNL A   1      41.741  23.435  26.175  1.00  0.00    -0.200 F 
ATOM     79  C   UNL A   1      43.167  25.198  25.512  1.00  0.00     0.200 A 
ATOM     80  F   UNL A   1      44.593  26.980  24.906  1.00  0.00    -0.200 F 
ATOM     81  F   UNL A   1      43.622  24.464  24.486  1.00  0.00    -0.200 F 
ENDBRANCH  47  71
BRANCH  59  82
ATOM     82  C   UNL A   1      44.578  27.124  34.244  1.00  0.00     0.064 A 
ATOM     83  C   UNL A   1      45.854  27.695  34.357  1.00  0.00     0.173 A 
ATOM     84  C   UNL A   1      44.353  25.890  34.875  1.00  0.00     0.173 A 
ATOM     85  F   UNL A   1      46.124  28.866  33.761  1.00  0.00    -0.203 F 
ATOM     86  C   UNL A   1      46.869  27.046  35.054  1.00  0.00     0.198 A 
ATOM     87  C   UNL A   1      45.362  25.258  35.596  1.00  0.00     0.198 A 
ATOM     88  F   UNL A   1      43.148  25.304  34.804  1.00  0.00    -0.203 F 
ATOM     89  F   UNL A   1      48.094  27.588  35.111  1.00  0.00    -0.200 F 
ATOM     90  C   UNL A   1      46.621  25.832  35.678  1.00  0.00     0.200 A 
ATOM     91  F   UNL A   1      45.117  24.093  36.210  1.00  0.00    -0.200 F 
ATOM     92  F   UNL A   1      47.598  25.214  36.356  1.00  0.00    -0.200 F 
ENDBRANCH  59  82
ENDBRANCH  33  34
ENDBRANCH  26  28
ENDBRANCH  25  26
ENDBRANCH  24  25
ENDBRANCH   1  24
TORSDOF 15
ENDMDL
MODEL 3
REMARK VINA RESULT:     -11.6      0.526      2.042
REMARK SMILES O=C(Cc1csc(NC(=O)[C@H]2CC(=O)N(C3CC3)C2)n1)OCCOC(=O)c1ccc(-c2c3nc(c(-c4c(F)c(F)c(F)c(F)c4F)c4ccc([nH]4)c(-c4c(F)c(F)c(F)c(F)c4F)c4nc(c(-c5c(F)c(F)c(F)c(F)c5F)c5ccc2[nH]5)C=C4)C=C3)cc1
REMARK SMILES IDX 22 1 21 2 2 3 1 4 3 5 4 6 5 7 20 8 6 9 7 10 8 11 9 12 10 14
REMARK SMILES IDX 11 15 12 16 19 17 13 18 15 19 14 20 16 21 17 22 18 23 23 24
REMARK SMILES IDX 24 25 25 26 26 27 27 28 28 29 89 30 29 31 88 32 30 33 31 34
REMARK SMILES IDX 32 35 82 36 33 37 87 38 81 39 83 40 34 41 86 42 80 43 79 44
REMARK SMILES IDX 35 46 67 47 47 48 66 49 48 50 51 51 65 52 84 53 49 54 50 55
REMARK SMILES IDX 64 57 85 58 52 59 36 60 37 61 45 62 38 63 39 64 43 65 46 66
REMARK SMILES IDX 40 67 41 68 44 69 42 70 68 71 69 72 77 73 70 74 71 75 75 76
REMARK SMILES IDX 78 77 72 78 73 79 76 80 74 81 53 82 54 83 62 84 55 85 56 86
REMARK SMILES IDX 60 87 63 88 57 89 58 90 61 91 59 92
REMARK H PARENT 8 13 83 45 51 56
REMARK Flexibility Score: inf
ROOT
ATOM      1  C   UNL A   1      31.399  31.247  26.415  1.00  0.00     0.274 C 
ENDROOT
BRANCH   1   2
ATOM      2  O   UNL A   1      31.964  30.128  27.136  1.00  0.00    -0.462 OA
BRANCH   2   3
ATOM      3  C   UNL A   1      32.731  29.142  26.608  1.00  0.00     0.312 C 
ATOM      4  O   UNL A   1      33.564  28.567  27.308  1.00  0.00    -0.252 OA
BRANCH   3   5
ATOM      5  C   UNL A   1      32.560  28.759  25.160  1.00  0.00     0.179 C 
BRANCH   5   6
ATOM      6  C   UNL A   1      31.536  27.700  24.936  1.00  0.00     0.065 A 
ATOM      7  C   UNL A   1      30.731  27.531  23.822  1.00  0.00     0.093 A 
ATOM      8  N   UNL A   1      31.365  26.738  25.929  1.00  0.00    -0.224 NA
ATOM      9  S   UNL A   1      29.846  26.068  23.968  1.00  0.00    -0.105 S 
ATOM     10  C   UNL A   1      30.370  25.961  25.592  1.00  0.00     0.189 A 
BRANCH  10  11
ATOM     11  N   UNL A   1      29.682  25.144  26.448  1.00  0.00    -0.302 N 
ATOM     12  C   UNL A   1      30.199  23.933  26.877  1.00  0.00     0.231 C 
ATOM     13  H   UNL A   1      28.796  25.425  26.769  1.00  0.00     0.172 HD
ATOM     14  O   UNL A   1      29.523  23.187  27.582  1.00  0.00    -0.274 OA
BRANCH  12  15
ATOM     15  C   UNL A   1      31.553  23.517  26.340  1.00  0.00     0.107 C 
ATOM     16  C   UNL A   1      32.630  22.951  27.252  1.00  0.00     0.115 C 
ATOM     17  C   UNL A   1      31.379  22.366  25.371  1.00  0.00     0.133 C 
ATOM     18  C   UNL A   1      33.545  22.328  26.197  1.00  0.00     0.223 C 
ATOM     19  N   UNL A   1      32.742  22.031  25.083  1.00  0.00    -0.339 N 
ATOM     20  O   UNL A   1      34.749  22.179  26.319  1.00  0.00    -0.275 OA
BRANCH  19  21
ATOM     21  C   UNL A   1      33.133  21.709  23.747  1.00  0.00     0.085 C 
ATOM     22  C   UNL A   1      32.149  21.548  22.622  1.00  0.00     0.027 C 
ATOM     23  C   UNL A   1      33.118  22.700  22.626  1.00  0.00     0.027 C 
ENDBRANCH  19  21
ENDBRANCH  12  15
ENDBRANCH  10  11
ENDBRANCH   5   6
ENDBRANCH   3   5
ENDBRANCH   2   3
ENDBRANCH   1   2
BRANCH   1  24
ATOM     24  C   UNL A   1      31.719  32.577  27.087  1.00  0.00     0.275 C 
BRANCH  24  25
ATOM     25  O   UNL A   1      33.121  32.867  26.952  1.00  0.00    -0.458 OA
BRANCH  25  26
ATOM     26  C   UNL A   1      33.673  33.515  28.006  1.00  0.00     0.338 C 
ATOM     27  O   UNL A   1      33.193  34.451  28.624  1.00  0.00    -0.246 OA
BRANCH  26  28
ATOM     28  C   UNL A   1      34.897  32.804  28.426  1.00  0.00     0.060 A 
ATOM     29  C   UNL A   1      34.781  31.457  28.786  1.00  0.00     0.016 A 
ATOM     30  C   UNL A   1      36.140  33.445  28.475  1.00  0.00     0.016 A 
ATOM     31  C   UNL A   1      35.899  30.759  29.243  1.00  0.00     0.010 A 
ATOM     32  C   UNL A   1      37.259  32.746  28.934  1.00  0.00     0.010 A 
ATOM     33  C   UNL A   1      37.135  31.410  29.353  1.00  0.00    -0.014 A 
BRANCH  33  34
ATOM     34  C   UNL A   1      38.258  30.746  30.055  1.00  0.00     0.031 A 
ATOM     35  C   UNL A   1      38.532  31.108  31.488  1.00  0.00     0.074 A 
ATOM     36  C   UNL A   1      39.018  29.827  29.433  1.00  0.00     0.049 A 
ATOM     37  N   UNL A   1      39.453  30.657  32.299  1.00  0.00    -0.248 NA
ATOM     38  C   UNL A   1      37.645  32.120  32.086  1.00  0.00     0.031 C 
ATOM     39  C   UNL A   1      38.845  29.379  28.054  1.00  0.00     0.029 A 
ATOM     40  N   UNL A   1      40.096  29.110  29.891  1.00  0.00    -0.354 N 
ATOM     41  C   UNL A   1      39.249  31.316  33.504  1.00  0.00     0.074 A 
ATOM     42  C   UNL A   1      38.149  32.234  33.305  1.00  0.00     0.031 C 
ATOM     43  C   UNL A   1      39.793  28.466  27.772  1.00  0.00     0.029 A 
ATOM     44  C   UNL A   1      40.647  28.282  28.944  1.00  0.00     0.049 A 
ATOM     45  H   UNL A   1      40.441  29.183  30.810  1.00  0.00     0.167 HD
ATOM     46  C   UNL A   1      39.907  31.158  34.677  1.00  0.00     0.037 A 
ATOM     47  C   UNL A   1      41.723  27.476  29.020  1.00  0.00     0.037 A 
ATOM     48  C   UNL A   1      41.010  30.257  34.874  1.00  0.00     0.049 A 
ATOM     49  C   UNL A   1      42.487  27.375  30.317  1.00  0.00     0.074 A 
ATOM     50  C   UNL A   1      41.735  30.018  36.029  1.00  0.00     0.029 A 
ATOM     51  N   UNL A   1      41.556  29.451  33.886  1.00  0.00    -0.354 N 
ATOM     52  N   UNL A   1      42.255  27.963  31.465  1.00  0.00    -0.248 NA
ATOM     53  C   UNL A   1      43.661  26.489  30.326  1.00  0.00     0.031 C 
ATOM     54  C   UNL A   1      42.748  29.103  35.728  1.00  0.00     0.029 A 
ATOM     55  C   UNL A   1      42.624  28.733  34.399  1.00  0.00     0.049 A 
ATOM     56  H   UNL A   1      41.231  29.398  32.958  1.00  0.00     0.167 HD
ATOM     57  C   UNL A   1      43.227  27.492  32.340  1.00  0.00     0.074 A 
ATOM     58  C   UNL A   1      44.047  26.563  31.592  1.00  0.00     0.031 C 
ATOM     59  C   UNL A   1      43.422  27.800  33.646  1.00  0.00     0.037 A 
BRANCH  46  60
ATOM     60  C   UNL A   1      39.450  31.990  35.837  1.00  0.00     0.064 A 
ATOM     61  C   UNL A   1      40.018  33.244  36.106  1.00  0.00     0.173 A 
ATOM     62  C   UNL A   1      38.418  31.541  36.675  1.00  0.00     0.173 A 
ATOM     63  F   UNL A   1      41.020  33.709  35.344  1.00  0.00    -0.203 F 
ATOM     64  C   UNL A   1      39.585  34.008  37.187  1.00  0.00     0.198 A 
ATOM     65  C   UNL A   1      37.970  32.319  37.739  1.00  0.00     0.198 A 
ATOM     66  F   UNL A   1      37.842  30.349  36.458  1.00  0.00    -0.203 F 
ATOM     67  F   UNL A   1      40.175  35.182  37.454  1.00  0.00    -0.200 F 
ATOM     68  C   UNL A   1      38.559  33.548  37.999  1.00  0.00     0.200 A 
ATOM     69  F   UNL A   1      36.972  31.878  38.516  1.00  0.00    -0.200 F 
ATOM     70  F   UNL A   1      38.143  34.286  39.036  1.00  0.00    -0.200 F 
ENDBRANCH  46  60
BRANCH  47  71
ATOM     71  C   UNL A   1      42.151  26.689  27.833  1.00  0.00     0.064 A 
ATOM     72  C   UNL A   1      41.640  25.406  27.595  1.00  0.00     0.173 A 
ATOM     73  C   UNL A   1      43.111  27.186  26.940  1.00  0.00     0.173 A 
ATOM     74  F   UNL A   1      40.740  24.878  28.437  1.00  0.00    -0.203 F 
ATOM     75  C   UNL A   1      42.091  24.640  26.523  1.00  0.00     0.198 A 
ATOM     76  C   UNL A   1      43.541  26.430  25.853  1.00  0.00     0.198 A 
ATOM     77  F   UNL A   1      43.633  28.408  27.126  1.00  0.00    -0.203 F 
ATOM     78  F   UNL A   1      41.627  23.394  26.350  1.00  0.00    -0.200 F 
ATOM     79  C   UNL A   1      43.039  25.154  25.651  1.00  0.00     0.200 A 
ATOM     80  F   UNL A   1      44.453  26.933  25.009  1.00  0.00    -0.200 F 
ATOM     81  F   UNL A   1      43.479  24.413  24.625  1.00  0.00    -0.200 F 
ENDBRANCH  47  71
BRANCH  59  82
ATOM     82  C   UNL A   1      44.536  27.096  34.365  1.00  0.00     0.064 A 
ATOM     83  C   UNL A   1      44.361  25.827  34.935  1.00  0.00     0.173 A 
ATOM     84  C   UNL A   1      45.810  27.681  34.443  1.00  0.00     0.173 A 
ATOM     85  F   UNL A   1      43.159  25.231  34.898  1.00  0.00    -0.203 F 
ATOM     86  C   UNL A   1      45.412  25.179  35.577  1.00  0.00     0.198 A 
ATOM     87  C   UNL A   1      46.867  27.018  35.061  1.00  0.00     0.198 A 
ATOM     88  F   UNL A   1      46.033  28.890  33.908  1.00  0.00    -0.203 F 
ATOM     89  F   UNL A   1      45.211  23.986  36.153  1.00  0.00    -0.200 F 
ATOM     90  C   UNL A   1      46.666  25.771  35.633  1.00  0.00     0.200 A 
ATOM     91  F   UNL A   1      48.080  27.585  35.102  1.00  0.00    -0.200 F 
ATOM     92  F   UNL A   1      47.679  25.142  36.245  1.00  0.00    -0.200 F 
ENDBRANCH  59  82
ENDBRANCH  33  34
ENDBRANCH  26  28
ENDBRANCH  25  26
ENDBRANCH  24  25
ENDBRANCH   1  24
TORSDOF 15
ENDMDL
