MODEL 1
REMARK VINA RESULT:     -12.6      0.000      0.000
REMARK SMILES COc1ccc(CCN2C(=O)C[C@@H](C(=O)OCCOC(=O)c3ccc(-c4c5nc(c(-c6c(F)c(F)c(F)c(F)c6F)c6ccc([nH]6)c(-c6c(F)c(F)c(F)c(F)c6F)c6nc(c(-c7c(F)c(F)c(F)c(F)c7F)c7ccc4[nH]7)C=C6)C=C5)cc3)S/C2=[NH+]\c2ccc(F)cc2)cc1OC
REMARK SMILES IDX 17 1 16 2 14 3 15 4 13 5 9 6 10 7 86 8 11 9 12 10 85 11
REMARK SMILES IDX 87 12 8 14 7 15 6 16 3 17 4 18 96 19 5 20 95 21 2 22 1 23
REMARK SMILES IDX 97 24 98 25 88 26 89 27 94 28 90 29 93 30 91 31 92 32 18 33
REMARK SMILES IDX 19 34 20 35 21 36 22 37 23 38 84 39 24 40 83 41 25 42 26 43
REMARK SMILES IDX 27 44 77 45 28 46 82 47 76 48 78 49 29 50 81 51 75 52 74 53
REMARK SMILES IDX 30 55 62 56 42 57 61 58 43 59 46 60 60 61 79 62 44 63 45 64
REMARK SMILES IDX 59 66 80 67 47 68 31 69 32 70 40 71 33 72 34 73 38 74 41 75
REMARK SMILES IDX 35 76 36 77 39 78 37 79 63 80 64 81 72 82 65 83 66 84 70 85
REMARK SMILES IDX 73 86 67 87 68 88 71 89 69 90 48 91 49 92 57 93 50 94 51 95
REMARK SMILES IDX 55 96 58 97 52 98 53 99 56 100 54 101
REMARK H PARENT 87 13 78 54 46 65
REMARK Flexibility Score: inf
ROOT
ATOM      1  C   UNL A   1      38.161  19.667  24.962  1.00  0.00     0.274 C 
ENDROOT
BRANCH   1   2
ATOM      2  O   UNL A   1      37.470  20.737  25.634  1.00  0.00    -0.461 OA
BRANCH   2   3
ATOM      3  C   UNL A   1      37.236  21.876  24.930  1.00  0.00     0.320 C 
ATOM      4  O   UNL A   1      38.019  22.817  24.853  1.00  0.00    -0.251 OA
BRANCH   3   5
ATOM      5  C   UNL A   1      35.877  21.902  24.244  1.00  0.00     0.180 C 
ATOM      6  N   UNL A   1      33.117  22.522  23.537  1.00  0.00    -0.191 N 
ATOM      7  C   UNL A   1      34.101  23.483  23.301  1.00  0.00     0.311 C 
ATOM      8  C   UNL A   1      33.318  21.255  24.082  1.00  0.00     0.319 C 
ATOM      9  O   UNL A   1      33.874  24.499  22.635  1.00  0.00    -0.247 OA
ATOM     10  C   UNL A   1      35.489  23.310  23.884  1.00  0.00     0.155 C 
ATOM     11  S   UNL A   1      34.592  21.165  25.251  1.00  0.00    -0.022 SA
ATOM     12  N   UNL A   1      32.569  20.265  23.724  1.00  0.00    -0.235 N 
ATOM     13  H   UNL A   1      31.804  20.448  23.132  1.00  0.00     0.313 HD
BRANCH   6  14
ATOM     14  C   UNL A   1      31.739  22.913  23.203  1.00  0.00     0.251 C 
BRANCH  14  15
ATOM     15  C   UNL A   1      30.847  23.342  24.378  1.00  0.00     0.082 C 
BRANCH  15  16
ATOM     16  C   UNL A   1      30.883  24.829  24.625  1.00  0.00    -0.040 A 
ATOM     17  C   UNL A   1      31.163  27.610  24.962  1.00  0.00     0.160 A 
ATOM     18  C   UNL A   1      31.554  26.719  25.972  1.00  0.00     0.051 A 
ATOM     19  C   UNL A   1      30.612  27.111  23.776  1.00  0.00     0.160 A 
ATOM     20  C   UNL A   1      31.398  25.341  25.815  1.00  0.00     0.008 A 
ATOM     21  C   UNL A   1      30.478  25.724  23.621  1.00  0.00     0.054 A 
BRANCH  17  22
ATOM     22  O   UNL A   1      31.482  28.938  25.078  1.00  0.00    -0.493 OA
ATOM     23  C   UNL A   1      32.884  29.198  25.069  1.00  0.00     0.278 C 
ENDBRANCH  17  22
BRANCH  19  24
ATOM     24  O   UNL A   1      30.209  27.814  22.671  1.00  0.00    -0.493 OA
ATOM     25  C   UNL A   1      29.029  28.594  22.793  1.00  0.00     0.278 C 
ENDBRANCH  19  24
ENDBRANCH  15  16
ENDBRANCH  14  15
ENDBRANCH   6  14
BRANCH  12  26
ATOM     26  C   UNL A   1      32.791  18.942  24.135  1.00  0.00     0.125 A 
ATOM     27  C   UNL A   1      33.294  18.022  23.201  1.00  0.00     0.055 A 
ATOM     28  C   UNL A   1      32.440  18.482  25.409  1.00  0.00     0.055 A 
ATOM     29  C   UNL A   1      33.456  16.674  23.534  1.00  0.00     0.043 A 
ATOM     30  C   UNL A   1      32.619  17.138  25.753  1.00  0.00     0.043 A 
ATOM     31  C   UNL A   1      33.120  16.247  24.811  1.00  0.00     0.123 A 
ATOM     32  F   UNL A   1      33.269  14.955  25.133  1.00  0.00    -0.207 F 
ENDBRANCH  12  26
ENDBRANCH   3   5
ENDBRANCH   2   3
ENDBRANCH   1   2
BRANCH   1  33
ATOM     33  C   UNL A   1      39.402  19.235  25.751  1.00  0.00     0.275 C 
BRANCH  33  34
ATOM     34  O   UNL A   1      40.287  20.349  25.975  1.00  0.00    -0.458 OA
BRANCH  34  35
ATOM     35  C   UNL A   1      40.732  20.491  27.245  1.00  0.00     0.338 C 
ATOM     36  O   UNL A   1      40.943  19.613  28.061  1.00  0.00    -0.246 OA
BRANCH  35  37
ATOM     37  C   UNL A   1      41.057  21.901  27.494  1.00  0.00     0.060 A 
ATOM     38  C   UNL A   1      40.568  22.862  26.607  1.00  0.00     0.016 A 
ATOM     39  C   UNL A   1      41.907  22.266  28.538  1.00  0.00     0.016 A 
ATOM     40  C   UNL A   1      40.920  24.199  26.758  1.00  0.00     0.010 A 
ATOM     41  C   UNL A   1      42.262  23.608  28.691  1.00  0.00     0.010 A 
ATOM     42  C   UNL A   1      41.777  24.580  27.797  1.00  0.00    -0.014 A 
BRANCH  42  43
ATOM     43  C   UNL A   1      42.212  25.992  27.910  1.00  0.00     0.031 A 
ATOM     44  C   UNL A   1      43.514  26.420  27.301  1.00  0.00     0.074 A 
ATOM     45  C   UNL A   1      41.427  26.886  28.537  1.00  0.00     0.049 A 
ATOM     46  N   UNL A   1      44.114  27.582  27.358  1.00  0.00    -0.248 NA
ATOM     47  C   UNL A   1      44.239  25.404  26.523  1.00  0.00     0.031 C 
ATOM     48  C   UNL A   1      40.116  26.598  29.115  1.00  0.00     0.029 A 
ATOM     49  N   UNL A   1      41.622  28.220  28.790  1.00  0.00    -0.354 N 
ATOM     50  C   UNL A   1      45.296  27.431  26.648  1.00  0.00     0.074 A 
ATOM     51  C   UNL A   1      45.336  26.062  26.177  1.00  0.00     0.031 C 
ATOM     52  C   UNL A   1      39.617  27.725  29.649  1.00  0.00     0.029 A 
ATOM     53  C   UNL A   1      40.594  28.798  29.494  1.00  0.00     0.049 A 
ATOM     54  H   UNL A   1      42.420  28.716  28.495  1.00  0.00     0.167 HD
ATOM     55  C   UNL A   1      46.259  28.354  26.411  1.00  0.00     0.037 A 
ATOM     56  C   UNL A   1      40.473  30.047  29.982  1.00  0.00     0.037 A 
ATOM     57  C   UNL A   1      46.206  29.718  26.870  1.00  0.00     0.049 A 
ATOM     58  C   UNL A   1      41.591  31.032  29.768  1.00  0.00     0.074 A 
ATOM     59  C   UNL A   1      47.122  30.735  26.668  1.00  0.00     0.029 A 
ATOM     60  N   UNL A   1      45.174  30.255  27.627  1.00  0.00    -0.354 N 
ATOM     61  N   UNL A   1      42.710  30.880  29.105  1.00  0.00    -0.248 NA
ATOM     62  C   UNL A   1      41.430  32.357  30.383  1.00  0.00     0.031 C 
ATOM     63  C   UNL A   1      46.664  31.877  27.336  1.00  0.00     0.029 A 
ATOM     64  C   UNL A   1      45.442  31.583  27.920  1.00  0.00     0.049 A 
ATOM     65  H   UNL A   1      44.370  29.765  27.914  1.00  0.00     0.167 HD
ATOM     66  C   UNL A   1      43.378  32.093  29.202  1.00  0.00     0.074 A 
ATOM     67  C   UNL A   1      42.532  32.974  29.980  1.00  0.00     0.031 C 
ATOM     68  C   UNL A   1      44.584  32.445  28.693  1.00  0.00     0.037 A 
BRANCH  55  69
ATOM     69  C   UNL A   1      47.472  27.902  25.653  1.00  0.00     0.064 A 
ATOM     70  C   UNL A   1      47.485  27.837  24.253  1.00  0.00     0.173 A 
ATOM     71  C   UNL A   1      48.642  27.545  26.339  1.00  0.00     0.173 A 
ATOM     72  F   UNL A   1      46.387  28.154  23.551  1.00  0.00    -0.203 F 
ATOM     73  C   UNL A   1      48.618  27.401  23.568  1.00  0.00     0.198 A 
ATOM     74  C   UNL A   1      49.780  27.134  25.651  1.00  0.00     0.198 A 
ATOM     75  F   UNL A   1      48.682  27.595  27.680  1.00  0.00    -0.203 F 
ATOM     76  F   UNL A   1      48.594  27.302  22.231  1.00  0.00    -0.200 F 
ATOM     77  C   UNL A   1      49.765  27.055  24.267  1.00  0.00     0.200 A 
ATOM     78  F   UNL A   1      50.891  26.810  26.328  1.00  0.00    -0.200 F 
ATOM     79  F   UNL A   1      50.854  26.638  23.606  1.00  0.00    -0.200 F 
ENDBRANCH  55  69
BRANCH  56  80
ATOM     80  C   UNL A   1      39.250  30.433  30.729  1.00  0.00     0.064 A 
ATOM     81  C   UNL A   1      39.155  30.216  32.111  1.00  0.00     0.173 A 
ATOM     82  C   UNL A   1      38.154  31.024  30.084  1.00  0.00     0.173 A 
ATOM     83  F   UNL A   1      40.167  29.628  32.767  1.00  0.00    -0.203 F 
ATOM     84  C   UNL A   1      38.007  30.570  32.817  1.00  0.00     0.198 A 
ATOM     85  C   UNL A   1      37.018  31.402  30.795  1.00  0.00     0.198 A 
ATOM     86  F   UNL A   1      38.195  31.249  28.762  1.00  0.00    -0.203 F 
ATOM     87  F   UNL A   1      37.929  30.320  34.131  1.00  0.00    -0.200 F 
ATOM     88  C   UNL A   1      36.943  31.169  32.160  1.00  0.00     0.200 A 
ATOM     89  F   UNL A   1      35.996  31.989  30.158  1.00  0.00    -0.200 F 
ATOM     90  F   UNL A   1      35.843  31.516  32.841  1.00  0.00    -0.200 F 
ENDBRANCH  56  80
BRANCH  68  91
ATOM     91  C   UNL A   1      45.042  33.853  28.934  1.00  0.00     0.064 A 
ATOM     92  C   UNL A   1      45.817  34.191  30.051  1.00  0.00     0.173 A 
ATOM     93  C   UNL A   1      44.723  34.869  28.020  1.00  0.00     0.173 A 
ATOM     94  F   UNL A   1      46.132  33.258  30.963  1.00  0.00    -0.203 F 
ATOM     95  C   UNL A   1      46.239  35.502  30.258  1.00  0.00     0.198 A 
ATOM     96  C   UNL A   1      45.168  36.172  28.215  1.00  0.00     0.198 A 
ATOM     97  F   UNL A   1      43.987  34.594  26.933  1.00  0.00    -0.203 F 
ATOM     98  F   UNL A   1      46.943  35.813  31.355  1.00  0.00    -0.200 F 
ATOM     99  C   UNL A   1      45.921  36.490  29.337  1.00  0.00     0.200 A 
ATOM    100  F   UNL A   1      44.867  37.124  27.321  1.00  0.00    -0.200 F 
ATOM    101  F   UNL A   1      46.331  37.750  29.535  1.00  0.00    -0.200 F 
ENDBRANCH  68  91
ENDBRANCH  42  43
ENDBRANCH  35  37
ENDBRANCH  34  35
ENDBRANCH  33  34
ENDBRANCH   1  33
TORSDOF 17
ENDMDL
MODEL 2
REMARK VINA RESULT:     -12.5      1.439      2.133
REMARK SMILES COc1ccc(CCN2C(=O)C[C@@H](C(=O)OCCOC(=O)c3ccc(-c4c5nc(c(-c6c(F)c(F)c(F)c(F)c6F)c6ccc([nH]6)c(-c6c(F)c(F)c(F)c(F)c6F)c6nc(c(-c7c(F)c(F)c(F)c(F)c7F)c7ccc4[nH]7)C=C6)C=C5)cc3)S/C2=[NH+]\c2ccc(F)cc2)cc1OC
REMARK SMILES IDX 17 1 16 2 14 3 15 4 13 5 9 6 10 7 86 8 11 9 12 10 85 11
REMARK SMILES IDX 87 12 8 14 7 15 6 16 3 17 4 18 96 19 5 20 95 21 2 22 1 23
REMARK SMILES IDX 97 24 98 25 88 26 89 27 94 28 90 29 93 30 91 31 92 32 18 33
REMARK SMILES IDX 19 34 20 35 21 36 22 37 23 38 84 39 24 40 83 41 25 42 26 43
REMARK SMILES IDX 27 44 77 45 28 46 82 47 76 48 78 49 29 50 81 51 75 52 74 53
REMARK SMILES IDX 30 55 62 56 42 57 61 58 43 59 46 60 60 61 79 62 44 63 45 64
REMARK SMILES IDX 59 66 80 67 47 68 31 69 32 70 40 71 33 72 34 73 38 74 41 75
REMARK SMILES IDX 35 76 36 77 39 78 37 79 63 80 64 81 72 82 65 83 66 84 70 85
REMARK SMILES IDX 73 86 67 87 68 88 71 89 69 90 48 91 49 92 57 93 50 94 51 95
REMARK SMILES IDX 55 96 58 97 52 98 53 99 56 100 54 101
REMARK H PARENT 87 13 78 54 46 65
REMARK Flexibility Score: inf
ROOT
ATOM      1  C   UNL A   1      38.729  19.723  25.120  1.00  0.00     0.274 C 
ENDROOT
BRANCH   1   2
ATOM      2  O   UNL A   1      37.654  20.511  25.665  1.00  0.00    -0.461 OA
BRANCH   2   3
ATOM      3  C   UNL A   1      37.394  21.711  25.081  1.00  0.00     0.320 C 
ATOM      4  O   UNL A   1      38.152  22.676  25.110  1.00  0.00    -0.251 OA
BRANCH   3   5
ATOM      5  C   UNL A   1      36.041  21.772  24.386  1.00  0.00     0.180 C 
ATOM      6  N   UNL A   1      33.296  22.452  23.671  1.00  0.00    -0.191 N 
ATOM      7  C   UNL A   1      34.299  23.399  23.456  1.00  0.00     0.311 C 
ATOM      8  C   UNL A   1      33.472  21.173  24.198  1.00  0.00     0.319 C 
ATOM      9  O   UNL A   1      34.095  24.429  22.805  1.00  0.00    -0.247 OA
ATOM     10  C   UNL A   1      35.680  23.192  24.045  1.00  0.00     0.155 C 
ATOM     11  S   UNL A   1      34.735  21.042  25.374  1.00  0.00    -0.022 SA
ATOM     12  N   UNL A   1      32.707  20.202  23.820  1.00  0.00    -0.235 N 
ATOM     13  H   UNL A   1      31.949  20.407  23.227  1.00  0.00     0.313 HD
BRANCH   6  14
ATOM     14  C   UNL A   1      31.928  22.872  23.334  1.00  0.00     0.251 C 
BRANCH  14  15
ATOM     15  C   UNL A   1      31.005  23.203  24.517  1.00  0.00     0.082 C 
BRANCH  15  16
ATOM     16  C   UNL A   1      31.051  24.660  24.903  1.00  0.00    -0.040 A 
ATOM     17  C   UNL A   1      31.301  27.413  25.442  1.00  0.00     0.160 A 
ATOM     18  C   UNL A   1      32.022  26.465  26.183  1.00  0.00     0.051 A 
ATOM     19  C   UNL A   1      30.433  26.983  24.430  1.00  0.00     0.160 A 
ATOM     20  C   UNL A   1      31.884  25.099  25.931  1.00  0.00     0.008 A 
ATOM     21  C   UNL A   1      30.318  25.610  24.173  1.00  0.00     0.054 A 
BRANCH  17  22
ATOM     22  O   UNL A   1      31.582  28.745  25.600  1.00  0.00    -0.493 OA
ATOM     23  C   UNL A   1      32.935  29.087  25.308  1.00  0.00     0.278 C 
ENDBRANCH  17  22
BRANCH  19  24
ATOM     24  O   UNL A   1      29.680  27.752  23.582  1.00  0.00    -0.493 OA
ATOM     25  C   UNL A   1      30.329  28.281  22.436  1.00  0.00     0.278 C 
ENDBRANCH  19  24
ENDBRANCH  15  16
ENDBRANCH  14  15
ENDBRANCH   6  14
BRANCH  12  26
ATOM     26  C   UNL A   1      32.904  18.869  24.213  1.00  0.00     0.125 A 
ATOM     27  C   UNL A   1      33.441  17.966  23.282  1.00  0.00     0.055 A 
ATOM     28  C   UNL A   1      32.494  18.385  25.459  1.00  0.00     0.055 A 
ATOM     29  C   UNL A   1      33.580  16.611  23.592  1.00  0.00     0.043 A 
ATOM     30  C   UNL A   1      32.649  17.032  25.781  1.00  0.00     0.043 A 
ATOM     31  C   UNL A   1      33.186  16.159  24.844  1.00  0.00     0.123 A 
ATOM     32  F   UNL A   1      33.313  14.859  25.145  1.00  0.00    -0.207 F 
ENDBRANCH  12  26
ENDBRANCH   3   5
ENDBRANCH   2   3
ENDBRANCH   1   2
BRANCH   1  33
ATOM     33  C   UNL A   1      39.901  19.639  26.104  1.00  0.00     0.275 C 
BRANCH  33  34
ATOM     34  O   UNL A   1      41.052  19.031  25.488  1.00  0.00    -0.458 OA
BRANCH  34  35
ATOM     35  C   UNL A   1      42.176  19.022  26.241  1.00  0.00     0.338 C 
ATOM     36  O   UNL A   1      42.802  18.053  26.630  1.00  0.00    -0.246 OA
BRANCH  35  37
ATOM     37  C   UNL A   1      42.639  20.401  26.444  1.00  0.00     0.060 A 
ATOM     38  C   UNL A   1      42.596  20.931  27.736  1.00  0.00     0.016 A 
ATOM     39  C   UNL A   1      43.028  21.192  25.364  1.00  0.00     0.016 A 
ATOM     40  C   UNL A   1      42.946  22.258  27.960  1.00  0.00     0.010 A 
ATOM     41  C   UNL A   1      43.380  22.526  25.587  1.00  0.00     0.010 A 
ATOM     42  C   UNL A   1      43.332  23.068  26.885  1.00  0.00    -0.014 A 
BRANCH  42  43
ATOM     43  C   UNL A   1      43.630  24.500  27.114  1.00  0.00     0.031 A 
ATOM     44  C   UNL A   1      45.005  25.029  26.831  1.00  0.00     0.074 A 
ATOM     45  C   UNL A   1      42.662  25.324  27.553  1.00  0.00     0.049 A 
ATOM     46  N   UNL A   1      45.494  26.224  27.042  1.00  0.00    -0.248 NA
ATOM     47  C   UNL A   1      45.959  24.084  26.231  1.00  0.00     0.031 C 
ATOM     48  C   UNL A   1      41.275  24.936  27.806  1.00  0.00     0.029 A 
ATOM     49  N   UNL A   1      42.700  26.660  27.862  1.00  0.00    -0.354 N 
ATOM     50  C   UNL A   1      46.816  26.170  26.625  1.00  0.00     0.074 A 
ATOM     51  C   UNL A   1      47.058  24.821  26.159  1.00  0.00     0.031 C 
ATOM     52  C   UNL A   1      40.589  26.013  28.223  1.00  0.00     0.029 A 
ATOM     53  C   UNL A   1      41.500  27.150  28.314  1.00  0.00     0.049 A 
ATOM     54  H   UNL A   1      43.508  27.214  27.768  1.00  0.00     0.167 HD
ATOM     55  C   UNL A   1      47.742  27.159  26.632  1.00  0.00     0.037 A 
ATOM     56  C   UNL A   1      41.183  28.375  28.777  1.00  0.00     0.037 A 
ATOM     57  C   UNL A   1      47.490  28.503  27.083  1.00  0.00     0.049 A 
ATOM     58  C   UNL A   1      42.249  29.434  28.842  1.00  0.00     0.074 A 
ATOM     59  C   UNL A   1      48.355  29.582  27.114  1.00  0.00     0.029 A 
ATOM     60  N   UNL A   1      46.276  28.951  27.586  1.00  0.00    -0.354 N 
ATOM     61  N   UNL A   1      43.499  29.374  28.457  1.00  0.00    -0.248 NA
ATOM     62  C   UNL A   1      41.859  30.728  29.421  1.00  0.00     0.031 C 
ATOM     63  C   UNL A   1      47.677  30.672  27.672  1.00  0.00     0.029 A 
ATOM     64  C   UNL A   1      46.376  30.284  27.950  1.00  0.00     0.049 A 
ATOM     65  H   UNL A   1      45.462  28.402  27.671  1.00  0.00     0.167 HD
ATOM     66  C   UNL A   1      44.041  30.624  28.723  1.00  0.00     0.074 A 
ATOM     67  C   UNL A   1      42.979  31.426  29.294  1.00  0.00     0.031 C 
ATOM     68  C   UNL A   1      45.305  31.067  28.514  1.00  0.00     0.037 A 
BRANCH  55  69
ATOM     69  C   UNL A   1      49.125  26.809  26.171  1.00  0.00     0.064 A 
ATOM     70  C   UNL A   1      49.535  27.006  24.845  1.00  0.00     0.173 A 
ATOM     71  C   UNL A   1      50.059  26.281  27.076  1.00  0.00     0.173 A 
ATOM     72  F   UNL A   1      48.675  27.494  23.938  1.00  0.00    -0.203 F 
ATOM     73  C   UNL A   1      50.820  26.660  24.434  1.00  0.00     0.198 A 
ATOM     74  C   UNL A   1      51.351  25.960  26.668  1.00  0.00     0.198 A 
ATOM     75  F   UNL A   1      49.718  26.078  28.358  1.00  0.00    -0.203 F 
ATOM     76  F   UNL A   1      51.176  26.814  23.151  1.00  0.00    -0.200 F 
ATOM     77  C   UNL A   1      51.728  26.143  25.347  1.00  0.00     0.200 A 
ATOM     78  F   UNL A   1      52.229  25.469  27.554  1.00  0.00    -0.200 F 
ATOM     79  F   UNL A   1      52.965  25.812  24.950  1.00  0.00    -0.200 F 
ENDBRANCH  55  69
BRANCH  56  80
ATOM     80  C   UNL A   1      39.796  28.659  29.224  1.00  0.00     0.064 A 
ATOM     81  C   UNL A   1      39.400  28.401  30.543  1.00  0.00     0.173 A 
ATOM     82  C   UNL A   1      38.840  29.193  28.347  1.00  0.00     0.173 A 
ATOM     83  F   UNL A   1      40.273  27.865  31.411  1.00  0.00    -0.203 F 
ATOM     84  C   UNL A   1      38.099  28.661  30.967  1.00  0.00     0.198 A 
ATOM     85  C   UNL A   1      37.547  29.476  28.779  1.00  0.00     0.198 A 
ATOM     86  F   UNL A   1      39.169  29.453  27.073  1.00  0.00    -0.203 F 
ATOM     87  F   UNL A   1      37.737  28.373  32.225  1.00  0.00    -0.200 F 
ATOM     88  C   UNL A   1      37.175  29.205  30.086  1.00  0.00     0.200 A 
ATOM     89  F   UNL A   1      36.661  30.010  27.927  1.00  0.00    -0.200 F 
ATOM     90  F   UNL A   1      35.926  29.460  30.497  1.00  0.00    -0.200 F 
ENDBRANCH  56  80
BRANCH  68  91
ATOM     91  C   UNL A   1      45.596  32.494  28.874  1.00  0.00     0.064 A 
ATOM     92  C   UNL A   1      45.376  33.540  27.968  1.00  0.00     0.173 A 
ATOM     93  C   UNL A   1      46.076  32.818  30.152  1.00  0.00     0.173 A 
ATOM     94  F   UNL A   1      44.935  33.277  26.728  1.00  0.00    -0.203 F 
ATOM     95  C   UNL A   1      45.646  34.859  28.320  1.00  0.00     0.198 A 
ATOM     96  C   UNL A   1      46.321  34.140  30.510  1.00  0.00     0.198 A 
ATOM     97  F   UNL A   1      46.300  31.853  31.056  1.00  0.00    -0.203 F 
ATOM     98  F   UNL A   1      45.469  35.840  27.424  1.00  0.00    -0.200 F 
ATOM     99  C   UNL A   1      46.111  35.159  29.592  1.00  0.00     0.200 A 
ATOM    100  F   UNL A   1      46.762  34.430  31.742  1.00  0.00    -0.200 F 
ATOM    101  F   UNL A   1      46.367  36.431  29.931  1.00  0.00    -0.200 F 
ENDBRANCH  68  91
ENDBRANCH  42  43
ENDBRANCH  35  37
ENDBRANCH  34  35
ENDBRANCH  33  34
ENDBRANCH   1  33
TORSDOF 17
ENDMDL
MODEL 3
REMARK VINA RESULT:     -12.5      1.532      7.201
REMARK SMILES COc1ccc(CCN2C(=O)C[C@@H](C(=O)OCCOC(=O)c3ccc(-c4c5nc(c(-c6c(F)c(F)c(F)c(F)c6F)c6ccc([nH]6)c(-c6c(F)c(F)c(F)c(F)c6F)c6nc(c(-c7c(F)c(F)c(F)c(F)c7F)c7ccc4[nH]7)C=C6)C=C5)cc3)S/C2=[NH+]\c2ccc(F)cc2)cc1OC
REMARK SMILES IDX 17 1 16 2 14 3 15 4 13 5 9 6 10 7 86 8 11 9 12 10 85 11
REMARK SMILES IDX 87 12 8 14 7 15 6 16 3 17 4 18 96 19 5 20 95 21 2 22 1 23
REMARK SMILES IDX 97 24 98 25 88 26 89 27 94 28 90 29 93 30 91 31 92 32 18 33
REMARK SMILES IDX 19 34 20 35 21 36 22 37 23 38 84 39 24 40 83 41 25 42 26 43
REMARK SMILES IDX 27 44 77 45 28 46 82 47 76 48 78 49 29 50 81 51 75 52 74 53
REMARK SMILES IDX 30 55 62 56 42 57 61 58 43 59 46 60 60 61 79 62 44 63 45 64
REMARK SMILES IDX 59 66 80 67 47 68 31 69 32 70 40 71 33 72 34 73 38 74 41 75
REMARK SMILES IDX 35 76 36 77 39 78 37 79 63 80 64 81 72 82 65 83 66 84 70 85
REMARK SMILES IDX 73 86 67 87 68 88 71 89 69 90 48 91 49 92 57 93 50 94 51 95
REMARK SMILES IDX 55 96 58 97 52 98 53 99 56 100 54 101
REMARK H PARENT 87 13 78 54 46 65
REMARK Flexibility Score: inf
ROOT
ATOM      1  C   UNL A   1      38.851  19.953  25.052  1.00  0.00     0.274 C 
ENDROOT
BRANCH   1   2
ATOM      2  O   UNL A   1      37.734  20.613  25.674  1.00  0.00    -0.461 OA
BRANCH   2   3
ATOM      3  C   UNL A   1      37.391  21.844  25.210  1.00  0.00     0.320 C 
ATOM      4  O   UNL A   1      38.065  22.857  25.368  1.00  0.00    -0.251 OA
BRANCH   3   5
ATOM      5  C   UNL A   1      36.057  21.871  24.477  1.00  0.00     0.180 C 
ATOM      6  N   UNL A   1      33.319  22.486  23.681  1.00  0.00    -0.191 N 
ATOM      7  C   UNL A   1      34.307  23.453  23.488  1.00  0.00     0.311 C 
ATOM      8  C   UNL A   1      33.508  21.214  24.220  1.00  0.00     0.319 C 
ATOM      9  O   UNL A   1      34.099  24.475  22.825  1.00  0.00    -0.247 OA
ATOM     10  C   UNL A   1      35.675  23.281  24.117  1.00  0.00     0.155 C 
ATOM     11  S   UNL A   1      34.740  21.118  25.432  1.00  0.00    -0.022 SA
ATOM     12  N   UNL A   1      32.776  20.225  23.827  1.00  0.00    -0.235 N 
ATOM     13  H   UNL A   1      32.031  20.410  23.211  1.00  0.00     0.313 HD
BRANCH   6  14
ATOM     14  C   UNL A   1      31.953  22.874  23.303  1.00  0.00     0.251 C 
BRANCH  14  15
ATOM     15  C   UNL A   1      30.996  23.214  24.456  1.00  0.00     0.082 C 
BRANCH  15  16
ATOM     16  C   UNL A   1      31.046  24.670  24.845  1.00  0.00    -0.040 A 
ATOM     17  C   UNL A   1      31.298  27.422  25.386  1.00  0.00     0.160 A 
ATOM     18  C   UNL A   1      32.044  26.475  26.103  1.00  0.00     0.051 A 
ATOM     19  C   UNL A   1      30.404  26.992  24.398  1.00  0.00     0.160 A 
ATOM     20  C   UNL A   1      31.906  25.109  25.850  1.00  0.00     0.008 A 
ATOM     21  C   UNL A   1      30.288  25.619  24.139  1.00  0.00     0.054 A 
BRANCH  17  22
ATOM     22  O   UNL A   1      31.577  28.755  25.540  1.00  0.00    -0.493 OA
ATOM     23  C   UNL A   1      32.827  29.151  24.981  1.00  0.00     0.278 C 
ENDBRANCH  17  22
BRANCH  19  24
ATOM     24  O   UNL A   1      29.623  27.759  23.574  1.00  0.00    -0.493 OA
ATOM     25  C   UNL A   1      30.218  28.239  22.377  1.00  0.00     0.278 C 
ENDBRANCH  19  24
ENDBRANCH  15  16
ENDBRANCH  14  15
ENDBRANCH   6  14
BRANCH  12  26
ATOM     26  C   UNL A   1      32.990  18.898  24.233  1.00  0.00     0.125 A 
ATOM     27  C   UNL A   1      33.571  18.001  23.322  1.00  0.00     0.055 A 
ATOM     28  C   UNL A   1      32.559  18.413  25.472  1.00  0.00     0.055 A 
ATOM     29  C   UNL A   1      33.730  16.651  23.645  1.00  0.00     0.043 A 
ATOM     30  C   UNL A   1      32.735  17.066  25.807  1.00  0.00     0.043 A 
ATOM     31  C   UNL A   1      33.314  16.199  24.890  1.00  0.00     0.123 A 
ATOM     32  F   UNL A   1      33.461  14.904  25.202  1.00  0.00    -0.207 F 
ENDBRANCH  12  26
ENDBRANCH   3   5
ENDBRANCH   2   3
ENDBRANCH   1   2
BRANCH   1  33
ATOM     33  C   UNL A   1      40.079  19.970  25.969  1.00  0.00     0.275 C 
BRANCH  33  34
ATOM     34  O   UNL A   1      40.917  18.822  25.735  1.00  0.00    -0.458 OA
BRANCH  34  35
ATOM     35  C   UNL A   1      42.205  18.954  26.125  1.00  0.00     0.338 C 
ATOM     36  O   UNL A   1      43.066  18.094  26.154  1.00  0.00    -0.246 OA
BRANCH  35  37
ATOM     37  C   UNL A   1      42.486  20.367  26.417  1.00  0.00     0.060 A 
ATOM     38  C   UNL A   1      42.955  21.177  25.381  1.00  0.00     0.016 A 
ATOM     39  C   UNL A   1      42.372  20.866  27.714  1.00  0.00     0.016 A 
ATOM     40  C   UNL A   1      43.312  22.498  25.632  1.00  0.00     0.010 A 
ATOM     41  C   UNL A   1      42.730  22.192  27.968  1.00  0.00     0.010 A 
ATOM     42  C   UNL A   1      43.210  23.012  26.930  1.00  0.00    -0.014 A 
BRANCH  42  43
ATOM     43  C   UNL A   1      43.662  24.394  27.210  1.00  0.00     0.031 A 
ATOM     44  C   UNL A   1      42.693  25.397  27.763  1.00  0.00     0.074 A 
ATOM     45  C   UNL A   1      44.944  24.738  26.989  1.00  0.00     0.049 A 
ATOM     46  N   UNL A   1      42.864  26.673  27.999  1.00  0.00    -0.248 NA
ATOM     47  C   UNL A   1      41.351  24.896  28.096  1.00  0.00     0.031 C 
ATOM     48  C   UNL A   1      45.988  23.834  26.510  1.00  0.00     0.029 A 
ATOM     49  N   UNL A   1      45.584  25.942  27.141  1.00  0.00    -0.354 N 
ATOM     50  C   UNL A   1      41.647  27.133  28.481  1.00  0.00     0.074 A 
ATOM     51  C   UNL A   1      40.742  26.003  28.496  1.00  0.00     0.031 C 
ATOM     52  C   UNL A   1      47.144  24.512  26.416  1.00  0.00     0.029 A 
ATOM     53  C   UNL A   1      46.907  25.906  26.779  1.00  0.00     0.049 A 
ATOM     54  H   UNL A   1      45.138  26.752  27.479  1.00  0.00     0.167 HD
ATOM     55  C   UNL A   1      41.319  28.387  28.876  1.00  0.00     0.037 A 
ATOM     56  C   UNL A   1      47.817  26.897  26.720  1.00  0.00     0.037 A 
ATOM     57  C   UNL A   1      42.228  29.503  28.873  1.00  0.00     0.049 A 
ATOM     58  C   UNL A   1      47.405  28.295  27.095  1.00  0.00     0.074 A 
ATOM     59  C   UNL A   1      41.997  30.808  29.270  1.00  0.00     0.029 A 
ATOM     60  N   UNL A   1      43.548  29.443  28.448  1.00  0.00    -0.354 N 
ATOM     61  N   UNL A   1      46.251  28.726  27.540  1.00  0.00    -0.248 NA
ATOM     62  C   UNL A   1      48.423  29.345  26.945  1.00  0.00     0.031 C 
ATOM     63  C   UNL A   1      43.166  31.547  29.048  1.00  0.00     0.029 A 
ATOM     64  C   UNL A   1      44.137  30.692  28.552  1.00  0.00     0.049 A 
ATOM     65  H   UNL A   1      44.000  28.631  28.120  1.00  0.00     0.167 HD
ATOM     66  C   UNL A   1      46.407  30.090  27.746  1.00  0.00     0.074 A 
ATOM     67  C   UNL A   1      47.772  30.413  27.386  1.00  0.00     0.031 C 
ATOM     68  C   UNL A   1      45.500  30.993  28.192  1.00  0.00     0.037 A 
BRANCH  55  69
ATOM     69  C   UNL A   1      39.902  28.621  29.308  1.00  0.00     0.064 A 
ATOM     70  C   UNL A   1      39.486  28.404  30.629  1.00  0.00     0.173 A 
ATOM     71  C   UNL A   1      38.950  29.086  28.387  1.00  0.00     0.173 A 
ATOM     72  F   UNL A   1      40.354  27.947  31.544  1.00  0.00    -0.203 F 
ATOM     73  C   UNL A   1      38.161  28.615  31.006  1.00  0.00     0.198 A 
ATOM     74  C   UNL A   1      37.633  29.320  28.772  1.00  0.00     0.198 A 
ATOM     75  F   UNL A   1      39.299  29.314  27.111  1.00  0.00    -0.203 F 
ATOM     76  F   UNL A   1      37.774  28.357  32.263  1.00  0.00    -0.200 F 
ATOM     77  C   UNL A   1      37.237  29.077  30.079  1.00  0.00     0.200 A 
ATOM     78  F   UNL A   1      36.745  29.775  27.878  1.00  0.00    -0.200 F 
ATOM     79  F   UNL A   1      35.964  29.280  30.444  1.00  0.00    -0.200 F 
ENDBRANCH  55  69
BRANCH  56  80
ATOM     80  C   UNL A   1      49.204  26.602  26.280  1.00  0.00     0.064 A 
ATOM     81  C   UNL A   1      50.155  26.111  27.184  1.00  0.00     0.173 A 
ATOM     82  C   UNL A   1      49.607  26.803  24.952  1.00  0.00     0.173 A 
ATOM     83  F   UNL A   1      49.822  25.929  28.472  1.00  0.00    -0.203 F 
ATOM     84  C   UNL A   1      51.459  25.837  26.779  1.00  0.00     0.198 A 
ATOM     85  C   UNL A   1      50.904  26.504  24.541  1.00  0.00     0.198 A 
ATOM     86  F   UNL A   1      48.735  27.276  24.049  1.00  0.00    -0.203 F 
ATOM     87  F   UNL A   1      52.358  25.401  27.671  1.00  0.00    -0.200 F 
ATOM     88  C   UNL A   1      51.830  26.027  25.456  1.00  0.00     0.200 A 
ATOM     89  F   UNL A   1      51.256  26.680  23.260  1.00  0.00    -0.200 F 
ATOM     90  F   UNL A   1      53.083  25.757  25.065  1.00  0.00    -0.200 F 
ENDBRANCH  56  80
BRANCH  68  91
ATOM     91  C   UNL A   1      45.968  32.410  28.347  1.00  0.00     0.064 A 
ATOM     92  C   UNL A   1      45.827  33.347  27.314  1.00  0.00     0.173 A 
ATOM     93  C   UNL A   1      46.538  32.840  29.555  1.00  0.00     0.173 A 
ATOM     94  F   UNL A   1      45.304  32.977  26.135  1.00  0.00    -0.203 F 
ATOM     95  C   UNL A   1      46.261  34.659  27.476  1.00  0.00     0.198 A 
ATOM     96  C   UNL A   1      46.948  34.160  29.722  1.00  0.00     0.198 A 
ATOM     97  F   UNL A   1      46.692  31.983  30.574  1.00  0.00    -0.203 F 
ATOM     98  F   UNL A   1      46.157  35.528  26.460  1.00  0.00    -0.200 F 
ATOM     99  C   UNL A   1      46.814  35.067  28.681  1.00  0.00     0.200 A 
ATOM    100  F   UNL A   1      47.474  34.554  30.890  1.00  0.00    -0.200 F 
ATOM    101  F   UNL A   1      47.228  36.332  28.837  1.00  0.00    -0.200 F 
ENDBRANCH  68  91
ENDBRANCH  42  43
ENDBRANCH  35  37
ENDBRANCH  34  35
ENDBRANCH  33  34
ENDBRANCH   1  33
TORSDOF 17
ENDMDL
