MODEL 1
REMARK VINA RESULT:     -12.3      0.000      0.000
REMARK SMILES COc1ccc(F)c(Nc2ccc(C(=O)OCCOC(=O)c3ccc(-c4c5nc(c(-c6c(F)c(F)c(F)c(F)c6F)c6ccc([nH]6)c(-c6c(F)c(F)c(F)c(F)c6F)c6nc(c(-c7c(F)c(F)c(F)c(F)c7F)c7ccc4[nH]7)C=C6)C=C5)cc3)cc2)c1
REMARK SMILES IDX 17 1 16 2 14 3 15 4 13 5 10 6 11 7 86 8 12 9 85 10 9 11 8 13
REMARK SMILES IDX 3 14 4 15 87 16 5 17 6 18 7 19 2 20 1 21 18 22 19 23 20 24
REMARK SMILES IDX 21 25 22 26 23 27 84 28 24 29 83 30 25 31 26 32 27 33 77 34
REMARK SMILES IDX 28 35 82 36 76 37 78 38 29 39 81 40 75 41 74 42 30 44 62 45
REMARK SMILES IDX 42 46 61 47 43 48 46 49 60 50 79 51 44 52 45 53 59 55 80 56
REMARK SMILES IDX 47 57 31 58 32 59 40 60 33 61 34 62 38 63 41 64 35 65 36 66
REMARK SMILES IDX 39 67 37 68 63 69 64 70 72 71 65 72 66 73 70 74 73 75 67 76
REMARK SMILES IDX 68 77 71 78 69 79 48 80 49 81 57 82 50 83 51 84 55 85 58 86
REMARK SMILES IDX 52 87 53 88 56 89 54 90
REMARK H PARENT 9 12 78 43 46 54
REMARK Flexibility Score: inf
ROOT
ATOM      1  C   UNL A   1      31.699  29.346  24.320  1.00  0.00     0.275 C 
ENDROOT
BRANCH   1   2
ATOM      2  O   UNL A   1      30.369  28.837  24.096  1.00  0.00    -0.458 OA
BRANCH   2   3
ATOM      3  C   UNL A   1      30.187  28.187  22.919  1.00  0.00     0.338 C 
ATOM      4  O   UNL A   1      29.660  28.628  21.916  1.00  0.00    -0.246 OA
BRANCH   3   5
ATOM      5  C   UNL A   1      30.805  26.841  22.963  1.00  0.00     0.060 A 
ATOM      6  C   UNL A   1      31.820  24.238  22.744  1.00  0.00     0.039 A 
ATOM      7  C   UNL A   1      32.363  25.261  21.973  1.00  0.00     0.027 A 
ATOM      8  C   UNL A   1      30.806  24.541  23.668  1.00  0.00     0.027 A 
ATOM      9  C   UNL A   1      31.828  26.542  22.055  1.00  0.00     0.018 A 
ATOM     10  C   UNL A   1      30.310  25.842  23.798  1.00  0.00     0.018 A 
BRANCH   6  11
ATOM     11  N   UNL A   1      32.140  22.910  22.425  1.00  0.00    -0.353 N 
ATOM     12  H   UNL A   1      31.892  22.595  21.525  1.00  0.00     0.167 HD
BRANCH  11  13
ATOM     13  C   UNL A   1      32.783  21.980  23.274  1.00  0.00     0.078 A 
ATOM     14  C   UNL A   1      32.765  19.986  24.671  1.00  0.00     0.121 A 
ATOM     15  C   UNL A   1      34.077  20.231  25.071  1.00  0.00     0.049 A 
ATOM     16  C   UNL A   1      32.132  20.841  23.768  1.00  0.00     0.075 A 
ATOM     17  C   UNL A   1      34.747  21.351  24.579  1.00  0.00     0.045 A 
ATOM     18  C   UNL A   1      34.097  22.213  23.697  1.00  0.00     0.146 A 
ATOM     19  F   UNL A   1      34.762  23.280  23.226  1.00  0.00    -0.205 F 
BRANCH  14  20
ATOM     20  O   UNL A   1      32.062  18.881  25.067  1.00  0.00    -0.497 OA
ATOM     21  C   UNL A   1      32.920  17.796  25.412  1.00  0.00     0.278 C 
ENDBRANCH  14  20
ENDBRANCH  11  13
ENDBRANCH   6  11
ENDBRANCH   3   5
ENDBRANCH   2   3
ENDBRANCH   1   2
BRANCH   1  22
ATOM     22  C   UNL A   1      31.810  30.000  25.698  1.00  0.00     0.275 C 
BRANCH  22  23
ATOM     23  O   UNL A   1      33.193  30.189  26.051  1.00  0.00    -0.458 OA
BRANCH  23  24
ATOM     24  C   UNL A   1      33.444  31.180  26.937  1.00  0.00     0.338 C 
ATOM     25  O   UNL A   1      32.727  32.125  27.226  1.00  0.00    -0.246 OA
BRANCH  24  26
ATOM     26  C   UNL A   1      34.739  30.946  27.593  1.00  0.00     0.060 A 
ATOM     27  C   UNL A   1      35.035  29.665  28.040  1.00  0.00     0.016 A 
ATOM     28  C   UNL A   1      35.596  32.000  27.900  1.00  0.00     0.016 A 
ATOM     29  C   UNL A   1      36.105  29.446  28.898  1.00  0.00     0.010 A 
ATOM     30  C   UNL A   1      36.765  31.746  28.633  1.00  0.00     0.010 A 
ATOM     31  C   UNL A   1      37.025  30.468  29.161  1.00  0.00    -0.014 A 
BRANCH  31  32
ATOM     32  C   UNL A   1      38.268  30.176  29.936  1.00  0.00     0.031 A 
ATOM     33  C   UNL A   1      39.351  29.300  29.365  1.00  0.00     0.074 A 
ATOM     34  C   UNL A   1      38.425  30.703  31.171  1.00  0.00     0.049 A 
ATOM     35  N   UNL A   1      40.395  28.782  29.963  1.00  0.00    -0.248 NA
ATOM     36  C   UNL A   1      39.249  28.951  27.939  1.00  0.00     0.031 C 
ATOM     37  C   UNL A   1      37.481  31.607  31.832  1.00  0.00     0.029 A 
ATOM     38  N   UNL A   1      39.437  30.565  32.091  1.00  0.00    -0.354 N 
ATOM     39  C   UNL A   1      41.044  28.013  29.005  1.00  0.00     0.074 A 
ATOM     40  C   UNL A   1      40.277  28.126  27.784  1.00  0.00     0.031 C 
ATOM     41  C   UNL A   1      37.979  31.986  33.016  1.00  0.00     0.029 A 
ATOM     42  C   UNL A   1      39.212  31.252  33.261  1.00  0.00     0.049 A 
ATOM     43  H   UNL A   1      40.245  30.027  31.928  1.00  0.00     0.167 HD
ATOM     44  C   UNL A   1      42.175  27.280  29.142  1.00  0.00     0.037 A 
ATOM     45  C   UNL A   1      39.877  31.250  34.433  1.00  0.00     0.037 A 
ATOM     46  C   UNL A   1      42.958  27.215  30.350  1.00  0.00     0.049 A 
ATOM     47  C   UNL A   1      41.080  30.368  34.582  1.00  0.00     0.074 A 
ATOM     48  C   UNL A   1      44.133  26.518  30.576  1.00  0.00     0.029 A 
ATOM     49  N   UNL A   1      42.652  27.876  31.530  1.00  0.00    -0.354 N 
ATOM     50  N   UNL A   1      41.655  29.603  33.686  1.00  0.00    -0.248 NA
ATOM     51  C   UNL A   1      41.711  30.320  35.908  1.00  0.00     0.031 C 
ATOM     52  C   UNL A   1      44.510  26.717  31.906  1.00  0.00     0.029 A 
ATOM     53  C   UNL A   1      43.600  27.579  32.497  1.00  0.00     0.049 A 
ATOM     54  H   UNL A   1      41.878  28.469  31.662  1.00  0.00     0.167 HD
ATOM     55  C   UNL A   1      42.712  28.986  34.336  1.00  0.00     0.074 A 
ATOM     56  C   UNL A   1      42.716  29.482  35.696  1.00  0.00     0.031 C 
ATOM     57  C   UNL A   1      43.592  28.079  33.847  1.00  0.00     0.037 A 
BRANCH  44  58
ATOM     58  C   UNL A   1      42.645  26.463  27.972  1.00  0.00     0.064 A 
ATOM     59  C   UNL A   1      43.511  27.031  27.022  1.00  0.00     0.173 A 
ATOM     60  C   UNL A   1      42.157  25.172  27.726  1.00  0.00     0.173 A 
ATOM     61  F   UNL A   1      43.997  28.268  27.204  1.00  0.00    -0.203 F 
ATOM     62  C   UNL A   1      43.852  26.344  25.860  1.00  0.00     0.198 A 
ATOM     63  C   UNL A   1      42.522  24.478  26.574  1.00  0.00     0.198 A 
ATOM     64  F   UNL A   1      41.334  24.583  28.605  1.00  0.00    -0.203 F 
ATOM     65  F   UNL A   1      44.643  26.924  24.947  1.00  0.00    -0.200 F 
ATOM     66  C   UNL A   1      43.358  25.067  25.638  1.00  0.00     0.200 A 
ATOM     67  F   UNL A   1      42.058  23.237  26.367  1.00  0.00    -0.200 F 
ATOM     68  F   UNL A   1      43.684  24.408  24.517  1.00  0.00    -0.200 F 
ENDBRANCH  44  58
BRANCH  45  69
ATOM     69  C   UNL A   1      39.368  32.067  35.567  1.00  0.00     0.064 A 
ATOM     70  C   UNL A   1      39.813  33.383  35.776  1.00  0.00     0.173 A 
ATOM     71  C   UNL A   1      38.461  31.533  36.491  1.00  0.00     0.173 A 
ATOM     72  F   UNL A   1      40.679  33.944  34.920  1.00  0.00    -0.203 F 
ATOM     73  C   UNL A   1      39.404  34.116  36.887  1.00  0.00     0.198 A 
ATOM     74  C   UNL A   1      38.024  32.280  37.584  1.00  0.00     0.198 A 
ATOM     75  F   UNL A   1      37.985  30.291  36.320  1.00  0.00    -0.203 F 
ATOM     76  F   UNL A   1      39.889  35.348  37.092  1.00  0.00    -0.200 F 
ATOM     77  C   UNL A   1      38.506  33.565  37.789  1.00  0.00     0.200 A 
ATOM     78  F   UNL A   1      37.134  31.756  38.438  1.00  0.00    -0.200 F 
ATOM     79  F   UNL A   1      38.104  34.273  38.853  1.00  0.00    -0.200 F 
ENDBRANCH  45  69
BRANCH  57  80
ATOM     80  C   UNL A   1      44.644  27.562  34.780  1.00  0.00     0.064 A 
ATOM     81  C   UNL A   1      44.425  26.393  35.523  1.00  0.00     0.173 A 
ATOM     82  C   UNL A   1      45.830  28.275  35.005  1.00  0.00     0.173 A 
ATOM     83  F   UNL A   1      43.302  25.680  35.346  1.00  0.00    -0.203 F 
ATOM     84  C   UNL A   1      45.344  25.970  36.478  1.00  0.00     0.198 A 
ATOM     85  C   UNL A   1      46.760  27.836  35.942  1.00  0.00     0.198 A 
ATOM     86  F   UNL A   1      46.090  29.390  34.306  1.00  0.00    -0.203 F 
ATOM     87  F   UNL A   1      45.095  24.874  37.206  1.00  0.00    -0.200 F 
ATOM     88  C   UNL A   1      46.510  26.691  36.686  1.00  0.00     0.200 A 
ATOM     89  F   UNL A   1      47.897  28.519  36.126  1.00  0.00    -0.200 F 
ATOM     90  F   UNL A   1      47.396  26.282  37.605  1.00  0.00    -0.200 F 
ENDBRANCH  57  80
ENDBRANCH  31  32
ENDBRANCH  24  26
ENDBRANCH  23  24
ENDBRANCH  22  23
ENDBRANCH   1  22
TORSDOF 14
ENDMDL
MODEL 2
REMARK VINA RESULT:     -12.3      4.258      9.959
REMARK SMILES COc1ccc(F)c(Nc2ccc(C(=O)OCCOC(=O)c3ccc(-c4c5nc(c(-c6c(F)c(F)c(F)c(F)c6F)c6ccc([nH]6)c(-c6c(F)c(F)c(F)c(F)c6F)c6nc(c(-c7c(F)c(F)c(F)c(F)c7F)c7ccc4[nH]7)C=C6)C=C5)cc3)cc2)c1
REMARK SMILES IDX 17 1 16 2 14 3 15 4 13 5 10 6 11 7 86 8 12 9 85 10 9 11 8 13
REMARK SMILES IDX 3 14 4 15 87 16 5 17 6 18 7 19 2 20 1 21 18 22 19 23 20 24
REMARK SMILES IDX 21 25 22 26 23 27 84 28 24 29 83 30 25 31 26 32 27 33 77 34
REMARK SMILES IDX 28 35 82 36 76 37 78 38 29 39 81 40 75 41 74 42 30 44 62 45
REMARK SMILES IDX 42 46 61 47 43 48 46 49 60 50 79 51 44 52 45 53 59 55 80 56
REMARK SMILES IDX 47 57 31 58 32 59 40 60 33 61 34 62 38 63 41 64 35 65 36 66
REMARK SMILES IDX 39 67 37 68 63 69 64 70 72 71 65 72 66 73 70 74 73 75 67 76
REMARK SMILES IDX 68 77 71 78 69 79 48 80 49 81 57 82 50 83 51 84 55 85 58 86
REMARK SMILES IDX 52 87 53 88 56 89 54 90
REMARK H PARENT 9 12 78 43 46 54
REMARK Flexibility Score: inf
ROOT
ATOM      1  C   UNL A   1      34.920  20.772  25.469  1.00  0.00     0.275 C 
ENDROOT
BRANCH   1   2
ATOM      2  O   UNL A   1      34.037  20.400  24.392  1.00  0.00    -0.458 OA
BRANCH   2   3
ATOM      3  C   UNL A   1      32.718  20.368  24.708  1.00  0.00     0.338 C 
ATOM      4  O   UNL A   1      32.062  19.385  24.996  1.00  0.00    -0.246 OA
BRANCH   3   5
ATOM      5  C   UNL A   1      32.154  21.737  24.746  1.00  0.00     0.060 A 
ATOM      6  C   UNL A   1      30.778  24.177  24.827  1.00  0.00     0.039 A 
ATOM      7  C   UNL A   1      30.896  23.408  25.982  1.00  0.00     0.027 A 
ATOM      8  C   UNL A   1      31.406  23.743  23.648  1.00  0.00     0.027 A 
ATOM      9  C   UNL A   1      31.543  22.179  25.926  1.00  0.00     0.018 A 
ATOM     10  C   UNL A   1      32.113  22.537  23.606  1.00  0.00     0.018 A 
BRANCH   6  11
ATOM     11  N   UNL A   1      29.862  25.239  24.814  1.00  0.00    -0.353 N 
ATOM     12  H   UNL A   1      28.927  25.025  25.036  1.00  0.00     0.167 HD
BRANCH  11  13
ATOM     13  C   UNL A   1      30.154  26.589  24.512  1.00  0.00     0.078 A 
ATOM     14  C   UNL A   1      29.986  28.547  23.075  1.00  0.00     0.121 A 
ATOM     15  C   UNL A   1      30.880  29.244  23.886  1.00  0.00     0.049 A 
ATOM     16  C   UNL A   1      29.613  27.241  23.395  1.00  0.00     0.075 A 
ATOM     17  C   UNL A   1      31.418  28.616  25.010  1.00  0.00     0.045 A 
ATOM     18  C   UNL A   1      31.059  27.303  25.308  1.00  0.00     0.146 A 
ATOM     19  F   UNL A   1      31.579  26.721  26.400  1.00  0.00    -0.205 F 
BRANCH  14  20
ATOM     20  O   UNL A   1      29.375  29.112  21.989  1.00  0.00    -0.497 OA
ATOM     21  C   UNL A   1      28.096  29.651  22.313  1.00  0.00     0.278 C 
ENDBRANCH  14  20
ENDBRANCH  11  13
ENDBRANCH   6  11
ENDBRANCH   3   5
ENDBRANCH   2   3
ENDBRANCH   1   2
BRANCH   1  22
ATOM     22  C   UNL A   1      36.378  20.776  25.006  1.00  0.00     0.275 C 
BRANCH  22  23
ATOM     23  O   UNL A   1      37.136  21.748  25.751  1.00  0.00    -0.458 OA
BRANCH  23  24
ATOM     24  C   UNL A   1      38.438  21.448  25.955  1.00  0.00     0.338 C 
ATOM     25  O   UNL A   1      39.013  20.400  25.704  1.00  0.00    -0.246 OA
BRANCH  24  26
ATOM     26  C   UNL A   1      39.141  22.620  26.499  1.00  0.00     0.060 A 
ATOM     27  C   UNL A   1      38.703  23.885  26.132  1.00  0.00     0.016 A 
ATOM     28  C   UNL A   1      40.309  22.482  27.244  1.00  0.00     0.016 A 
ATOM     29  C   UNL A   1      39.484  25.005  26.388  1.00  0.00     0.010 A 
ATOM     30  C   UNL A   1      41.013  23.629  27.641  1.00  0.00     0.010 A 
ATOM     31  C   UNL A   1      40.621  24.906  27.200  1.00  0.00    -0.014 A 
BRANCH  31  32
ATOM     32  C   UNL A   1      41.351  26.140  27.618  1.00  0.00     0.031 A 
ATOM     33  C   UNL A   1      40.681  27.190  28.465  1.00  0.00     0.074 A 
ATOM     34  C   UNL A   1      42.634  26.321  27.232  1.00  0.00     0.049 A 
ATOM     35  N   UNL A   1      41.087  28.401  28.754  1.00  0.00    -0.248 NA
ATOM     36  C   UNL A   1      39.380  26.841  29.059  1.00  0.00     0.031 C 
ATOM     37  C   UNL A   1      43.426  25.368  26.451  1.00  0.00     0.029 A 
ATOM     38  N   UNL A   1      43.504  27.364  27.446  1.00  0.00    -0.354 N 
ATOM     39  C   UNL A   1      40.078  28.972  29.520  1.00  0.00     0.074 A 
ATOM     40  C   UNL A   1      39.035  27.978  29.651  1.00  0.00     0.031 C 
ATOM     41  C   UNL A   1      44.671  25.838  26.302  1.00  0.00     0.029 A 
ATOM     42  C   UNL A   1      44.734  27.181  26.858  1.00  0.00     0.049 A 
ATOM     43  H   UNL A   1      43.270  28.164  27.970  1.00  0.00     0.167 HD
ATOM     44  C   UNL A   1      40.034  30.214  30.059  1.00  0.00     0.037 A 
ATOM     45  C   UNL A   1      45.781  28.017  26.715  1.00  0.00     0.037 A 
ATOM     46  C   UNL A   1      41.102  31.177  29.964  1.00  0.00     0.049 A 
ATOM     47  C   UNL A   1      45.674  29.412  27.252  1.00  0.00     0.074 A 
ATOM     48  C   UNL A   1      41.158  32.453  30.499  1.00  0.00     0.029 A 
ATOM     49  N   UNL A   1      42.301  30.969  29.300  1.00  0.00    -0.354 N 
ATOM     50  N   UNL A   1      44.694  29.960  27.928  1.00  0.00    -0.248 NA
ATOM     51  C   UNL A   1      46.798  30.318  26.982  1.00  0.00     0.031 C 
ATOM     52  C   UNL A   1      42.369  33.035  30.116  1.00  0.00     0.029 A 
ATOM     53  C   UNL A   1      43.092  32.105  29.387  1.00  0.00     0.049 A 
ATOM     54  H   UNL A   1      42.555  30.139  28.837  1.00  0.00     0.167 HD
ATOM     55  C   UNL A   1      45.082  31.270  28.165  1.00  0.00     0.074 A 
ATOM     56  C   UNL A   1      46.397  31.430  27.582  1.00  0.00     0.031 C 
ATOM     57  C   UNL A   1      44.399  32.251  28.801  1.00  0.00     0.037 A 
BRANCH  44  58
ATOM     58  C   UNL A   1      38.791  30.634  30.789  1.00  0.00     0.064 A 
ATOM     59  C   UNL A   1      37.759  31.291  30.099  1.00  0.00     0.173 A 
ATOM     60  C   UNL A   1      38.664  30.493  32.178  1.00  0.00     0.173 A 
ATOM     61  F   UNL A   1      37.835  31.462  28.771  1.00  0.00    -0.203 F 
ATOM     62  C   UNL A   1      36.658  31.811  30.777  1.00  0.00     0.198 A 
ATOM     63  C   UNL A   1      37.549  30.992  32.849  1.00  0.00     0.198 A 
ATOM     64  F   UNL A   1      39.619  29.867  32.883  1.00  0.00    -0.203 F 
ATOM     65  F   UNL A   1      35.709  32.473  30.102  1.00  0.00    -0.200 F 
ATOM     66  C   UNL A   1      36.555  31.660  32.151  1.00  0.00     0.200 A 
ATOM     67  F   UNL A   1      37.441  30.831  34.175  1.00  0.00    -0.200 F 
ATOM     68  F   UNL A   1      35.497  32.163  32.802  1.00  0.00    -0.200 F 
ENDBRANCH  44  58
BRANCH  45  69
ATOM     69  C   UNL A   1      46.988  27.560  25.974  1.00  0.00     0.064 A 
ATOM     70  C   UNL A   1      48.099  27.024  26.647  1.00  0.00     0.173 A 
ATOM     71  C   UNL A   1      47.074  27.692  24.582  1.00  0.00     0.173 A 
ATOM     72  F   UNL A   1      48.069  26.873  27.980  1.00  0.00    -0.203 F 
ATOM     73  C   UNL A   1      49.261  26.680  25.963  1.00  0.00     0.198 A 
ATOM     74  C   UNL A   1      48.224  27.314  23.893  1.00  0.00     0.198 A 
ATOM     75  F   UNL A   1      46.030  28.172  23.891  1.00  0.00    -0.203 F 
ATOM     76  F   UNL A   1      50.325  26.225  26.638  1.00  0.00    -0.200 F 
ATOM     77  C   UNL A   1      49.322  26.821  24.585  1.00  0.00     0.200 A 
ATOM     78  F   UNL A   1      48.270  27.424  22.559  1.00  0.00    -0.200 F 
ATOM     79  F   UNL A   1      50.437  26.481  23.924  1.00  0.00    -0.200 F 
ENDBRANCH  45  69
BRANCH  57  80
ATOM     80  C   UNL A   1      45.057  33.593  28.912  1.00  0.00     0.064 A 
ATOM     81  C   UNL A   1      45.857  33.905  30.021  1.00  0.00     0.173 A 
ATOM     82  C   UNL A   1      44.820  34.599  27.965  1.00  0.00     0.173 A 
ATOM     83  F   UNL A   1      46.107  32.975  30.957  1.00  0.00    -0.203 F 
ATOM     84  C   UNL A   1      46.376  35.184  30.191  1.00  0.00     0.198 A 
ATOM     85  C   UNL A   1      45.362  35.871  28.124  1.00  0.00     0.198 A 
ATOM     86  F   UNL A   1      44.075  34.342  26.879  1.00  0.00    -0.203 F 
ATOM     87  F   UNL A   1      47.102  35.472  31.280  1.00  0.00    -0.200 F 
ATOM     88  C   UNL A   1      46.128  36.165  29.243  1.00  0.00     0.200 A 
ATOM     89  F   UNL A   1      45.143  36.812  27.196  1.00  0.00    -0.200 F 
ATOM     90  F   UNL A   1      46.629  37.398  29.407  1.00  0.00    -0.200 F 
ENDBRANCH  57  80
ENDBRANCH  31  32
ENDBRANCH  24  26
ENDBRANCH  23  24
ENDBRANCH  22  23
ENDBRANCH   1  22
TORSDOF 14
ENDMDL
MODEL 3
REMARK VINA RESULT:     -12.3      0.366      1.196
REMARK SMILES COc1ccc(F)c(Nc2ccc(C(=O)OCCOC(=O)c3ccc(-c4c5nc(c(-c6c(F)c(F)c(F)c(F)c6F)c6ccc([nH]6)c(-c6c(F)c(F)c(F)c(F)c6F)c6nc(c(-c7c(F)c(F)c(F)c(F)c7F)c7ccc4[nH]7)C=C6)C=C5)cc3)cc2)c1
REMARK SMILES IDX 17 1 16 2 14 3 15 4 13 5 10 6 11 7 86 8 12 9 85 10 9 11 8 13
REMARK SMILES IDX 3 14 4 15 87 16 5 17 6 18 7 19 2 20 1 21 18 22 19 23 20 24
REMARK SMILES IDX 21 25 22 26 23 27 84 28 24 29 83 30 25 31 26 32 27 33 77 34
REMARK SMILES IDX 28 35 82 36 76 37 78 38 29 39 81 40 75 41 74 42 30 44 62 45
REMARK SMILES IDX 42 46 61 47 43 48 46 49 60 50 79 51 44 52 45 53 59 55 80 56
REMARK SMILES IDX 47 57 31 58 32 59 40 60 33 61 34 62 38 63 41 64 35 65 36 66
REMARK SMILES IDX 39 67 37 68 63 69 64 70 72 71 65 72 66 73 70 74 73 75 67 76
REMARK SMILES IDX 68 77 71 78 69 79 48 80 49 81 57 82 50 83 51 84 55 85 58 86
REMARK SMILES IDX 52 87 53 88 56 89 54 90
REMARK H PARENT 9 12 78 43 46 54
REMARK Flexibility Score: inf
ROOT
ATOM      1  C   UNL A   1      31.202  29.124  24.934  1.00  0.00     0.275 C 
ENDROOT
BRANCH   1   2
ATOM      2  O   UNL A   1      31.401  29.255  23.512  1.00  0.00    -0.458 OA
BRANCH   2   3
ATOM      3  C   UNL A   1      30.678  28.401  22.744  1.00  0.00     0.338 C 
ATOM      4  O   UNL A   1      29.754  28.687  22.008  1.00  0.00    -0.246 OA
BRANCH   3   5
ATOM      5  C   UNL A   1      31.216  27.024  22.844  1.00  0.00     0.060 A 
ATOM      6  C   UNL A   1      32.110  24.371  22.714  1.00  0.00     0.039 A 
ATOM      7  C   UNL A   1      32.786  25.366  22.013  1.00  0.00     0.027 A 
ATOM      8  C   UNL A   1      31.020  24.725  23.527  1.00  0.00     0.027 A 
ATOM      9  C   UNL A   1      32.313  26.673  22.048  1.00  0.00     0.018 A 
ATOM     10  C   UNL A   1      30.583  26.051  23.613  1.00  0.00     0.018 A 
BRANCH   6  11
ATOM     11  N   UNL A   1      32.392  23.028  22.420  1.00  0.00    -0.353 N 
ATOM     12  H   UNL A   1      32.175  22.715  21.513  1.00  0.00     0.167 HD
BRANCH  11  13
ATOM     13  C   UNL A   1      32.957  22.082  23.306  1.00  0.00     0.078 A 
ATOM     14  C   UNL A   1      32.794  20.108  24.721  1.00  0.00     0.121 A 
ATOM     15  C   UNL A   1      34.097  20.302  25.175  1.00  0.00     0.049 A 
ATOM     16  C   UNL A   1      32.238  20.978  23.783  1.00  0.00     0.075 A 
ATOM     17  C   UNL A   1      34.835  21.387  24.701  1.00  0.00     0.045 A 
ATOM     18  C   UNL A   1      34.261  22.265  23.783  1.00  0.00     0.146 A 
ATOM     19  F   UNL A   1      34.991  23.297  23.331  1.00  0.00    -0.205 F 
BRANCH  14  20
ATOM     20  O   UNL A   1      32.029  19.038  25.097  1.00  0.00    -0.497 OA
ATOM     21  C   UNL A   1      32.806  17.855  25.263  1.00  0.00     0.278 C 
ENDBRANCH  14  20
ENDBRANCH  11  13
ENDBRANCH   6  11
ENDBRANCH   3   5
ENDBRANCH   2   3
ENDBRANCH   1   2
BRANCH   1  22
ATOM     22  C   UNL A   1      31.487  30.444  25.651  1.00  0.00     0.275 C 
BRANCH  22  23
ATOM     23  O   UNL A   1      32.855  30.485  26.098  1.00  0.00    -0.458 OA
BRANCH  23  24
ATOM     24  C   UNL A   1      33.171  31.496  26.938  1.00  0.00     0.338 C 
ATOM     25  O   UNL A   1      32.499  32.478  27.213  1.00  0.00    -0.246 OA
BRANCH  24  26
ATOM     26  C   UNL A   1      34.476  31.237  27.563  1.00  0.00     0.060 A 
ATOM     27  C   UNL A   1      34.786  29.936  27.936  1.00  0.00     0.016 A 
ATOM     28  C   UNL A   1      35.330  32.279  27.916  1.00  0.00     0.016 A 
ATOM     29  C   UNL A   1      35.869  29.679  28.767  1.00  0.00     0.010 A 
ATOM     30  C   UNL A   1      36.511  31.995  28.618  1.00  0.00     0.010 A 
ATOM     31  C   UNL A   1      36.786  30.692  29.073  1.00  0.00    -0.014 A 
BRANCH  31  32
ATOM     32  C   UNL A   1      38.041  30.368  29.814  1.00  0.00     0.031 A 
ATOM     33  C   UNL A   1      39.111  29.509  29.192  1.00  0.00     0.074 A 
ATOM     34  C   UNL A   1      38.223  30.850  31.064  1.00  0.00     0.049 A 
ATOM     35  N   UNL A   1      40.163  28.966  29.753  1.00  0.00    -0.248 NA
ATOM     36  C   UNL A   1      38.982  29.212  27.757  1.00  0.00     0.031 C 
ATOM     37  C   UNL A   1      37.294  31.733  31.775  1.00  0.00     0.029 A 
ATOM     38  N   UNL A   1      39.250  30.675  31.961  1.00  0.00    -0.354 N 
ATOM     39  C   UNL A   1      40.791  28.230  28.756  1.00  0.00     0.074 A 
ATOM     40  C   UNL A   1      40.003  28.390  27.554  1.00  0.00     0.031 C 
ATOM     41  C   UNL A   1      37.815  32.066  32.962  1.00  0.00     0.029 A 
ATOM     42  C   UNL A   1      39.049  31.320  33.158  1.00  0.00     0.049 A 
ATOM     43  H   UNL A   1      40.053  30.140  31.764  1.00  0.00     0.167 HD
ATOM     44  C   UNL A   1      41.922  27.488  28.846  1.00  0.00     0.037 A 
ATOM     45  C   UNL A   1      39.735  31.273  34.317  1.00  0.00     0.037 A 
ATOM     46  C   UNL A   1      42.726  27.378  30.037  1.00  0.00     0.049 A 
ATOM     47  C   UNL A   1      40.937  30.382  34.413  1.00  0.00     0.074 A 
ATOM     48  C   UNL A   1      43.902  26.669  30.217  1.00  0.00     0.029 A 
ATOM     49  N   UNL A   1      42.443  27.997  31.245  1.00  0.00    -0.354 N 
ATOM     50  N   UNL A   1      41.492  29.648  33.480  1.00  0.00    -0.248 NA
ATOM     51  C   UNL A   1      41.591  30.284  35.724  1.00  0.00     0.031 C 
ATOM     52  C   UNL A   1      44.303  26.818  31.546  1.00  0.00     0.029 A 
ATOM     53  C   UNL A   1      43.408  27.661  32.183  1.00  0.00     0.049 A 
ATOM     54  H   UNL A   1      41.674  28.587  31.413  1.00  0.00     0.167 HD
ATOM     55  C   UNL A   1      42.558  29.004  34.088  1.00  0.00     0.074 A 
ATOM     56  C   UNL A   1      42.589  29.450  35.465  1.00  0.00     0.031 C 
ATOM     57  C   UNL A   1      43.425  28.113  33.550  1.00  0.00     0.037 A 
BRANCH  44  58
ATOM     58  C   UNL A   1      42.367  26.713  27.639  1.00  0.00     0.064 A 
ATOM     59  C   UNL A   1      41.912  25.398  27.442  1.00  0.00     0.173 A 
ATOM     60  C   UNL A   1      43.322  27.217  26.746  1.00  0.00     0.173 A 
ATOM     61  F   UNL A   1      41.007  24.864  28.275  1.00  0.00    -0.203 F 
ATOM     62  C   UNL A   1      42.415  24.611  26.409  1.00  0.00     0.198 A 
ATOM     63  C   UNL A   1      43.803  26.435  25.697  1.00  0.00     0.198 A 
ATOM     64  F   UNL A   1      43.783  28.468  26.886  1.00  0.00    -0.203 F 
ATOM     65  F   UNL A   1      41.999  23.345  26.269  1.00  0.00    -0.200 F 
ATOM     66  C   UNL A   1      43.359  25.131  25.537  1.00  0.00     0.200 A 
ATOM     67  F   UNL A   1      44.703  26.944  24.844  1.00  0.00    -0.200 F 
ATOM     68  F   UNL A   1      43.845  24.373  24.545  1.00  0.00    -0.200 F 
ENDBRANCH  44  58
BRANCH  45  69
ATOM     69  C   UNL A   1      39.249  32.051  35.489  1.00  0.00     0.064 A 
ATOM     70  C   UNL A   1      39.655  33.378  35.704  1.00  0.00     0.173 A 
ATOM     71  C   UNL A   1      38.406  31.467  36.443  1.00  0.00     0.173 A 
ATOM     72  F   UNL A   1      40.461  33.986  34.820  1.00  0.00    -0.203 F 
ATOM     73  C   UNL A   1      39.272  34.075  36.846  1.00  0.00     0.198 A 
ATOM     74  C   UNL A   1      37.993  32.178  37.569  1.00  0.00     0.198 A 
ATOM     75  F   UNL A   1      37.968  30.212  36.270  1.00  0.00    -0.203 F 
ATOM     76  F   UNL A   1      39.721  35.320  37.052  1.00  0.00    -0.200 F 
ATOM     77  C   UNL A   1      38.438  33.476  37.777  1.00  0.00     0.200 A 
ATOM     78  F   UNL A   1      37.163  31.606  38.452  1.00  0.00    -0.200 F 
ATOM     79  F   UNL A   1      38.060  34.149  38.872  1.00  0.00    -0.200 F 
ENDBRANCH  45  69
BRANCH  57  80
ATOM     80  C   UNL A   1      44.492  27.558  34.446  1.00  0.00     0.064 A 
ATOM     81  C   UNL A   1      44.270  26.379  35.172  1.00  0.00     0.173 A 
ATOM     82  C   UNL A   1      45.696  28.245  34.652  1.00  0.00     0.173 A 
ATOM     83  F   UNL A   1      43.130  25.690  35.011  1.00  0.00    -0.203 F 
ATOM     84  C   UNL A   1      45.207  25.921  36.094  1.00  0.00     0.198 A 
ATOM     85  C   UNL A   1      46.642  27.770  35.556  1.00  0.00     0.198 A 
ATOM     86  F   UNL A   1      45.959  29.369  33.967  1.00  0.00    -0.203 F 
ATOM     87  F   UNL A   1      44.955  24.816  36.808  1.00  0.00    -0.200 F 
ATOM     88  C   UNL A   1      46.391  26.617  36.284  1.00  0.00     0.200 A 
ATOM     89  F   UNL A   1      47.797  28.430  35.722  1.00  0.00    -0.200 F 
ATOM     90  F   UNL A   1      47.293  26.174  37.171  1.00  0.00    -0.200 F 
ENDBRANCH  57  80
ENDBRANCH  31  32
ENDBRANCH  24  26
ENDBRANCH  23  24
ENDBRANCH  22  23
ENDBRANCH   1  22
TORSDOF 14
ENDMDL
