MODEL 1
REMARK VINA RESULT:     -11.2      0.000      0.000
REMARK SMILES O=C(N[C@@H](Cc1ccccc1)C(=O)N[C@@H](CS)C(=O)N[C@@H](CO)C(=O)OCCOC(=O)c1ccc(-c2c3nc(c(-c4c(F)c(F)c(F)c(F)c4F)c4ccc([nH]4)c(-c4c(F)c(F)c(F)c(F)c4F)c4nc(c(-c5c(F)c(F)c(F)c(F)c5F)c5ccc2[nH]5)C=C4)C=C3)cc1)c1ccc(F)cc1
REMARK SMILES IDX 24 1 25 2 21 3 20 4 18 5 19 6 15 8 14 9 12 10 13 11 4 13
REMARK SMILES IDX 3 14 1 15 2 16 95 18 96 19 101 20 97 21 100 22 98 23 99 24
REMARK SMILES IDX 5 25 6 26 7 27 11 28 8 29 10 30 9 31 16 32 17 33 22 35 23 36
REMARK SMILES IDX 26 38 27 39 28 40 29 41 30 42 31 43 32 44 33 45 94 46 34 47
REMARK SMILES IDX 93 48 35 49 36 50 37 51 87 52 38 53 92 54 86 55 88 56 39 57
REMARK SMILES IDX 91 58 85 59 84 60 40 62 72 63 52 64 71 65 53 66 56 67 70 68
REMARK SMILES IDX 89 69 54 70 55 71 69 73 90 74 57 75 41 76 42 77 50 78 43 79
REMARK SMILES IDX 44 80 48 81 51 82 45 83 46 84 49 85 47 86 73 87 74 88 82 89
REMARK SMILES IDX 75 90 76 91 80 92 83 93 77 94 78 95 81 96 79 97 58 98 59 99
REMARK SMILES IDX 67 100 60 101 61 102 65 103 68 104 62 105 63 106 66 107
REMARK SMILES IDX 64 108
REMARK H PARENT 20 7 14 12 3 17 17 34 23 37 88 61 56 72
REMARK Flexibility Score: inf
ROOT
ATOM      1  C   UNL A   1      34.503  19.346  24.630  1.00  0.00     0.331 C 
ATOM      2  O   UNL A   1      34.673  18.189  24.998  1.00  0.00    -0.250 OA
ENDROOT
BRANCH   1   3
ATOM      3  C   UNL A   1      33.114  19.931  24.359  1.00  0.00     0.218 C 
BRANCH   3   4
ATOM      4  N   UNL A   1      33.122  21.215  23.633  1.00  0.00    -0.339 N 
ATOM      5  C   UNL A   1      32.279  22.234  23.967  1.00  0.00     0.244 C 
ATOM      6  O   UNL A   1      31.291  22.420  23.252  1.00  0.00    -0.273 OA
ATOM      7  H   UNL A   1      33.753  21.340  22.888  1.00  0.00     0.164 HD
BRANCH   5   8
ATOM      8  C   UNL A   1      32.606  23.164  25.171  1.00  0.00     0.181 C 
BRANCH   8   9
ATOM      9  N   UNL A   1      31.476  23.160  26.100  1.00  0.00    -0.342 N 
ATOM     10  C   UNL A   1      30.575  24.099  26.472  1.00  0.00     0.243 C 
ATOM     11  O   UNL A   1      29.695  23.708  27.250  1.00  0.00    -0.273 OA
ATOM     12  H   UNL A   1      31.342  22.293  26.547  1.00  0.00     0.164 HD
BRANCH  10  13
ATOM     13  C   UNL A   1      30.624  25.590  26.064  1.00  0.00     0.176 C 
BRANCH  13  14
ATOM     14  N   UNL A   1      29.542  25.930  25.137  1.00  0.00    -0.340 N 
ATOM     15  O   UNL A   1      28.563  26.926  23.374  1.00  0.00    -0.269 OA
ATOM     16  C   UNL A   1      29.599  26.657  23.971  1.00  0.00     0.251 C 
ATOM     17  H   UNL A   1      28.651  25.589  25.381  1.00  0.00     0.164 HD
BRANCH  16  18
ATOM     18  C   UNL A   1      30.897  27.171  23.477  1.00  0.00     0.040 A 
ATOM     19  C   UNL A   1      31.205  28.536  23.548  1.00  0.00     0.017 A 
ATOM     20  C   UNL A   1      31.809  26.270  22.913  1.00  0.00     0.017 A 
ATOM     21  C   UNL A   1      32.388  29.009  22.978  1.00  0.00     0.040 A 
ATOM     22  C   UNL A   1      32.996  26.748  22.355  1.00  0.00     0.040 A 
ATOM     23  C   UNL A   1      33.266  28.113  22.377  1.00  0.00     0.123 A 
ATOM     24  F   UNL A   1      34.389  28.573  21.807  1.00  0.00    -0.207 F 
ENDBRANCH  16  18
ENDBRANCH  13  14
BRANCH  13  25
ATOM     25  C   UNL A   1      30.909  26.632  27.170  1.00  0.00     0.070 C 
BRANCH  25  26
ATOM     26  C   UNL A   1      31.976  27.676  26.944  1.00  0.00    -0.045 A 
ATOM     27  C   UNL A   1      33.191  27.320  26.339  1.00  0.00     0.004 A 
ATOM     28  C   UNL A   1      31.784  29.010  27.333  1.00  0.00     0.004 A 
ATOM     29  C   UNL A   1      34.227  28.249  26.224  1.00  0.00     0.000 A 
ATOM     30  C   UNL A   1      32.817  29.942  27.203  1.00  0.00     0.000 A 
ATOM     31  C   UNL A   1      34.044  29.556  26.668  1.00  0.00     0.000 A 
ENDBRANCH  25  26
ENDBRANCH  13  25
ENDBRANCH  10  13
ENDBRANCH   8   9
BRANCH   8  32
ATOM     32  C   UNL A   1      33.975  23.019  25.838  1.00  0.00     0.101 C 
BRANCH  32  33
ATOM     33  S   UNL A   1      35.249  24.099  25.109  1.00  0.00    -0.177 SA
ATOM     34  H   UNL A   1      35.816  24.855  26.086  1.00  0.00     0.102 HD
ENDBRANCH  32  33
ENDBRANCH   8  32
ENDBRANCH   5   8
ENDBRANCH   3   4
BRANCH   3  35
ATOM     35  C   UNL A   1      32.303  18.883  23.576  1.00  0.00     0.193 C 
BRANCH  35  36
ATOM     36  O   UNL A   1      31.820  17.865  24.459  1.00  0.00    -0.394 OA
ATOM     37  H   UNL A   1      32.019  18.112  25.376  1.00  0.00     0.210 HD
ENDBRANCH  35  36
ENDBRANCH   3  35
ENDBRANCH   1   3
BRANCH   1  38
ATOM     38  O   UNL A   1      35.497  20.233  24.350  1.00  0.00    -0.460 OA
BRANCH  38  39
ATOM     39  C   UNL A   1      36.475  20.447  25.388  1.00  0.00     0.274 C 
BRANCH  39  40
ATOM     40  C   UNL A   1      37.781  19.764  25.000  1.00  0.00     0.275 C 
BRANCH  40  41
ATOM     41  O   UNL A   1      38.844  20.733  25.047  1.00  0.00    -0.458 OA
BRANCH  41  42
ATOM     42  C   UNL A   1      39.673  20.636  26.114  1.00  0.00     0.338 C 
ATOM     43  O   UNL A   1      40.221  19.625  26.519  1.00  0.00    -0.246 OA
BRANCH  42  44
ATOM     44  C   UNL A   1      39.900  21.969  26.727  1.00  0.00     0.060 A 
ATOM     45  C   UNL A   1      39.116  23.066  26.389  1.00  0.00     0.016 A 
ATOM     46  C   UNL A   1      41.014  22.162  27.549  1.00  0.00     0.016 A 
ATOM     47  C   UNL A   1      39.538  24.354  26.743  1.00  0.00     0.010 A 
ATOM     48  C   UNL A   1      41.371  23.452  27.977  1.00  0.00     0.010 A 
ATOM     49  C   UNL A   1      40.691  24.590  27.510  1.00  0.00    -0.014 A 
BRANCH  49  50
ATOM     50  C   UNL A   1      41.254  25.981  27.714  1.00  0.00     0.031 A 
ATOM     51  C   UNL A   1      42.595  26.358  27.102  1.00  0.00     0.074 A 
ATOM     52  C   UNL A   1      40.598  26.964  28.373  1.00  0.00     0.049 A 
ATOM     53  N   UNL A   1      43.420  27.325  27.429  1.00  0.00    -0.248 NA
ATOM     54  C   UNL A   1      43.086  25.515  26.000  1.00  0.00     0.031 C 
ATOM     55  C   UNL A   1      39.271  26.866  28.976  1.00  0.00     0.029 A 
ATOM     56  N   UNL A   1      40.971  28.270  28.631  1.00  0.00    -0.354 N 
ATOM     57  C   UNL A   1      44.562  27.133  26.656  1.00  0.00     0.074 A 
ATOM     58  C   UNL A   1      44.318  25.973  25.828  1.00  0.00     0.031 C 
ATOM     59  C   UNL A   1      38.904  28.067  29.445  1.00  0.00     0.029 A 
ATOM     60  C   UNL A   1      40.031  28.985  29.336  1.00  0.00     0.049 A 
ATOM     61  H   UNL A   1      41.828  28.652  28.336  1.00  0.00     0.167 HD
ATOM     62  C   UNL A   1      45.712  27.851  26.648  1.00  0.00     0.037 A 
ATOM     63  C   UNL A   1      40.078  30.204  29.911  1.00  0.00     0.037 A 
ATOM     64  C   UNL A   1      45.901  29.108  27.329  1.00  0.00     0.049 A 
ATOM     65  C   UNL A   1      41.352  31.003  29.872  1.00  0.00     0.074 A 
ATOM     66  C   UNL A   1      47.030  29.912  27.363  1.00  0.00     0.029 A 
ATOM     67  N   UNL A   1      44.917  29.775  28.037  1.00  0.00    -0.354 N 
ATOM     68  N   UNL A   1      42.493  30.717  29.301  1.00  0.00    -0.248 NA
ATOM     69  C   UNL A   1      41.351  32.283  30.599  1.00  0.00     0.031 C 
ATOM     70  C   UNL A   1      46.735  31.056  28.114  1.00  0.00     0.029 A 
ATOM     71  C   UNL A   1      45.412  30.982  28.509  1.00  0.00     0.049 A 
ATOM     72  H   UNL A   1      44.002  29.443  28.185  1.00  0.00     0.167 HD
ATOM     73  C   UNL A   1      43.341  31.777  29.591  1.00  0.00     0.074 A 
ATOM     74  C   UNL A   1      42.576  32.729  30.366  1.00  0.00     0.031 C 
ATOM     75  C   UNL A   1      44.644  31.938  29.259  1.00  0.00     0.037 A 
BRANCH  62  76
ATOM     76  C   UNL A   1      46.902  27.290  25.922  1.00  0.00     0.064 A 
ATOM     77  C   UNL A   1      47.197  27.601  24.589  1.00  0.00     0.173 A 
ATOM     78  C   UNL A   1      47.829  26.506  26.632  1.00  0.00     0.173 A 
ATOM     79  F   UNL A   1      46.347  28.339  23.859  1.00  0.00    -0.203 F 
ATOM     80  C   UNL A   1      48.371  27.143  23.992  1.00  0.00     0.198 A 
ATOM     81  C   UNL A   1      49.014  26.078  26.043  1.00  0.00     0.198 A 
ATOM     82  F   UNL A   1      47.601  26.190  27.917  1.00  0.00    -0.203 F 
ATOM     83  F   UNL A   1      48.624  27.432  22.709  1.00  0.00    -0.200 F 
ATOM     84  C   UNL A   1      49.284  26.395  24.723  1.00  0.00     0.200 A 
ATOM     85  F   UNL A   1      49.902  25.375  26.760  1.00  0.00    -0.200 F 
ATOM     86  F   UNL A   1      50.426  25.983  24.154  1.00  0.00    -0.200 F 
ENDBRANCH  62  76
BRANCH  63  87
ATOM     87  C   UNL A   1      38.907  30.706  30.684  1.00  0.00     0.064 A 
ATOM     88  C   UNL A   1      37.877  31.425  30.063  1.00  0.00     0.173 A 
ATOM     89  C   UNL A   1      38.812  30.497  32.069  1.00  0.00     0.173 A 
ATOM     90  F   UNL A   1      37.940  31.690  28.749  1.00  0.00    -0.203 F 
ATOM     91  C   UNL A   1      36.802  31.923  30.799  1.00  0.00     0.198 A 
ATOM     92  C   UNL A   1      37.716  30.955  32.794  1.00  0.00     0.198 A 
ATOM     93  F   UNL A   1      39.777  29.827  32.715  1.00  0.00    -0.203 F 
ATOM     94  F   UNL A   1      35.860  32.657  30.192  1.00  0.00    -0.200 F 
ATOM     95  C   UNL A   1      36.717  31.676  32.162  1.00  0.00     0.200 A 
ATOM     96  F   UNL A   1      37.632  30.697  34.106  1.00  0.00    -0.200 F 
ATOM     97  F   UNL A   1      35.678  32.143  32.866  1.00  0.00    -0.200 F 
ENDBRANCH  63  87
BRANCH  75  98
ATOM     98  C   UNL A   1      45.307  33.215  29.680  1.00  0.00     0.064 A 
ATOM     99  C   UNL A   1      45.976  33.329  30.906  1.00  0.00     0.173 A 
ATOM    100  C   UNL A   1      45.263  34.344  28.847  1.00  0.00     0.173 A 
ATOM    101  F   UNL A   1      46.032  32.284  31.746  1.00  0.00    -0.203 F 
ATOM    102  C   UNL A   1      46.546  34.538  31.301  1.00  0.00     0.198 A 
ATOM    103  C   UNL A   1      45.857  35.543  29.232  1.00  0.00     0.198 A 
ATOM    104  F   UNL A   1      44.641  34.284  27.660  1.00  0.00    -0.203 F 
ATOM    105  F   UNL A   1      47.129  34.641  32.503  1.00  0.00    -0.200 F 
ATOM    106  C   UNL A   1      46.487  35.642  30.463  1.00  0.00     0.200 A 
ATOM    107  F   UNL A   1      45.807  36.606  28.418  1.00  0.00    -0.200 F 
ATOM    108  F   UNL A   1      47.026  36.807  30.849  1.00  0.00    -0.200 F 
ENDBRANCH  75  98
ENDBRANCH  49  50
ENDBRANCH  42  44
ENDBRANCH  41  42
ENDBRANCH  40  41
ENDBRANCH  39  40
ENDBRANCH  38  39
ENDBRANCH   1  38
TORSDOF 23
ENDMDL
MODEL 2
REMARK VINA RESULT:     -11.0      0.803      2.056
REMARK SMILES O=C(N[C@@H](Cc1ccccc1)C(=O)N[C@@H](CS)C(=O)N[C@@H](CO)C(=O)OCCOC(=O)c1ccc(-c2c3nc(c(-c4c(F)c(F)c(F)c(F)c4F)c4ccc([nH]4)c(-c4c(F)c(F)c(F)c(F)c4F)c4nc(c(-c5c(F)c(F)c(F)c(F)c5F)c5ccc2[nH]5)C=C4)C=C3)cc1)c1ccc(F)cc1
REMARK SMILES IDX 24 1 25 2 21 3 20 4 18 5 19 6 15 8 14 9 12 10 13 11 4 13
REMARK SMILES IDX 3 14 1 15 2 16 95 18 96 19 101 20 97 21 100 22 98 23 99 24
REMARK SMILES IDX 5 25 6 26 7 27 11 28 8 29 10 30 9 31 16 32 17 33 22 35 23 36
REMARK SMILES IDX 26 38 27 39 28 40 29 41 30 42 31 43 32 44 33 45 94 46 34 47
REMARK SMILES IDX 93 48 35 49 36 50 37 51 87 52 38 53 92 54 86 55 88 56 39 57
REMARK SMILES IDX 91 58 85 59 84 60 40 62 72 63 52 64 71 65 53 66 56 67 70 68
REMARK SMILES IDX 89 69 54 70 55 71 69 73 90 74 57 75 41 76 42 77 50 78 43 79
REMARK SMILES IDX 44 80 48 81 51 82 45 83 46 84 49 85 47 86 73 87 74 88 82 89
REMARK SMILES IDX 75 90 76 91 80 92 83 93 77 94 78 95 81 96 79 97 58 98 59 99
REMARK SMILES IDX 67 100 60 101 61 102 65 103 68 104 62 105 63 106 66 107
REMARK SMILES IDX 64 108
REMARK H PARENT 20 7 14 12 3 17 17 34 23 37 88 61 56 72
REMARK Flexibility Score: inf
ROOT
ATOM      1  C   UNL A   1      35.583  19.628  24.746  1.00  0.00     0.331 C 
ATOM      2  O   UNL A   1      35.802  18.424  24.808  1.00  0.00    -0.250 OA
ENDROOT
BRANCH   1   3
ATOM      3  C   UNL A   1      34.196  20.231  24.991  1.00  0.00     0.218 C 
BRANCH   3   4
ATOM      4  N   UNL A   1      33.846  21.343  24.090  1.00  0.00    -0.339 N 
ATOM      5  C   UNL A   1      32.750  22.128  24.310  1.00  0.00     0.244 C 
ATOM      6  O   UNL A   1      31.750  21.924  23.618  1.00  0.00    -0.273 OA
ATOM      7  H   UNL A   1      34.416  21.526  23.308  1.00  0.00     0.164 HD
BRANCH   5   8
ATOM      8  C   UNL A   1      32.805  23.280  25.354  1.00  0.00     0.181 C 
BRANCH   8   9
ATOM      9  N   UNL A   1      31.620  23.207  26.209  1.00  0.00    -0.342 N 
ATOM     10  C   UNL A   1      30.639  24.087  26.516  1.00  0.00     0.243 C 
ATOM     11  O   UNL A   1      29.739  23.643  27.241  1.00  0.00    -0.273 OA
ATOM     12  H   UNL A   1      31.515  22.335  26.654  1.00  0.00     0.164 HD
BRANCH  10  13
ATOM     13  C   UNL A   1      30.618  25.577  26.100  1.00  0.00     0.176 C 
BRANCH  13  14
ATOM     14  N   UNL A   1      29.478  25.876  25.230  1.00  0.00    -0.340 N 
ATOM     15  O   UNL A   1      28.381  26.809  23.503  1.00  0.00    -0.269 OA
ATOM     16  C   UNL A   1      29.455  26.572  24.045  1.00  0.00     0.251 C 
ATOM     17  H   UNL A   1      28.609  25.528  25.535  1.00  0.00     0.164 HD
BRANCH  16  18
ATOM     18  C   UNL A   1      30.713  27.091  23.462  1.00  0.00     0.040 A 
ATOM     19  C   UNL A   1      31.642  26.227  22.868  1.00  0.00     0.017 A 
ATOM     20  C   UNL A   1      30.974  28.465  23.533  1.00  0.00     0.017 A 
ATOM     21  C   UNL A   1      32.867  26.728  22.422  1.00  0.00     0.040 A 
ATOM     22  C   UNL A   1      32.196  28.962  23.076  1.00  0.00     0.040 A 
ATOM     23  C   UNL A   1      33.137  28.087  22.542  1.00  0.00     0.123 A 
ATOM     24  F   UNL A   1      34.324  28.560  22.138  1.00  0.00    -0.207 F 
ENDBRANCH  16  18
ENDBRANCH  13  14
BRANCH  13  25
ATOM     25  C   UNL A   1      30.927  26.633  27.185  1.00  0.00     0.070 C 
BRANCH  25  26
ATOM     26  C   UNL A   1      31.983  27.679  26.918  1.00  0.00    -0.045 A 
ATOM     27  C   UNL A   1      33.207  27.311  26.339  1.00  0.00     0.004 A 
ATOM     28  C   UNL A   1      31.772  29.028  27.245  1.00  0.00     0.004 A 
ATOM     29  C   UNL A   1      34.232  28.247  26.187  1.00  0.00     0.000 A 
ATOM     30  C   UNL A   1      32.794  29.965  27.079  1.00  0.00     0.000 A 
ATOM     31  C   UNL A   1      34.030  29.571  26.569  1.00  0.00     0.000 A 
ENDBRANCH  25  26
ENDBRANCH  13  25
ENDBRANCH  10  13
ENDBRANCH   8   9
BRANCH   8  32
ATOM     32  C   UNL A   1      34.117  23.505  26.106  1.00  0.00     0.101 C 
BRANCH  32  33
ATOM     33  S   UNL A   1      34.223  22.566  27.666  1.00  0.00    -0.177 SA
ATOM     34  H   UNL A   1      35.359  22.913  28.327  1.00  0.00     0.102 HD
ENDBRANCH  32  33
ENDBRANCH   8  32
ENDBRANCH   5   8
ENDBRANCH   3   4
BRANCH   3  35
ATOM     35  C   UNL A   1      33.161  19.098  24.868  1.00  0.00     0.193 C 
BRANCH  35  36
ATOM     36  O   UNL A   1      32.648  18.749  26.156  1.00  0.00    -0.394 OA
ATOM     37  H   UNL A   1      32.626  19.538  26.721  1.00  0.00     0.210 HD
ENDBRANCH  35  36
ENDBRANCH   3  35
ENDBRANCH   1   3
BRANCH   1  38
ATOM     38  O   UNL A   1      36.499  20.574  24.396  1.00  0.00    -0.460 OA
BRANCH  38  39
ATOM     39  C   UNL A   1      37.422  20.983  25.425  1.00  0.00     0.274 C 
BRANCH  39  40
ATOM     40  C   UNL A   1      38.591  20.006  25.472  1.00  0.00     0.275 C 
BRANCH  40  41
ATOM     41  O   UNL A   1      39.816  20.753  25.593  1.00  0.00    -0.458 OA
BRANCH  41  42
ATOM     42  C   UNL A   1      40.380  20.748  26.825  1.00  0.00     0.338 C 
ATOM     43  O   UNL A   1      40.812  19.776  27.423  1.00  0.00    -0.246 OA
BRANCH  42  44
ATOM     44  C   UNL A   1      40.477  22.128  27.366  1.00  0.00     0.060 A 
ATOM     45  C   UNL A   1      39.643  23.143  26.913  1.00  0.00     0.016 A 
ATOM     46  C   UNL A   1      41.519  22.447  28.240  1.00  0.00     0.016 A 
ATOM     47  C   UNL A   1      39.952  24.477  27.210  1.00  0.00     0.010 A 
ATOM     48  C   UNL A   1      41.759  23.782  28.606  1.00  0.00     0.010 A 
ATOM     49  C   UNL A   1      41.035  24.840  28.029  1.00  0.00    -0.014 A 
BRANCH  49  50
ATOM     50  C   UNL A   1      41.487  26.276  28.179  1.00  0.00     0.031 A 
ATOM     51  C   UNL A   1      42.845  26.708  27.645  1.00  0.00     0.074 A 
ATOM     52  C   UNL A   1      40.718  27.250  28.719  1.00  0.00     0.049 A 
ATOM     53  N   UNL A   1      43.577  27.750  27.966  1.00  0.00    -0.248 NA
ATOM     54  C   UNL A   1      43.476  25.834  26.643  1.00  0.00     0.031 C 
ATOM     55  C   UNL A   1      39.356  27.098  29.226  1.00  0.00     0.029 A 
ATOM     56  N   UNL A   1      40.983  28.593  28.913  1.00  0.00    -0.354 N 
ATOM     57  C   UNL A   1      44.787  27.591  27.296  1.00  0.00     0.074 A 
ATOM     58  C   UNL A   1      44.686  26.366  26.534  1.00  0.00     0.031 C 
ATOM     59  C   UNL A   1      38.875  28.297  29.582  1.00  0.00     0.029 A 
ATOM     60  C   UNL A   1      39.945  29.283  29.495  1.00  0.00     0.049 A 
ATOM     61  H   UNL A   1      41.834  29.015  28.658  1.00  0.00     0.167 HD
ATOM     62  C   UNL A   1      45.884  28.386  27.325  1.00  0.00     0.037 A 
ATOM     63  C   UNL A   1      39.866  30.536  29.987  1.00  0.00     0.037 A 
ATOM     64  C   UNL A   1      45.935  29.693  27.930  1.00  0.00     0.049 A 
ATOM     65  C   UNL A   1      41.084  31.420  29.989  1.00  0.00     0.074 A 
ATOM     66  C   UNL A   1      47.003  30.576  27.994  1.00  0.00     0.029 A 
ATOM     67  N   UNL A   1      44.857  30.333  28.516  1.00  0.00    -0.354 N 
ATOM     68  N   UNL A   1      42.284  31.179  29.527  1.00  0.00    -0.248 NA
ATOM     69  C   UNL A   1      40.942  32.740  30.625  1.00  0.00     0.031 C 
ATOM     70  C   UNL A   1      46.575  31.741  28.640  1.00  0.00     0.029 A 
ATOM     71  C   UNL A   1      45.232  31.599  28.940  1.00  0.00     0.049 A 
ATOM     72  H   UNL A   1      43.956  29.947  28.617  1.00  0.00     0.167 HD
ATOM     73  C   UNL A   1      43.034  32.313  29.806  1.00  0.00     0.074 A 
ATOM     74  C   UNL A   1      42.149  33.256  30.455  1.00  0.00     0.031 C 
ATOM     75  C   UNL A   1      44.346  32.544  29.563  1.00  0.00     0.037 A 
BRANCH  62  76
ATOM     76  C   UNL A   1      47.162  27.866  26.730  1.00  0.00     0.064 A 
ATOM     77  C   UNL A   1      48.082  27.097  27.452  1.00  0.00     0.173 A 
ATOM     78  C   UNL A   1      47.404  28.058  25.358  1.00  0.00     0.173 A 
ATOM     79  F   UNL A   1      47.907  26.885  28.765  1.00  0.00    -0.203 F 
ATOM     80  C   UNL A   1      49.199  26.545  26.826  1.00  0.00     0.198 A 
ATOM     81  C   UNL A   1      48.502  27.480  24.730  1.00  0.00     0.198 A 
ATOM     82  F   UNL A   1      46.547  28.777  24.615  1.00  0.00    -0.203 F 
ATOM     83  F   UNL A   1      50.080  25.831  27.540  1.00  0.00    -0.200 F 
ATOM     84  C   UNL A   1      49.400  26.725  25.465  1.00  0.00     0.200 A 
ATOM     85  F   UNL A   1      48.680  27.638  23.410  1.00  0.00    -0.200 F 
ATOM     86  F   UNL A   1      50.459  26.167  24.861  1.00  0.00    -0.200 F 
ENDBRANCH  62  76
BRANCH  63  87
ATOM     87  C   UNL A   1      38.607  31.002  30.634  1.00  0.00     0.064 A 
ATOM     88  C   UNL A   1      38.436  30.944  32.023  1.00  0.00     0.173 A 
ATOM     89  C   UNL A   1      37.539  31.493  29.866  1.00  0.00     0.173 A 
ATOM     90  F   UNL A   1      39.409  30.444  32.800  1.00  0.00    -0.203 F 
ATOM     91  C   UNL A   1      37.241  31.350  32.618  1.00  0.00     0.198 A 
ATOM     92  C   UNL A   1      36.365  31.939  30.465  1.00  0.00     0.198 A 
ATOM     93  F   UNL A   1      37.645  31.557  28.531  1.00  0.00    -0.203 F 
ATOM     94  F   UNL A   1      37.080  31.229  33.943  1.00  0.00    -0.200 F 
ATOM     95  C   UNL A   1      36.212  31.858  31.839  1.00  0.00     0.200 A 
ATOM     96  F   UNL A   1      35.383  32.446  29.708  1.00  0.00    -0.200 F 
ATOM     97  F   UNL A   1      35.069  32.260  32.412  1.00  0.00    -0.200 F 
ENDBRANCH  63  87
BRANCH  75  98
ATOM     98  C   UNL A   1      44.888  33.889  29.943  1.00  0.00     0.064 A 
ATOM     99  C   UNL A   1      44.858  34.974  29.055  1.00  0.00     0.173 A 
ATOM    100  C   UNL A   1      45.453  34.092  31.211  1.00  0.00     0.173 A 
ATOM    101  F   UNL A   1      44.343  34.826  27.825  1.00  0.00    -0.203 F 
ATOM    102  C   UNL A   1      45.409  36.204  29.409  1.00  0.00     0.198 A 
ATOM    103  C   UNL A   1      45.977  35.330  31.572  1.00  0.00     0.198 A 
ATOM    104  F   UNL A   1      45.498  33.089  32.100  1.00  0.00    -0.203 F 
ATOM    105  F   UNL A   1      45.423  37.209  28.524  1.00  0.00    -0.200 F 
ATOM    106  C   UNL A   1      45.965  36.380  30.668  1.00  0.00     0.200 A 
ATOM    107  F   UNL A   1      46.507  35.503  32.791  1.00  0.00    -0.200 F 
ATOM    108  F   UNL A   1      46.504  37.562  31.002  1.00  0.00    -0.200 F 
ENDBRANCH  75  98
ENDBRANCH  49  50
ENDBRANCH  42  44
ENDBRANCH  41  42
ENDBRANCH  40  41
ENDBRANCH  39  40
ENDBRANCH  38  39
ENDBRANCH   1  38
TORSDOF 23
ENDMDL
MODEL 3
REMARK VINA RESULT:     -10.7      0.720      6.967
REMARK SMILES O=C(N[C@@H](Cc1ccccc1)C(=O)N[C@@H](CS)C(=O)N[C@@H](CO)C(=O)OCCOC(=O)c1ccc(-c2c3nc(c(-c4c(F)c(F)c(F)c(F)c4F)c4ccc([nH]4)c(-c4c(F)c(F)c(F)c(F)c4F)c4nc(c(-c5c(F)c(F)c(F)c(F)c5F)c5ccc2[nH]5)C=C4)C=C3)cc1)c1ccc(F)cc1
REMARK SMILES IDX 24 1 25 2 21 3 20 4 18 5 19 6 15 8 14 9 12 10 13 11 4 13
REMARK SMILES IDX 3 14 1 15 2 16 95 18 96 19 101 20 97 21 100 22 98 23 99 24
REMARK SMILES IDX 5 25 6 26 7 27 11 28 8 29 10 30 9 31 16 32 17 33 22 35 23 36
REMARK SMILES IDX 26 38 27 39 28 40 29 41 30 42 31 43 32 44 33 45 94 46 34 47
REMARK SMILES IDX 93 48 35 49 36 50 37 51 87 52 38 53 92 54 86 55 88 56 39 57
REMARK SMILES IDX 91 58 85 59 84 60 40 62 72 63 52 64 71 65 53 66 56 67 70 68
REMARK SMILES IDX 89 69 54 70 55 71 69 73 90 74 57 75 41 76 42 77 50 78 43 79
REMARK SMILES IDX 44 80 48 81 51 82 45 83 46 84 49 85 47 86 73 87 74 88 82 89
REMARK SMILES IDX 75 90 76 91 80 92 83 93 77 94 78 95 81 96 79 97 58 98 59 99
REMARK SMILES IDX 67 100 60 101 61 102 65 103 68 104 62 105 63 106 66 107
REMARK SMILES IDX 64 108
REMARK H PARENT 20 7 14 12 3 17 17 34 23 37 88 61 56 72
REMARK Flexibility Score: inf
ROOT
ATOM      1  C   UNL A   1      34.514  18.876  24.571  1.00  0.00     0.331 C 
ATOM      2  O   UNL A   1      34.583  17.706  24.215  1.00  0.00    -0.250 OA
ENDROOT
BRANCH   1   3
ATOM      3  C   UNL A   1      33.224  19.697  24.469  1.00  0.00     0.218 C 
BRANCH   3   4
ATOM      4  N   UNL A   1      33.369  20.976  23.751  1.00  0.00    -0.339 N 
ATOM      5  C   UNL A   1      32.548  22.037  24.002  1.00  0.00     0.244 C 
ATOM      6  O   UNL A   1      31.648  22.270  23.192  1.00  0.00    -0.273 OA
ATOM      7  H   UNL A   1      34.077  21.068  23.073  1.00  0.00     0.164 HD
BRANCH   5   8
ATOM      8  C   UNL A   1      32.799  22.952  25.235  1.00  0.00     0.181 C 
BRANCH   8   9
ATOM      9  N   UNL A   1      31.623  22.917  26.104  1.00  0.00    -0.342 N 
ATOM     10  C   UNL A   1      30.692  23.837  26.447  1.00  0.00     0.243 C 
ATOM     11  O   UNL A   1      29.779  23.420  27.173  1.00  0.00    -0.273 OA
ATOM     12  H   UNL A   1      31.479  22.040  26.528  1.00  0.00     0.164 HD
BRANCH  10  13
ATOM     13  C   UNL A   1      30.742  25.336  26.071  1.00  0.00     0.176 C 
BRANCH  13  14
ATOM     14  N   UNL A   1      29.587  25.725  25.257  1.00  0.00    -0.340 N 
ATOM     15  O   UNL A   1      28.473  26.793  23.621  1.00  0.00    -0.269 OA
ATOM     16  C   UNL A   1      29.553  26.488  24.113  1.00  0.00     0.251 C 
ATOM     17  H   UNL A   1      28.715  25.392  25.571  1.00  0.00     0.164 HD
BRANCH  16  18
ATOM     18  C   UNL A   1      30.812  26.993  23.518  1.00  0.00     0.040 A 
ATOM     19  C   UNL A   1      31.813  26.111  23.094  1.00  0.00     0.017 A 
ATOM     20  C   UNL A   1      30.997  28.377  23.407  1.00  0.00     0.017 A 
ATOM     21  C   UNL A   1      33.032  26.616  22.636  1.00  0.00     0.040 A 
ATOM     22  C   UNL A   1      32.214  28.876  22.938  1.00  0.00     0.040 A 
ATOM     23  C   UNL A   1      33.225  27.992  22.574  1.00  0.00     0.123 A 
ATOM     24  F   UNL A   1      34.405  28.473  22.160  1.00  0.00    -0.207 F 
ENDBRANCH  16  18
ENDBRANCH  13  14
BRANCH  13  25
ATOM     25  C   UNL A   1      31.156  26.343  27.168  1.00  0.00     0.070 C 
BRANCH  25  26
ATOM     26  C   UNL A   1      32.053  27.502  26.807  1.00  0.00    -0.045 A 
ATOM     27  C   UNL A   1      33.348  27.264  26.322  1.00  0.00     0.004 A 
ATOM     28  C   UNL A   1      31.622  28.830  26.951  1.00  0.00     0.004 A 
ATOM     29  C   UNL A   1      34.226  28.325  26.088  1.00  0.00     0.000 A 
ATOM     30  C   UNL A   1      32.497  29.889  26.703  1.00  0.00     0.000 A 
ATOM     31  C   UNL A   1      33.804  29.637  26.291  1.00  0.00     0.000 A 
ENDBRANCH  25  26
ENDBRANCH  13  25
ENDBRANCH  10  13
ENDBRANCH   8   9
BRANCH   8  32
ATOM     32  C   UNL A   1      34.134  22.817  25.969  1.00  0.00     0.101 C 
BRANCH  32  33
ATOM     33  S   UNL A   1      33.951  22.297  27.706  1.00  0.00    -0.177 SA
ATOM     34  H   UNL A   1      34.998  22.771  28.434  1.00  0.00     0.102 HD
ENDBRANCH  32  33
ENDBRANCH   8  32
ENDBRANCH   5   8
ENDBRANCH   3   4
BRANCH   3  35
ATOM     35  C   UNL A   1      32.159  18.820  23.785  1.00  0.00     0.193 C 
BRANCH  35  36
ATOM     36  O   UNL A   1      31.857  17.679  24.594  1.00  0.00    -0.394 OA
ATOM     37  H   UNL A   1      30.896  17.560  24.638  1.00  0.00     0.210 HD
ENDBRANCH  35  36
ENDBRANCH   3  35
ENDBRANCH   1   3
BRANCH   1  38
ATOM     38  O   UNL A   1      35.558  19.617  25.034  1.00  0.00    -0.460 OA
BRANCH  38  39
ATOM     39  C   UNL A   1      36.868  19.243  24.563  1.00  0.00     0.274 C 
BRANCH  39  40
ATOM     40  C   UNL A   1      37.895  19.517  25.656  1.00  0.00     0.275 C 
BRANCH  40  41
ATOM     41  O   UNL A   1      38.703  20.642  25.263  1.00  0.00    -0.458 OA
BRANCH  41  42
ATOM     42  C   UNL A   1      38.047  21.823  25.167  1.00  0.00     0.338 C 
ATOM     43  O   UNL A   1      37.060  22.054  24.488  1.00  0.00    -0.246 OA
BRANCH  42  44
ATOM     44  C   UNL A   1      38.652  22.836  26.068  1.00  0.00     0.060 A 
ATOM     45  C   UNL A   1      38.066  24.083  26.253  1.00  0.00     0.016 A 
ATOM     46  C   UNL A   1      39.908  22.589  26.627  1.00  0.00     0.016 A 
ATOM     47  C   UNL A   1      38.802  25.111  26.857  1.00  0.00     0.010 A 
ATOM     48  C   UNL A   1      40.596  23.604  27.314  1.00  0.00     0.010 A 
ATOM     49  C   UNL A   1      40.096  24.917  27.368  1.00  0.00    -0.014 A 
BRANCH  49  50
ATOM     50  C   UNL A   1      40.963  26.070  27.829  1.00  0.00     0.031 A 
ATOM     51  C   UNL A   1      40.394  27.125  28.766  1.00  0.00     0.074 A 
ATOM     52  C   UNL A   1      42.269  26.199  27.505  1.00  0.00     0.049 A 
ATOM     53  N   UNL A   1      40.808  28.349  28.996  1.00  0.00    -0.248 NA
ATOM     54  C   UNL A   1      39.179  26.766  29.516  1.00  0.00     0.031 C 
ATOM     55  C   UNL A   1      43.055  25.276  26.688  1.00  0.00     0.029 A 
ATOM     56  N   UNL A   1      43.184  27.175  27.851  1.00  0.00    -0.354 N 
ATOM     57  C   UNL A   1      39.848  28.932  29.819  1.00  0.00     0.074 A 
ATOM     58  C   UNL A   1      38.841  27.923  30.068  1.00  0.00     0.031 C 
ATOM     59  C   UNL A   1      44.336  25.672  26.672  1.00  0.00     0.029 A 
ATOM     60  C   UNL A   1      44.440  26.968  27.330  1.00  0.00     0.049 A 
ATOM     61  H   UNL A   1      42.957  27.947  28.418  1.00  0.00     0.167 HD
ATOM     62  C   UNL A   1      39.804  30.194  30.311  1.00  0.00     0.037 A 
ATOM     63  C   UNL A   1      45.538  27.751  27.298  1.00  0.00     0.037 A 
ATOM     64  C   UNL A   1      40.882  31.148  30.223  1.00  0.00     0.049 A 
ATOM     65  C   UNL A   1      45.486  29.141  27.871  1.00  0.00     0.074 A 
ATOM     66  C   UNL A   1      40.930  32.446  30.707  1.00  0.00     0.029 A 
ATOM     67  N   UNL A   1      42.124  30.884  29.673  1.00  0.00    -0.354 N 
ATOM     68  N   UNL A   1      44.500  29.752  28.475  1.00  0.00    -0.248 NA
ATOM     69  C   UNL A   1      46.696  29.965  27.718  1.00  0.00     0.031 C 
ATOM     70  C   UNL A   1      42.194  32.976  30.427  1.00  0.00     0.029 A 
ATOM     71  C   UNL A   1      42.945  31.993  29.808  1.00  0.00     0.049 A 
ATOM     72  H   UNL A   1      42.386  30.035  29.248  1.00  0.00     0.167 HD
ATOM     73  C   UNL A   1      44.968  31.023  28.779  1.00  0.00     0.074 A 
ATOM     74  C   UNL A   1      46.338  31.089  28.319  1.00  0.00     0.031 C 
ATOM     75  C   UNL A   1      44.313  32.050  29.371  1.00  0.00     0.037 A 
BRANCH  62  76
ATOM     76  C   UNL A   1      38.533  30.668  30.956  1.00  0.00     0.064 A 
ATOM     77  C   UNL A   1      38.372  30.765  32.343  1.00  0.00     0.173 A 
ATOM     78  C   UNL A   1      37.489  31.144  30.141  1.00  0.00     0.173 A 
ATOM     79  F   UNL A   1      39.329  30.321  33.170  1.00  0.00    -0.203 F 
ATOM     80  C   UNL A   1      37.213  31.314  32.891  1.00  0.00     0.198 A 
ATOM     81  C   UNL A   1      36.348  31.720  30.690  1.00  0.00     0.198 A 
ATOM     82  F   UNL A   1      37.598  31.087  28.804  1.00  0.00    -0.203 F 
ATOM     83  F   UNL A   1      37.068  31.377  34.222  1.00  0.00    -0.200 F 
ATOM     84  C   UNL A   1      36.210  31.803  32.065  1.00  0.00     0.200 A 
ATOM     85  F   UNL A   1      35.393  32.211  29.888  1.00  0.00    -0.200 F 
ATOM     86  F   UNL A   1      35.112  32.358  32.596  1.00  0.00    -0.200 F 
ENDBRANCH  62  76
BRANCH  63  87
ATOM     87  C   UNL A   1      46.763  27.283  26.591  1.00  0.00     0.064 A 
ATOM     88  C   UNL A   1      46.947  27.509  25.221  1.00  0.00     0.173 A 
ATOM     89  C   UNL A   1      47.765  26.574  27.274  1.00  0.00     0.173 A 
ATOM     90  F   UNL A   1      46.001  28.144  24.512  1.00  0.00    -0.203 F 
ATOM     91  C   UNL A   1      48.081  27.037  24.559  1.00  0.00     0.198 A 
ATOM     92  C   UNL A   1      48.916  26.144  26.622  1.00  0.00     0.198 A 
ATOM     93  F   UNL A   1      47.633  26.317  28.583  1.00  0.00    -0.203 F 
ATOM     94  F   UNL A   1      48.205  27.216  23.237  1.00  0.00    -0.200 F 
ATOM     95  C   UNL A   1      49.070  26.366  25.263  1.00  0.00     0.200 A 
ATOM     96  F   UNL A   1      49.875  25.512  27.312  1.00  0.00    -0.200 F 
ATOM     97  F   UNL A   1      50.165  25.924  24.630  1.00  0.00    -0.200 F 
ENDBRANCH  63  87
BRANCH  75  98
ATOM     98  C   UNL A   1      45.088  33.311  29.610  1.00  0.00     0.064 A 
ATOM     99  C   UNL A   1      45.136  34.338  28.657  1.00  0.00     0.173 A 
ATOM    100  C   UNL A   1      45.800  33.489  30.806  1.00  0.00     0.173 A 
ATOM    101  F   UNL A   1      44.486  34.209  27.490  1.00  0.00    -0.203 F 
ATOM    102  C   UNL A   1      45.900  35.483  28.877  1.00  0.00     0.198 A 
ATOM    103  C   UNL A   1      46.541  34.646  31.034  1.00  0.00     0.198 A 
ATOM    104  F   UNL A   1      45.780  32.539  31.752  1.00  0.00    -0.203 F 
ATOM    105  F   UNL A   1      45.980  36.425  27.927  1.00  0.00    -0.200 F 
ATOM    106  C   UNL A   1      46.599  35.636  30.065  1.00  0.00     0.200 A 
ATOM    107  F   UNL A   1      47.208  34.797  32.186  1.00  0.00    -0.200 F 
ATOM    108  F   UNL A   1      47.342  36.733  30.270  1.00  0.00    -0.200 F 
ENDBRANCH  75  98
ENDBRANCH  49  50
ENDBRANCH  42  44
ENDBRANCH  41  42
ENDBRANCH  40  41
ENDBRANCH  39  40
ENDBRANCH  38  39
ENDBRANCH   1  38
TORSDOF 23
ENDMDL
