MODEL 1
REMARK VINA RESULT:     -12.3      0.000      0.000
REMARK SMILES C[C@H](NC(=O)N1CC[C@H](C(=O)OCCOC(=O)c2ccc(-c3c4nc(c(-c5c(F)c(F)c(F)c(F)c5F)c5ccc([nH]5)c(-c5c(F)c(F)c(F)c(F)c5F)c5nc(c(-c6c(F)c(F)c(F)c(F)c6F)c6ccc3[nH]6)C=C5)C=C4)cc2)[C@@H]1C)[C@@H]1CCCO1
REMARK SMILES IDX 13 1 12 2 10 3 11 4 9 5 6 6 7 7 81 8 8 9 82 10 4 11 3 12
REMARK SMILES IDX 5 14 2 15 1 16 83 17 84 18 87 19 85 20 86 21 14 22 15 23
REMARK SMILES IDX 16 24 17 25 18 26 19 27 80 28 20 29 79 30 21 31 22 32 23 33
REMARK SMILES IDX 73 34 24 35 78 36 72 37 74 38 25 39 77 40 71 41 70 42 26 44
REMARK SMILES IDX 58 45 38 46 57 47 39 48 42 49 56 50 75 51 40 52 41 53 55 55
REMARK SMILES IDX 76 56 43 57 27 58 28 59 36 60 29 61 30 62 34 63 37 64 31 65
REMARK SMILES IDX 32 66 35 67 33 68 59 69 60 70 68 71 61 72 62 73 66 74 69 75
REMARK SMILES IDX 63 76 64 77 67 78 65 79 44 80 45 81 53 82 46 83 47 84 51 85
REMARK SMILES IDX 54 86 48 87 49 88 52 89 50 90
REMARK H PARENT 3 13 74 43 42 54
REMARK Flexibility Score: inf
ROOT
ATOM      1  C   UNL A   1      31.441  29.287  24.131  1.00  0.00     0.274 C 
ENDROOT
BRANCH   1   2
ATOM      2  O   UNL A   1      32.528  28.335  24.060  1.00  0.00    -0.462 OA
BRANCH   2   3
ATOM      3  C   UNL A   1      32.169  27.039  23.826  1.00  0.00     0.311 C 
ATOM      4  O   UNL A   1      32.830  26.241  23.175  1.00  0.00    -0.252 OA
BRANCH   3   5
ATOM      5  C   UNL A   1      30.799  26.738  24.425  1.00  0.00     0.123 C 
ATOM      6  N   UNL A   1      30.594  24.671  25.640  1.00  0.00    -0.321 N 
ATOM      7  C   UNL A   1      30.554  24.375  24.215  1.00  0.00     0.122 C 
ATOM      8  C   UNL A   1      30.758  26.114  25.844  1.00  0.00     0.098 C 
ATOM      9  C   UNL A   1      30.103  25.675  23.570  1.00  0.00     0.039 C 
ATOM     10  C   UNL A   1      31.931  26.506  26.730  1.00  0.00     0.032 C 
BRANCH   6  11
ATOM     11  C   UNL A   1      30.569  23.623  26.502  1.00  0.00     0.317 C 
ATOM     12  N   UNL A   1      31.429  22.592  26.480  1.00  0.00    -0.333 N 
ATOM     13  H   UNL A   1      30.954  21.734  26.554  1.00  0.00     0.165 HD
ATOM     14  O   UNL A   1      29.673  23.539  27.350  1.00  0.00    -0.249 OA
BRANCH  12  15
ATOM     15  C   UNL A   1      32.892  22.387  26.375  1.00  0.00     0.109 C 
ATOM     16  C   UNL A   1      33.658  22.128  27.659  1.00  0.00     0.034 C 
BRANCH  15  17
ATOM     17  C   UNL A   1      33.289  21.494  25.159  1.00  0.00     0.140 C 
ATOM     18  C   UNL A   1      32.195  21.105  24.160  1.00  0.00     0.036 C 
ATOM     19  O   UNL A   1      33.813  20.240  25.681  1.00  0.00    -0.376 OA
ATOM     20  C   UNL A   1      32.508  19.664  23.830  1.00  0.00     0.031 C 
ATOM     21  C   UNL A   1      33.033  19.162  25.152  1.00  0.00     0.160 C 
ENDBRANCH  15  17
ENDBRANCH  12  15
ENDBRANCH   6  11
ENDBRANCH   3   5
ENDBRANCH   2   3
ENDBRANCH   1   2
BRANCH   1  22
ATOM     22  C   UNL A   1      31.493  30.094  25.426  1.00  0.00     0.275 C 
BRANCH  22  23
ATOM     23  O   UNL A   1      32.849  30.134  25.899  1.00  0.00    -0.458 OA
BRANCH  23  24
ATOM     24  C   UNL A   1      33.114  31.065  26.841  1.00  0.00     0.338 C 
ATOM     25  O   UNL A   1      32.359  31.952  27.219  1.00  0.00    -0.246 OA
BRANCH  24  26
ATOM     26  C   UNL A   1      34.452  30.836  27.436  1.00  0.00     0.060 A 
ATOM     27  C   UNL A   1      34.873  29.559  27.819  1.00  0.00     0.016 A 
ATOM     28  C   UNL A   1      35.249  31.940  27.737  1.00  0.00     0.016 A 
ATOM     29  C   UNL A   1      36.017  29.399  28.597  1.00  0.00     0.010 A 
ATOM     30  C   UNL A   1      36.465  31.760  28.402  1.00  0.00     0.010 A 
ATOM     31  C   UNL A   1      36.855  30.489  28.864  1.00  0.00    -0.014 A 
BRANCH  31  32
ATOM     32  C   UNL A   1      38.143  30.330  29.597  1.00  0.00     0.031 A 
ATOM     33  C   UNL A   1      39.238  29.474  29.022  1.00  0.00     0.074 A 
ATOM     34  C   UNL A   1      38.315  30.891  30.810  1.00  0.00     0.049 A 
ATOM     35  N   UNL A   1      40.259  28.915  29.621  1.00  0.00    -0.248 NA
ATOM     36  C   UNL A   1      39.161  29.188  27.581  1.00  0.00     0.031 C 
ATOM     37  C   UNL A   1      37.381  31.801  31.472  1.00  0.00     0.029 A 
ATOM     38  N   UNL A   1      39.337  30.752  31.719  1.00  0.00    -0.354 N 
ATOM     39  C   UNL A   1      40.902  28.158  28.651  1.00  0.00     0.074 A 
ATOM     40  C   UNL A   1      40.163  28.335  27.418  1.00  0.00     0.031 C 
ATOM     41  C   UNL A   1      37.877  32.154  32.665  1.00  0.00     0.029 A 
ATOM     42  C   UNL A   1      39.100  31.402  32.906  1.00  0.00     0.049 A 
ATOM     43  H   UNL A   1      40.157  30.237  31.538  1.00  0.00     0.167 HD
ATOM     44  C   UNL A   1      42.003  27.379  28.788  1.00  0.00     0.037 A 
ATOM     45  C   UNL A   1      39.743  31.344  34.087  1.00  0.00     0.037 A 
ATOM     46  C   UNL A   1      42.767  27.263  30.006  1.00  0.00     0.049 A 
ATOM     47  C   UNL A   1      40.927  30.434  34.234  1.00  0.00     0.074 A 
ATOM     48  C   UNL A   1      43.910  26.518  30.241  1.00  0.00     0.029 A 
ATOM     49  N   UNL A   1      42.474  27.927  31.188  1.00  0.00    -0.354 N 
ATOM     50  N   UNL A   1      41.481  29.650  33.343  1.00  0.00    -0.248 NA
ATOM     51  C   UNL A   1      41.558  30.382  35.559  1.00  0.00     0.031 C 
ATOM     52  C   UNL A   1      44.285  26.700  31.577  1.00  0.00     0.029 A 
ATOM     53  C   UNL A   1      43.405  27.598  32.160  1.00  0.00     0.049 A 
ATOM     54  H   UNL A   1      41.716  28.543  31.317  1.00  0.00     0.167 HD
ATOM     55  C   UNL A   1      42.537  29.025  33.991  1.00  0.00     0.074 A 
ATOM     56  C   UNL A   1      42.552  29.531  35.349  1.00  0.00     0.031 C 
ATOM     57  C   UNL A   1      43.412  28.113  33.504  1.00  0.00     0.037 A 
BRANCH  44  58
ATOM     58  C   UNL A   1      42.435  26.554  27.610  1.00  0.00     0.064 A 
ATOM     59  C   UNL A   1      43.434  26.980  26.724  1.00  0.00     0.173 A 
ATOM     60  C   UNL A   1      41.878  25.279  27.406  1.00  0.00     0.173 A 
ATOM     61  F   UNL A   1      43.991  28.191  26.866  1.00  0.00    -0.203 F 
ATOM     62  C   UNL A   1      43.846  26.170  25.666  1.00  0.00     0.198 A 
ATOM     63  C   UNL A   1      42.313  24.462  26.366  1.00  0.00     0.198 A 
ATOM     64  F   UNL A   1      40.925  24.819  28.229  1.00  0.00    -0.203 F 
ATOM     65  F   UNL A   1      44.776  26.613  24.809  1.00  0.00    -0.200 F 
ATOM     66  C   UNL A   1      43.293  24.910  25.494  1.00  0.00     0.200 A 
ATOM     67  F   UNL A   1      41.787  23.238  26.212  1.00  0.00    -0.200 F 
ATOM     68  F   UNL A   1      43.701  24.128  24.485  1.00  0.00    -0.200 F 
ENDBRANCH  44  58
BRANCH  45  69
ATOM     69  C   UNL A   1      39.227  32.129  35.239  1.00  0.00     0.064 A 
ATOM     70  C   UNL A   1      38.441  31.525  36.227  1.00  0.00     0.173 A 
ATOM     71  C   UNL A   1      39.537  33.490  35.390  1.00  0.00     0.173 A 
ATOM     72  F   UNL A   1      38.093  30.235  36.110  1.00  0.00    -0.203 F 
ATOM     73  C   UNL A   1      37.982  32.252  37.323  1.00  0.00     0.198 A 
ATOM     74  C   UNL A   1      39.106  34.207  36.502  1.00  0.00     0.198 A 
ATOM     75  F   UNL A   1      40.285  34.116  34.469  1.00  0.00    -0.203 F 
ATOM     76  F   UNL A   1      37.199  31.660  38.236  1.00  0.00    -0.200 F 
ATOM     77  C   UNL A   1      38.324  33.589  37.466  1.00  0.00     0.200 A 
ATOM     78  F   UNL A   1      39.455  35.493  36.645  1.00  0.00    -0.200 F 
ATOM     79  F   UNL A   1      37.895  34.283  38.528  1.00  0.00    -0.200 F 
ENDBRANCH  45  69
BRANCH  57  80
ATOM     80  C   UNL A   1      44.490  27.638  34.433  1.00  0.00     0.064 A 
ATOM     81  C   UNL A   1      45.701  28.332  34.569  1.00  0.00     0.173 A 
ATOM     82  C   UNL A   1      44.293  26.491  35.216  1.00  0.00     0.173 A 
ATOM     83  F   UNL A   1      45.944  29.422  33.828  1.00  0.00    -0.203 F 
ATOM     84  C   UNL A   1      46.687  27.878  35.443  1.00  0.00     0.198 A 
ATOM     85  C   UNL A   1      45.270  26.058  36.108  1.00  0.00     0.198 A 
ATOM     86  F   UNL A   1      43.149  25.797  35.124  1.00  0.00    -0.203 F 
ATOM     87  F   UNL A   1      47.855  28.529  35.526  1.00  0.00    -0.200 F 
ATOM     88  C   UNL A   1      46.467  26.747  36.215  1.00  0.00     0.200 A 
ATOM     89  F   UNL A   1      45.053  24.970  36.861  1.00  0.00    -0.200 F 
ATOM     90  F   UNL A   1      47.416  26.317  37.059  1.00  0.00    -0.200 F 
ENDBRANCH  57  80
ENDBRANCH  31  32
ENDBRANCH  24  26
ENDBRANCH  23  24
ENDBRANCH  22  23
ENDBRANCH   1  22
TORSDOF 14
ENDMDL
MODEL 2
REMARK VINA RESULT:     -12.2      1.158      1.824
REMARK SMILES C[C@H](NC(=O)N1CC[C@H](C(=O)OCCOC(=O)c2ccc(-c3c4nc(c(-c5c(F)c(F)c(F)c(F)c5F)c5ccc([nH]5)c(-c5c(F)c(F)c(F)c(F)c5F)c5nc(c(-c6c(F)c(F)c(F)c(F)c6F)c6ccc3[nH]6)C=C5)C=C4)cc2)[C@@H]1C)[C@@H]1CCCO1
REMARK SMILES IDX 13 1 12 2 10 3 11 4 9 5 6 6 7 7 81 8 8 9 82 10 4 11 3 12
REMARK SMILES IDX 5 14 2 15 1 16 83 17 84 18 87 19 85 20 86 21 14 22 15 23
REMARK SMILES IDX 16 24 17 25 18 26 19 27 80 28 20 29 79 30 21 31 22 32 23 33
REMARK SMILES IDX 73 34 24 35 78 36 72 37 74 38 25 39 77 40 71 41 70 42 26 44
REMARK SMILES IDX 58 45 38 46 57 47 39 48 42 49 56 50 75 51 40 52 41 53 55 55
REMARK SMILES IDX 76 56 43 57 27 58 28 59 36 60 29 61 30 62 34 63 37 64 31 65
REMARK SMILES IDX 32 66 35 67 33 68 59 69 60 70 68 71 61 72 62 73 66 74 69 75
REMARK SMILES IDX 63 76 64 77 67 78 65 79 44 80 45 81 53 82 46 83 47 84 51 85
REMARK SMILES IDX 54 86 48 87 49 88 52 89 50 90
REMARK H PARENT 3 13 74 43 42 54
REMARK Flexibility Score: inf
ROOT
ATOM      1  C   UNL A   1      31.805  28.867  24.037  1.00  0.00     0.274 C 
ENDROOT
BRANCH   1   2
ATOM      2  O   UNL A   1      31.052  27.632  24.059  1.00  0.00    -0.462 OA
BRANCH   2   3
ATOM      3  C   UNL A   1      31.716  26.539  24.533  1.00  0.00     0.311 C 
ATOM      4  O   UNL A   1      31.212  25.664  25.224  1.00  0.00    -0.252 OA
BRANCH   3   5
ATOM      5  C   UNL A   1      33.191  26.589  24.146  1.00  0.00     0.123 C 
ATOM      6  N   UNL A   1      34.307  24.470  23.910  1.00  0.00    -0.321 N 
ATOM      7  C   UNL A   1      34.188  24.774  25.330  1.00  0.00     0.122 C 
ATOM      8  C   UNL A   1      33.699  25.544  23.119  1.00  0.00     0.098 C 
ATOM      9  C   UNL A   1      34.042  26.285  25.383  1.00  0.00     0.039 C 
ATOM     10  C   UNL A   1      32.643  25.087  22.123  1.00  0.00     0.032 C 
BRANCH   6  11
ATOM     11  C   UNL A   1      34.844  23.273  23.566  1.00  0.00     0.317 C 
ATOM     12  N   UNL A   1      34.439  22.085  24.042  1.00  0.00    -0.333 N 
ATOM     13  H   UNL A   1      35.206  21.535  24.320  1.00  0.00     0.165 HD
ATOM     14  O   UNL A   1      35.818  23.226  22.805  1.00  0.00    -0.249 OA
BRANCH  12  15
ATOM     15  C   UNL A   1      33.160  21.372  24.267  1.00  0.00     0.109 C 
ATOM     16  C   UNL A   1      32.157  21.355  23.129  1.00  0.00     0.034 C 
BRANCH  15  17
ATOM     17  C   UNL A   1      33.349  20.021  25.024  1.00  0.00     0.140 C 
ATOM     18  C   UNL A   1      34.528  19.128  24.627  1.00  0.00     0.036 C 
ATOM     19  O   UNL A   1      32.153  19.219  24.804  1.00  0.00    -0.376 OA
ATOM     20  C   UNL A   1      33.951  17.733  24.672  1.00  0.00     0.031 C 
ATOM     21  C   UNL A   1      32.539  17.978  24.204  1.00  0.00     0.160 C 
ENDBRANCH  15  17
ENDBRANCH  12  15
ENDBRANCH   6  11
ENDBRANCH   3   5
ENDBRANCH   2   3
ENDBRANCH   1   2
BRANCH   1  22
ATOM     22  C   UNL A   1      31.645  29.638  25.345  1.00  0.00     0.275 C 
BRANCH  22  23
ATOM     23  O   UNL A   1      32.942  29.843  25.928  1.00  0.00    -0.458 OA
BRANCH  23  24
ATOM     24  C   UNL A   1      33.050  30.904  26.757  1.00  0.00     0.338 C 
ATOM     25  O   UNL A   1      32.257  31.832  26.858  1.00  0.00    -0.246 OA
BRANCH  24  26
ATOM     26  C   UNL A   1      34.256  30.777  27.609  1.00  0.00     0.060 A 
ATOM     27  C   UNL A   1      34.978  31.899  28.025  1.00  0.00     0.016 A 
ATOM     28  C   UNL A   1      34.748  29.502  27.887  1.00  0.00     0.016 A 
ATOM     29  C   UNL A   1      36.235  31.752  28.608  1.00  0.00     0.010 A 
ATOM     30  C   UNL A   1      35.947  29.358  28.592  1.00  0.00     0.010 A 
ATOM     31  C   UNL A   1      36.720  30.481  28.941  1.00  0.00    -0.014 A 
BRANCH  31  32
ATOM     32  C   UNL A   1      38.009  30.296  29.666  1.00  0.00     0.031 A 
ATOM     33  C   UNL A   1      39.095  29.442  29.070  1.00  0.00     0.074 A 
ATOM     34  C   UNL A   1      38.191  30.831  30.890  1.00  0.00     0.049 A 
ATOM     35  N   UNL A   1      40.113  28.862  29.655  1.00  0.00    -0.248 NA
ATOM     36  C   UNL A   1      39.010  29.186  27.624  1.00  0.00     0.031 C 
ATOM     37  C   UNL A   1      37.267  31.737  31.573  1.00  0.00     0.029 A 
ATOM     38  N   UNL A   1      39.215  30.665  31.792  1.00  0.00    -0.354 N 
ATOM     39  C   UNL A   1      40.746  28.118  28.668  1.00  0.00     0.074 A 
ATOM     40  C   UNL A   1      40.004  28.327  27.441  1.00  0.00     0.031 C 
ATOM     41  C   UNL A   1      37.770  32.061  32.771  1.00  0.00     0.029 A 
ATOM     42  C   UNL A   1      38.988  31.293  32.992  1.00  0.00     0.049 A 
ATOM     43  H   UNL A   1      40.029  30.146  31.598  1.00  0.00     0.167 HD
ATOM     44  C   UNL A   1      41.840  27.327  28.785  1.00  0.00     0.037 A 
ATOM     45  C   UNL A   1      39.633  31.206  34.170  1.00  0.00     0.037 A 
ATOM     46  C   UNL A   1      42.606  27.180  29.998  1.00  0.00     0.049 A 
ATOM     47  C   UNL A   1      40.810  30.283  34.295  1.00  0.00     0.074 A 
ATOM     48  C   UNL A   1      43.743  26.420  30.215  1.00  0.00     0.029 A 
ATOM     49  N   UNL A   1      42.324  27.823  31.194  1.00  0.00    -0.354 N 
ATOM     50  N   UNL A   1      41.354  29.511  33.387  1.00  0.00    -0.248 NA
ATOM     51  C   UNL A   1      41.445  30.199  35.616  1.00  0.00     0.031 C 
ATOM     52  C   UNL A   1      44.124  26.571  31.552  1.00  0.00     0.029 A 
ATOM     53  C   UNL A   1      43.255  27.466  32.156  1.00  0.00     0.049 A 
ATOM     54  H   UNL A   1      41.572  28.443  31.338  1.00  0.00     0.167 HD
ATOM     55  C   UNL A   1      42.406  28.864  34.018  1.00  0.00     0.074 A 
ATOM     56  C   UNL A   1      42.430  29.343  35.385  1.00  0.00     0.031 C 
ATOM     57  C   UNL A   1      43.271  27.954  33.510  1.00  0.00     0.037 A 
BRANCH  44  58
ATOM     58  C   UNL A   1      42.260  26.521  27.590  1.00  0.00     0.064 A 
ATOM     59  C   UNL A   1      43.262  26.954  26.710  1.00  0.00     0.173 A 
ATOM     60  C   UNL A   1      41.688  25.258  27.360  1.00  0.00     0.173 A 
ATOM     61  F   UNL A   1      43.834  28.155  26.876  1.00  0.00    -0.203 F 
ATOM     62  C   UNL A   1      43.663  26.162  25.635  1.00  0.00     0.198 A 
ATOM     63  C   UNL A   1      42.112  24.457  26.303  1.00  0.00     0.198 A 
ATOM     64  F   UNL A   1      40.731  24.791  28.175  1.00  0.00    -0.203 F 
ATOM     65  F   UNL A   1      44.596  26.612  24.786  1.00  0.00    -0.200 F 
ATOM     66  C   UNL A   1      43.095  24.912  25.438  1.00  0.00     0.200 A 
ATOM     67  F   UNL A   1      41.572  23.243  26.125  1.00  0.00    -0.200 F 
ATOM     68  F   UNL A   1      43.493  24.146  24.413  1.00  0.00    -0.200 F 
ENDBRANCH  44  58
BRANCH  45  69
ATOM     69  C   UNL A   1      39.129  31.972  35.338  1.00  0.00     0.064 A 
ATOM     70  C   UNL A   1      38.302  31.368  36.292  1.00  0.00     0.173 A 
ATOM     71  C   UNL A   1      39.490  33.314  35.541  1.00  0.00     0.173 A 
ATOM     72  F   UNL A   1      37.905  30.098  36.127  1.00  0.00    -0.203 F 
ATOM     73  C   UNL A   1      37.852  32.076  37.405  1.00  0.00     0.198 A 
ATOM     74  C   UNL A   1      39.068  34.010  36.669  1.00  0.00     0.198 A 
ATOM     75  F   UNL A   1      40.279  33.940  34.654  1.00  0.00    -0.203 F 
ATOM     76  F   UNL A   1      37.030  31.487  38.284  1.00  0.00    -0.200 F 
ATOM     77  C   UNL A   1      38.245  33.393  37.599  1.00  0.00     0.200 A 
ATOM     78  F   UNL A   1      39.464  35.277  36.861  1.00  0.00    -0.200 F 
ATOM     79  F   UNL A   1      37.825  34.069  38.677  1.00  0.00    -0.200 F 
ENDBRANCH  45  69
BRANCH  57  80
ATOM     80  C   UNL A   1      44.347  27.451  34.425  1.00  0.00     0.064 A 
ATOM     81  C   UNL A   1      45.562  28.135  34.578  1.00  0.00     0.173 A 
ATOM     82  C   UNL A   1      44.146  26.286  35.180  1.00  0.00     0.173 A 
ATOM     83  F   UNL A   1      45.809  29.243  33.864  1.00  0.00    -0.203 F 
ATOM     84  C   UNL A   1      46.547  27.655  35.439  1.00  0.00     0.198 A 
ATOM     85  C   UNL A   1      45.122  25.826  36.059  1.00  0.00     0.198 A 
ATOM     86  F   UNL A   1      42.999  25.599  35.071  1.00  0.00    -0.203 F 
ATOM     87  F   UNL A   1      47.718  28.299  35.537  1.00  0.00    -0.200 F 
ATOM     88  C   UNL A   1      46.323  26.506  36.182  1.00  0.00     0.200 A 
ATOM     89  F   UNL A   1      44.900  24.720  36.785  1.00  0.00    -0.200 F 
ATOM     90  F   UNL A   1      47.270  26.051  37.014  1.00  0.00    -0.200 F 
ENDBRANCH  57  80
ENDBRANCH  31  32
ENDBRANCH  24  26
ENDBRANCH  23  24
ENDBRANCH  22  23
ENDBRANCH   1  22
TORSDOF 14
ENDMDL
MODEL 3
REMARK VINA RESULT:     -12.2      0.906      2.342
REMARK SMILES C[C@H](NC(=O)N1CC[C@H](C(=O)OCCOC(=O)c2ccc(-c3c4nc(c(-c5c(F)c(F)c(F)c(F)c5F)c5ccc([nH]5)c(-c5c(F)c(F)c(F)c(F)c5F)c5nc(c(-c6c(F)c(F)c(F)c(F)c6F)c6ccc3[nH]6)C=C5)C=C4)cc2)[C@@H]1C)[C@@H]1CCCO1
REMARK SMILES IDX 13 1 12 2 10 3 11 4 9 5 6 6 7 7 81 8 8 9 82 10 4 11 3 12
REMARK SMILES IDX 5 14 2 15 1 16 83 17 84 18 87 19 85 20 86 21 14 22 15 23
REMARK SMILES IDX 16 24 17 25 18 26 19 27 80 28 20 29 79 30 21 31 22 32 23 33
REMARK SMILES IDX 73 34 24 35 78 36 72 37 74 38 25 39 77 40 71 41 70 42 26 44
REMARK SMILES IDX 58 45 38 46 57 47 39 48 42 49 56 50 75 51 40 52 41 53 55 55
REMARK SMILES IDX 76 56 43 57 27 58 28 59 36 60 29 61 30 62 34 63 37 64 31 65
REMARK SMILES IDX 32 66 35 67 33 68 59 69 60 70 68 71 61 72 62 73 66 74 69 75
REMARK SMILES IDX 63 76 64 77 67 78 65 79 44 80 45 81 53 82 46 83 47 84 51 85
REMARK SMILES IDX 54 86 48 87 49 88 52 89 50 90
REMARK H PARENT 3 13 74 43 42 54
REMARK Flexibility Score: inf
ROOT
ATOM      1  C   UNL A   1      31.449  29.041  25.124  1.00  0.00     0.274 C 
ENDROOT
BRANCH   1   2
ATOM      2  O   UNL A   1      32.669  28.356  24.757  1.00  0.00    -0.462 OA
BRANCH   2   3
ATOM      3  C   UNL A   1      32.969  27.243  25.488  1.00  0.00     0.311 C 
ATOM      4  O   UNL A   1      33.367  27.258  26.645  1.00  0.00    -0.252 OA
BRANCH   3   5
ATOM      5  C   UNL A   1      32.811  25.981  24.646  1.00  0.00     0.123 C 
ATOM      6  N   UNL A   1      32.519  23.920  25.854  1.00  0.00    -0.321 N 
ATOM      7  C   UNL A   1      33.930  24.281  25.890  1.00  0.00     0.122 C 
ATOM      8  C   UNL A   1      31.765  24.935  25.111  1.00  0.00     0.098 C 
ATOM      9  C   UNL A   1      34.120  25.187  24.685  1.00  0.00     0.039 C 
ATOM     10  C   UNL A   1      30.582  25.530  25.862  1.00  0.00     0.032 C 
BRANCH   6  11
ATOM     11  C   UNL A   1      32.133  22.820  26.547  1.00  0.00     0.317 C 
ATOM     12  N   UNL A   1      31.681  21.684  25.994  1.00  0.00    -0.333 N 
ATOM     13  H   UNL A   1      30.866  21.369  26.447  1.00  0.00     0.165 HD
ATOM     14  O   UNL A   1      32.125  22.839  27.784  1.00  0.00    -0.249 OA
BRANCH  12  15
ATOM     15  C   UNL A   1      32.066  20.773  24.892  1.00  0.00     0.109 C 
ATOM     16  C   UNL A   1      32.450  21.399  23.564  1.00  0.00     0.034 C 
BRANCH  15  17
ATOM     17  C   UNL A   1      32.972  19.596  25.371  1.00  0.00     0.140 C 
ATOM     18  C   UNL A   1      34.180  19.216  24.509  1.00  0.00     0.036 C 
ATOM     19  O   UNL A   1      32.144  18.400  25.442  1.00  0.00    -0.376 OA
ATOM     20  C   UNL A   1      34.193  17.706  24.557  1.00  0.00     0.031 C 
ATOM     21  C   UNL A   1      32.718  17.396  24.597  1.00  0.00     0.160 C 
ENDBRANCH  15  17
ENDBRANCH  12  15
ENDBRANCH   6  11
ENDBRANCH   3   5
ENDBRANCH   2   3
ENDBRANCH   1   2
BRANCH   1  22
ATOM     22  C   UNL A   1      31.744  30.370  25.815  1.00  0.00     0.275 C 
BRANCH  22  23
ATOM     23  O   UNL A   1      33.130  30.404  26.192  1.00  0.00    -0.458 OA
BRANCH  23  24
ATOM     24  C   UNL A   1      33.470  31.356  27.087  1.00  0.00     0.338 C 
ATOM     25  O   UNL A   1      32.785  32.313  27.428  1.00  0.00    -0.246 OA
BRANCH  24  26
ATOM     26  C   UNL A   1      34.795  31.061  27.681  1.00  0.00     0.060 A 
ATOM     27  C   UNL A   1      35.147  29.766  28.075  1.00  0.00     0.016 A 
ATOM     28  C   UNL A   1      35.652  32.122  27.972  1.00  0.00     0.016 A 
ATOM     29  C   UNL A   1      36.282  29.550  28.853  1.00  0.00     0.010 A 
ATOM     30  C   UNL A   1      36.857  31.881  28.637  1.00  0.00     0.010 A 
ATOM     31  C   UNL A   1      37.178  30.595  29.109  1.00  0.00    -0.014 A 
BRANCH  31  32
ATOM     32  C   UNL A   1      38.457  30.373  29.842  1.00  0.00     0.031 A 
ATOM     33  C   UNL A   1      39.510  29.467  29.265  1.00  0.00     0.074 A 
ATOM     34  C   UNL A   1      38.656  30.922  31.057  1.00  0.00     0.049 A 
ATOM     35  N   UNL A   1      40.503  28.858  29.863  1.00  0.00    -0.248 NA
ATOM     36  C   UNL A   1      39.419  29.188  27.823  1.00  0.00     0.031 C 
ATOM     37  C   UNL A   1      37.767  31.876  31.720  1.00  0.00     0.029 A 
ATOM     38  N   UNL A   1      39.670  30.732  31.965  1.00  0.00    -0.354 N 
ATOM     39  C   UNL A   1      41.109  28.073  28.892  1.00  0.00     0.074 A 
ATOM     40  C   UNL A   1      40.379  28.288  27.659  1.00  0.00     0.031 C 
ATOM     41  C   UNL A   1      38.279  32.202  32.914  1.00  0.00     0.029 A 
ATOM     42  C   UNL A   1      39.465  31.390  33.153  1.00  0.00     0.049 A 
ATOM     43  H   UNL A   1      40.465  30.179  31.783  1.00  0.00     0.167 HD
ATOM     44  C   UNL A   1      42.171  27.241  29.027  1.00  0.00     0.037 A 
ATOM     45  C   UNL A   1      40.104  31.300  34.334  1.00  0.00     0.037 A 
ATOM     46  C   UNL A   1      42.928  27.086  30.245  1.00  0.00     0.049 A 
ATOM     47  C   UNL A   1      41.243  30.333  34.479  1.00  0.00     0.074 A 
ATOM     48  C   UNL A   1      44.034  26.286  30.479  1.00  0.00     0.029 A 
ATOM     49  N   UNL A   1      42.667  27.761  31.428  1.00  0.00    -0.354 N 
ATOM     50  N   UNL A   1      41.759  29.525  33.587  1.00  0.00    -0.248 NA
ATOM     51  C   UNL A   1      41.871  30.248  35.804  1.00  0.00     0.031 C 
ATOM     52  C   UNL A   1      44.417  26.447  31.814  1.00  0.00     0.029 A 
ATOM     53  C   UNL A   1      43.581  27.385  32.400  1.00  0.00     0.049 A 
ATOM     54  H   UNL A   1      41.940  28.412  31.559  1.00  0.00     0.167 HD
ATOM     55  C   UNL A   1      42.783  28.849  34.234  1.00  0.00     0.074 A 
ATOM     56  C   UNL A   1      42.823  29.350  35.592  1.00  0.00     0.031 C 
ATOM     57  C   UNL A   1      43.613  27.897  33.744  1.00  0.00     0.037 A 
BRANCH  44  58
ATOM     58  C   UNL A   1      42.562  26.398  27.848  1.00  0.00     0.064 A 
ATOM     59  C   UNL A   1      41.946  25.170  27.569  1.00  0.00     0.173 A 
ATOM     60  C   UNL A   1      43.531  26.865  26.943  1.00  0.00     0.173 A 
ATOM     61  F   UNL A   1      41.023  24.673  28.404  1.00  0.00    -0.203 F 
ATOM     62  C   UNL A   1      42.299  24.432  26.439  1.00  0.00     0.198 A 
ATOM     63  C   UNL A   1      43.859  26.139  25.801  1.00  0.00     0.198 A 
ATOM     64  F   UNL A   1      44.146  28.037  27.157  1.00  0.00    -0.203 F 
ATOM     65  F   UNL A   1      41.724  23.243  26.213  1.00  0.00    -0.200 F 
ATOM     66  C   UNL A   1      43.247  24.921  25.553  1.00  0.00     0.200 A 
ATOM     67  F   UNL A   1      44.765  26.622  24.938  1.00  0.00    -0.200 F 
ATOM     68  F   UNL A   1      43.573  24.216  24.461  1.00  0.00    -0.200 F 
ENDBRANCH  44  58
BRANCH  45  69
ATOM     69  C   UNL A   1      39.627  32.106  35.488  1.00  0.00     0.064 A 
ATOM     70  C   UNL A   1      40.102  33.404  35.704  1.00  0.00     0.173 A 
ATOM     71  C   UNL A   1      38.663  31.604  36.377  1.00  0.00     0.173 A 
ATOM     72  F   UNL A   1      41.045  33.915  34.899  1.00  0.00    -0.203 F 
ATOM     73  C   UNL A   1      39.633  34.172  36.768  1.00  0.00     0.198 A 
ATOM     74  C   UNL A   1      38.171  32.384  37.419  1.00  0.00     0.198 A 
ATOM     75  F   UNL A   1      38.177  30.364  36.215  1.00  0.00    -0.203 F 
ATOM     76  F   UNL A   1      40.131  35.399  36.976  1.00  0.00    -0.200 F 
ATOM     77  C   UNL A   1      38.659  33.666  37.617  1.00  0.00     0.200 A 
ATOM     78  F   UNL A   1      37.218  31.898  38.227  1.00  0.00    -0.200 F 
ATOM     79  F   UNL A   1      38.198  34.412  38.631  1.00  0.00    -0.200 F 
ENDBRANCH  45  69
BRANCH  57  80
ATOM     80  C   UNL A   1      44.667  27.368  34.672  1.00  0.00     0.064 A 
ATOM     81  C   UNL A   1      44.450  26.227  35.457  1.00  0.00     0.173 A 
ATOM     82  C   UNL A   1      45.918  27.997  34.752  1.00  0.00     0.173 A 
ATOM     83  F   UNL A   1      43.263  25.603  35.430  1.00  0.00    -0.203 F 
ATOM     84  C   UNL A   1      45.443  25.747  36.308  1.00  0.00     0.198 A 
ATOM     85  C   UNL A   1      46.918  27.497  35.582  1.00  0.00     0.198 A 
ATOM     86  F   UNL A   1      46.175  29.089  34.017  1.00  0.00    -0.203 F 
ATOM     87  F   UNL A   1      45.200  24.682  37.083  1.00  0.00    -0.200 F 
ATOM     88  C   UNL A   1      46.677  26.379  36.364  1.00  0.00     0.200 A 
ATOM     89  F   UNL A   1      48.113  28.103  35.628  1.00  0.00    -0.200 F 
ATOM     90  F   UNL A   1      47.633  25.911  37.179  1.00  0.00    -0.200 F 
ENDBRANCH  57  80
ENDBRANCH  31  32
ENDBRANCH  24  26
ENDBRANCH  23  24
ENDBRANCH  22  23
ENDBRANCH   1  22
TORSDOF 14
ENDMDL
