MODEL 1
REMARK VINA RESULT:     -12.2      0.000      0.000
REMARK SMILES Cc1cc(SCC(=O)OCCOC(=O)c2ccc(-c3c4nc(c(-c5c(F)c(F)c(F)c(F)c5F)c5ccc([nH]5)c(-c5c(F)c(F)c(F)c(F)c5F)c5nc(c(-c6c(F)c(F)c(F)c(F)c6F)c6ccc3[nH]6)C=C5)C=C4)cc2)c2cc(C(F)(F)F)ccc2n1
REMARK SMILES IDX 10 1 9 2 7 3 8 4 6 5 5 6 4 7 1 8 2 9 3 10 88 11 87 12 78 13
REMARK SMILES IDX 86 14 79 15 85 16 80 17 81 18 82 19 83 20 84 21 11 22 12 23
REMARK SMILES IDX 13 24 14 25 15 26 16 27 77 28 17 29 76 30 18 31 19 32 20 33
REMARK SMILES IDX 70 34 21 35 75 36 69 37 71 38 22 39 74 40 68 41 67 42 23 44
REMARK SMILES IDX 55 45 35 46 54 47 36 48 39 49 53 50 72 51 37 52 38 53 52 55
REMARK SMILES IDX 73 56 40 57 24 58 25 59 33 60 26 61 27 62 31 63 34 64 28 65
REMARK SMILES IDX 29 66 32 67 30 68 56 69 57 70 65 71 58 72 59 73 63 74 66 75
REMARK SMILES IDX 60 76 61 77 64 78 62 79 41 80 42 81 50 82 43 83 44 84 48 85
REMARK SMILES IDX 51 86 45 87 46 88 49 89 47 90
REMARK H PARENT 71 43 39 54
REMARK Flexibility Score: inf
ROOT
ATOM      1  C   UNL A   1      42.594  21.022  25.993  1.00  0.00     0.274 C 
ENDROOT
BRANCH   1   2
ATOM      2  O   UNL A   1      41.290  21.625  25.873  1.00  0.00    -0.461 OA
BRANCH   2   3
ATOM      3  C   UNL A   1      40.261  20.958  26.456  1.00  0.00     0.316 C 
ATOM      4  O   UNL A   1      40.399  20.023  27.242  1.00  0.00    -0.251 OA
BRANCH   3   5
ATOM      5  C   UNL A   1      38.887  21.499  26.118  1.00  0.00     0.197 C 
BRANCH   5   6
ATOM      6  S   UNL A   1      37.861  20.403  25.090  1.00  0.00    -0.114 SA
BRANCH   6   7
ATOM      7  C   UNL A   1      36.189  21.090  25.177  1.00  0.00     0.019 A 
ATOM      8  C   UNL A   1      34.360  24.353  25.752  1.00  0.00     0.067 C 
ATOM      9  C   UNL A   1      34.655  22.916  25.462  1.00  0.00     0.039 A 
ATOM     10  C   UNL A   1      35.960  22.442  25.436  1.00  0.00     0.039 A 
ATOM     11  N   UNL A   1      33.592  22.134  25.196  1.00  0.00    -0.253 NA
ATOM     12  C   UNL A   1      33.795  20.845  24.911  1.00  0.00     0.072 A 
ATOM     13  C   UNL A   1      35.073  20.247  24.905  1.00  0.00     0.014 A 
ATOM     14  C   UNL A   1      32.680  20.081  24.604  1.00  0.00     0.029 A 
ATOM     15  C   UNL A   1      35.152  18.857  24.624  1.00  0.00     0.024 A 
ATOM     16  C   UNL A   1      32.775  18.719  24.311  1.00  0.00     0.015 A 
ATOM     17  C   UNL A   1      34.016  18.088  24.328  1.00  0.00     0.056 A 
BRANCH  17  18
ATOM     18  C   UNL A   1      34.157  16.611  24.058  1.00  0.00     0.416 C 
ATOM     19  F   UNL A   1      34.402  16.341  22.746  1.00  0.00    -0.166 F 
ATOM     20  F   UNL A   1      35.188  16.057  24.754  1.00  0.00    -0.166 F 
ATOM     21  F   UNL A   1      33.051  15.890  24.390  1.00  0.00    -0.166 F 
ENDBRANCH  17  18
ENDBRANCH   6   7
ENDBRANCH   5   6
ENDBRANCH   3   5
ENDBRANCH   2   3
ENDBRANCH   1   2
BRANCH   1  22
ATOM     22  C   UNL A   1      43.634  21.864  25.263  1.00  0.00     0.275 C 
BRANCH  22  23
ATOM     23  O   UNL A   1      43.054  23.130  24.896  1.00  0.00    -0.458 OA
BRANCH  23  24
ATOM     24  C   UNL A   1      43.878  24.193  25.004  1.00  0.00     0.338 C 
ATOM     25  O   UNL A   1      44.916  24.385  24.388  1.00  0.00    -0.246 OA
BRANCH  24  26
ATOM     26  C   UNL A   1      43.351  25.177  25.971  1.00  0.00     0.060 A 
ATOM     27  C   UNL A   1      43.783  26.507  25.977  1.00  0.00     0.016 A 
ATOM     28  C   UNL A   1      42.516  24.709  26.991  1.00  0.00     0.016 A 
ATOM     29  C   UNL A   1      43.436  27.348  27.038  1.00  0.00     0.010 A 
ATOM     30  C   UNL A   1      42.121  25.566  28.018  1.00  0.00     0.010 A 
ATOM     31  C   UNL A   1      42.600  26.884  28.066  1.00  0.00    -0.014 A 
BRANCH  31  32
ATOM     32  C   UNL A   1      42.185  27.772  29.180  1.00  0.00     0.031 A 
ATOM     33  C   UNL A   1      42.930  27.774  30.485  1.00  0.00     0.074 A 
ATOM     34  C   UNL A   1      41.092  28.542  29.028  1.00  0.00     0.049 A 
ATOM     35  N   UNL A   1      42.625  28.363  31.614  1.00  0.00    -0.248 NA
ATOM     36  C   UNL A   1      44.184  27.010  30.530  1.00  0.00     0.031 C 
ATOM     37  C   UNL A   1      40.292  28.639  27.808  1.00  0.00     0.029 A 
ATOM     38  N   UNL A   1      40.455  29.370  29.916  1.00  0.00    -0.354 N 
ATOM     39  C   UNL A   1      43.639  28.031  32.503  1.00  0.00     0.074 A 
ATOM     40  C   UNL A   1      44.565  27.180  31.788  1.00  0.00     0.031 C 
ATOM     41  C   UNL A   1      39.265  29.473  28.025  1.00  0.00     0.029 A 
ATOM     42  C   UNL A   1      39.306  29.924  29.412  1.00  0.00     0.049 A 
ATOM     43  H   UNL A   1      40.790  29.549  30.825  1.00  0.00     0.167 HD
ATOM     44  C   UNL A   1      43.781  28.404  33.798  1.00  0.00     0.037 A 
ATOM     45  C   UNL A   1      38.366  30.676  30.012  1.00  0.00     0.037 A 
ATOM     46  C   UNL A   1      42.862  29.254  34.507  1.00  0.00     0.049 A 
ATOM     47  C   UNL A   1      38.519  31.034  31.461  1.00  0.00     0.074 A 
ATOM     48  C   UNL A   1      42.929  29.701  35.816  1.00  0.00     0.029 A 
ATOM     49  N   UNL A   1      41.703  29.786  33.964  1.00  0.00    -0.354 N 
ATOM     50  N   UNL A   1      39.474  30.706  32.295  1.00  0.00    -0.248 NA
ATOM     51  C   UNL A   1      37.458  31.862  32.052  1.00  0.00     0.031 C 
ATOM     52  C   UNL A   1      41.795  30.479  36.073  1.00  0.00     0.029 A 
ATOM     53  C   UNL A   1      41.039  30.543  34.914  1.00  0.00     0.049 A 
ATOM     54  H   UNL A   1      41.397  29.646  33.038  1.00  0.00     0.167 HD
ATOM     55  C   UNL A   1      39.138  31.292  33.506  1.00  0.00     0.074 A 
ATOM     56  C   UNL A   1      37.897  32.008  33.295  1.00  0.00     0.031 C 
ATOM     57  C   UNL A   1      39.801  31.240  34.688  1.00  0.00     0.037 A 
BRANCH  44  58
ATOM     58  C   UNL A   1      44.971  27.881  34.546  1.00  0.00     0.064 A 
ATOM     59  C   UNL A   1      44.928  26.655  35.224  1.00  0.00     0.173 A 
ATOM     60  C   UNL A   1      46.184  28.585  34.532  1.00  0.00     0.173 A 
ATOM     61  F   UNL A   1      43.788  25.951  35.274  1.00  0.00    -0.203 F 
ATOM     62  C   UNL A   1      46.058  26.153  35.866  1.00  0.00     0.198 A 
ATOM     63  C   UNL A   1      47.316  28.074  35.160  1.00  0.00     0.198 A 
ATOM     64  F   UNL A   1      46.275  29.762  33.894  1.00  0.00    -0.203 F 
ATOM     65  F   UNL A   1      45.992  24.988  36.524  1.00  0.00    -0.200 F 
ATOM     66  C   UNL A   1      47.253  26.859  35.828  1.00  0.00     0.200 A 
ATOM     67  F   UNL A   1      48.471  28.752  35.115  1.00  0.00    -0.200 F 
ATOM     68  F   UNL A   1      48.342  26.370  36.436  1.00  0.00    -0.200 F 
ENDBRANCH  44  58
BRANCH  45  69
ATOM     69  C   UNL A   1      37.185  31.114  29.231  1.00  0.00     0.064 A 
ATOM     70  C   UNL A   1      36.135  30.231  28.958  1.00  0.00     0.173 A 
ATOM     71  C   UNL A   1      37.066  32.438  28.782  1.00  0.00     0.173 A 
ATOM     72  F   UNL A   1      36.217  28.951  29.352  1.00  0.00    -0.203 F 
ATOM     73  C   UNL A   1      35.004  30.655  28.266  1.00  0.00     0.198 A 
ATOM     74  C   UNL A   1      35.925  32.867  28.111  1.00  0.00     0.198 A 
ATOM     75  F   UNL A   1      38.046  33.321  29.025  1.00  0.00    -0.203 F 
ATOM     76  F   UNL A   1      34.019  29.787  28.000  1.00  0.00    -0.200 F 
ATOM     77  C   UNL A   1      34.896  31.976  27.851  1.00  0.00     0.200 A 
ATOM     78  F   UNL A   1      35.819  34.146  27.724  1.00  0.00    -0.200 F 
ATOM     79  F   UNL A   1      33.799  32.387  27.200  1.00  0.00    -0.200 F 
ENDBRANCH  45  69
BRANCH  57  80
ATOM     80  C   UNL A   1      39.197  31.992  35.833  1.00  0.00     0.064 A 
ATOM     81  C   UNL A   1      38.326  31.368  36.736  1.00  0.00     0.173 A 
ATOM     82  C   UNL A   1      39.509  33.343  36.040  1.00  0.00     0.173 A 
ATOM     83  F   UNL A   1      37.986  30.081  36.567  1.00  0.00    -0.203 F 
ATOM     84  C   UNL A   1      37.767  32.080  37.795  1.00  0.00     0.198 A 
ATOM     85  C   UNL A   1      38.964  34.046  37.110  1.00  0.00     0.198 A 
ATOM     86  F   UNL A   1      40.341  33.981  35.203  1.00  0.00    -0.203 F 
ATOM     87  F   UNL A   1      36.903  31.476  38.623  1.00  0.00    -0.200 F 
ATOM     88  C   UNL A   1      38.089  33.416  37.982  1.00  0.00     0.200 A 
ATOM     89  F   UNL A   1      39.279  35.336  37.293  1.00  0.00    -0.200 F 
ATOM     90  F   UNL A   1      37.547  34.100  38.999  1.00  0.00    -0.200 F 
ENDBRANCH  57  80
ENDBRANCH  31  32
ENDBRANCH  24  26
ENDBRANCH  23  24
ENDBRANCH  22  23
ENDBRANCH   1  22
TORSDOF 14
ENDMDL
MODEL 2
REMARK VINA RESULT:     -12.2      5.040      7.577
REMARK SMILES Cc1cc(SCC(=O)OCCOC(=O)c2ccc(-c3c4nc(c(-c5c(F)c(F)c(F)c(F)c5F)c5ccc([nH]5)c(-c5c(F)c(F)c(F)c(F)c5F)c5nc(c(-c6c(F)c(F)c(F)c(F)c6F)c6ccc3[nH]6)C=C5)C=C4)cc2)c2cc(C(F)(F)F)ccc2n1
REMARK SMILES IDX 10 1 9 2 7 3 8 4 6 5 5 6 4 7 1 8 2 9 3 10 88 11 87 12 78 13
REMARK SMILES IDX 86 14 79 15 85 16 80 17 81 18 82 19 83 20 84 21 11 22 12 23
REMARK SMILES IDX 13 24 14 25 15 26 16 27 77 28 17 29 76 30 18 31 19 32 20 33
REMARK SMILES IDX 70 34 21 35 75 36 69 37 71 38 22 39 74 40 68 41 67 42 23 44
REMARK SMILES IDX 55 45 35 46 54 47 36 48 39 49 53 50 72 51 37 52 38 53 52 55
REMARK SMILES IDX 73 56 40 57 24 58 25 59 33 60 26 61 27 62 31 63 34 64 28 65
REMARK SMILES IDX 29 66 32 67 30 68 56 69 57 70 65 71 58 72 59 73 63 74 66 75
REMARK SMILES IDX 60 76 61 77 64 78 62 79 41 80 42 81 50 82 43 83 44 84 48 85
REMARK SMILES IDX 51 86 45 87 46 88 49 89 47 90
REMARK H PARENT 71 43 39 54
REMARK Flexibility Score: inf
ROOT
ATOM      1  C   UNL A   1      41.770  19.562  26.994  1.00  0.00     0.274 C 
ENDROOT
BRANCH   1   2
ATOM      2  O   UNL A   1      40.554  19.922  26.308  1.00  0.00    -0.461 OA
BRANCH   2   3
ATOM      3  C   UNL A   1      40.334  21.249  26.126  1.00  0.00     0.316 C 
ATOM      4  O   UNL A   1      41.224  22.085  25.989  1.00  0.00    -0.251 OA
BRANCH   3   5
ATOM      5  C   UNL A   1      38.873  21.640  26.032  1.00  0.00     0.197 C 
BRANCH   5   6
ATOM      6  S   UNL A   1      37.828  20.486  25.091  1.00  0.00    -0.114 SA
BRANCH   6   7
ATOM      7  C   UNL A   1      36.156  21.173  25.177  1.00  0.00     0.019 A 
ATOM      8  C   UNL A   1      34.327  24.435  25.751  1.00  0.00     0.067 C 
ATOM      9  C   UNL A   1      34.622  22.998  25.461  1.00  0.00     0.039 A 
ATOM     10  C   UNL A   1      35.927  22.524  25.435  1.00  0.00     0.039 A 
ATOM     11  N   UNL A   1      33.559  22.216  25.196  1.00  0.00    -0.253 NA
ATOM     12  C   UNL A   1      33.762  20.927  24.911  1.00  0.00     0.072 A 
ATOM     13  C   UNL A   1      35.040  20.329  24.906  1.00  0.00     0.014 A 
ATOM     14  C   UNL A   1      32.647  20.163  24.606  1.00  0.00     0.029 A 
ATOM     15  C   UNL A   1      35.119  18.939  24.626  1.00  0.00     0.024 A 
ATOM     16  C   UNL A   1      32.742  18.801  24.312  1.00  0.00     0.015 A 
ATOM     17  C   UNL A   1      33.983  18.169  24.330  1.00  0.00     0.056 A 
BRANCH  17  18
ATOM     18  C   UNL A   1      34.125  16.693  24.061  1.00  0.00     0.416 C 
ATOM     19  F   UNL A   1      34.403  16.424  22.755  1.00  0.00    -0.166 F 
ATOM     20  F   UNL A   1      35.134  16.132  24.783  1.00  0.00    -0.166 F 
ATOM     21  F   UNL A   1      33.007  15.976  24.361  1.00  0.00    -0.166 F 
ENDBRANCH  17  18
ENDBRANCH   6   7
ENDBRANCH   5   6
ENDBRANCH   3   5
ENDBRANCH   2   3
ENDBRANCH   1   2
BRANCH   1  22
ATOM     22  C   UNL A   1      42.588  18.597  26.144  1.00  0.00     0.275 C 
BRANCH  22  23
ATOM     23  O   UNL A   1      42.872  19.203  24.869  1.00  0.00    -0.458 OA
BRANCH  23  24
ATOM     24  C   UNL A   1      44.181  19.399  24.604  1.00  0.00     0.338 C 
ATOM     25  O   UNL A   1      44.970  18.584  24.148  1.00  0.00    -0.246 OA
BRANCH  24  26
ATOM     26  C   UNL A   1      44.580  20.789  24.904  1.00  0.00     0.060 A 
ATOM     27  C   UNL A   1      45.164  21.139  26.126  1.00  0.00     0.016 A 
ATOM     28  C   UNL A   1      44.218  21.784  23.992  1.00  0.00     0.016 A 
ATOM     29  C   UNL A   1      45.323  22.486  26.462  1.00  0.00     0.010 A 
ATOM     30  C   UNL A   1      44.432  23.127  24.303  1.00  0.00     0.010 A 
ATOM     31  C   UNL A   1      44.959  23.491  25.552  1.00  0.00    -0.014 A 
BRANCH  31  32
ATOM     32  C   UNL A   1      45.157  24.926  25.871  1.00  0.00     0.031 A 
ATOM     33  C   UNL A   1      46.507  25.570  25.732  1.00  0.00     0.074 A 
ATOM     34  C   UNL A   1      44.117  25.640  26.341  1.00  0.00     0.049 A 
ATOM     35  N   UNL A   1      46.902  26.761  26.106  1.00  0.00    -0.248 NA
ATOM     36  C   UNL A   1      47.558  24.767  25.090  1.00  0.00     0.031 C 
ATOM     37  C   UNL A   1      42.755  25.134  26.508  1.00  0.00     0.029 A 
ATOM     38  N   UNL A   1      44.054  26.935  26.786  1.00  0.00    -0.354 N 
ATOM     39  C   UNL A   1      48.244  26.845  25.758  1.00  0.00     0.074 A 
ATOM     40  C   UNL A   1      48.602  25.581  25.151  1.00  0.00     0.031 C 
ATOM     41  C   UNL A   1      41.990  26.106  27.028  1.00  0.00     0.029 A 
ATOM     42  C   UNL A   1      42.821  27.279  27.278  1.00  0.00     0.049 A 
ATOM     43  H   UNL A   1      44.818  27.556  26.756  1.00  0.00     0.167 HD
ATOM     44  C   UNL A   1      49.097  27.883  25.930  1.00  0.00     0.037 A 
ATOM     45  C   UNL A   1      42.414  28.400  27.901  1.00  0.00     0.037 A 
ATOM     46  C   UNL A   1      48.739  29.142  26.529  1.00  0.00     0.049 A 
ATOM     47  C   UNL A   1      43.389  29.517  28.127  1.00  0.00     0.074 A 
ATOM     48  C   UNL A   1      49.529  30.260  26.733  1.00  0.00     0.029 A 
ATOM     49  N   UNL A   1      47.481  29.447  27.026  1.00  0.00    -0.354 N 
ATOM     50  N   UNL A   1      44.656  29.581  27.805  1.00  0.00    -0.248 NA
ATOM     51  C   UNL A   1      42.877  30.713  28.809  1.00  0.00     0.031 C 
ATOM     52  C   UNL A   1      48.757  31.231  27.379  1.00  0.00     0.029 A 
ATOM     53  C   UNL A   1      47.476  30.729  27.548  1.00  0.00     0.049 A 
ATOM     54  H   UNL A   1      46.704  28.841  27.008  1.00  0.00     0.167 HD
ATOM     55  C   UNL A   1      45.094  30.825  28.235  1.00  0.00     0.074 A 
ATOM     56  C   UNL A   1      43.953  31.489  28.829  1.00  0.00     0.031 C 
ATOM     57  C   UNL A   1      46.333  31.368  28.144  1.00  0.00     0.037 A 
BRANCH  44  58
ATOM     58  C   UNL A   1      50.515  27.702  25.478  1.00  0.00     0.064 A 
ATOM     59  C   UNL A   1      51.529  27.341  26.376  1.00  0.00     0.173 A 
ATOM     60  C   UNL A   1      50.850  27.829  24.122  1.00  0.00     0.173 A 
ATOM     61  F   UNL A   1      51.258  27.217  27.684  1.00  0.00    -0.203 F 
ATOM     62  C   UNL A   1      52.831  27.118  25.933  1.00  0.00     0.198 A 
ATOM     63  C   UNL A   1      52.148  27.590  23.680  1.00  0.00     0.198 A 
ATOM     64  F   UNL A   1      49.913  28.170  23.224  1.00  0.00    -0.203 F 
ATOM     65  F   UNL A   1      53.790  26.792  26.811  1.00  0.00    -0.200 F 
ATOM     66  C   UNL A   1      53.138  27.236  24.585  1.00  0.00     0.200 A 
ATOM     67  F   UNL A   1      52.442  27.695  22.376  1.00  0.00    -0.200 F 
ATOM     68  F   UNL A   1      54.388  27.010  24.159  1.00  0.00    -0.200 F 
ENDBRANCH  44  58
BRANCH  45  69
ATOM     69  C   UNL A   1      41.012  28.494  28.373  1.00  0.00     0.064 A 
ATOM     70  C   UNL A   1      40.669  28.147  29.685  1.00  0.00     0.173 A 
ATOM     71  C   UNL A   1      39.997  28.978  27.534  1.00  0.00     0.173 A 
ATOM     72  F   UNL A   1      41.605  27.661  30.514  1.00  0.00    -0.203 F 
ATOM     73  C   UNL A   1      39.362  28.281  30.143  1.00  0.00     0.198 A 
ATOM     74  C   UNL A   1      38.695  29.134  28.000  1.00  0.00     0.198 A 
ATOM     75  F   UNL A   1      40.281  29.328  26.271  1.00  0.00    -0.203 F 
ATOM     76  F   UNL A   1      39.054  27.923  31.397  1.00  0.00    -0.200 F 
ATOM     77  C   UNL A   1      38.377  28.783  29.303  1.00  0.00     0.200 A 
ATOM     78  F   UNL A   1      37.751  29.632  27.189  1.00  0.00    -0.200 F 
ATOM     79  F   UNL A   1      37.123  28.928  29.750  1.00  0.00    -0.200 F 
ENDBRANCH  45  69
BRANCH  57  80
ATOM     80  C   UNL A   1      46.506  32.752  28.689  1.00  0.00     0.064 A 
ATOM     81  C   UNL A   1      46.284  33.883  27.892  1.00  0.00     0.173 A 
ATOM     82  C   UNL A   1      46.878  32.948  30.027  1.00  0.00     0.173 A 
ATOM     83  F   UNL A   1      45.943  33.742  26.601  1.00  0.00    -0.203 F 
ATOM     84  C   UNL A   1      46.452  35.164  28.409  1.00  0.00     0.198 A 
ATOM     85  C   UNL A   1      47.027  34.230  30.546  1.00  0.00     0.198 A 
ATOM     86  F   UNL A   1      47.098  31.895  30.828  1.00  0.00    -0.203 F 
ATOM     87  F   UNL A   1      46.275  36.232  27.619  1.00  0.00    -0.200 F 
ATOM     88  C   UNL A   1      46.820  35.336  29.735  1.00  0.00     0.200 A 
ATOM     89  F   UNL A   1      47.377  34.396  31.829  1.00  0.00    -0.200 F 
ATOM     90  F   UNL A   1      46.985  36.571  30.231  1.00  0.00    -0.200 F 
ENDBRANCH  57  80
ENDBRANCH  31  32
ENDBRANCH  24  26
ENDBRANCH  23  24
ENDBRANCH  22  23
ENDBRANCH   1  22
TORSDOF 14
ENDMDL
MODEL 3
REMARK VINA RESULT:     -12.1      3.682      8.290
REMARK SMILES Cc1cc(SCC(=O)OCCOC(=O)c2ccc(-c3c4nc(c(-c5c(F)c(F)c(F)c(F)c5F)c5ccc([nH]5)c(-c5c(F)c(F)c(F)c(F)c5F)c5nc(c(-c6c(F)c(F)c(F)c(F)c6F)c6ccc3[nH]6)C=C5)C=C4)cc2)c2cc(C(F)(F)F)ccc2n1
REMARK SMILES IDX 10 1 9 2 7 3 8 4 6 5 5 6 4 7 1 8 2 9 3 10 88 11 87 12 78 13
REMARK SMILES IDX 86 14 79 15 85 16 80 17 81 18 82 19 83 20 84 21 11 22 12 23
REMARK SMILES IDX 13 24 14 25 15 26 16 27 77 28 17 29 76 30 18 31 19 32 20 33
REMARK SMILES IDX 70 34 21 35 75 36 69 37 71 38 22 39 74 40 68 41 67 42 23 44
REMARK SMILES IDX 55 45 35 46 54 47 36 48 39 49 53 50 72 51 37 52 38 53 52 55
REMARK SMILES IDX 73 56 40 57 24 58 25 59 33 60 26 61 27 62 31 63 34 64 28 65
REMARK SMILES IDX 29 66 32 67 30 68 56 69 57 70 65 71 58 72 59 73 63 74 66 75
REMARK SMILES IDX 60 76 61 77 64 78 62 79 41 80 42 81 50 82 43 83 44 84 48 85
REMARK SMILES IDX 51 86 45 87 46 88 49 89 47 90
REMARK H PARENT 71 43 39 54
REMARK Flexibility Score: inf
ROOT
ATOM      1  C   UNL A   1      32.223  28.977  23.790  1.00  0.00     0.274 C 
ENDROOT
BRANCH   1   2
ATOM      2  O   UNL A   1      33.445  28.227  23.643  1.00  0.00    -0.461 OA
BRANCH   2   3
ATOM      3  C   UNL A   1      33.363  27.072  22.933  1.00  0.00     0.316 C 
ATOM      4  O   UNL A   1      33.689  26.961  21.753  1.00  0.00    -0.251 OA
BRANCH   3   5
ATOM      5  C   UNL A   1      32.890  25.874  23.729  1.00  0.00     0.197 C 
BRANCH   5   6
ATOM      6  S   UNL A   1      33.965  25.402  25.119  1.00  0.00    -0.114 SA
BRANCH   6   7
ATOM      7  C   UNL A   1      34.241  23.623  24.930  1.00  0.00     0.019 A 
ATOM      8  C   UNL A   1      32.528  20.479  23.706  1.00  0.00     0.067 C 
ATOM      9  C   UNL A   1      33.548  21.427  24.254  1.00  0.00     0.039 A 
ATOM     10  C   UNL A   1      33.266  22.779  24.400  1.00  0.00     0.039 A 
ATOM     11  N   UNL A   1      34.748  20.896  24.556  1.00  0.00    -0.253 NA
ATOM     12  C   UNL A   1      35.704  21.698  25.032  1.00  0.00     0.072 A 
ATOM     13  C   UNL A   1      35.512  23.076  25.267  1.00  0.00     0.014 A 
ATOM     14  C   UNL A   1      36.938  21.123  25.296  1.00  0.00     0.029 A 
ATOM     15  C   UNL A   1      36.597  23.811  25.813  1.00  0.00     0.024 A 
ATOM     16  C   UNL A   1      38.003  21.863  25.814  1.00  0.00     0.015 A 
ATOM     17  C   UNL A   1      37.840  23.219  26.089  1.00  0.00     0.056 A 
BRANCH  17  18
ATOM     18  C   UNL A   1      38.950  24.044  26.688  1.00  0.00     0.416 C 
ATOM     19  F   UNL A   1      39.883  23.282  27.323  1.00  0.00    -0.166 F 
ATOM     20  F   UNL A   1      39.626  24.758  25.746  1.00  0.00    -0.166 F 
ATOM     21  F   UNL A   1      38.518  24.951  27.606  1.00  0.00    -0.166 F 
ENDBRANCH  17  18
ENDBRANCH   6   7
ENDBRANCH   5   6
ENDBRANCH   3   5
ENDBRANCH   2   3
ENDBRANCH   1   2
BRANCH   1  22
ATOM     22  C   UNL A   1      32.045  29.417  25.239  1.00  0.00     0.275 C 
BRANCH  22  23
ATOM     23  O   UNL A   1      33.323  29.792  25.786  1.00  0.00    -0.458 OA
BRANCH  23  24
ATOM     24  C   UNL A   1      33.286  30.769  26.717  1.00  0.00     0.338 C 
ATOM     25  O   UNL A   1      32.404  31.602  26.875  1.00  0.00    -0.246 OA
BRANCH  24  26
ATOM     26  C   UNL A   1      34.468  30.707  27.599  1.00  0.00     0.060 A 
ATOM     27  C   UNL A   1      35.347  31.788  27.728  1.00  0.00     0.016 A 
ATOM     28  C   UNL A   1      34.779  29.479  28.190  1.00  0.00     0.016 A 
ATOM     29  C   UNL A   1      36.566  31.619  28.391  1.00  0.00     0.010 A 
ATOM     30  C   UNL A   1      35.968  29.328  28.902  1.00  0.00     0.010 A 
ATOM     31  C   UNL A   1      36.886  30.388  28.984  1.00  0.00    -0.014 A 
BRANCH  31  32
ATOM     32  C   UNL A   1      38.155  30.198  29.728  1.00  0.00     0.031 A 
ATOM     33  C   UNL A   1      39.258  29.345  29.169  1.00  0.00     0.074 A 
ATOM     34  C   UNL A   1      38.290  30.759  30.943  1.00  0.00     0.049 A 
ATOM     35  N   UNL A   1      40.367  28.943  29.738  1.00  0.00    -0.248 NA
ATOM     36  C   UNL A   1      39.093  28.877  27.785  1.00  0.00     0.031 C 
ATOM     37  C   UNL A   1      37.298  31.618  31.590  1.00  0.00     0.029 A 
ATOM     38  N   UNL A   1      39.306  30.668  31.859  1.00  0.00    -0.354 N 
ATOM     39  C   UNL A   1      41.022  28.168  28.790  1.00  0.00     0.074 A 
ATOM     40  C   UNL A   1      40.184  28.145  27.610  1.00  0.00     0.031 C 
ATOM     41  C   UNL A   1      37.751  31.971  32.802  1.00  0.00     0.029 A 
ATOM     42  C   UNL A   1      39.035  31.318  33.036  1.00  0.00     0.049 A 
ATOM     43  H   UNL A   1      40.146  30.184  31.689  1.00  0.00     0.167 HD
ATOM     44  C   UNL A   1      42.215  27.534  28.897  1.00  0.00     0.037 A 
ATOM     45  C   UNL A   1      39.723  31.351  34.192  1.00  0.00     0.037 A 
ATOM     46  C   UNL A   1      43.050  27.561  30.069  1.00  0.00     0.049 A 
ATOM     47  C   UNL A   1      41.016  30.600  34.304  1.00  0.00     0.074 A 
ATOM     48  C   UNL A   1      44.283  26.963  30.267  1.00  0.00     0.029 A 
ATOM     49  N   UNL A   1      42.734  28.222  31.246  1.00  0.00    -0.354 N 
ATOM     50  N   UNL A   1      41.620  29.861  33.408  1.00  0.00    -0.248 NA
ATOM     51  C   UNL A   1      41.718  30.682  35.592  1.00  0.00     0.031 C 
ATOM     52  C   UNL A   1      44.699  27.238  31.575  1.00  0.00     0.029 A 
ATOM     53  C   UNL A   1      43.740  28.036  32.178  1.00  0.00     0.049 A 
ATOM     54  H   UNL A   1      41.915  28.749  31.395  1.00  0.00     0.167 HD
ATOM     55  C   UNL A   1      42.777  29.396  34.016  1.00  0.00     0.074 A 
ATOM     56  C   UNL A   1      42.797  29.948  35.354  1.00  0.00     0.031 C 
ATOM     57  C   UNL A   1      43.737  28.584  33.508  1.00  0.00     0.037 A 
BRANCH  44  58
ATOM     58  C   UNL A   1      42.689  26.737  27.718  1.00  0.00     0.064 A 
ATOM     59  C   UNL A   1      43.468  27.318  26.708  1.00  0.00     0.173 A 
ATOM     60  C   UNL A   1      42.413  25.364  27.632  1.00  0.00     0.173 A 
ATOM     61  F   UNL A   1      43.748  28.629  26.742  1.00  0.00    -0.203 F 
ATOM     62  C   UNL A   1      43.950  26.552  25.648  1.00  0.00     0.198 A 
ATOM     63  C   UNL A   1      42.910  24.599  26.581  1.00  0.00     0.198 A 
ATOM     64  F   UNL A   1      41.674  24.764  28.577  1.00  0.00    -0.203 F 
ATOM     65  F   UNL A   1      44.677  27.130  24.682  1.00  0.00    -0.200 F 
ATOM     66  C   UNL A   1      43.677  25.193  25.589  1.00  0.00     0.200 A 
ATOM     67  F   UNL A   1      42.653  23.285  26.530  1.00  0.00    -0.200 F 
ATOM     68  F   UNL A   1      44.151  24.456  24.576  1.00  0.00    -0.200 F 
ENDBRANCH  44  58
BRANCH  45  69
ATOM     69  C   UNL A   1      39.172  32.112  35.338  1.00  0.00     0.064 A 
ATOM     70  C   UNL A   1      38.410  31.476  36.325  1.00  0.00     0.173 A 
ATOM     71  C   UNL A   1      39.437  33.481  35.492  1.00  0.00     0.173 A 
ATOM     72  F   UNL A   1      38.117  30.172  36.206  1.00  0.00    -0.203 F 
ATOM     73  C   UNL A   1      37.933  32.181  37.427  1.00  0.00     0.198 A 
ATOM     74  C   UNL A   1      38.979  34.180  36.605  1.00  0.00     0.198 A 
ATOM     75  F   UNL A   1      40.167  34.131  34.573  1.00  0.00    -0.203 F 
ATOM     76  F   UNL A   1      37.190  31.555  38.349  1.00  0.00    -0.200 F 
ATOM     77  C   UNL A   1      38.226  33.530  37.570  1.00  0.00     0.200 A 
ATOM     78  F   UNL A   1      39.276  35.479  36.747  1.00  0.00    -0.200 F 
ATOM     79  F   UNL A   1      37.781  34.203  38.640  1.00  0.00    -0.200 F 
ENDBRANCH  45  69
BRANCH  57  80
ATOM     80  C   UNL A   1      44.891  28.261  34.405  1.00  0.00     0.064 A 
ATOM     81  C   UNL A   1      46.030  29.077  34.449  1.00  0.00     0.173 A 
ATOM     82  C   UNL A   1      44.849  27.136  35.241  1.00  0.00     0.173 A 
ATOM     83  F   UNL A   1      46.120  30.154  33.654  1.00  0.00    -0.203 F 
ATOM     84  C   UNL A   1      47.100  28.763  35.284  1.00  0.00     0.198 A 
ATOM     85  C   UNL A   1      45.912  26.836  36.088  1.00  0.00     0.198 A 
ATOM     86  F   UNL A   1      43.778  26.329  35.234  1.00  0.00    -0.203 F 
ATOM     87  F   UNL A   1      48.197  29.532  35.282  1.00  0.00    -0.200 F 
ATOM     88  C   UNL A   1      47.038  27.646  36.104  1.00  0.00     0.200 A 
ATOM     89  F   UNL A   1      45.849  25.760  36.884  1.00  0.00    -0.200 F 
ATOM     90  F   UNL A   1      48.070  27.343  36.904  1.00  0.00    -0.200 F 
ENDBRANCH  57  80
ENDBRANCH  31  32
ENDBRANCH  24  26
ENDBRANCH  23  24
ENDBRANCH  22  23
ENDBRANCH   1  22
TORSDOF 14
ENDMDL
