MODEL 1
REMARK VINA RESULT:     -10.0      0.000      0.000
REMARK SMILES C[C@@H](CO)C[NH2+]CC(C)(C)C(=O)OCCOC(=O)c1ccc(-c2c3nc(c(-c4c(F)c(F)c(F)c(F)c4F)c4ccc([nH]4)c(-c4c(F)c(F)c(F)c(F)c4F)c4nc(c(-c5c(F)c(F)c(F)c(F)c5F)c5ccc2[nH]5)C=C4)C=C3)cc1
REMARK SMILES IDX 11 1 12 2 8 3 9 4 10 5 7 6 6 7 5 10 2 11 1 12 3 13 4 14
REMARK SMILES IDX 13 16 14 17 15 18 16 19 17 20 18 21 19 22 20 23 81 24 21 25
REMARK SMILES IDX 80 26 22 27 23 28 24 29 74 30 25 31 79 32 73 33 75 34 26 35
REMARK SMILES IDX 78 36 72 37 71 38 27 40 59 41 39 42 58 43 40 44 43 45 57 46
REMARK SMILES IDX 76 47 41 48 42 49 56 51 77 52 44 53 28 54 29 55 37 56 30 57
REMARK SMILES IDX 31 58 35 59 38 60 32 61 33 62 36 63 34 64 60 65 61 66 69 67
REMARK SMILES IDX 62 68 63 69 67 70 70 71 64 72 65 73 68 74 66 75 45 76 46 77
REMARK SMILES IDX 54 78 47 79 48 80 52 81 55 82 49 83 50 84 53 85 51 86
REMARK H PARENT 6 8 6 9 4 15 75 39 43 50
REMARK Flexibility Score: inf
ROOT
ATOM      1  C   UNL A   1      33.271  29.711  26.672  1.00  0.00     0.317 C 
ATOM      2  O   UNL A   1      34.471  29.770  26.893  1.00  0.00    -0.251 OA
ENDROOT
BRANCH   1   3
ATOM      3  C   UNL A   1      32.555  28.438  26.202  1.00  0.00     0.111 C 
ATOM      4  C   UNL A   1      31.474  28.003  27.197  1.00  0.00     0.029 C 
ATOM      5  C   UNL A   1      33.647  27.350  26.124  1.00  0.00     0.029 C 
BRANCH   3   6
ATOM      6  C   UNL A   1      31.900  28.587  24.771  1.00  0.00     0.278 C 
BRANCH   6   7
ATOM      7  N   UNL A   1      31.030  29.737  24.400  1.00  0.00    -0.345 N 
ATOM      8  H   UNL A   1      30.546  30.068  25.236  1.00  0.00     0.346 HD
ATOM      9  H   UNL A   1      31.621  30.469  24.006  1.00  0.00     0.346 HD
BRANCH   7  10
ATOM     10  C   UNL A   1      30.035  29.362  23.394  1.00  0.00     0.266 C 
BRANCH  10  11
ATOM     11  C   UNL A   1      28.804  30.240  23.153  1.00  0.00     0.067 C 
ATOM     12  C   UNL A   1      28.915  31.577  23.876  1.00  0.00     0.016 C 
BRANCH  11  13
ATOM     13  C   UNL A   1      28.653  30.443  21.624  1.00  0.00     0.165 C 
BRANCH  13  14
ATOM     14  O   UNL A   1      29.903  30.453  20.940  1.00  0.00    -0.396 OA
ATOM     15  H   UNL A   1      30.387  29.637  21.139  1.00  0.00     0.210 HD
ENDBRANCH  13  14
ENDBRANCH  11  13
ENDBRANCH  10  11
ENDBRANCH   7  10
ENDBRANCH   6   7
ENDBRANCH   3   6
ENDBRANCH   1   3
BRANCH   1  16
ATOM     16  O   UNL A   1      32.475  30.797  26.851  1.00  0.00    -0.461 OA
BRANCH  16  17
ATOM     17  C   UNL A   1      33.175  31.942  27.401  1.00  0.00     0.274 C 
BRANCH  17  18
ATOM     18  C   UNL A   1      32.328  33.218  27.626  1.00  0.00     0.275 C 
BRANCH  18  19
ATOM     19  O   UNL A   1      33.076  34.459  27.567  1.00  0.00    -0.458 OA
BRANCH  19  20
ATOM     20  C   UNL A   1      33.258  35.102  28.751  1.00  0.00     0.338 C 
ATOM     21  O   UNL A   1      32.528  35.960  29.225  1.00  0.00    -0.246 OA
BRANCH  20  22
ATOM     22  C   UNL A   1      34.344  34.475  29.551  1.00  0.00     0.060 A 
ATOM     23  C   UNL A   1      35.610  34.434  28.956  1.00  0.00     0.016 A 
ATOM     24  C   UNL A   1      34.170  33.907  30.812  1.00  0.00     0.016 A 
ATOM     25  C   UNL A   1      36.720  33.931  29.633  1.00  0.00     0.010 A 
ATOM     26  C   UNL A   1      35.277  33.330  31.471  1.00  0.00     0.010 A 
ATOM     27  C   UNL A   1      36.563  33.356  30.894  1.00  0.00    -0.014 A 
BRANCH  27  28
ATOM     28  C   UNL A   1      37.732  32.710  31.549  1.00  0.00     0.031 A 
ATOM     29  C   UNL A   1      38.392  31.535  30.887  1.00  0.00     0.074 A 
ATOM     30  C   UNL A   1      38.254  33.198  32.690  1.00  0.00     0.049 A 
ATOM     31  N   UNL A   1      39.347  30.756  31.331  1.00  0.00    -0.248 NA
ATOM     32  C   UNL A   1      37.923  31.206  29.534  1.00  0.00     0.031 C 
ATOM     33  C   UNL A   1      37.805  34.410  33.369  1.00  0.00     0.029 A 
ATOM     34  N   UNL A   1      39.281  32.732  33.479  1.00  0.00    -0.354 N 
ATOM     35  C   UNL A   1      39.582  29.834  30.322  1.00  0.00     0.074 A 
ATOM     36  C   UNL A   1      38.670  30.150  29.242  1.00  0.00     0.031 C 
ATOM     37  C   UNL A   1      38.534  34.579  34.487  1.00  0.00     0.029 A 
ATOM     38  C   UNL A   1      39.462  33.458  34.631  1.00  0.00     0.049 A 
ATOM     39  H   UNL A   1      39.832  31.952  33.240  1.00  0.00     0.167 HD
ATOM     40  C   UNL A   1      40.469  28.810  30.302  1.00  0.00     0.037 A 
ATOM     41  C   UNL A   1      40.251  33.219  35.699  1.00  0.00     0.037 A 
ATOM     42  C   UNL A   1      41.372  28.491  31.378  1.00  0.00     0.049 A 
ATOM     43  C   UNL A   1      41.126  31.989  35.717  1.00  0.00     0.074 A 
ATOM     44  C   UNL A   1      42.292  27.459  31.456  1.00  0.00     0.029 A 
ATOM     45  N   UNL A   1      41.464  29.195  32.571  1.00  0.00    -0.354 N 
ATOM     46  N   UNL A   1      41.318  31.092  34.780  1.00  0.00    -0.248 NA
ATOM     47  C   UNL A   1      41.886  31.730  36.951  1.00  0.00     0.031 C 
ATOM     48  C   UNL A   1      42.893  27.499  32.719  1.00  0.00     0.029 A 
ATOM     49  C   UNL A   1      42.396  28.596  33.405  1.00  0.00     0.049 A 
ATOM     50  H   UNL A   1      40.943  30.001  32.792  1.00  0.00     0.167 HD
ATOM     51  C   UNL A   1      42.230  30.181  35.299  1.00  0.00     0.074 A 
ATOM     52  C   UNL A   1      42.572  30.643  36.626  1.00  0.00     0.031 C 
ATOM     53  C   UNL A   1      42.736  29.060  34.726  1.00  0.00     0.037 A 
BRANCH  40  54
ATOM     54  C   UNL A   1      40.461  27.913  29.099  1.00  0.00     0.064 A 
ATOM     55  C   UNL A   1      41.245  28.178  27.967  1.00  0.00     0.173 A 
ATOM     56  C   UNL A   1      39.668  26.755  29.093  1.00  0.00     0.173 A 
ATOM     57  F   UNL A   1      42.010  29.279  27.917  1.00  0.00    -0.203 F 
ATOM     58  C   UNL A   1      41.213  27.330  26.862  1.00  0.00     0.198 A 
ATOM     59  C   UNL A   1      39.663  25.894  28.000  1.00  0.00     0.198 A 
ATOM     60  F   UNL A   1      38.903  26.453  30.153  1.00  0.00    -0.203 F 
ATOM     61  F   UNL A   1      41.932  27.628  25.770  1.00  0.00    -0.200 F 
ATOM     62  C   UNL A   1      40.429  26.187  26.882  1.00  0.00     0.200 A 
ATOM     63  F   UNL A   1      38.915  24.783  28.027  1.00  0.00    -0.200 F 
ATOM     64  F   UNL A   1      40.404  25.370  25.819  1.00  0.00    -0.200 F 
ENDBRANCH  40  54
BRANCH  41  65
ATOM     65  C   UNL A   1      40.206  34.121  36.884  1.00  0.00     0.064 A 
ATOM     66  C   UNL A   1      41.100  35.193  37.019  1.00  0.00     0.173 A 
ATOM     67  C   UNL A   1      39.301  33.895  37.934  1.00  0.00     0.173 A 
ATOM     68  F   UNL A   1      42.011  35.430  36.064  1.00  0.00    -0.203 F 
ATOM     69  C   UNL A   1      41.105  35.988  38.165  1.00  0.00     0.198 A 
ATOM     70  C   UNL A   1      39.284  34.711  39.062  1.00  0.00     0.198 A 
ATOM     71  F   UNL A   1      38.433  32.875  37.866  1.00  0.00    -0.203 F 
ATOM     72  F   UNL A   1      42.010  36.966  38.294  1.00  0.00    -0.200 F 
ATOM     73  C   UNL A   1      40.193  35.751  39.182  1.00  0.00     0.200 A 
ATOM     74  F   UNL A   1      38.394  34.484  40.038  1.00  0.00    -0.200 F 
ATOM     75  F   UNL A   1      40.197  36.515  40.282  1.00  0.00    -0.200 F 
ENDBRANCH  41  65
BRANCH  53  76
ATOM     76  C   UNL A   1      43.737  28.265  35.517  1.00  0.00     0.064 A 
ATOM     77  C   UNL A   1      43.340  27.276  36.430  1.00  0.00     0.173 A 
ATOM     78  C   UNL A   1      45.114  28.461  35.326  1.00  0.00     0.173 A 
ATOM     79  F   UNL A   1      42.037  27.056  36.662  1.00  0.00    -0.203 F 
ATOM     80  C   UNL A   1      44.282  26.534  37.139  1.00  0.00     0.198 A 
ATOM     81  C   UNL A   1      46.053  27.695  36.012  1.00  0.00     0.198 A 
ATOM     82  F   UNL A   1      45.552  29.389  34.461  1.00  0.00    -0.203 F 
ATOM     83  F   UNL A   1      43.877  25.629  38.042  1.00  0.00    -0.200 F 
ATOM     84  C   UNL A   1      45.636  26.737  36.924  1.00  0.00     0.200 A 
ATOM     85  F   UNL A   1      47.361  27.882  35.790  1.00  0.00    -0.200 F 
ATOM     86  F   UNL A   1      46.540  26.014  37.600  1.00  0.00    -0.200 F 
ENDBRANCH  53  76
ENDBRANCH  27  28
ENDBRANCH  20  22
ENDBRANCH  19  20
ENDBRANCH  18  19
ENDBRANCH  17  18
ENDBRANCH  16  17
ENDBRANCH   1  16
TORSDOF 17
ENDMDL
MODEL 2
REMARK VINA RESULT:      -9.9      6.873     11.616
REMARK SMILES C[C@@H](CO)C[NH2+]CC(C)(C)C(=O)OCCOC(=O)c1ccc(-c2c3nc(c(-c4c(F)c(F)c(F)c(F)c4F)c4ccc([nH]4)c(-c4c(F)c(F)c(F)c(F)c4F)c4nc(c(-c5c(F)c(F)c(F)c(F)c5F)c5ccc2[nH]5)C=C4)C=C3)cc1
REMARK SMILES IDX 11 1 12 2 8 3 9 4 10 5 7 6 6 7 5 10 2 11 1 12 3 13 4 14
REMARK SMILES IDX 13 16 14 17 15 18 16 19 17 20 18 21 19 22 20 23 81 24 21 25
REMARK SMILES IDX 80 26 22 27 23 28 24 29 74 30 25 31 79 32 73 33 75 34 26 35
REMARK SMILES IDX 78 36 72 37 71 38 27 40 59 41 39 42 58 43 40 44 43 45 57 46
REMARK SMILES IDX 76 47 41 48 42 49 56 51 77 52 44 53 28 54 29 55 37 56 30 57
REMARK SMILES IDX 31 58 35 59 38 60 32 61 33 62 36 63 34 64 60 65 61 66 69 67
REMARK SMILES IDX 62 68 63 69 67 70 70 71 64 72 65 73 68 74 66 75 45 76 46 77
REMARK SMILES IDX 54 78 47 79 48 80 52 81 55 82 49 83 50 84 53 85 51 86
REMARK H PARENT 6 8 6 9 4 15 75 39 43 50
REMARK Flexibility Score: inf
ROOT
ATOM      1  C   UNL A   1      36.157  20.429  25.106  1.00  0.00     0.317 C 
ATOM      2  O   UNL A   1      36.298  19.242  24.858  1.00  0.00    -0.251 OA
ENDROOT
BRANCH   1   3
ATOM      3  C   UNL A   1      34.795  21.134  25.149  1.00  0.00     0.111 C 
ATOM      4  C   UNL A   1      34.717  22.267  24.120  1.00  0.00     0.029 C 
ATOM      5  C   UNL A   1      34.675  21.723  26.571  1.00  0.00     0.029 C 
BRANCH   3   6
ATOM      6  C   UNL A   1      33.580  20.150  24.915  1.00  0.00     0.278 C 
BRANCH   6   7
ATOM      7  N   UNL A   1      33.426  18.871  25.661  1.00  0.00    -0.345 N 
ATOM      8  H   UNL A   1      34.349  18.468  25.820  1.00  0.00     0.346 HD
ATOM      9  H   UNL A   1      32.957  19.072  26.545  1.00  0.00     0.346 HD
BRANCH   7  10
ATOM     10  C   UNL A   1      32.609  17.908  24.921  1.00  0.00     0.266 C 
BRANCH  10  11
ATOM     11  C   UNL A   1      33.250  16.667  24.291  1.00  0.00     0.067 C 
ATOM     12  C   UNL A   1      34.110  17.027  23.085  1.00  0.00     0.016 C 
BRANCH  11  13
ATOM     13  C   UNL A   1      34.090  15.956  25.382  1.00  0.00     0.165 C 
BRANCH  13  14
ATOM     14  O   UNL A   1      35.432  16.432  25.447  1.00  0.00    -0.396 OA
ATOM     15  H   UNL A   1      35.756  16.362  26.358  1.00  0.00     0.210 HD
ENDBRANCH  13  14
ENDBRANCH  11  13
ENDBRANCH  10  11
ENDBRANCH   7  10
ENDBRANCH   6   7
ENDBRANCH   3   6
ENDBRANCH   1   3
BRANCH   1  16
ATOM     16  O   UNL A   1      37.230  21.215  25.383  1.00  0.00    -0.461 OA
BRANCH  16  17
ATOM     17  C   UNL A   1      38.490  20.648  24.943  1.00  0.00     0.274 C 
BRANCH  17  18
ATOM     18  C   UNL A   1      39.660  20.711  25.955  1.00  0.00     0.275 C 
BRANCH  18  19
ATOM     19  O   UNL A   1      40.365  19.458  26.144  1.00  0.00    -0.458 OA
BRANCH  19  20
ATOM     20  C   UNL A   1      41.718  19.510  26.026  1.00  0.00     0.338 C 
ATOM     21  O   UNL A   1      42.432  18.655  25.526  1.00  0.00    -0.246 OA
BRANCH  20  22
ATOM     22  C   UNL A   1      42.242  20.860  26.369  1.00  0.00     0.060 A 
ATOM     23  C   UNL A   1      42.179  21.227  27.718  1.00  0.00     0.016 A 
ATOM     24  C   UNL A   1      42.745  21.772  25.443  1.00  0.00     0.016 A 
ATOM     25  C   UNL A   1      42.699  22.438  28.171  1.00  0.00     0.010 A 
ATOM     26  C   UNL A   1      43.205  23.030  25.887  1.00  0.00     0.010 A 
ATOM     27  C   UNL A   1      43.204  23.363  27.257  1.00  0.00    -0.014 A 
BRANCH  27  28
ATOM     28  C   UNL A   1      43.637  24.702  27.741  1.00  0.00     0.031 A 
ATOM     29  C   UNL A   1      42.602  25.723  28.112  1.00  0.00     0.074 A 
ATOM     30  C   UNL A   1      44.939  24.994  27.920  1.00  0.00     0.049 A 
ATOM     31  N   UNL A   1      42.753  26.980  28.449  1.00  0.00    -0.248 NA
ATOM     32  C   UNL A   1      41.208  25.259  28.121  1.00  0.00     0.031 C 
ATOM     33  C   UNL A   1      46.044  24.058  27.734  1.00  0.00     0.029 A 
ATOM     34  N   UNL A   1      45.552  26.166  28.300  1.00  0.00    -0.354 N 
ATOM     35  C   UNL A   1      41.475  27.462  28.692  1.00  0.00     0.074 A 
ATOM     36  C   UNL A   1      40.560  26.363  28.465  1.00  0.00     0.031 C 
ATOM     37  C   UNL A   1      47.203  24.698  27.974  1.00  0.00     0.029 A 
ATOM     38  C   UNL A   1      46.924  26.101  28.276  1.00  0.00     0.049 A 
ATOM     39  H   UNL A   1      45.054  26.974  28.562  1.00  0.00     0.167 HD
ATOM     40  C   UNL A   1      41.099  28.711  29.060  1.00  0.00     0.037 A 
ATOM     41  C   UNL A   1      47.847  27.073  28.433  1.00  0.00     0.037 A 
ATOM     42  C   UNL A   1      42.009  29.807  29.280  1.00  0.00     0.049 A 
ATOM     43  C   UNL A   1      47.398  28.490  28.699  1.00  0.00     0.074 A 
ATOM     44  C   UNL A   1      41.717  31.113  29.634  1.00  0.00     0.029 A 
ATOM     45  N   UNL A   1      43.389  29.728  29.157  1.00  0.00    -0.354 N 
ATOM     46  N   UNL A   1      46.187  28.956  28.887  1.00  0.00    -0.248 NA
ATOM     47  C   UNL A   1      48.447  29.521  28.760  1.00  0.00     0.031 C 
ATOM     48  C   UNL A   1      42.912  31.839  29.662  1.00  0.00     0.029 A 
ATOM     49  C   UNL A   1      43.957  30.971  29.390  1.00  0.00     0.049 A 
ATOM     50  H   UNL A   1      43.890  28.909  28.936  1.00  0.00     0.167 HD
ATOM     51  C   UNL A   1      46.330  30.320  29.110  1.00  0.00     0.074 A 
ATOM     52  C   UNL A   1      47.746  30.606  29.054  1.00  0.00     0.031 C 
ATOM     53  C   UNL A   1      45.370  31.252  29.336  1.00  0.00     0.037 A 
BRANCH  40  54
ATOM     54  C   UNL A   1      39.628  28.979  29.184  1.00  0.00     0.064 A 
ATOM     55  C   UNL A   1      38.950  28.861  30.406  1.00  0.00     0.173 A 
ATOM     56  C   UNL A   1      38.892  29.385  28.060  1.00  0.00     0.173 A 
ATOM     57  F   UNL A   1      39.604  28.463  31.507  1.00  0.00    -0.203 F 
ATOM     58  C   UNL A   1      37.581  29.112  30.490  1.00  0.00     0.198 A 
ATOM     59  C   UNL A   1      37.532  29.665  28.155  1.00  0.00     0.198 A 
ATOM     60  F   UNL A   1      39.494  29.519  26.869  1.00  0.00    -0.203 F 
ATOM     61  F   UNL A   1      36.943  28.945  31.657  1.00  0.00    -0.200 F 
ATOM     62  C   UNL A   1      36.876  29.520  29.368  1.00  0.00     0.200 A 
ATOM     63  F   UNL A   1      36.856  30.073  27.073  1.00  0.00    -0.200 F 
ATOM     64  F   UNL A   1      35.561  29.766  29.453  1.00  0.00    -0.200 F 
ENDBRANCH  40  54
BRANCH  41  65
ATOM     65  C   UNL A   1      49.296  26.766  28.273  1.00  0.00     0.064 A 
ATOM     66  C   UNL A   1      50.099  26.442  29.376  1.00  0.00     0.173 A 
ATOM     67  C   UNL A   1      49.920  26.846  27.018  1.00  0.00     0.173 A 
ATOM     68  F   UNL A   1      49.562  26.391  30.604  1.00  0.00    -0.203 F 
ATOM     69  C   UNL A   1      51.470  26.230  29.233  1.00  0.00     0.198 A 
ATOM     70  C   UNL A   1      51.284  26.600  26.871  1.00  0.00     0.198 A 
ATOM     71  F   UNL A   1      49.205  27.168  25.930  1.00  0.00    -0.203 F 
ATOM     72  F   UNL A   1      52.224  25.983  30.313  1.00  0.00    -0.200 F 
ATOM     73  C   UNL A   1      52.060  26.303  27.980  1.00  0.00     0.200 A 
ATOM     74  F   UNL A   1      51.847  26.662  25.657  1.00  0.00    -0.200 F 
ATOM     75  F   UNL A   1      53.377  26.099  27.843  1.00  0.00    -0.200 F 
ENDBRANCH  41  65
BRANCH  53  76
ATOM     76  C   UNL A   1      45.816  32.668  29.570  1.00  0.00     0.064 A 
ATOM     77  C   UNL A   1      46.107  33.149  30.856  1.00  0.00     0.173 A 
ATOM     78  C   UNL A   1      46.000  33.546  28.489  1.00  0.00     0.173 A 
ATOM     79  F   UNL A   1      45.936  32.358  31.926  1.00  0.00    -0.203 F 
ATOM     80  C   UNL A   1      46.539  34.458  31.053  1.00  0.00     0.198 A 
ATOM     81  C   UNL A   1      46.464  34.845  28.687  1.00  0.00     0.198 A 
ATOM     82  F   UNL A   1      45.743  33.139  27.237  1.00  0.00    -0.203 F 
ATOM     83  F   UNL A   1      46.763  34.908  32.296  1.00  0.00    -0.200 F 
ATOM     84  C   UNL A   1      46.725  35.301  29.969  1.00  0.00     0.200 A 
ATOM     85  F   UNL A   1      46.658  35.652  27.636  1.00  0.00    -0.200 F 
ATOM     86  F   UNL A   1      47.152  36.558  30.160  1.00  0.00    -0.200 F 
ENDBRANCH  53  76
ENDBRANCH  27  28
ENDBRANCH  20  22
ENDBRANCH  19  20
ENDBRANCH  18  19
ENDBRANCH  17  18
ENDBRANCH  16  17
ENDBRANCH   1  16
TORSDOF 17
ENDMDL
MODEL 3
REMARK VINA RESULT:      -9.9      3.883      9.938
REMARK SMILES C[C@@H](CO)C[NH2+]CC(C)(C)C(=O)OCCOC(=O)c1ccc(-c2c3nc(c(-c4c(F)c(F)c(F)c(F)c4F)c4ccc([nH]4)c(-c4c(F)c(F)c(F)c(F)c4F)c4nc(c(-c5c(F)c(F)c(F)c(F)c5F)c5ccc2[nH]5)C=C4)C=C3)cc1
REMARK SMILES IDX 11 1 12 2 8 3 9 4 10 5 7 6 6 7 5 10 2 11 1 12 3 13 4 14
REMARK SMILES IDX 13 16 14 17 15 18 16 19 17 20 18 21 19 22 20 23 81 24 21 25
REMARK SMILES IDX 80 26 22 27 23 28 24 29 74 30 25 31 79 32 73 33 75 34 26 35
REMARK SMILES IDX 78 36 72 37 71 38 27 40 59 41 39 42 58 43 40 44 43 45 57 46
REMARK SMILES IDX 76 47 41 48 42 49 56 51 77 52 44 53 28 54 29 55 37 56 30 57
REMARK SMILES IDX 31 58 35 59 38 60 32 61 33 62 36 63 34 64 60 65 61 66 69 67
REMARK SMILES IDX 62 68 63 69 67 70 70 71 64 72 65 73 68 74 66 75 45 76 46 77
REMARK SMILES IDX 54 78 47 79 48 80 52 81 55 82 49 83 50 84 53 85 51 86
REMARK H PARENT 6 8 6 9 4 15 75 39 43 50
REMARK Flexibility Score: inf
ROOT
ATOM      1  C   UNL A   1      36.655  33.522  30.178  1.00  0.00     0.317 C 
ATOM      2  O   UNL A   1      37.402  33.071  29.323  1.00  0.00    -0.251 OA
ENDROOT
BRANCH   1   3
ATOM      3  C   UNL A   1      37.033  33.646  31.660  1.00  0.00     0.111 C 
ATOM      4  C   UNL A   1      38.504  34.044  31.831  1.00  0.00     0.029 C 
ATOM      5  C   UNL A   1      36.807  32.246  32.267  1.00  0.00     0.029 C 
BRANCH   3   6
ATOM      6  C   UNL A   1      36.131  34.680  32.445  1.00  0.00     0.278 C 
BRANCH   6   7
ATOM      7  N   UNL A   1      34.666  34.495  32.625  1.00  0.00    -0.345 N 
ATOM      8  H   UNL A   1      34.223  34.451  31.707  1.00  0.00     0.346 HD
ATOM      9  H   UNL A   1      34.515  33.630  33.145  1.00  0.00     0.346 HD
BRANCH   7  10
ATOM     10  C   UNL A   1      34.070  35.595  33.386  1.00  0.00     0.266 C 
BRANCH  10  11
ATOM     11  C   UNL A   1      33.223  36.658  32.681  1.00  0.00     0.067 C 
ATOM     12  C   UNL A   1      33.971  37.980  32.552  1.00  0.00     0.016 C 
BRANCH  11  13
ATOM     13  C   UNL A   1      32.822  36.106  31.290  1.00  0.00     0.165 C 
BRANCH  13  14
ATOM     14  O   UNL A   1      33.813  36.342  30.293  1.00  0.00    -0.396 OA
ATOM     15  H   UNL A   1      34.478  35.639  30.325  1.00  0.00     0.210 HD
ENDBRANCH  13  14
ENDBRANCH  11  13
ENDBRANCH  10  11
ENDBRANCH   7  10
ENDBRANCH   6   7
ENDBRANCH   3   6
ENDBRANCH   1   3
BRANCH   1  16
ATOM     16  O   UNL A   1      35.413  33.968  29.853  1.00  0.00    -0.461 OA
BRANCH  16  17
ATOM     17  C   UNL A   1      34.477  32.902  29.554  1.00  0.00     0.274 C 
BRANCH  17  18
ATOM     18  C   UNL A   1      34.033  32.776  28.076  1.00  0.00     0.275 C 
BRANCH  18  19
ATOM     19  O   UNL A   1      34.748  31.770  27.314  1.00  0.00    -0.458 OA
BRANCH  19  20
ATOM     20  C   UNL A   1      34.674  30.498  27.787  1.00  0.00     0.338 C 
ATOM     21  O   UNL A   1      33.735  29.729  27.645  1.00  0.00    -0.246 OA
BRANCH  20  22
ATOM     22  C   UNL A   1      35.986  30.036  28.314  1.00  0.00     0.060 A 
ATOM     23  C   UNL A   1      37.078  30.145  27.447  1.00  0.00     0.016 A 
ATOM     24  C   UNL A   1      36.179  29.480  29.578  1.00  0.00     0.016 A 
ATOM     25  C   UNL A   1      38.369  29.807  27.849  1.00  0.00     0.010 A 
ATOM     26  C   UNL A   1      37.472  29.067  29.964  1.00  0.00     0.010 A 
ATOM     27  C   UNL A   1      38.579  29.247  29.110  1.00  0.00    -0.014 A 
BRANCH  27  28
ATOM     28  C   UNL A   1      39.941  28.773  29.476  1.00  0.00     0.031 A 
ATOM     29  C   UNL A   1      40.788  29.602  30.397  1.00  0.00     0.074 A 
ATOM     30  C   UNL A   1      40.404  27.581  29.055  1.00  0.00     0.049 A 
ATOM     31  N   UNL A   1      42.036  29.436  30.757  1.00  0.00    -0.248 NA
ATOM     32  C   UNL A   1      40.133  30.767  31.007  1.00  0.00     0.031 C 
ATOM     33  C   UNL A   1      39.643  26.611  28.273  1.00  0.00     0.029 A 
ATOM     34  N   UNL A   1      41.632  26.983  29.228  1.00  0.00    -0.354 N 
ATOM     35  C   UNL A   1      42.323  30.483  31.621  1.00  0.00     0.074 A 
ATOM     36  C   UNL A   1      41.118  31.279  31.732  1.00  0.00     0.031 C 
ATOM     37  C   UNL A   1      40.427  25.550  28.011  1.00  0.00     0.029 A 
ATOM     38  C   UNL A   1      41.762  25.791  28.558  1.00  0.00     0.049 A 
ATOM     39  H   UNL A   1      42.348  27.374  29.779  1.00  0.00     0.167 HD
ATOM     40  C   UNL A   1      43.487  30.761  32.255  1.00  0.00     0.037 A 
ATOM     41  C   UNL A   1      42.845  25.008  28.369  1.00  0.00     0.037 A 
ATOM     42  C   UNL A   1      44.689  29.974  32.140  1.00  0.00     0.049 A 
ATOM     43  C   UNL A   1      44.171  25.417  28.966  1.00  0.00     0.074 A 
ATOM     44  C   UNL A   1      45.923  30.191  32.729  1.00  0.00     0.029 A 
ATOM     45  N   UNL A   1      44.810  28.821  31.378  1.00  0.00    -0.354 N 
ATOM     46  N   UNL A   1      44.452  26.430  29.748  1.00  0.00    -0.248 NA
ATOM     47  C   UNL A   1      45.334  24.577  28.639  1.00  0.00     0.031 C 
ATOM     48  C   UNL A   1      46.807  29.209  32.272  1.00  0.00     0.029 A 
ATOM     49  C   UNL A   1      46.109  28.339  31.451  1.00  0.00     0.049 A 
ATOM     50  H   UNL A   1      44.081  28.406  30.861  1.00  0.00     0.167 HD
ATOM     51  C   UNL A   1      45.811  26.338  30.024  1.00  0.00     0.074 A 
ATOM     52  C   UNL A   1      46.296  25.157  29.343  1.00  0.00     0.031 C 
ATOM     53  C   UNL A   1      46.587  27.161  30.773  1.00  0.00     0.037 A 
BRANCH  40  54
ATOM     54  C   UNL A   1      43.540  32.013  33.082  1.00  0.00     0.064 A 
ATOM     55  C   UNL A   1      43.981  33.235  32.554  1.00  0.00     0.173 A 
ATOM     56  C   UNL A   1      43.119  31.989  34.420  1.00  0.00     0.173 A 
ATOM     57  F   UNL A   1      44.408  33.310  31.285  1.00  0.00    -0.203 F 
ATOM     58  C   UNL A   1      44.025  34.381  33.346  1.00  0.00     0.198 A 
ATOM     59  C   UNL A   1      43.134  33.142  35.199  1.00  0.00     0.198 A 
ATOM     60  F   UNL A   1      42.683  30.846  34.972  1.00  0.00    -0.203 F 
ATOM     61  F   UNL A   1      44.496  35.528  32.837  1.00  0.00    -0.200 F 
ATOM     62  C   UNL A   1      43.595  34.335  34.664  1.00  0.00     0.200 A 
ATOM     63  F   UNL A   1      42.705  33.097  36.467  1.00  0.00    -0.200 F 
ATOM     64  F   UNL A   1      43.633  35.440  35.423  1.00  0.00    -0.200 F 
ENDBRANCH  40  54
BRANCH  41  65
ATOM     65  C   UNL A   1      42.753  23.790  27.517  1.00  0.00     0.064 A 
ATOM     66  C   UNL A   1      42.394  22.547  28.058  1.00  0.00     0.173 A 
ATOM     67  C   UNL A   1      43.076  23.833  26.151  1.00  0.00     0.173 A 
ATOM     68  F   UNL A   1      42.114  22.441  29.365  1.00  0.00    -0.203 F 
ATOM     69  C   UNL A   1      42.383  21.394  27.273  1.00  0.00     0.198 A 
ATOM     70  C   UNL A   1      43.031  22.687  25.360  1.00  0.00     0.198 A 
ATOM     71  F   UNL A   1      43.441  24.992  25.583  1.00  0.00    -0.203 F 
ATOM     72  F   UNL A   1      42.097  20.210  27.830  1.00  0.00    -0.200 F 
ATOM     73  C   UNL A   1      42.694  21.467  25.924  1.00  0.00     0.200 A 
ATOM     74  F   UNL A   1      43.323  22.764  24.055  1.00  0.00    -0.200 F 
ATOM     75  F   UNL A   1      42.683  20.359  25.170  1.00  0.00    -0.200 F 
ENDBRANCH  41  65
BRANCH  53  76
ATOM     76  C   UNL A   1      48.040  26.803  30.922  1.00  0.00     0.064 A 
ATOM     77  C   UNL A   1      49.024  27.339  30.077  1.00  0.00     0.173 A 
ATOM     78  C   UNL A   1      48.461  25.948  31.953  1.00  0.00     0.173 A 
ATOM     79  F   UNL A   1      48.677  28.151  29.067  1.00  0.00    -0.203 F 
ATOM     80  C   UNL A   1      50.368  27.013  30.243  1.00  0.00     0.198 A 
ATOM     81  C   UNL A   1      49.809  25.651  32.137  1.00  0.00     0.198 A 
ATOM     82  F   UNL A   1      47.565  25.412  32.795  1.00  0.00    -0.203 F 
ATOM     83  F   UNL A   1      51.283  27.500  29.393  1.00  0.00    -0.200 F 
ATOM     84  C   UNL A   1      50.760  26.178  31.277  1.00  0.00     0.200 A 
ATOM     85  F   UNL A   1      50.187  24.856  33.147  1.00  0.00    -0.200 F 
ATOM     86  F   UNL A   1      52.056  25.874  31.441  1.00  0.00    -0.200 F 
ENDBRANCH  53  76
ENDBRANCH  27  28
ENDBRANCH  20  22
ENDBRANCH  19  20
ENDBRANCH  18  19
ENDBRANCH  17  18
ENDBRANCH  16  17
ENDBRANCH   1  16
TORSDOF 17
ENDMDL
