MODEL 1
REMARK VINA RESULT:     -13.3      0.000      0.000
REMARK SMILES COc1ccc(NC(=O)[C@@H]2[C@@H](C(=O)OCCOC(=O)c3ccc(-c4c5nc(c(-c6c(F)c(F)c(F)c(F)c6F)c6ccc([nH]6)c(-c6c(F)c(F)c(F)c(F)c6F)c6nc(c(-c7c(F)c(F)c(F)c(F)c7F)c7ccc4[nH]7)C=C6)C=C5)cc3)[C@H]3C=C[C@@H]2C3)cc1O
REMARK SMILES IDX 15 1 14 2 12 3 13 4 11 5 10 6 86 7 83 8 85 9 87 10 84 11
REMARK SMILES IDX 8 12 7 13 9 15 6 16 3 17 4 18 89 19 5 20 88 21 2 22 1 23
REMARK SMILES IDX 90 24 16 26 17 27 18 28 19 29 20 30 21 31 82 32 22 33 81 34
REMARK SMILES IDX 23 35 24 36 25 37 75 38 26 39 80 40 74 41 76 42 27 43 79 44
REMARK SMILES IDX 73 45 72 46 28 48 60 49 40 50 59 51 41 52 44 53 58 54 77 55
REMARK SMILES IDX 42 56 43 57 57 59 78 60 45 61 29 62 30 63 38 64 31 65 32 66
REMARK SMILES IDX 36 67 39 68 33 69 34 70 37 71 35 72 61 73 62 74 70 75 63 76
REMARK SMILES IDX 64 77 68 78 71 79 65 80 66 81 69 82 67 83 46 84 47 85 55 86
REMARK SMILES IDX 48 87 49 88 53 89 56 90 50 91 51 92 54 93 52 94
REMARK H PARENT 7 14 90 25 76 47 44 58
REMARK Flexibility Score: inf
ROOT
ATOM      1  C   UNL A   1      31.171  27.318  26.807  1.00  0.00     0.274 C 
ENDROOT
BRANCH   1   2
ATOM      2  O   UNL A   1      32.300  26.452  26.546  1.00  0.00    -0.462 OA
BRANCH   2   3
ATOM      3  C   UNL A   1      32.046  25.140  26.284  1.00  0.00     0.310 C 
ATOM      4  O   UNL A   1      31.527  24.358  27.071  1.00  0.00    -0.252 OA
BRANCH   3   5
ATOM      5  C   UNL A   1      32.694  24.678  24.990  1.00  0.00     0.119 C 
ATOM      6  C   UNL A   1      32.799  23.164  24.763  1.00  0.00     0.100 C 
ATOM      7  C   UNL A   1      34.323  22.912  24.600  1.00  0.00     0.025 C 
ATOM      8  C   UNL A   1      34.165  25.136  24.760  1.00  0.00     0.027 C 
ATOM      9  C   UNL A   1      35.062  23.324  25.853  1.00  0.00    -0.027 C 
ATOM     10  C   UNL A   1      34.715  24.113  23.744  1.00  0.00     0.017 C 
ATOM     11  C   UNL A   1      35.019  24.662  25.901  1.00  0.00    -0.027 C 
BRANCH   6  12
ATOM     12  C   UNL A   1      32.028  22.565  23.589  1.00  0.00     0.228 C 
ATOM     13  N   UNL A   1      31.987  21.284  23.138  1.00  0.00    -0.326 N 
ATOM     14  H   UNL A   1      31.615  21.276  22.226  1.00  0.00     0.169 HD
ATOM     15  O   UNL A   1      31.380  23.365  22.891  1.00  0.00    -0.274 OA
BRANCH  13  16
ATOM     16  C   UNL A   1      32.292  19.957  23.523  1.00  0.00     0.045 A 
ATOM     17  C   UNL A   1      32.908  17.392  24.550  1.00  0.00     0.160 A 
ATOM     18  C   UNL A   1      32.874  17.594  23.184  1.00  0.00     0.052 A 
ATOM     19  C   UNL A   1      32.698  18.469  25.402  1.00  0.00     0.159 A 
ATOM     20  C   UNL A   1      32.589  18.874  22.688  1.00  0.00     0.030 A 
ATOM     21  C   UNL A   1      32.382  19.732  24.904  1.00  0.00     0.076 A 
BRANCH  17  22
ATOM     22  O   UNL A   1      33.231  16.177  25.082  1.00  0.00    -0.493 OA
ATOM     23  C   UNL A   1      34.648  15.998  25.128  1.00  0.00     0.278 C 
ENDBRANCH  17  22
BRANCH  19  24
ATOM     24  O   UNL A   1      32.806  18.302  26.754  1.00  0.00    -0.504 OA
ATOM     25  H   UNL A   1      33.607  17.989  27.125  1.00  0.00     0.293 HD
ENDBRANCH  19  24
ENDBRANCH  13  16
ENDBRANCH   6  12
ENDBRANCH   3   5
ENDBRANCH   2   3
ENDBRANCH   1   2
BRANCH   1  26
ATOM     26  C   UNL A   1      31.610  28.626  27.465  1.00  0.00     0.275 C 
BRANCH  26  27
ATOM     27  O   UNL A   1      32.487  29.314  26.563  1.00  0.00    -0.458 OA
BRANCH  27  28
ATOM     28  C   UNL A   1      32.897  30.553  26.924  1.00  0.00     0.338 C 
ATOM     29  O   UNL A   1      32.208  31.552  27.027  1.00  0.00    -0.246 OA
BRANCH  28  30
ATOM     30  C   UNL A   1      34.335  30.508  27.287  1.00  0.00     0.060 A 
ATOM     31  C   UNL A   1      35.022  29.301  27.262  1.00  0.00     0.016 A 
ATOM     32  C   UNL A   1      34.971  31.631  27.812  1.00  0.00     0.016 A 
ATOM     33  C   UNL A   1      36.252  29.179  27.905  1.00  0.00     0.010 A 
ATOM     34  C   UNL A   1      36.269  31.523  28.346  1.00  0.00     0.010 A 
ATOM     35  C   UNL A   1      36.907  30.274  28.482  1.00  0.00    -0.014 A 
BRANCH  35  36
ATOM     36  C   UNL A   1      38.167  30.113  29.300  1.00  0.00     0.031 A 
ATOM     37  C   UNL A   1      39.350  29.351  28.732  1.00  0.00     0.074 A 
ATOM     38  C   UNL A   1      38.341  30.668  30.521  1.00  0.00     0.049 A 
ATOM     39  N   UNL A   1      40.325  28.741  29.363  1.00  0.00    -0.248 NA
ATOM     40  C   UNL A   1      39.438  29.242  27.267  1.00  0.00     0.031 C 
ATOM     41  C   UNL A   1      37.398  31.537  31.225  1.00  0.00     0.029 A 
ATOM     42  N   UNL A   1      39.409  30.592  31.394  1.00  0.00    -0.354 N 
ATOM     43  C   UNL A   1      41.049  28.065  28.387  1.00  0.00     0.074 A 
ATOM     44  C   UNL A   1      40.439  28.383  27.114  1.00  0.00     0.031 C 
ATOM     45  C   UNL A   1      37.959  31.989  32.354  1.00  0.00     0.029 A 
ATOM     46  C   UNL A   1      39.214  31.285  32.566  1.00  0.00     0.049 A 
ATOM     47  H   UNL A   1      40.232  30.088  31.196  1.00  0.00     0.167 HD
ATOM     48  C   UNL A   1      42.110  27.236  28.550  1.00  0.00     0.037 A 
ATOM     49  C   UNL A   1      39.891  31.286  33.731  1.00  0.00     0.037 A 
ATOM     50  C   UNL A   1      42.813  27.051  29.793  1.00  0.00     0.049 A 
ATOM     51  C   UNL A   1      41.057  30.358  33.908  1.00  0.00     0.074 A 
ATOM     52  C   UNL A   1      43.902  26.237  30.060  1.00  0.00     0.029 A 
ATOM     53  N   UNL A   1      42.533  27.735  30.965  1.00  0.00    -0.354 N 
ATOM     54  N   UNL A   1      41.606  29.544  33.042  1.00  0.00    -0.248 NA
ATOM     55  C   UNL A   1      41.662  30.305  35.248  1.00  0.00     0.031 C 
ATOM     56  C   UNL A   1      44.269  26.415  31.398  1.00  0.00     0.029 A 
ATOM     57  C   UNL A   1      43.432  27.367  31.954  1.00  0.00     0.049 A 
ATOM     58  H   UNL A   1      41.803  28.387  31.078  1.00  0.00     0.167 HD
ATOM     59  C   UNL A   1      42.612  28.880  33.729  1.00  0.00     0.074 A 
ATOM     60  C   UNL A   1      42.621  29.407  35.077  1.00  0.00     0.031 C 
ATOM     61  C   UNL A   1      43.440  27.904  33.286  1.00  0.00     0.037 A 
BRANCH  48  62
ATOM     62  C   UNL A   1      42.559  26.412  27.378  1.00  0.00     0.064 A 
ATOM     63  C   UNL A   1      43.626  26.785  26.553  1.00  0.00     0.173 A 
ATOM     64  C   UNL A   1      41.954  25.164  27.144  1.00  0.00     0.173 A 
ATOM     65  F   UNL A   1      44.232  27.970  26.727  1.00  0.00    -0.203 F 
ATOM     66  C   UNL A   1      44.068  25.945  25.531  1.00  0.00     0.198 A 
ATOM     67  C   UNL A   1      42.415  24.315  26.142  1.00  0.00     0.198 A 
ATOM     68  F   UNL A   1      40.935  24.754  27.915  1.00  0.00    -0.203 F 
ATOM     69  F   UNL A   1      45.075  26.331  24.737  1.00  0.00    -0.200 F 
ATOM     70  C   UNL A   1      43.470  24.708  25.335  1.00  0.00     0.200 A 
ATOM     71  F   UNL A   1      41.847  23.114  25.969  1.00  0.00    -0.200 F 
ATOM     72  F   UNL A   1      43.913  23.892  24.368  1.00  0.00    -0.200 F 
ENDBRANCH  48  62
BRANCH  49  73
ATOM     73  C   UNL A   1      39.393  32.097  34.877  1.00  0.00     0.064 A 
ATOM     74  C   UNL A   1      39.676  33.466  34.974  1.00  0.00     0.173 A 
ATOM     75  C   UNL A   1      38.627  31.516  35.902  1.00  0.00     0.173 A 
ATOM     76  F   UNL A   1      40.437  34.060  34.043  1.00  0.00    -0.203 F 
ATOM     77  C   UNL A   1      39.211  34.221  36.049  1.00  0.00     0.198 A 
ATOM     78  C   UNL A   1      38.127  32.280  36.952  1.00  0.00     0.198 A 
ATOM     79  F   UNL A   1      38.339  30.206  35.866  1.00  0.00    -0.203 F 
ATOM     80  F   UNL A   1      39.533  35.518  36.144  1.00  0.00    -0.200 F 
ATOM     81  C   UNL A   1      38.426  33.631  37.029  1.00  0.00     0.200 A 
ATOM     82  F   UNL A   1      37.353  31.708  37.884  1.00  0.00    -0.200 F 
ATOM     83  F   UNL A   1      37.964  34.362  38.053  1.00  0.00    -0.200 F 
ENDBRANCH  49  73
BRANCH  61  84
ATOM     84  C   UNL A   1      44.448  27.370  34.257  1.00  0.00     0.064 A 
ATOM     85  C   UNL A   1      44.154  26.283  35.092  1.00  0.00     0.173 A 
ATOM     86  C   UNL A   1      45.727  27.940  34.340  1.00  0.00     0.173 A 
ATOM     87  F   UNL A   1      42.937  25.718  35.062  1.00  0.00    -0.203 F 
ATOM     88  C   UNL A   1      45.099  25.798  35.992  1.00  0.00     0.198 A 
ATOM     89  C   UNL A   1      46.676  27.438  35.224  1.00  0.00     0.198 A 
ATOM     90  F   UNL A   1      46.054  28.981  33.559  1.00  0.00    -0.203 F 
ATOM     91  F   UNL A   1      44.784  24.786  36.813  1.00  0.00    -0.200 F 
ATOM     92  C   UNL A   1      46.360  26.372  36.054  1.00  0.00     0.200 A 
ATOM     93  F   UNL A   1      47.897  27.989  35.278  1.00  0.00    -0.200 F 
ATOM     94  F   UNL A   1      47.269  25.904  36.921  1.00  0.00    -0.200 F 
ENDBRANCH  61  84
ENDBRANCH  35  36
ENDBRANCH  28  30
ENDBRANCH  27  28
ENDBRANCH  26  27
ENDBRANCH   1  26
TORSDOF 15
ENDMDL
MODEL 2
REMARK VINA RESULT:     -13.2      1.747      3.878
REMARK SMILES COc1ccc(NC(=O)[C@@H]2[C@@H](C(=O)OCCOC(=O)c3ccc(-c4c5nc(c(-c6c(F)c(F)c(F)c(F)c6F)c6ccc([nH]6)c(-c6c(F)c(F)c(F)c(F)c6F)c6nc(c(-c7c(F)c(F)c(F)c(F)c7F)c7ccc4[nH]7)C=C6)C=C5)cc3)[C@H]3C=C[C@@H]2C3)cc1O
REMARK SMILES IDX 15 1 14 2 12 3 13 4 11 5 10 6 86 7 83 8 85 9 87 10 84 11
REMARK SMILES IDX 8 12 7 13 9 15 6 16 3 17 4 18 89 19 5 20 88 21 2 22 1 23
REMARK SMILES IDX 90 24 16 26 17 27 18 28 19 29 20 30 21 31 82 32 22 33 81 34
REMARK SMILES IDX 23 35 24 36 25 37 75 38 26 39 80 40 74 41 76 42 27 43 79 44
REMARK SMILES IDX 73 45 72 46 28 48 60 49 40 50 59 51 41 52 44 53 58 54 77 55
REMARK SMILES IDX 42 56 43 57 57 59 78 60 45 61 29 62 30 63 38 64 31 65 32 66
REMARK SMILES IDX 36 67 39 68 33 69 34 70 37 71 35 72 61 73 62 74 70 75 63 76
REMARK SMILES IDX 64 77 68 78 71 79 65 80 66 81 69 82 67 83 46 84 47 85 55 86
REMARK SMILES IDX 48 87 49 88 53 89 56 90 50 91 51 92 54 93 52 94
REMARK H PARENT 7 14 90 25 76 47 44 58
REMARK Flexibility Score: inf
ROOT
ATOM      1  C   UNL A   1      31.093  27.383  26.587  1.00  0.00     0.274 C 
ENDROOT
BRANCH   1   2
ATOM      2  O   UNL A   1      32.104  26.421  26.966  1.00  0.00    -0.462 OA
BRANCH   2   3
ATOM      3  C   UNL A   1      31.953  25.138  26.533  1.00  0.00     0.310 C 
ATOM      4  O   UNL A   1      31.276  24.286  27.096  1.00  0.00    -0.252 OA
BRANCH   3   5
ATOM      5  C   UNL A   1      32.908  24.798  25.403  1.00  0.00     0.119 C 
ATOM      6  C   UNL A   1      32.590  23.550  24.569  1.00  0.00     0.100 C 
ATOM      7  C   UNL A   1      33.848  22.654  24.738  1.00  0.00     0.025 C 
ATOM      8  C   UNL A   1      34.389  24.538  25.813  1.00  0.00     0.027 C 
ATOM      9  C   UNL A   1      34.049  22.297  26.194  1.00  0.00    -0.027 C 
ATOM     10  C   UNL A   1      34.953  23.702  24.645  1.00  0.00     0.017 C 
ATOM     11  C   UNL A   1      34.439  23.419  26.813  1.00  0.00    -0.027 C 
BRANCH   6  12
ATOM     12  C   UNL A   1      32.266  23.744  23.090  1.00  0.00     0.228 C 
ATOM     13  N   UNL A   1      31.430  24.632  22.493  1.00  0.00    -0.326 N 
ATOM     14  H   UNL A   1      31.247  24.331  21.572  1.00  0.00     0.169 HD
ATOM     15  O   UNL A   1      32.791  22.938  22.302  1.00  0.00    -0.274 OA
BRANCH  13  16
ATOM     16  C   UNL A   1      30.731  25.839  22.730  1.00  0.00     0.045 A 
ATOM     17  C   UNL A   1      29.549  28.384  23.099  1.00  0.00     0.160 A 
ATOM     18  C   UNL A   1      28.931  27.260  23.611  1.00  0.00     0.052 A 
ATOM     19  C   UNL A   1      30.776  28.255  22.461  1.00  0.00     0.159 A 
ATOM     20  C   UNL A   1      29.538  26.008  23.441  1.00  0.00     0.030 A 
ATOM     21  C   UNL A   1      31.359  27.003  22.265  1.00  0.00     0.076 A 
BRANCH  17  22
ATOM     22  O   UNL A   1      29.024  29.631  23.283  1.00  0.00    -0.493 OA
ATOM     23  C   UNL A   1      27.615  29.635  23.045  1.00  0.00     0.278 C 
ENDBRANCH  17  22
BRANCH  19  24
ATOM     24  O   UNL A   1      31.436  29.366  22.018  1.00  0.00    -0.504 OA
ATOM     25  H   UNL A   1      31.042  29.919  21.372  1.00  0.00     0.293 HD
ENDBRANCH  19  24
ENDBRANCH  13  16
ENDBRANCH   6  12
ENDBRANCH   3   5
ENDBRANCH   2   3
ENDBRANCH   1   2
BRANCH   1  26
ATOM     26  C   UNL A   1      31.719  28.697  26.122  1.00  0.00     0.275 C 
BRANCH  26  27
ATOM     27  O   UNL A   1      32.223  29.391  27.272  1.00  0.00    -0.458 OA
BRANCH  27  28
ATOM     28  C   UNL A   1      32.770  30.612  27.067  1.00  0.00     0.338 C 
ATOM     29  O   UNL A   1      32.188  31.630  26.735  1.00  0.00    -0.246 OA
BRANCH  28  30
ATOM     30  C   UNL A   1      34.213  30.566  27.408  1.00  0.00     0.060 A 
ATOM     31  C   UNL A   1      34.897  29.357  27.379  1.00  0.00     0.016 A 
ATOM     32  C   UNL A   1      34.859  31.691  27.918  1.00  0.00     0.016 A 
ATOM     33  C   UNL A   1      36.137  29.237  28.005  1.00  0.00     0.010 A 
ATOM     34  C   UNL A   1      36.165  31.583  28.433  1.00  0.00     0.010 A 
ATOM     35  C   UNL A   1      36.803  30.334  28.566  1.00  0.00    -0.014 A 
BRANCH  35  36
ATOM     36  C   UNL A   1      38.074  30.175  29.366  1.00  0.00     0.031 A 
ATOM     37  C   UNL A   1      39.246  29.404  28.786  1.00  0.00     0.074 A 
ATOM     38  C   UNL A   1      38.269  30.741  30.579  1.00  0.00     0.049 A 
ATOM     39  N   UNL A   1      40.228  28.795  29.408  1.00  0.00    -0.248 NA
ATOM     40  C   UNL A   1      39.311  29.281  27.321  1.00  0.00     0.031 C 
ATOM     41  C   UNL A   1      37.341  31.619  31.290  1.00  0.00     0.029 A 
ATOM     42  N   UNL A   1      39.350  30.668  31.436  1.00  0.00    -0.354 N 
ATOM     43  C   UNL A   1      40.934  28.107  28.426  1.00  0.00     0.074 A 
ATOM     44  C   UNL A   1      40.305  28.416  27.160  1.00  0.00     0.031 C 
ATOM     45  C   UNL A   1      37.921  32.079  32.406  1.00  0.00     0.029 A 
ATOM     46  C   UNL A   1      39.177  31.372  32.605  1.00  0.00     0.049 A 
ATOM     47  H   UNL A   1      40.168  30.159  31.230  1.00  0.00     0.167 HD
ATOM     48  C   UNL A   1      41.994  27.276  28.580  1.00  0.00     0.037 A 
ATOM     49  C   UNL A   1      39.872  31.380  33.759  1.00  0.00     0.037 A 
ATOM     50  C   UNL A   1      42.716  27.099  29.814  1.00  0.00     0.049 A 
ATOM     51  C   UNL A   1      41.037  30.449  33.926  1.00  0.00     0.074 A 
ATOM     52  C   UNL A   1      43.805  26.283  30.072  1.00  0.00     0.029 A 
ATOM     53  N   UNL A   1      42.457  27.794  30.984  1.00  0.00    -0.354 N 
ATOM     54  N   UNL A   1      41.569  29.626  33.059  1.00  0.00    -0.248 NA
ATOM     55  C   UNL A   1      41.661  30.406  35.257  1.00  0.00     0.031 C 
ATOM     56  C   UNL A   1      44.194  26.471  31.402  1.00  0.00     0.029 A 
ATOM     57  C   UNL A   1      43.369  27.431  31.962  1.00  0.00     0.049 A 
ATOM     58  H   UNL A   1      41.731  28.450  31.103  1.00  0.00     0.167 HD
ATOM     59  C   UNL A   1      42.583  28.964  33.737  1.00  0.00     0.074 A 
ATOM     60  C   UNL A   1      42.615  29.502  35.079  1.00  0.00     0.031 C 
ATOM     61  C   UNL A   1      43.400  27.980  33.290  1.00  0.00     0.037 A 
BRANCH  48  62
ATOM     62  C   UNL A   1      42.422  26.440  27.409  1.00  0.00     0.064 A 
ATOM     63  C   UNL A   1      43.479  26.801  26.565  1.00  0.00     0.173 A 
ATOM     64  C   UNL A   1      41.807  25.193  27.195  1.00  0.00     0.173 A 
ATOM     65  F   UNL A   1      44.093  27.983  26.721  1.00  0.00    -0.203 F 
ATOM     66  C   UNL A   1      43.901  25.949  25.544  1.00  0.00     0.198 A 
ATOM     67  C   UNL A   1      42.248  24.333  26.194  1.00  0.00     0.198 A 
ATOM     68  F   UNL A   1      40.797  24.795  27.984  1.00  0.00    -0.203 F 
ATOM     69  F   UNL A   1      44.899  26.323  24.733  1.00  0.00    -0.200 F 
ATOM     70  C   UNL A   1      43.294  24.714  25.368  1.00  0.00     0.200 A 
ATOM     71  F   UNL A   1      41.672  23.134  26.038  1.00  0.00    -0.200 F 
ATOM     72  F   UNL A   1      43.718  23.887  24.401  1.00  0.00    -0.200 F 
ENDBRANCH  48  62
BRANCH  49  73
ATOM     73  C   UNL A   1      39.394  32.203  34.905  1.00  0.00     0.064 A 
ATOM     74  C   UNL A   1      38.579  31.653  35.903  1.00  0.00     0.173 A 
ATOM     75  C   UNL A   1      39.740  33.560  35.022  1.00  0.00     0.173 A 
ATOM     76  F   UNL A   1      38.187  30.373  35.819  1.00  0.00    -0.203 F 
ATOM     77  C   UNL A   1      38.131  32.427  36.972  1.00  0.00     0.198 A 
ATOM     78  C   UNL A   1      39.328  34.320  36.112  1.00  0.00     0.198 A 
ATOM     79  F   UNL A   1      40.507  34.141  34.086  1.00  0.00    -0.203 F 
ATOM     80  F   UNL A   1      37.315  31.890  37.890  1.00  0.00    -0.200 F 
ATOM     81  C   UNL A   1      38.517  33.755  37.083  1.00  0.00     0.200 A 
ATOM     82  F   UNL A   1      39.721  35.596  36.223  1.00  0.00    -0.200 F 
ATOM     83  F   UNL A   1      38.101  34.493  38.122  1.00  0.00    -0.200 F 
ENDBRANCH  49  73
BRANCH  61  84
ATOM     84  C   UNL A   1      44.420  27.451  34.250  1.00  0.00     0.064 A 
ATOM     85  C   UNL A   1      45.676  28.060  34.391  1.00  0.00     0.173 A 
ATOM     86  C   UNL A   1      44.134  26.335  35.049  1.00  0.00     0.173 A 
ATOM     87  F   UNL A   1      46.001  29.119  33.634  1.00  0.00    -0.203 F 
ATOM     88  C   UNL A   1      46.616  27.557  35.286  1.00  0.00     0.198 A 
ATOM     89  C   UNL A   1      45.068  25.849  35.958  1.00  0.00     0.198 A 
ATOM     90  F   UNL A   1      42.945  25.720  34.950  1.00  0.00    -0.203 F 
ATOM     91  F   UNL A   1      47.826  28.127  35.375  1.00  0.00    -0.200 F 
ATOM     92  C   UNL A   1      46.310  26.455  36.072  1.00  0.00     0.200 A 
ATOM     93  F   UNL A   1      44.769  24.789  36.722  1.00  0.00    -0.200 F 
ATOM     94  F   UNL A   1      47.217  25.972  36.932  1.00  0.00    -0.200 F 
ENDBRANCH  61  84
ENDBRANCH  35  36
ENDBRANCH  28  30
ENDBRANCH  27  28
ENDBRANCH  26  27
ENDBRANCH   1  26
TORSDOF 15
ENDMDL
MODEL 3
REMARK VINA RESULT:     -13.2      1.108      2.025
REMARK SMILES COc1ccc(NC(=O)[C@@H]2[C@@H](C(=O)OCCOC(=O)c3ccc(-c4c5nc(c(-c6c(F)c(F)c(F)c(F)c6F)c6ccc([nH]6)c(-c6c(F)c(F)c(F)c(F)c6F)c6nc(c(-c7c(F)c(F)c(F)c(F)c7F)c7ccc4[nH]7)C=C6)C=C5)cc3)[C@H]3C=C[C@@H]2C3)cc1O
REMARK SMILES IDX 15 1 14 2 12 3 13 4 11 5 10 6 86 7 83 8 85 9 87 10 84 11
REMARK SMILES IDX 8 12 7 13 9 15 6 16 3 17 4 18 89 19 5 20 88 21 2 22 1 23
REMARK SMILES IDX 90 24 16 26 17 27 18 28 19 29 20 30 21 31 82 32 22 33 81 34
REMARK SMILES IDX 23 35 24 36 25 37 75 38 26 39 80 40 74 41 76 42 27 43 79 44
REMARK SMILES IDX 73 45 72 46 28 48 60 49 40 50 59 51 41 52 44 53 58 54 77 55
REMARK SMILES IDX 42 56 43 57 57 59 78 60 45 61 29 62 30 63 38 64 31 65 32 66
REMARK SMILES IDX 36 67 39 68 33 69 34 70 37 71 35 72 61 73 62 74 70 75 63 76
REMARK SMILES IDX 64 77 68 78 71 79 65 80 66 81 69 82 67 83 46 84 47 85 55 86
REMARK SMILES IDX 48 87 49 88 53 89 56 90 50 91 51 92 54 93 52 94
REMARK H PARENT 7 14 90 25 76 47 44 58
REMARK Flexibility Score: inf
ROOT
ATOM      1  C   UNL A   1      32.974  29.245  24.705  1.00  0.00     0.274 C 
ENDROOT
BRANCH   1   2
ATOM      2  O   UNL A   1      32.703  27.895  24.260  1.00  0.00    -0.462 OA
BRANCH   2   3
ATOM      3  C   UNL A   1      32.997  26.875  25.113  1.00  0.00     0.310 C 
ATOM      4  O   UNL A   1      33.720  26.975  26.098  1.00  0.00    -0.252 OA
BRANCH   3   5
ATOM      5  C   UNL A   1      32.527  25.531  24.585  1.00  0.00     0.119 C 
ATOM      6  C   UNL A   1      32.124  25.463  23.106  1.00  0.00     0.100 C 
ATOM      7  C   UNL A   1      30.646  24.988  23.140  1.00  0.00     0.025 C 
ATOM      8  C   UNL A   1      31.276  24.921  25.284  1.00  0.00     0.027 C 
ATOM      9  C   UNL A   1      29.790  25.984  23.889  1.00  0.00    -0.027 C 
ATOM     10  C   UNL A   1      30.716  23.932  24.239  1.00  0.00     0.017 C 
ATOM     11  C   UNL A   1      30.129  25.885  25.181  1.00  0.00    -0.027 C 
BRANCH   6  12
ATOM     12  C   UNL A   1      32.952  24.573  22.182  1.00  0.00     0.228 C 
ATOM     13  N   UNL A   1      33.402  23.305  22.370  1.00  0.00    -0.326 N 
ATOM     14  H   UNL A   1      34.112  23.116  21.713  1.00  0.00     0.169 HD
ATOM     15  O   UNL A   1      33.331  25.089  21.116  1.00  0.00    -0.274 OA
BRANCH  13  16
ATOM     16  C   UNL A   1      33.206  22.161  23.178  1.00  0.00     0.045 A 
ATOM     17  C   UNL A   1      33.020  19.962  24.951  1.00  0.00     0.160 A 
ATOM     18  C   UNL A   1      32.247  19.988  23.806  1.00  0.00     0.052 A 
ATOM     19  C   UNL A   1      33.923  20.991  25.185  1.00  0.00     0.159 A 
ATOM     20  C   UNL A   1      32.365  21.072  22.925  1.00  0.00     0.030 A 
ATOM     21  C   UNL A   1      34.012  22.083  24.323  1.00  0.00     0.076 A 
BRANCH  17  22
ATOM     22  O   UNL A   1      32.980  18.904  25.814  1.00  0.00    -0.493 OA
ATOM     23  C   UNL A   1      32.629  17.699  25.131  1.00  0.00     0.278 C 
ENDBRANCH  17  22
BRANCH  19  24
ATOM     24  O   UNL A   1      34.749  20.941  26.272  1.00  0.00    -0.504 OA
ATOM     25  H   UNL A   1      35.669  21.086  26.168  1.00  0.00     0.293 HD
ENDBRANCH  19  24
ENDBRANCH  13  16
ENDBRANCH   6  12
ENDBRANCH   3   5
ENDBRANCH   2   3
ENDBRANCH   1   2
BRANCH   1  26
ATOM     26  C   UNL A   1      31.853  29.775  25.598  1.00  0.00     0.275 C 
BRANCH  26  27
ATOM     27  O   UNL A   1      32.378  29.968  26.918  1.00  0.00    -0.458 OA
BRANCH  27  28
ATOM     28  C   UNL A   1      32.974  31.155  27.179  1.00  0.00     0.338 C 
ATOM     29  O   UNL A   1      32.441  32.250  27.218  1.00  0.00    -0.246 OA
BRANCH  28  30
ATOM     30  C   UNL A   1      34.400  30.924  27.518  1.00  0.00     0.060 A 
ATOM     31  C   UNL A   1      34.862  29.633  27.741  1.00  0.00     0.016 A 
ATOM     32  C   UNL A   1      35.251  31.996  27.780  1.00  0.00     0.016 A 
ATOM     33  C   UNL A   1      36.086  29.426  28.375  1.00  0.00     0.010 A 
ATOM     34  C   UNL A   1      36.537  31.766  28.303  1.00  0.00     0.010 A 
ATOM     35  C   UNL A   1      36.954  30.478  28.693  1.00  0.00    -0.014 A 
BRANCH  35  36
ATOM     36  C   UNL A   1      38.209  30.263  29.505  1.00  0.00     0.031 A 
ATOM     37  C   UNL A   1      39.366  29.474  28.921  1.00  0.00     0.074 A 
ATOM     38  C   UNL A   1      38.402  30.791  30.735  1.00  0.00     0.049 A 
ATOM     39  N   UNL A   1      40.322  28.822  29.539  1.00  0.00    -0.248 NA
ATOM     40  C   UNL A   1      39.449  29.387  27.454  1.00  0.00     0.031 C 
ATOM     41  C   UNL A   1      37.489  31.677  31.456  1.00  0.00     0.029 A 
ATOM     42  N   UNL A   1      39.469  30.666  31.604  1.00  0.00    -0.354 N 
ATOM     43  C   UNL A   1      41.023  28.140  28.550  1.00  0.00     0.074 A 
ATOM     44  C   UNL A   1      40.421  28.499  27.284  1.00  0.00     0.031 C 
ATOM     45  C   UNL A   1      38.065  32.091  32.591  1.00  0.00     0.029 A 
ATOM     46  C   UNL A   1      39.298  31.344  32.788  1.00  0.00     0.049 A 
ATOM     47  H   UNL A   1      40.275  30.139  31.396  1.00  0.00     0.167 HD
ATOM     48  C   UNL A   1      42.058  27.276  28.696  1.00  0.00     0.037 A 
ATOM     49  C   UNL A   1      39.977  31.303  33.952  1.00  0.00     0.037 A 
ATOM     50  C   UNL A   1      42.756  27.046  29.935  1.00  0.00     0.049 A 
ATOM     51  C   UNL A   1      41.113  30.336  34.110  1.00  0.00     0.074 A 
ATOM     52  C   UNL A   1      43.819  26.194  30.186  1.00  0.00     0.029 A 
ATOM     53  N   UNL A   1      42.500  27.719  31.119  1.00  0.00    -0.354 N 
ATOM     54  N   UNL A   1      41.634  29.520  33.229  1.00  0.00    -0.248 NA
ATOM     55  C   UNL A   1      41.717  30.241  35.447  1.00  0.00     0.031 C 
ATOM     56  C   UNL A   1      44.194  26.337  31.526  1.00  0.00     0.029 A 
ATOM     57  C   UNL A   1      43.388  27.305  32.099  1.00  0.00     0.049 A 
ATOM     58  H   UNL A   1      41.791  28.391  31.245  1.00  0.00     0.167 HD
ATOM     59  C   UNL A   1      42.620  28.813  33.902  1.00  0.00     0.074 A 
ATOM     60  C   UNL A   1      42.648  29.316  35.259  1.00  0.00     0.031 C 
ATOM     61  C   UNL A   1      43.415  27.819  33.441  1.00  0.00     0.037 A 
BRANCH  48  62
ATOM     62  C   UNL A   1      42.478  26.458  27.510  1.00  0.00     0.064 A 
ATOM     63  C   UNL A   1      43.531  26.832  26.666  1.00  0.00     0.173 A 
ATOM     64  C   UNL A   1      41.861  25.216  27.278  1.00  0.00     0.173 A 
ATOM     65  F   UNL A   1      44.147  28.011  26.838  1.00  0.00    -0.203 F 
ATOM     66  C   UNL A   1      43.947  25.996  25.630  1.00  0.00     0.198 A 
ATOM     67  C   UNL A   1      42.296  24.372  26.261  1.00  0.00     0.198 A 
ATOM     68  F   UNL A   1      40.854  24.805  28.066  1.00  0.00    -0.203 F 
ATOM     69  F   UNL A   1      44.941  26.383  24.819  1.00  0.00    -0.200 F 
ATOM     70  C   UNL A   1      43.338  24.765  25.436  1.00  0.00     0.200 A 
ATOM     71  F   UNL A   1      41.718  23.176  26.089  1.00  0.00    -0.200 F 
ATOM     72  F   UNL A   1      43.756  23.953  24.454  1.00  0.00    -0.200 F 
ENDBRANCH  48  62
BRANCH  49  73
ATOM     73  C   UNL A   1      39.506  32.109  35.113  1.00  0.00     0.064 A 
ATOM     74  C   UNL A   1      38.641  31.565  36.071  1.00  0.00     0.173 A 
ATOM     75  C   UNL A   1      39.909  33.445  35.283  1.00  0.00     0.173 A 
ATOM     76  F   UNL A   1      38.195  30.308  35.933  1.00  0.00    -0.203 F 
ATOM     77  C   UNL A   1      38.200  32.323  37.154  1.00  0.00     0.198 A 
ATOM     78  C   UNL A   1      39.503  34.187  36.388  1.00  0.00     0.198 A 
ATOM     79  F   UNL A   1      40.726  34.020  34.388  1.00  0.00    -0.203 F 
ATOM     80  F   UNL A   1      37.336  31.795  38.032  1.00  0.00    -0.200 F 
ATOM     81  C   UNL A   1      38.642  33.628  37.318  1.00  0.00     0.200 A 
ATOM     82  F   UNL A   1      39.949  35.439  36.551  1.00  0.00    -0.200 F 
ATOM     83  F   UNL A   1      38.232  34.350  38.371  1.00  0.00    -0.200 F 
ENDBRANCH  49  73
BRANCH  61  84
ATOM     84  C   UNL A   1      44.407  27.236  34.400  1.00  0.00     0.064 A 
ATOM     85  C   UNL A   1      44.105  26.100  35.165  1.00  0.00     0.173 A 
ATOM     86  C   UNL A   1      45.680  27.809  34.543  1.00  0.00     0.173 A 
ATOM     87  F   UNL A   1      42.894  25.530  35.076  1.00  0.00    -0.203 F 
ATOM     88  C   UNL A   1      45.036  25.570  36.054  1.00  0.00     0.198 A 
ATOM     89  C   UNL A   1      46.615  27.263  35.417  1.00  0.00     0.198 A 
ATOM     90  F   UNL A   1      46.015  28.896  33.831  1.00  0.00    -0.203 F 
ATOM     91  F   UNL A   1      44.711  24.510  36.808  1.00  0.00    -0.200 F 
ATOM     92  C   UNL A   1      46.290  26.149  36.176  1.00  0.00     0.200 A 
ATOM     93  F   UNL A   1      47.829  27.818  35.528  1.00  0.00    -0.200 F 
ATOM     94  F   UNL A   1      47.185  25.638  37.033  1.00  0.00    -0.200 F 
ENDBRANCH  61  84
ENDBRANCH  35  36
ENDBRANCH  28  30
ENDBRANCH  27  28
ENDBRANCH  26  27
ENDBRANCH   1  26
TORSDOF 15
ENDMDL
