MODEL 1
REMARK VINA RESULT:     -13.5      0.000      0.000
REMARK SMILES COc1cccc(-c2nn(-c3cc4c(cc3C(N)=O)OCO4)cc2C(=O)OCCOC(=O)c2ccc(-c3c4nc(c(-c5c(F)c(F)c(F)c(F)c5F)c5ccc([nH]5)c(-c5c(F)c(F)c(F)c(F)c5F)c5nc(c(-c6c(F)c(F)c(F)c(F)c6F)c6ccc3[nH]6)C=C5)C=C4)cc2)c1
REMARK SMILES IDX 28 1 27 2 25 3 26 4 24 5 8 6 9 7 10 8 23 9 7 10 3 11 4 12
REMARK SMILES IDX 96 13 5 14 6 15 2 16 1 17 11 18 12 19 16 20 13 21 15 22
REMARK SMILES IDX 14 23 22 24 20 25 21 26 17 27 18 28 19 29 29 32 30 33 31 34
REMARK SMILES IDX 32 35 33 36 34 37 95 38 35 39 94 40 36 41 37 42 38 43 88 44
REMARK SMILES IDX 39 45 93 46 87 47 89 48 40 49 92 50 86 51 85 52 41 54 73 55
REMARK SMILES IDX 53 56 72 57 54 58 57 59 71 60 90 61 55 62 56 63 70 65 91 66
REMARK SMILES IDX 58 67 42 68 43 69 51 70 44 71 45 72 49 73 52 74 46 75 47 76
REMARK SMILES IDX 50 77 48 78 74 79 75 80 83 81 76 82 77 83 81 84 84 85 78 86
REMARK SMILES IDX 79 87 82 88 80 89 59 90 60 91 68 92 61 93 62 94 66 95 69 96
REMARK SMILES IDX 63 97 64 98 67 99 65 100
REMARK H PARENT 18 30 18 31 89 53 57 64
REMARK Flexibility Score: inf
ROOT
ATOM      1  C   UNL A   1      37.684  20.901  24.877  1.00  0.00     0.275 C 
ENDROOT
BRANCH   1   2
ATOM      2  O   UNL A   1      36.739  21.931  25.212  1.00  0.00    -0.458 OA
BRANCH   2   3
ATOM      3  C   UNL A   1      36.346  22.798  24.218  1.00  0.00     0.342 C 
ATOM      4  O   UNL A   1      36.939  22.950  23.169  1.00  0.00    -0.246 OA
BRANCH   3   5
ATOM      5  C   UNL A   1      35.130  23.508  24.580  1.00  0.00     0.106 A 
ATOM      6  C   UNL A   1      33.756  23.127  24.508  1.00  0.00     0.107 A 
ATOM      7  N   UNL A   1      32.950  24.140  24.887  1.00  0.00    -0.167 NA
ATOM      8  N   UNL A   1      33.790  25.198  24.976  1.00  0.00    -0.239 N 
ATOM      9  C   UNL A   1      35.088  24.788  25.092  1.00  0.00     0.131 A 
BRANCH   6  10
ATOM     10  C   UNL A   1      33.196  21.828  24.146  1.00  0.00     0.007 A 
ATOM     11  C   UNL A   1      32.563  19.557  24.715  1.00  0.00     0.119 A 
ATOM     12  C   UNL A   1      32.012  19.405  23.438  1.00  0.00     0.046 A 
ATOM     13  C   UNL A   1      33.137  20.780  25.077  1.00  0.00     0.056 A 
ATOM     14  C   UNL A   1      32.088  20.435  22.503  1.00  0.00     0.005 A 
ATOM     15  C   UNL A   1      32.709  21.633  22.849  1.00  0.00     0.011 A 
BRANCH  11  16
ATOM     16  O   UNL A   1      32.477  18.431  25.489  1.00  0.00    -0.497 OA
ATOM     17  C   UNL A   1      32.676  17.177  24.853  1.00  0.00     0.278 C 
ENDBRANCH  11  16
ENDBRANCH   6  10
BRANCH   8  18
ATOM     18  C   UNL A   1      33.328  26.536  25.025  1.00  0.00     0.081 A 
ATOM     19  C   UNL A   1      33.035  27.078  26.292  1.00  0.00     0.079 A 
ATOM     20  C   UNL A   1      33.179  27.319  23.838  1.00  0.00     0.069 A 
ATOM     21  C   UNL A   1      32.668  28.405  26.345  1.00  0.00     0.167 A 
ATOM     22  C   UNL A   1      32.913  28.692  23.966  1.00  0.00     0.066 A 
ATOM     23  C   UNL A   1      32.637  29.191  25.219  1.00  0.00     0.166 A 
ATOM     24  O   UNL A   1      32.290  29.096  27.455  1.00  0.00    -0.454 OA
ATOM     25  O   UNL A   1      32.237  30.465  25.480  1.00  0.00    -0.454 OA
ATOM     26  C   UNL A   1      31.820  30.322  26.854  1.00  0.00     0.468 C 
BRANCH  20  27
ATOM     27  C   UNL A   1      33.050  26.694  22.469  1.00  0.00     0.251 C 
ATOM     28  N   UNL A   1      31.830  26.718  21.849  1.00  0.00    -0.366 N 
ATOM     29  O   UNL A   1      33.942  26.080  21.901  1.00  0.00    -0.269 OA
ATOM     30  H   UNL A   1      31.078  27.199  22.263  1.00  0.00     0.159 HD
ATOM     31  H   UNL A   1      31.706  26.255  20.989  1.00  0.00     0.159 HD
ENDBRANCH  20  27
ENDBRANCH   8  18
ENDBRANCH   3   5
ENDBRANCH   2   3
ENDBRANCH   1   2
BRANCH   1  32
ATOM     32  C   UNL A   1      38.926  20.937  25.764  1.00  0.00     0.275 C 
BRANCH  32  33
ATOM     33  O   UNL A   1      39.200  22.263  26.203  1.00  0.00    -0.458 OA
BRANCH  33  34
ATOM     34  C   UNL A   1      40.179  22.331  27.127  1.00  0.00     0.338 C 
ATOM     35  O   UNL A   1      40.561  21.445  27.875  1.00  0.00    -0.246 OA
BRANCH  34  36
ATOM     36  C   UNL A   1      40.700  23.689  27.204  1.00  0.00     0.060 A 
ATOM     37  C   UNL A   1      41.717  23.909  28.135  1.00  0.00     0.016 A 
ATOM     38  C   UNL A   1      40.019  24.736  26.571  1.00  0.00     0.016 A 
ATOM     39  C   UNL A   1      41.954  25.188  28.565  1.00  0.00     0.010 A 
ATOM     40  C   UNL A   1      40.249  26.018  27.006  1.00  0.00     0.010 A 
ATOM     41  C   UNL A   1      41.151  26.208  28.054  1.00  0.00    -0.014 A 
BRANCH  41  42
ATOM     42  C   UNL A   1      41.268  27.511  28.670  1.00  0.00     0.031 A 
ATOM     43  C   UNL A   1      42.464  28.259  28.215  1.00  0.00     0.074 A 
ATOM     44  C   UNL A   1      40.289  27.930  29.499  1.00  0.00     0.049 A 
ATOM     45  N   UNL A   1      43.417  28.752  28.932  1.00  0.00    -0.248 NA
ATOM     46  C   UNL A   1      42.713  28.336  26.763  1.00  0.00     0.031 C 
ATOM     47  C   UNL A   1      38.998  27.267  29.750  1.00  0.00     0.029 A 
ATOM     48  N   UNL A   1      40.173  29.094  30.195  1.00  0.00    -0.354 N 
ATOM     49  C   UNL A   1      44.274  29.387  28.032  1.00  0.00     0.074 A 
ATOM     50  C   UNL A   1      43.892  28.955  26.719  1.00  0.00     0.031 C 
ATOM     51  C   UNL A   1      38.146  28.143  30.321  1.00  0.00     0.029 A 
ATOM     52  C   UNL A   1      38.869  29.364  30.608  1.00  0.00     0.049 A 
ATOM     53  H   UNL A   1      40.934  29.687  30.388  1.00  0.00     0.167 HD
ATOM     54  C   UNL A   1      45.020  30.450  28.434  1.00  0.00     0.037 A 
ATOM     55  C   UNL A   1      38.422  30.565  31.047  1.00  0.00     0.037 A 
ATOM     56  C   UNL A   1      45.155  30.461  29.866  1.00  0.00     0.049 A 
ATOM     57  C   UNL A   1      39.612  31.340  31.475  1.00  0.00     0.074 A 
ATOM     58  C   UNL A   1      45.905  29.780  30.799  1.00  0.00     0.029 A 
ATOM     59  N   UNL A   1      44.089  31.020  30.519  1.00  0.00    -0.354 N 
ATOM     60  N   UNL A   1      40.365  30.998  32.485  1.00  0.00    -0.248 NA
ATOM     61  C   UNL A   1      40.211  32.288  30.542  1.00  0.00     0.031 C 
ATOM     62  C   UNL A   1      45.141  29.795  32.003  1.00  0.00     0.029 A 
ATOM     63  C   UNL A   1      43.972  30.526  31.789  1.00  0.00     0.049 A 
ATOM     64  H   UNL A   1      43.485  31.689  30.125  1.00  0.00     0.167 HD
ATOM     65  C   UNL A   1      41.646  31.354  32.100  1.00  0.00     0.074 A 
ATOM     66  C   UNL A   1      41.470  32.280  30.988  1.00  0.00     0.031 C 
ATOM     67  C   UNL A   1      42.724  30.626  32.511  1.00  0.00     0.037 A 
BRANCH  54  68
ATOM     68  C   UNL A   1      45.159  31.726  27.627  1.00  0.00     0.064 A 
ATOM     69  C   UNL A   1      46.403  32.027  27.034  1.00  0.00     0.173 A 
ATOM     70  C   UNL A   1      44.247  32.803  27.689  1.00  0.00     0.173 A 
ATOM     71  F   UNL A   1      47.359  31.090  26.940  1.00  0.00    -0.203 F 
ATOM     72  C   UNL A   1      46.728  33.320  26.608  1.00  0.00     0.198 A 
ATOM     73  C   UNL A   1      44.557  34.079  27.219  1.00  0.00     0.198 A 
ATOM     74  F   UNL A   1      43.064  32.708  28.305  1.00  0.00    -0.203 F 
ATOM     75  F   UNL A   1      47.963  33.582  26.159  1.00  0.00    -0.200 F 
ATOM     76  C   UNL A   1      45.807  34.345  26.706  1.00  0.00     0.200 A 
ATOM     77  F   UNL A   1      43.657  35.065  27.349  1.00  0.00    -0.200 F 
ATOM     78  F   UNL A   1      46.134  35.595  26.355  1.00  0.00    -0.200 F 
ENDBRANCH  54  68
BRANCH  55  79
ATOM     79  C   UNL A   1      37.115  31.196  30.744  1.00  0.00     0.064 A 
ATOM     80  C   UNL A   1      36.207  31.519  31.763  1.00  0.00     0.173 A 
ATOM     81  C   UNL A   1      36.853  31.743  29.472  1.00  0.00     0.173 A 
ATOM     82  F   UNL A   1      36.411  31.075  33.011  1.00  0.00    -0.203 F 
ATOM     83  C   UNL A   1      35.110  32.356  31.527  1.00  0.00     0.198 A 
ATOM     84  C   UNL A   1      35.759  32.574  29.237  1.00  0.00     0.198 A 
ATOM     85  F   UNL A   1      37.708  31.559  28.456  1.00  0.00    -0.203 F 
ATOM     86  F   UNL A   1      34.294  32.691  32.536  1.00  0.00    -0.200 F 
ATOM     87  C   UNL A   1      34.894  32.892  30.267  1.00  0.00     0.200 A 
ATOM     88  F   UNL A   1      35.584  33.117  28.023  1.00  0.00    -0.200 F 
ATOM     89  F   UNL A   1      33.881  33.743  30.055  1.00  0.00    -0.200 F 
ENDBRANCH  55  79
BRANCH  67  90
ATOM     90  C   UNL A   1      42.546  29.748  33.712  1.00  0.00     0.064 A 
ATOM     91  C   UNL A   1      42.133  28.407  33.662  1.00  0.00     0.173 A 
ATOM     92  C   UNL A   1      42.908  30.271  34.960  1.00  0.00     0.173 A 
ATOM     93  F   UNL A   1      41.850  27.818  32.493  1.00  0.00    -0.203 F 
ATOM     94  C   UNL A   1      42.055  27.637  34.822  1.00  0.00     0.198 A 
ATOM     95  C   UNL A   1      42.863  29.490  36.109  1.00  0.00     0.198 A 
ATOM     96  F   UNL A   1      43.351  31.534  35.054  1.00  0.00    -0.203 F 
ATOM     97  F   UNL A   1      41.644  26.362  34.757  1.00  0.00    -0.200 F 
ATOM     98  C   UNL A   1      42.426  28.178  36.043  1.00  0.00     0.200 A 
ATOM     99  F   UNL A   1      43.269  30.006  37.278  1.00  0.00    -0.200 F 
ATOM    100  F   UNL A   1      42.387  27.428  37.153  1.00  0.00    -0.200 F 
ENDBRANCH  67  90
ENDBRANCH  41  42
ENDBRANCH  34  36
ENDBRANCH  33  34
ENDBRANCH  32  33
ENDBRANCH   1  32
TORSDOF 15
ENDMDL
MODEL 2
REMARK VINA RESULT:     -13.3      3.071      8.909
REMARK SMILES COc1cccc(-c2nn(-c3cc4c(cc3C(N)=O)OCO4)cc2C(=O)OCCOC(=O)c2ccc(-c3c4nc(c(-c5c(F)c(F)c(F)c(F)c5F)c5ccc([nH]5)c(-c5c(F)c(F)c(F)c(F)c5F)c5nc(c(-c6c(F)c(F)c(F)c(F)c6F)c6ccc3[nH]6)C=C5)C=C4)cc2)c1
REMARK SMILES IDX 28 1 27 2 25 3 26 4 24 5 8 6 9 7 10 8 23 9 7 10 3 11 4 12
REMARK SMILES IDX 96 13 5 14 6 15 2 16 1 17 11 18 12 19 16 20 13 21 15 22
REMARK SMILES IDX 14 23 22 24 20 25 21 26 17 27 18 28 19 29 29 32 30 33 31 34
REMARK SMILES IDX 32 35 33 36 34 37 95 38 35 39 94 40 36 41 37 42 38 43 88 44
REMARK SMILES IDX 39 45 93 46 87 47 89 48 40 49 92 50 86 51 85 52 41 54 73 55
REMARK SMILES IDX 53 56 72 57 54 58 57 59 71 60 90 61 55 62 56 63 70 65 91 66
REMARK SMILES IDX 58 67 42 68 43 69 51 70 44 71 45 72 49 73 52 74 46 75 47 76
REMARK SMILES IDX 50 77 48 78 74 79 75 80 83 81 76 82 77 83 81 84 84 85 78 86
REMARK SMILES IDX 79 87 82 88 80 89 59 90 60 91 68 92 61 93 62 94 66 95 69 96
REMARK SMILES IDX 63 97 64 98 67 99 65 100
REMARK H PARENT 18 30 18 31 89 53 57 64
REMARK Flexibility Score: inf
ROOT
ATOM      1  C   UNL A   1      33.507  29.024  26.541  1.00  0.00     0.275 C 
ENDROOT
BRANCH   1   2
ATOM      2  O   UNL A   1      32.438  28.854  25.596  1.00  0.00    -0.458 OA
BRANCH   2   3
ATOM      3  C   UNL A   1      32.763  28.498  24.307  1.00  0.00     0.342 C 
ATOM      4  O   UNL A   1      33.510  29.134  23.589  1.00  0.00    -0.246 OA
BRANCH   3   5
ATOM      5  C   UNL A   1      32.102  27.265  23.911  1.00  0.00     0.106 A 
ATOM      6  C   UNL A   1      30.776  27.010  23.449  1.00  0.00     0.107 A 
ATOM      7  N   UNL A   1      30.571  25.690  23.265  1.00  0.00    -0.167 NA
ATOM      8  N   UNL A   1      31.669  25.118  23.813  1.00  0.00    -0.239 N 
ATOM      9  C   UNL A   1      32.690  26.018  23.920  1.00  0.00     0.131 A 
BRANCH   6  10
ATOM     10  C   UNL A   1      29.728  27.975  23.132  1.00  0.00     0.007 A 
ATOM     11  C   UNL A   1      28.997  30.064  22.138  1.00  0.00     0.119 A 
ATOM     12  C   UNL A   1      27.673  29.732  22.448  1.00  0.00     0.046 A 
ATOM     13  C   UNL A   1      30.025  29.172  22.462  1.00  0.00     0.056 A 
ATOM     14  C   UNL A   1      27.376  28.556  23.133  1.00  0.00     0.005 A 
ATOM     15  C   UNL A   1      28.407  27.696  23.502  1.00  0.00     0.011 A 
BRANCH  11  16
ATOM     16  O   UNL A   1      29.131  31.285  21.535  1.00  0.00    -0.497 OA
ATOM     17  C   UNL A   1      28.036  31.766  20.769  1.00  0.00     0.278 C 
ENDBRANCH  11  16
ENDBRANCH   6  10
BRANCH   8  18
ATOM     18  C   UNL A   1      31.730  23.740  24.137  1.00  0.00     0.081 A 
ATOM     19  C   UNL A   1      32.012  22.837  23.093  1.00  0.00     0.079 A 
ATOM     20  C   UNL A   1      31.532  23.278  25.475  1.00  0.00     0.069 A 
ATOM     21  C   UNL A   1      32.155  21.508  23.424  1.00  0.00     0.167 A 
ATOM     22  C   UNL A   1      31.803  21.932  25.770  1.00  0.00     0.066 A 
ATOM     23  C   UNL A   1      32.081  21.077  24.727  1.00  0.00     0.166 A 
ATOM     24  O   UNL A   1      32.367  20.477  22.562  1.00  0.00    -0.454 OA
ATOM     25  O   UNL A   1      32.235  19.730  24.843  1.00  0.00    -0.454 OA
ATOM     26  C   UNL A   1      32.199  19.352  23.451  1.00  0.00     0.468 C 
BRANCH  20  27
ATOM     27  C   UNL A   1      30.815  24.104  26.517  1.00  0.00     0.251 C 
ATOM     28  N   UNL A   1      29.534  23.764  26.857  1.00  0.00    -0.366 N 
ATOM     29  O   UNL A   1      31.265  25.122  27.023  1.00  0.00    -0.269 OA
ATOM     30  H   UNL A   1      29.124  22.953  26.478  1.00  0.00     0.159 HD
ATOM     31  H   UNL A   1      29.023  24.329  27.481  1.00  0.00     0.159 HD
ENDBRANCH  20  27
ENDBRANCH   8  18
ENDBRANCH   3   5
ENDBRANCH   2   3
ENDBRANCH   1   2
BRANCH   1  32
ATOM     32  C   UNL A   1      33.838  30.493  26.791  1.00  0.00     0.275 C 
BRANCH  32  33
ATOM     33  O   UNL A   1      34.427  30.670  28.075  1.00  0.00    -0.458 OA
BRANCH  33  34
ATOM     34  C   UNL A   1      35.529  31.447  28.056  1.00  0.00     0.338 C 
ATOM     35  O   UNL A   1      35.686  32.504  27.467  1.00  0.00    -0.246 OA
BRANCH  34  36
ATOM     36  C   UNL A   1      36.610  30.797  28.787  1.00  0.00     0.060 A 
ATOM     37  C   UNL A   1      37.614  31.634  29.277  1.00  0.00     0.016 A 
ATOM     38  C   UNL A   1      36.744  29.405  28.744  1.00  0.00     0.016 A 
ATOM     39  C   UNL A   1      38.835  31.092  29.583  1.00  0.00     0.010 A 
ATOM     40  C   UNL A   1      37.969  28.860  29.042  1.00  0.00     0.010 A 
ATOM     41  C   UNL A   1      39.013  29.725  29.373  1.00  0.00    -0.014 A 
BRANCH  41  42
ATOM     42  C   UNL A   1      40.358  29.208  29.495  1.00  0.00     0.031 A 
ATOM     43  C   UNL A   1      40.815  29.114  30.903  1.00  0.00     0.074 A 
ATOM     44  C   UNL A   1      41.008  28.811  28.381  1.00  0.00     0.049 A 
ATOM     45  N   UNL A   1      41.859  29.648  31.440  1.00  0.00    -0.248 NA
ATOM     46  C   UNL A   1      39.910  28.472  31.875  1.00  0.00     0.031 C 
ATOM     47  C   UNL A   1      40.447  28.694  27.025  1.00  0.00     0.029 A 
ATOM     48  N   UNL A   1      42.263  28.304  28.236  1.00  0.00    -0.354 N 
ATOM     49  C   UNL A   1      41.855  29.228  32.771  1.00  0.00     0.074 A 
ATOM     50  C   UNL A   1      40.561  28.661  33.022  1.00  0.00     0.031 C 
ATOM     51  C   UNL A   1      41.257  27.925  26.268  1.00  0.00     0.029 A 
ATOM     52  C   UNL A   1      42.449  27.626  27.032  1.00  0.00     0.049 A 
ATOM     53  H   UNL A   1      42.969  28.405  28.913  1.00  0.00     0.167 HD
ATOM     54  C   UNL A   1      43.024  29.106  33.452  1.00  0.00     0.037 A 
ATOM     55  C   UNL A   1      43.478  26.788  26.759  1.00  0.00     0.037 A 
ATOM     56  C   UNL A   1      44.059  29.885  32.826  1.00  0.00     0.049 A 
ATOM     57  C   UNL A   1      44.566  27.114  27.713  1.00  0.00     0.074 A 
ATOM     58  C   UNL A   1      44.407  31.216  32.776  1.00  0.00     0.029 A 
ATOM     59  N   UNL A   1      44.661  29.258  31.769  1.00  0.00    -0.354 N 
ATOM     60  N   UNL A   1      45.201  28.255  27.715  1.00  0.00    -0.248 NA
ATOM     61  C   UNL A   1      44.696  26.325  28.933  1.00  0.00     0.031 C 
ATOM     62  C   UNL A   1      45.089  31.396  31.536  1.00  0.00     0.029 A 
ATOM     63  C   UNL A   1      45.183  30.165  30.888  1.00  0.00     0.049 A 
ATOM     64  H   UNL A   1      44.713  28.282  31.657  1.00  0.00     0.167 HD
ATOM     65  C   UNL A   1      45.456  28.508  29.051  1.00  0.00     0.074 A 
ATOM     66  C   UNL A   1      45.277  27.229  29.727  1.00  0.00     0.031 C 
ATOM     67  C   UNL A   1      45.481  29.787  29.525  1.00  0.00     0.037 A 
BRANCH  54  68
ATOM     68  C   UNL A   1      43.365  27.910  34.320  1.00  0.00     0.064 A 
ATOM     69  C   UNL A   1      43.477  26.639  33.718  1.00  0.00     0.173 A 
ATOM     70  C   UNL A   1      43.256  27.900  35.729  1.00  0.00     0.173 A 
ATOM     71  F   UNL A   1      43.563  26.521  32.384  1.00  0.00    -0.203 F 
ATOM     72  C   UNL A   1      43.411  25.456  34.463  1.00  0.00     0.198 A 
ATOM     73  C   UNL A   1      43.239  26.720  36.472  1.00  0.00     0.198 A 
ATOM     74  F   UNL A   1      43.047  29.011  36.441  1.00  0.00    -0.203 F 
ATOM     75  F   UNL A   1      43.404  24.273  33.835  1.00  0.00    -0.200 F 
ATOM     76  C   UNL A   1      43.287  25.498  35.839  1.00  0.00     0.200 A 
ATOM     77  F   UNL A   1      43.092  26.784  37.804  1.00  0.00    -0.200 F 
ATOM     78  F   UNL A   1      43.163  24.370  36.550  1.00  0.00    -0.200 F 
ENDBRANCH  54  68
BRANCH  55  79
ATOM     79  C   UNL A   1      43.412  25.507  26.018  1.00  0.00     0.064 A 
ATOM     80  C   UNL A   1      44.429  25.123  25.131  1.00  0.00     0.173 A 
ATOM     81  C   UNL A   1      42.482  24.510  26.376  1.00  0.00     0.173 A 
ATOM     82  F   UNL A   1      45.379  26.000  24.778  1.00  0.00    -0.203 F 
ATOM     83  C   UNL A   1      44.521  23.813  24.646  1.00  0.00     0.198 A 
ATOM     84  C   UNL A   1      42.572  23.207  25.890  1.00  0.00     0.198 A 
ATOM     85  F   UNL A   1      41.524  24.758  27.281  1.00  0.00    -0.203 F 
ATOM     86  F   UNL A   1      45.538  23.465  23.845  1.00  0.00    -0.200 F 
ATOM     87  C   UNL A   1      43.599  22.854  25.035  1.00  0.00     0.200 A 
ATOM     88  F   UNL A   1      41.697  22.280  26.305  1.00  0.00    -0.200 F 
ATOM     89  F   UNL A   1      43.722  21.585  24.620  1.00  0.00    -0.200 F 
ENDBRANCH  55  79
BRANCH  67  90
ATOM     90  C   UNL A   1      45.678  30.887  28.528  1.00  0.00     0.064 A 
ATOM     91  C   UNL A   1      46.920  31.254  27.984  1.00  0.00     0.173 A 
ATOM     92  C   UNL A   1      44.536  31.529  28.032  1.00  0.00     0.173 A 
ATOM     93  F   UNL A   1      48.044  30.627  28.353  1.00  0.00    -0.203 F 
ATOM     94  C   UNL A   1      47.010  32.249  27.010  1.00  0.00     0.198 A 
ATOM     95  C   UNL A   1      44.627  32.493  27.035  1.00  0.00     0.198 A 
ATOM     96  F   UNL A   1      43.322  31.182  28.486  1.00  0.00    -0.203 F 
ATOM     97  F   UNL A   1      48.207  32.597  26.514  1.00  0.00    -0.200 F 
ATOM     98  C   UNL A   1      45.863  32.861  26.532  1.00  0.00     0.200 A 
ATOM     99  F   UNL A   1      43.509  33.047  26.545  1.00  0.00    -0.200 F 
ATOM    100  F   UNL A   1      45.946  33.790  25.569  1.00  0.00    -0.200 F 
ENDBRANCH  67  90
ENDBRANCH  41  42
ENDBRANCH  34  36
ENDBRANCH  33  34
ENDBRANCH  32  33
ENDBRANCH   1  32
TORSDOF 15
ENDMDL
MODEL 3
REMARK VINA RESULT:     -13.1      2.831      8.696
REMARK SMILES COc1cccc(-c2nn(-c3cc4c(cc3C(N)=O)OCO4)cc2C(=O)OCCOC(=O)c2ccc(-c3c4nc(c(-c5c(F)c(F)c(F)c(F)c5F)c5ccc([nH]5)c(-c5c(F)c(F)c(F)c(F)c5F)c5nc(c(-c6c(F)c(F)c(F)c(F)c6F)c6ccc3[nH]6)C=C5)C=C4)cc2)c1
REMARK SMILES IDX 28 1 27 2 25 3 26 4 24 5 8 6 9 7 10 8 23 9 7 10 3 11 4 12
REMARK SMILES IDX 96 13 5 14 6 15 2 16 1 17 11 18 12 19 16 20 13 21 15 22
REMARK SMILES IDX 14 23 22 24 20 25 21 26 17 27 18 28 19 29 29 32 30 33 31 34
REMARK SMILES IDX 32 35 33 36 34 37 95 38 35 39 94 40 36 41 37 42 38 43 88 44
REMARK SMILES IDX 39 45 93 46 87 47 89 48 40 49 92 50 86 51 85 52 41 54 73 55
REMARK SMILES IDX 53 56 72 57 54 58 57 59 71 60 90 61 55 62 56 63 70 65 91 66
REMARK SMILES IDX 58 67 42 68 43 69 51 70 44 71 45 72 49 73 52 74 46 75 47 76
REMARK SMILES IDX 50 77 48 78 74 79 75 80 83 81 76 82 77 83 81 84 84 85 78 86
REMARK SMILES IDX 79 87 82 88 80 89 59 90 60 91 68 92 61 93 62 94 66 95 69 96
REMARK SMILES IDX 63 97 64 98 67 99 65 100
REMARK H PARENT 18 30 18 31 89 53 57 64
REMARK Flexibility Score: inf
ROOT
ATOM      1  C   UNL A   1      32.906  30.061  26.666  1.00  0.00     0.275 C 
ENDROOT
BRANCH   1   2
ATOM      2  O   UNL A   1      33.025  28.811  27.365  1.00  0.00    -0.458 OA
BRANCH   2   3
ATOM      3  C   UNL A   1      32.049  27.862  27.166  1.00  0.00     0.342 C 
ATOM      4  O   UNL A   1      31.015  27.800  27.802  1.00  0.00    -0.246 OA
BRANCH   3   5
ATOM      5  C   UNL A   1      32.408  26.943  26.098  1.00  0.00     0.106 A 
ATOM      6  C   UNL A   1      31.767  26.636  24.860  1.00  0.00     0.107 A 
ATOM      7  N   UNL A   1      32.421  25.657  24.203  1.00  0.00    -0.167 NA
ATOM      8  N   UNL A   1      33.318  25.209  25.113  1.00  0.00    -0.239 N 
ATOM      9  C   UNL A   1      33.523  26.132  26.098  1.00  0.00     0.131 A 
BRANCH   6  10
ATOM     10  C   UNL A   1      30.596  27.274  24.266  1.00  0.00     0.007 A 
ATOM     11  C   UNL A   1      29.551  29.128  23.101  1.00  0.00     0.119 A 
ATOM     12  C   UNL A   1      28.358  28.401  23.043  1.00  0.00     0.046 A 
ATOM     13  C   UNL A   1      30.680  28.554  23.695  1.00  0.00     0.056 A 
ATOM     14  C   UNL A   1      28.262  27.141  23.629  1.00  0.00     0.005 A 
ATOM     15  C   UNL A   1      29.373  26.594  24.268  1.00  0.00     0.011 A 
BRANCH  11  16
ATOM     16  O   UNL A   1      29.462  30.377  22.549  1.00  0.00    -0.497 OA
ATOM     17  C   UNL A   1      28.539  30.564  21.486  1.00  0.00     0.278 C 
ENDBRANCH  11  16
ENDBRANCH   6  10
BRANCH   8  18
ATOM     18  C   UNL A   1      33.994  23.972  24.971  1.00  0.00     0.081 A 
ATOM     19  C   UNL A   1      35.402  23.989  25.021  1.00  0.00     0.079 A 
ATOM     20  C   UNL A   1      33.279  22.746  24.801  1.00  0.00     0.069 A 
ATOM     21  C   UNL A   1      36.054  22.777  24.969  1.00  0.00     0.167 A 
ATOM     22  C   UNL A   1      33.991  21.536  24.869  1.00  0.00     0.066 A 
ATOM     23  C   UNL A   1      35.365  21.589  24.924  1.00  0.00     0.166 A 
ATOM     24  O   UNL A   1      37.400  22.582  24.944  1.00  0.00    -0.454 OA
ATOM     25  O   UNL A   1      36.189  20.507  24.863  1.00  0.00    -0.454 OA
ATOM     26  C   UNL A   1      37.456  21.168  24.661  1.00  0.00     0.468 C 
BRANCH  20  27
ATOM     27  C   UNL A   1      31.851  22.704  24.310  1.00  0.00     0.251 C 
ATOM     28  N   UNL A   1      31.614  22.840  22.969  1.00  0.00    -0.366 N 
ATOM     29  O   UNL A   1      30.870  22.647  25.038  1.00  0.00    -0.269 OA
ATOM     30  H   UNL A   1      32.369  22.890  22.339  1.00  0.00     0.159 HD
ATOM     31  H   UNL A   1      30.689  22.887  22.635  1.00  0.00     0.159 HD
ENDBRANCH  20  27
ENDBRANCH   8  18
ENDBRANCH   3   5
ENDBRANCH   2   3
ENDBRANCH   1   2
BRANCH   1  32
ATOM     32  C   UNL A   1      33.608  31.206  27.391  1.00  0.00     0.275 C 
BRANCH  32  33
ATOM     33  O   UNL A   1      34.834  30.768  27.966  1.00  0.00    -0.458 OA
BRANCH  33  34
ATOM     34  C   UNL A   1      35.338  31.627  28.875  1.00  0.00     0.338 C 
ATOM     35  O   UNL A   1      35.003  32.785  29.072  1.00  0.00    -0.246 OA
BRANCH  34  36
ATOM     36  C   UNL A   1      36.457  31.013  29.576  1.00  0.00     0.060 A 
ATOM     37  C   UNL A   1      37.601  31.801  29.722  1.00  0.00     0.016 A 
ATOM     38  C   UNL A   1      36.453  29.637  29.829  1.00  0.00     0.016 A 
ATOM     39  C   UNL A   1      38.800  31.185  29.970  1.00  0.00     0.010 A 
ATOM     40  C   UNL A   1      37.654  29.016  30.070  1.00  0.00     0.010 A 
ATOM     41  C   UNL A   1      38.814  29.792  30.051  1.00  0.00    -0.014 A 
BRANCH  41  42
ATOM     42  C   UNL A   1      40.107  29.147  30.098  1.00  0.00     0.031 A 
ATOM     43  C   UNL A   1      40.682  29.106  31.465  1.00  0.00     0.074 A 
ATOM     44  C   UNL A   1      40.608  28.605  28.968  1.00  0.00     0.049 A 
ATOM     45  N   UNL A   1      41.819  29.564  31.866  1.00  0.00    -0.248 NA
ATOM     46  C   UNL A   1      39.813  28.633  32.559  1.00  0.00     0.031 C 
ATOM     47  C   UNL A   1      39.915  28.452  27.679  1.00  0.00     0.029 A 
ATOM     48  N   UNL A   1      41.788  27.960  28.757  1.00  0.00    -0.354 N 
ATOM     49  C   UNL A   1      41.897  29.243  33.222  1.00  0.00     0.074 A 
ATOM     50  C   UNL A   1      40.583  28.835  33.628  1.00  0.00     0.031 C 
ATOM     51  C   UNL A   1      40.571  27.550  26.919  1.00  0.00     0.029 A 
ATOM     52  C   UNL A   1      41.794  27.182  27.601  1.00  0.00     0.049 A 
ATOM     53  H   UNL A   1      42.561  28.035  29.362  1.00  0.00     0.167 HD
ATOM     54  C   UNL A   1      43.108  29.047  33.808  1.00  0.00     0.037 A 
ATOM     55  C   UNL A   1      42.706  26.224  27.309  1.00  0.00     0.037 A 
ATOM     56  C   UNL A   1      44.151  29.667  33.036  1.00  0.00     0.049 A 
ATOM     57  C   UNL A   1      43.905  26.500  28.137  1.00  0.00     0.074 A 
ATOM     58  C   UNL A   1      44.622  30.947  32.849  1.00  0.00     0.029 A 
ATOM     59  N   UNL A   1      44.588  28.906  31.985  1.00  0.00    -0.354 N 
ATOM     60  N   UNL A   1      44.646  27.565  27.993  1.00  0.00    -0.248 NA
ATOM     61  C   UNL A   1      44.069  25.791  29.402  1.00  0.00     0.031 C 
ATOM     62  C   UNL A   1      45.200  30.965  31.545  1.00  0.00     0.029 A 
ATOM     63  C   UNL A   1      45.111  29.688  30.993  1.00  0.00     0.049 A 
ATOM     64  H   UNL A   1      44.532  27.925  31.947  1.00  0.00     0.167 HD
ATOM     65  C   UNL A   1      45.048  27.885  29.278  1.00  0.00     0.074 A 
ATOM     66  C   UNL A   1      44.808  26.683  30.067  1.00  0.00     0.031 C 
ATOM     67  C   UNL A   1      45.243  29.185  29.643  1.00  0.00     0.037 A 
BRANCH  54  68
ATOM     68  C   UNL A   1      43.408  27.887  34.737  1.00  0.00     0.064 A 
ATOM     69  C   UNL A   1      43.826  28.158  36.057  1.00  0.00     0.173 A 
ATOM     70  C   UNL A   1      43.623  26.560  34.299  1.00  0.00     0.173 A 
ATOM     71  F   UNL A   1      43.694  29.388  36.575  1.00  0.00    -0.203 F 
ATOM     72  C   UNL A   1      44.472  27.197  36.843  1.00  0.00     0.198 A 
ATOM     73  C   UNL A   1      44.225  25.592  35.103  1.00  0.00     0.198 A 
ATOM     74  F   UNL A   1      43.371  26.168  33.047  1.00  0.00    -0.203 F 
ATOM     75  F   UNL A   1      44.956  27.537  38.045  1.00  0.00    -0.200 F 
ATOM     76  C   UNL A   1      44.676  25.918  36.363  1.00  0.00     0.200 A 
ATOM     77  F   UNL A   1      44.436  24.364  34.607  1.00  0.00    -0.200 F 
ATOM     78  F   UNL A   1      45.347  25.013  37.087  1.00  0.00    -0.200 F 
ENDBRANCH  54  68
BRANCH  55  79
ATOM     79  C   UNL A   1      42.445  24.907  26.681  1.00  0.00     0.064 A 
ATOM     80  C   UNL A   1      43.115  24.508  25.515  1.00  0.00     0.173 A 
ATOM     81  C   UNL A   1      41.735  23.904  27.371  1.00  0.00     0.173 A 
ATOM     82  F   UNL A   1      43.850  25.393  24.827  1.00  0.00    -0.203 F 
ATOM     83  C   UNL A   1      43.091  23.180  25.075  1.00  0.00     0.198 A 
ATOM     84  C   UNL A   1      41.709  22.581  26.931  1.00  0.00     0.198 A 
ATOM     85  F   UNL A   1      41.133  24.169  28.540  1.00  0.00    -0.203 F 
ATOM     86  F   UNL A   1      43.788  22.822  23.988  1.00  0.00    -0.200 F 
ATOM     87  C   UNL A   1      42.398  22.216  25.790  1.00  0.00     0.200 A 
ATOM     88  F   UNL A   1      41.067  21.652  27.654  1.00  0.00    -0.200 F 
ATOM     89  F   UNL A   1      42.426  20.932  25.404  1.00  0.00    -0.200 F 
ENDBRANCH  55  79
BRANCH  67  90
ATOM     90  C   UNL A   1      45.453  30.184  28.548  1.00  0.00     0.064 A 
ATOM     91  C   UNL A   1      44.427  30.922  27.937  1.00  0.00     0.173 A 
ATOM     92  C   UNL A   1      46.772  30.474  28.176  1.00  0.00     0.173 A 
ATOM     93  F   UNL A   1      43.149  30.755  28.301  1.00  0.00    -0.203 F 
ATOM     94  C   UNL A   1      44.714  31.883  26.967  1.00  0.00     0.198 A 
ATOM     95  C   UNL A   1      47.057  31.458  27.236  1.00  0.00     0.198 A 
ATOM     96  F   UNL A   1      47.792  29.829  28.764  1.00  0.00    -0.203 F 
ATOM     97  F   UNL A   1      43.718  32.567  26.383  1.00  0.00    -0.200 F 
ATOM     98  C   UNL A   1      46.029  32.154  26.624  1.00  0.00     0.200 A 
ATOM     99  F   UNL A   1      48.333  31.747  26.944  1.00  0.00    -0.200 F 
ATOM    100  F   UNL A   1      46.307  33.104  25.720  1.00  0.00    -0.200 F 
ENDBRANCH  67  90
ENDBRANCH  41  42
ENDBRANCH  34  36
ENDBRANCH  33  34
ENDBRANCH  32  33
ENDBRANCH   1  32
TORSDOF 15
ENDMDL
