MODEL 1
REMARK VINA RESULT:     -13.7      0.000      0.000
REMARK SMILES O=C(N/N=C/c1ccc(C(=O)OCCOC(=O)c2ccc(-c3c4nc(c(-c5c(F)c(F)c(F)c(F)c5F)c5ccc([nH]5)c(-c5c(F)c(F)c(F)c(F)c5F)c5nc(c(-c6c(F)c(F)c(F)c(F)c6F)c6ccc3[nH]6)C=C5)C=C4)cc2)cc1)C(=O)Nc1ccc2c(c1)OCO2
REMARK SMILES IDX 13 1 12 2 10 3 11 4 9 5 6 6 7 7 82 8 8 9 81 10 5 11 4 12
REMARK SMILES IDX 3 13 1 14 2 15 83 17 84 18 85 19 86 21 87 22 91 23 88 24
REMARK SMILES IDX 90 25 89 26 92 27 94 28 93 29 14 30 15 31 16 32 17 33 18 34
REMARK SMILES IDX 19 35 80 36 20 37 79 38 21 39 22 40 23 41 73 42 24 43 78 44
REMARK SMILES IDX 72 45 74 46 25 47 77 48 71 49 70 50 26 52 58 53 38 54 57 55
REMARK SMILES IDX 39 56 42 57 56 58 75 59 40 60 41 61 55 63 76 64 43 65 27 66
REMARK SMILES IDX 28 67 36 68 29 69 30 70 34 71 37 72 31 73 32 74 35 75 33 76
REMARK SMILES IDX 59 77 60 78 68 79 61 80 62 81 66 82 69 83 63 84 64 85 67 86
REMARK SMILES IDX 65 87 44 88 45 89 53 90 46 91 47 92 51 93 54 94 48 95 49 96
REMARK SMILES IDX 52 97 50 98
REMARK H PARENT 3 16 85 20 74 51 42 62
REMARK Flexibility Score: inf
ROOT
ATOM      1  C   UNL A   1      42.392  20.508  26.248  1.00  0.00     0.275 C 
ENDROOT
BRANCH   1   2
ATOM      2  O   UNL A   1      41.059  20.773  25.767  1.00  0.00    -0.458 OA
BRANCH   2   3
ATOM      3  C   UNL A   1      40.230  21.306  26.690  1.00  0.00     0.338 C 
ATOM      4  O   UNL A   1      40.412  21.342  27.898  1.00  0.00    -0.246 OA
BRANCH   3   5
ATOM      5  C   UNL A   1      39.029  21.902  26.079  1.00  0.00     0.060 A 
ATOM      6  C   UNL A   1      36.171  22.985  25.692  1.00  0.00    -0.005 A 
ATOM      7  C   UNL A   1      37.401  23.720  26.135  1.00  0.00     0.010 A 
ATOM      8  C   UNL A   1      36.811  21.692  25.172  1.00  0.00     0.010 A 
ATOM      9  C   UNL A   1      38.706  23.213  26.341  1.00  0.00     0.016 A 
ATOM     10  C   UNL A   1      38.118  21.164  25.380  1.00  0.00     0.016 A 
BRANCH   6  11
ATOM     11  C   UNL A   1      34.122  23.550  25.880  1.00  0.00     0.141 C 
ATOM     12  N   UNL A   1      33.256  24.414  25.243  1.00  0.00    -0.180 NA
BRANCH  12  13
ATOM     13  N   UNL A   1      32.264  24.873  26.033  1.00  0.00    -0.239 N 
ATOM     14  O   UNL A   1      31.029  26.547  26.918  1.00  0.00    -0.262 OA
ATOM     15  C   UNL A   1      32.009  26.224  26.246  1.00  0.00     0.329 C 
ATOM     16  H   UNL A   1      31.687  24.215  26.485  1.00  0.00     0.194 HD
BRANCH  15  17
ATOM     17  C   UNL A   1      32.866  27.357  25.606  1.00  0.00     0.315 C 
ATOM     18  O   UNL A   1      34.058  27.426  25.912  1.00  0.00    -0.263 OA
ATOM     19  N   UNL A   1      32.406  28.168  24.570  1.00  0.00    -0.318 N 
ATOM     20  H   UNL A   1      32.999  28.320  23.798  1.00  0.00     0.170 HD
BRANCH  19  21
ATOM     21  C   UNL A   1      31.145  28.782  24.566  1.00  0.00     0.045 A 
ATOM     22  C   UNL A   1      31.080  30.452  25.349  1.00  0.00     0.030 A 
ATOM     23  C   UNL A   1      29.992  28.351  23.209  1.00  0.00     0.076 A 
ATOM     24  C   UNL A   1      29.958  31.725  24.659  1.00  0.00     0.053 A 
ATOM     25  C   UNL A   1      28.987  29.676  22.487  1.00  0.00     0.167 A 
ATOM     26  C   UNL A   1      29.015  31.338  23.177  1.00  0.00     0.165 A 
ATOM     27  O   UNL A   1      28.290  29.759  21.327  1.00  0.00    -0.454 OA
ATOM     28  O   UNL A   1      28.297  32.115  22.335  1.00  0.00    -0.454 OA
ATOM     29  C   UNL A   1      28.132  31.220  21.168  1.00  0.00     0.468 C 
ENDBRANCH  19  21
ENDBRANCH  15  17
ENDBRANCH  12  13
ENDBRANCH   6  11
ENDBRANCH   3   5
ENDBRANCH   2   3
ENDBRANCH   1   2
BRANCH   1  30
ATOM     30  C   UNL A   1      43.407  21.459  25.608  1.00  0.00     0.275 C 
BRANCH  30  31
ATOM     31  O   UNL A   1      42.761  22.571  24.949  1.00  0.00    -0.458 OA
BRANCH  31  32
ATOM     32  C   UNL A   1      43.454  23.730  24.974  1.00  0.00     0.338 C 
ATOM     33  O   UNL A   1      44.457  24.009  24.338  1.00  0.00    -0.246 OA
BRANCH  32  34
ATOM     34  C   UNL A   1      42.813  24.717  25.856  1.00  0.00     0.060 A 
ATOM     35  C   UNL A   1      43.222  26.043  25.782  1.00  0.00     0.016 A 
ATOM     36  C   UNL A   1      42.017  24.296  26.918  1.00  0.00     0.016 A 
ATOM     37  C   UNL A   1      42.989  26.907  26.844  1.00  0.00     0.010 A 
ATOM     38  C   UNL A   1      41.640  25.217  27.903  1.00  0.00     0.010 A 
ATOM     39  C   UNL A   1      42.159  26.526  27.904  1.00  0.00    -0.014 A 
BRANCH  39  40
ATOM     40  C   UNL A   1      41.831  27.493  28.993  1.00  0.00     0.031 A 
ATOM     41  C   UNL A   1      42.673  27.562  30.243  1.00  0.00     0.074 A 
ATOM     42  C   UNL A   1      40.766  28.313  28.871  1.00  0.00     0.049 A 
ATOM     43  N   UNL A   1      42.424  28.165  31.379  1.00  0.00    -0.248 NA
ATOM     44  C   UNL A   1      43.957  26.844  30.218  1.00  0.00     0.031 C 
ATOM     45  C   UNL A   1      39.885  28.394  27.702  1.00  0.00     0.029 A 
ATOM     46  N   UNL A   1      40.235  29.236  29.740  1.00  0.00    -0.354 N 
ATOM     47  C   UNL A   1      43.483  27.845  32.222  1.00  0.00     0.074 A 
ATOM     48  C   UNL A   1      44.378  26.993  31.467  1.00  0.00     0.031 C 
ATOM     49  C   UNL A   1      38.958  29.338  27.906  1.00  0.00     0.029 A 
ATOM     50  C   UNL A   1      39.096  29.842  29.264  1.00  0.00     0.049 A 
ATOM     51  H   UNL A   1      40.631  29.442  30.617  1.00  0.00     0.167 HD
ATOM     52  C   UNL A   1      43.684  28.226  33.507  1.00  0.00     0.037 A 
ATOM     53  C   UNL A   1      38.215  30.661  29.868  1.00  0.00     0.037 A 
ATOM     54  C   UNL A   1      42.812  29.116  34.232  1.00  0.00     0.049 A 
ATOM     55  C   UNL A   1      38.429  31.026  31.308  1.00  0.00     0.074 A 
ATOM     56  C   UNL A   1      42.938  29.584  35.530  1.00  0.00     0.029 A 
ATOM     57  N   UNL A   1      41.654  29.683  33.718  1.00  0.00    -0.354 N 
ATOM     58  N   UNL A   1      39.406  30.680  32.111  1.00  0.00    -0.248 NA
ATOM     59  C   UNL A   1      37.410  31.878  31.931  1.00  0.00     0.031 C 
ATOM     60  C   UNL A   1      41.832  30.390  35.817  1.00  0.00     0.029 A 
ATOM     61  C   UNL A   1      41.046  30.477  34.679  1.00  0.00     0.049 A 
ATOM     62  H   UNL A   1      41.314  29.543  32.804  1.00  0.00     0.167 HD
ATOM     63  C   UNL A   1      39.131  31.288  33.327  1.00  0.00     0.074 A 
ATOM     64  C   UNL A   1      37.905  32.039  33.150  1.00  0.00     0.031 C 
ATOM     65  C   UNL A   1      39.831  31.226  34.485  1.00  0.00     0.037 A 
BRANCH  52  66
ATOM     66  C   UNL A   1      44.869  27.653  34.235  1.00  0.00     0.064 A 
ATOM     67  C   UNL A   1      44.794  26.460  34.967  1.00  0.00     0.173 A 
ATOM     68  C   UNL A   1      46.117  28.295  34.159  1.00  0.00     0.173 A 
ATOM     69  F   UNL A   1      43.627  25.810  35.082  1.00  0.00    -0.203 F 
ATOM     70  C   UNL A   1      45.914  25.947  35.621  1.00  0.00     0.198 A 
ATOM     71  C   UNL A   1      47.242  27.762  34.786  1.00  0.00     0.198 A 
ATOM     72  F   UNL A   1      46.251  29.435  33.466  1.00  0.00    -0.203 F 
ATOM     73  F   UNL A   1      45.806  24.832  36.357  1.00  0.00    -0.200 F 
ATOM     74  C   UNL A   1      47.137  26.593  35.523  1.00  0.00     0.200 A 
ATOM     75  F   UNL A   1      48.425  28.381  34.675  1.00  0.00    -0.200 F 
ATOM     76  F   UNL A   1      48.213  26.094  36.146  1.00  0.00    -0.200 F 
ENDBRANCH  52  66
BRANCH  53  77
ATOM     77  C   UNL A   1      37.022  31.143  29.122  1.00  0.00     0.064 A 
ATOM     78  C   UNL A   1      35.944  30.288  28.859  1.00  0.00     0.173 A 
ATOM     79  C   UNL A   1      36.927  32.469  28.672  1.00  0.00     0.173 A 
ATOM     80  F   UNL A   1      35.995  29.006  29.248  1.00  0.00    -0.203 F 
ATOM     81  C   UNL A   1      34.821  30.738  28.164  1.00  0.00     0.198 A 
ATOM     82  C   UNL A   1      35.789  32.927  28.011  1.00  0.00     0.198 A 
ATOM     83  F   UNL A   1      37.929  33.331  28.901  1.00  0.00    -0.203 F 
ATOM     84  F   UNL A   1      33.823  29.888  27.889  1.00  0.00    -0.200 F 
ATOM     85  C   UNL A   1      34.741  32.059  27.750  1.00  0.00     0.200 A 
ATOM     86  F   UNL A   1      35.708  34.210  27.633  1.00  0.00    -0.200 F 
ATOM     87  F   UNL A   1      33.656  32.494  27.096  1.00  0.00    -0.200 F 
ENDBRANCH  53  77
BRANCH  65  88
ATOM     88  C   UNL A   1      39.312  32.033  35.639  1.00  0.00     0.064 A 
ATOM     89  C   UNL A   1      38.427  31.489  36.582  1.00  0.00     0.173 A 
ATOM     90  C   UNL A   1      39.730  33.360  35.817  1.00  0.00     0.173 A 
ATOM     91  F   UNL A   1      37.983  30.232  36.445  1.00  0.00    -0.203 F 
ATOM     92  C   UNL A   1      37.959  32.256  37.647  1.00  0.00     0.198 A 
ATOM     93  C   UNL A   1      39.286  34.112  36.901  1.00  0.00     0.198 A 
ATOM     94  F   UNL A   1      40.578  33.926  34.944  1.00  0.00    -0.203 F 
ATOM     95  F   UNL A   1      37.073  31.734  38.506  1.00  0.00    -0.200 F 
ATOM     96  C   UNL A   1      38.395  33.563  37.810  1.00  0.00     0.200 A 
ATOM     97  F   UNL A   1      39.717  35.370  37.063  1.00  0.00    -0.200 F 
ATOM     98  F   UNL A   1      37.948  34.296  38.838  1.00  0.00    -0.200 F 
ENDBRANCH  65  88
ENDBRANCH  39  40
ENDBRANCH  32  34
ENDBRANCH  31  32
ENDBRANCH  30  31
ENDBRANCH   1  30
TORSDOF 15
ENDMDL
MODEL 2
REMARK VINA RESULT:     -13.7      3.680      9.449
REMARK SMILES O=C(N/N=C/c1ccc(C(=O)OCCOC(=O)c2ccc(-c3c4nc(c(-c5c(F)c(F)c(F)c(F)c5F)c5ccc([nH]5)c(-c5c(F)c(F)c(F)c(F)c5F)c5nc(c(-c6c(F)c(F)c(F)c(F)c6F)c6ccc3[nH]6)C=C5)C=C4)cc2)cc1)C(=O)Nc1ccc2c(c1)OCO2
REMARK SMILES IDX 13 1 12 2 10 3 11 4 9 5 6 6 7 7 82 8 8 9 81 10 5 11 4 12
REMARK SMILES IDX 3 13 1 14 2 15 83 17 84 18 85 19 86 21 87 22 91 23 88 24
REMARK SMILES IDX 90 25 89 26 92 27 94 28 93 29 14 30 15 31 16 32 17 33 18 34
REMARK SMILES IDX 19 35 80 36 20 37 79 38 21 39 22 40 23 41 73 42 24 43 78 44
REMARK SMILES IDX 72 45 74 46 25 47 77 48 71 49 70 50 26 52 58 53 38 54 57 55
REMARK SMILES IDX 39 56 42 57 56 58 75 59 40 60 41 61 55 63 76 64 43 65 27 66
REMARK SMILES IDX 28 67 36 68 29 69 30 70 34 71 37 72 31 73 32 74 35 75 33 76
REMARK SMILES IDX 59 77 60 78 68 79 61 80 62 81 66 82 69 83 63 84 64 85 67 86
REMARK SMILES IDX 65 87 44 88 45 89 53 90 46 91 47 92 51 93 54 94 48 95 49 96
REMARK SMILES IDX 52 97 50 98
REMARK H PARENT 3 16 85 20 74 51 42 62
REMARK Flexibility Score: inf
ROOT
ATOM      1  C   UNL A   1      34.124  35.105  28.497  1.00  0.00     0.275 C 
ENDROOT
BRANCH   1   2
ATOM      2  O   UNL A   1      34.128  33.755  29.007  1.00  0.00    -0.458 OA
BRANCH   2   3
ATOM      3  C   UNL A   1      35.097  32.969  28.491  1.00  0.00     0.338 C 
ATOM      4  O   UNL A   1      36.279  33.257  28.364  1.00  0.00    -0.246 OA
BRANCH   3   5
ATOM      5  C   UNL A   1      34.586  31.645  28.096  1.00  0.00     0.060 A 
ATOM      6  C   UNL A   1      33.937  29.133  26.436  1.00  0.00    -0.005 A 
ATOM      7  C   UNL A   1      35.131  29.402  27.301  1.00  0.00     0.010 A 
ATOM      8  C   UNL A   1      33.019  30.273  26.893  1.00  0.00     0.010 A 
ATOM      9  C   UNL A   1      35.442  30.569  28.039  1.00  0.00     0.016 A 
ATOM     10  C   UNL A   1      33.319  31.457  27.625  1.00  0.00     0.016 A 
BRANCH   6  11
ATOM     11  C   UNL A   1      33.680  27.659  24.914  1.00  0.00     0.141 C 
ATOM     12  N   UNL A   1      33.543  26.288  24.857  1.00  0.00    -0.180 NA
BRANCH  12  13
ATOM     13  N   UNL A   1      33.987  25.743  23.705  1.00  0.00    -0.239 N 
ATOM     14  O   UNL A   1      33.653  24.921  21.627  1.00  0.00    -0.262 OA
ATOM     15  C   UNL A   1      33.150  25.330  22.674  1.00  0.00     0.329 C 
ATOM     16  H   UNL A   1      34.958  25.629  23.589  1.00  0.00     0.194 HD
BRANCH  15  17
ATOM     17  C   UNL A   1      31.598  25.436  22.751  1.00  0.00     0.315 C 
ATOM     18  O   UNL A   1      31.082  26.542  22.580  1.00  0.00    -0.263 OA
ATOM     19  N   UNL A   1      30.760  24.323  22.812  1.00  0.00    -0.318 N 
ATOM     20  H   UNL A   1      29.973  24.299  22.220  1.00  0.00     0.170 HD
BRANCH  19  21
ATOM     21  C   UNL A   1      30.976  23.235  23.671  1.00  0.00     0.045 A 
ATOM     22  C   UNL A   1      32.153  21.960  23.043  1.00  0.00     0.030 A 
ATOM     23  C   UNL A   1      30.796  23.523  25.471  1.00  0.00     0.076 A 
ATOM     24  C   UNL A   1      33.249  21.088  24.225  1.00  0.00     0.053 A 
ATOM     25  C   UNL A   1      31.981  22.724  26.587  1.00  0.00     0.167 A 
ATOM     26  C   UNL A   1      33.210  21.569  25.958  1.00  0.00     0.165 A 
ATOM     27  O   UNL A   1      32.305  22.953  27.884  1.00  0.00    -0.454 OA
ATOM     28  O   UNL A   1      34.027  21.276  26.995  1.00  0.00    -0.454 OA
ATOM     29  C   UNL A   1      33.623  22.293  27.992  1.00  0.00     0.468 C 
ENDBRANCH  19  21
ENDBRANCH  15  17
ENDBRANCH  12  13
ENDBRANCH   6  11
ENDBRANCH   3   5
ENDBRANCH   2   3
ENDBRANCH   1   2
BRANCH   1  30
ATOM     30  C   UNL A   1      33.069  35.957  29.209  1.00  0.00     0.275 C 
BRANCH  30  31
ATOM     31  O   UNL A   1      32.501  35.272  30.347  1.00  0.00    -0.458 OA
BRANCH  31  32
ATOM     32  C   UNL A   1      32.730  35.861  31.540  1.00  0.00     0.338 C 
ATOM     33  O   UNL A   1      32.153  36.826  32.015  1.00  0.00    -0.246 OA
BRANCH  32  34
ATOM     34  C   UNL A   1      33.773  35.151  32.296  1.00  0.00     0.060 A 
ATOM     35  C   UNL A   1      35.050  35.698  32.345  1.00  0.00     0.016 A 
ATOM     36  C   UNL A   1      33.563  33.843  32.722  1.00  0.00     0.016 A 
ATOM     37  C   UNL A   1      36.143  34.895  32.650  1.00  0.00     0.010 A 
ATOM     38  C   UNL A   1      34.646  33.089  33.192  1.00  0.00     0.010 A 
ATOM     39  C   UNL A   1      35.959  33.590  33.120  1.00  0.00    -0.014 A 
BRANCH  39  40
ATOM     40  C   UNL A   1      37.131  32.767  33.542  1.00  0.00     0.031 A 
ATOM     41  C   UNL A   1      37.781  32.983  34.886  1.00  0.00     0.074 A 
ATOM     42  C   UNL A   1      37.629  31.824  32.713  1.00  0.00     0.049 A 
ATOM     43  N   UNL A   1      38.927  32.535  35.336  1.00  0.00    -0.248 NA
ATOM     44  C   UNL A   1      37.053  33.828  35.846  1.00  0.00     0.031 C 
ATOM     45  C   UNL A   1      37.080  31.470  31.402  1.00  0.00     0.029 A 
ATOM     46  N   UNL A   1      38.714  30.990  32.847  1.00  0.00    -0.354 N 
ATOM     47  C   UNL A   1      39.087  33.094  36.598  1.00  0.00     0.074 A 
ATOM     48  C   UNL A   1      37.922  33.918  36.844  1.00  0.00     0.031 C 
ATOM     49  C   UNL A   1      37.797  30.470  30.874  1.00  0.00     0.029 A 
ATOM     50  C   UNL A   1      38.929  30.196  31.746  1.00  0.00     0.049 A 
ATOM     51  H   UNL A   1      39.279  30.964  33.651  1.00  0.00     0.167 HD
ATOM     52  C   UNL A   1      40.117  32.938  37.467  1.00  0.00     0.037 A 
ATOM     53  C   UNL A   1      39.956  29.384  31.432  1.00  0.00     0.037 A 
ATOM     54  C   UNL A   1      41.248  32.075  37.232  1.00  0.00     0.049 A 
ATOM     55  C   UNL A   1      41.109  29.267  32.385  1.00  0.00     0.074 A 
ATOM     56  C   UNL A   1      42.331  31.826  38.058  1.00  0.00     0.029 A 
ATOM     57  N   UNL A   1      41.437  31.311  36.089  1.00  0.00    -0.354 N 
ATOM     58  N   UNL A   1      41.276  29.838  33.553  1.00  0.00    -0.248 NA
ATOM     59  C   UNL A   1      42.225  28.410  31.968  1.00  0.00     0.031 C 
ATOM     60  C   UNL A   1      43.200  30.954  37.394  1.00  0.00     0.029 A 
ATOM     61  C   UNL A   1      42.630  30.608  36.180  1.00  0.00     0.049 A 
ATOM     62  H   UNL A   1      40.816  31.273  35.326  1.00  0.00     0.167 HD
ATOM     63  C   UNL A   1      42.503  29.394  34.021  1.00  0.00     0.074 A 
ATOM     64  C   UNL A   1      43.031  28.491  33.017  1.00  0.00     0.031 C 
ATOM     65  C   UNL A   1      43.137  29.708  35.176  1.00  0.00     0.037 A 
BRANCH  52  66
ATOM     66  C   UNL A   1      40.095  33.742  38.737  1.00  0.00     0.064 A 
ATOM     67  C   UNL A   1      39.411  33.313  39.885  1.00  0.00     0.173 A 
ATOM     68  C   UNL A   1      40.810  34.949  38.818  1.00  0.00     0.173 A 
ATOM     69  F   UNL A   1      38.704  32.174  39.862  1.00  0.00    -0.203 F 
ATOM     70  C   UNL A   1      39.420  34.075  41.052  1.00  0.00     0.198 A 
ATOM     71  C   UNL A   1      40.844  35.690  39.997  1.00  0.00     0.198 A 
ATOM     72  F   UNL A   1      41.490  35.405  37.755  1.00  0.00    -0.203 F 
ATOM     73  F   UNL A   1      38.717  33.670  42.120  1.00  0.00    -0.200 F 
ATOM     74  C   UNL A   1      40.142  35.257  41.110  1.00  0.00     0.200 A 
ATOM     75  F   UNL A   1      41.556  36.824  40.053  1.00  0.00    -0.200 F 
ATOM     76  F   UNL A   1      40.155  35.983  42.236  1.00  0.00    -0.200 F 
ENDBRANCH  52  66
BRANCH  53  77
ATOM     77  C   UNL A   1      39.958  28.664  30.130  1.00  0.00     0.064 A 
ATOM     78  C   UNL A   1      40.554  29.230  28.996  1.00  0.00     0.173 A 
ATOM     79  C   UNL A   1      39.380  27.392  29.996  1.00  0.00     0.173 A 
ATOM     80  F   UNL A   1      41.100  30.453  29.065  1.00  0.00    -0.203 F 
ATOM     81  C   UNL A   1      40.563  28.556  27.775  1.00  0.00     0.198 A 
ATOM     82  C   UNL A   1      39.422  26.704  28.786  1.00  0.00     0.198 A 
ATOM     83  F   UNL A   1      38.800  26.802  31.051  1.00  0.00    -0.203 F 
ATOM     84  F   UNL A   1      41.102  29.138  26.695  1.00  0.00    -0.200 F 
ATOM     85  C   UNL A   1      40.006  27.290  27.674  1.00  0.00     0.200 A 
ATOM     86  F   UNL A   1      38.903  25.471  28.700  1.00  0.00    -0.200 F 
ATOM     87  F   UNL A   1      40.028  26.637  26.504  1.00  0.00    -0.200 F 
ENDBRANCH  53  77
BRANCH  65  88
ATOM     88  C   UNL A   1      44.450  29.031  35.440  1.00  0.00     0.064 A 
ATOM     89  C   UNL A   1      45.669  29.609  35.054  1.00  0.00     0.173 A 
ATOM     90  C   UNL A   1      44.489  27.801  36.113  1.00  0.00     0.173 A 
ATOM     91  F   UNL A   1      45.684  30.774  34.391  1.00  0.00    -0.203 F 
ATOM     92  C   UNL A   1      46.877  28.965  35.310  1.00  0.00     0.198 A 
ATOM     93  C   UNL A   1      45.700  27.176  36.395  1.00  0.00     0.198 A 
ATOM     94  F   UNL A   1      43.351  27.208  36.505  1.00  0.00    -0.203 F 
ATOM     95  F   UNL A   1      48.027  29.509  34.886  1.00  0.00    -0.200 F 
ATOM     96  C   UNL A   1      46.892  27.754  35.987  1.00  0.00     0.200 A 
ATOM     97  F   UNL A   1      45.713  26.013  37.060  1.00  0.00    -0.200 F 
ATOM     98  F   UNL A   1      48.056  27.139  36.237  1.00  0.00    -0.200 F 
ENDBRANCH  65  88
ENDBRANCH  39  40
ENDBRANCH  32  34
ENDBRANCH  31  32
ENDBRANCH  30  31
ENDBRANCH   1  30
TORSDOF 15
ENDMDL
MODEL 3
REMARK VINA RESULT:     -13.5      1.184      1.992
REMARK SMILES O=C(N/N=C/c1ccc(C(=O)OCCOC(=O)c2ccc(-c3c4nc(c(-c5c(F)c(F)c(F)c(F)c5F)c5ccc([nH]5)c(-c5c(F)c(F)c(F)c(F)c5F)c5nc(c(-c6c(F)c(F)c(F)c(F)c6F)c6ccc3[nH]6)C=C5)C=C4)cc2)cc1)C(=O)Nc1ccc2c(c1)OCO2
REMARK SMILES IDX 13 1 12 2 10 3 11 4 9 5 6 6 7 7 82 8 8 9 81 10 5 11 4 12
REMARK SMILES IDX 3 13 1 14 2 15 83 17 84 18 85 19 86 21 87 22 91 23 88 24
REMARK SMILES IDX 90 25 89 26 92 27 94 28 93 29 14 30 15 31 16 32 17 33 18 34
REMARK SMILES IDX 19 35 80 36 20 37 79 38 21 39 22 40 23 41 73 42 24 43 78 44
REMARK SMILES IDX 72 45 74 46 25 47 77 48 71 49 70 50 26 52 58 53 38 54 57 55
REMARK SMILES IDX 39 56 42 57 56 58 75 59 40 60 41 61 55 63 76 64 43 65 27 66
REMARK SMILES IDX 28 67 36 68 29 69 30 70 34 71 37 72 31 73 32 74 35 75 33 76
REMARK SMILES IDX 59 77 60 78 68 79 61 80 62 81 66 82 69 83 63 84 64 85 67 86
REMARK SMILES IDX 65 87 44 88 45 89 53 90 46 91 47 92 51 93 54 94 48 95 49 96
REMARK SMILES IDX 52 97 50 98
REMARK H PARENT 3 16 85 20 74 51 42 62
REMARK Flexibility Score: inf
ROOT
ATOM      1  C   UNL A   1      42.635  20.567  26.454  1.00  0.00     0.275 C 
ENDROOT
BRANCH   1   2
ATOM      2  O   UNL A   1      41.266  20.375  26.044  1.00  0.00    -0.458 OA
BRANCH   2   3
ATOM      3  C   UNL A   1      40.362  21.040  26.795  1.00  0.00     0.338 C 
ATOM      4  O   UNL A   1      40.418  21.232  28.002  1.00  0.00    -0.246 OA
BRANCH   3   5
ATOM      5  C   UNL A   1      39.252  21.572  25.987  1.00  0.00     0.060 A 
ATOM      6  C   UNL A   1      36.455  22.536  25.126  1.00  0.00    -0.005 A 
ATOM      7  C   UNL A   1      37.578  23.330  25.725  1.00  0.00     0.010 A 
ATOM      8  C   UNL A   1      37.209  21.252  24.759  1.00  0.00     0.010 A 
ATOM      9  C   UNL A   1      38.851  22.878  26.147  1.00  0.00     0.016 A 
ATOM     10  C   UNL A   1      38.483  20.780  25.184  1.00  0.00     0.016 A 
BRANCH   6  11
ATOM     11  C   UNL A   1      34.385  23.032  24.977  1.00  0.00     0.141 C 
ATOM     12  N   UNL A   1      33.182  22.387  25.171  1.00  0.00    -0.180 NA
BRANCH  12  13
ATOM     13  N   UNL A   1      32.173  22.876  24.420  1.00  0.00    -0.239 N 
ATOM     14  O   UNL A   1      30.308  24.123  24.151  1.00  0.00    -0.262 OA
ATOM     15  C   UNL A   1      31.139  23.653  24.929  1.00  0.00     0.329 C 
ATOM     16  H   UNL A   1      32.168  22.670  23.457  1.00  0.00     0.194 HD
BRANCH  15  17
ATOM     17  C   UNL A   1      31.024  24.025  26.438  1.00  0.00     0.315 C 
ATOM     18  O   UNL A   1      30.303  23.328  27.154  1.00  0.00    -0.263 OA
ATOM     19  N   UNL A   1      31.836  24.977  27.053  1.00  0.00    -0.318 N 
ATOM     20  H   UNL A   1      32.247  24.750  27.918  1.00  0.00     0.170 HD
BRANCH  19  21
ATOM     21  C   UNL A   1      32.098  26.242  26.507  1.00  0.00     0.045 A 
ATOM     22  C   UNL A   1      33.729  26.411  25.660  1.00  0.00     0.030 A 
ATOM     23  C   UNL A   1      30.666  27.249  25.967  1.00  0.00     0.076 A 
ATOM     24  C   UNL A   1      33.868  27.482  24.180  1.00  0.00     0.053 A 
ATOM     25  C   UNL A   1      30.822  28.202  24.431  1.00  0.00     0.167 A 
ATOM     26  C   UNL A   1      32.383  28.269  23.538  1.00  0.00     0.165 A 
ATOM     27  O   UNL A   1      29.899  28.783  23.626  1.00  0.00    -0.454 OA
ATOM     28  O   UNL A   1      32.133  28.914  22.377  1.00  0.00    -0.454 OA
ATOM     29  C   UNL A   1      30.653  28.949  22.366  1.00  0.00     0.468 C 
ENDBRANCH  19  21
ENDBRANCH  15  17
ENDBRANCH  12  13
ENDBRANCH   6  11
ENDBRANCH   3   5
ENDBRANCH   2   3
ENDBRANCH   1   2
BRANCH   1  30
ATOM     30  C   UNL A   1      43.418  21.359  25.403  1.00  0.00     0.275 C 
BRANCH  30  31
ATOM     31  O   UNL A   1      42.694  22.529  24.961  1.00  0.00    -0.458 OA
BRANCH  31  32
ATOM     32  C   UNL A   1      43.385  23.687  25.029  1.00  0.00     0.338 C 
ATOM     33  O   UNL A   1      44.402  23.981  24.422  1.00  0.00    -0.246 OA
BRANCH  32  34
ATOM     34  C   UNL A   1      42.724  24.653  25.920  1.00  0.00     0.060 A 
ATOM     35  C   UNL A   1      43.065  25.996  25.816  1.00  0.00     0.016 A 
ATOM     36  C   UNL A   1      41.983  24.207  27.011  1.00  0.00     0.016 A 
ATOM     37  C   UNL A   1      42.822  26.862  26.875  1.00  0.00     0.010 A 
ATOM     38  C   UNL A   1      41.593  25.122  27.997  1.00  0.00     0.010 A 
ATOM     39  C   UNL A   1      42.046  26.455  27.966  1.00  0.00    -0.014 A 
BRANCH  39  40
ATOM     40  C   UNL A   1      41.705  27.420  29.053  1.00  0.00     0.031 A 
ATOM     41  C   UNL A   1      42.524  27.477  30.318  1.00  0.00     0.074 A 
ATOM     42  C   UNL A   1      40.647  28.247  28.915  1.00  0.00     0.049 A 
ATOM     43  N   UNL A   1      42.259  28.076  31.453  1.00  0.00    -0.248 NA
ATOM     44  C   UNL A   1      43.804  26.751  30.313  1.00  0.00     0.031 C 
ATOM     45  C   UNL A   1      39.788  28.339  27.731  1.00  0.00     0.029 A 
ATOM     46  N   UNL A   1      40.106  29.170  29.779  1.00  0.00    -0.354 N 
ATOM     47  C   UNL A   1      43.300  27.746  32.312  1.00  0.00     0.074 A 
ATOM     48  C   UNL A   1      44.202  26.891  31.570  1.00  0.00     0.031 C 
ATOM     49  C   UNL A   1      38.864  29.288  27.923  1.00  0.00     0.029 A 
ATOM     50  C   UNL A   1      38.980  29.785  29.286  1.00  0.00     0.049 A 
ATOM     51  H   UNL A   1      40.488  29.369  30.663  1.00  0.00     0.167 HD
ATOM     52  C   UNL A   1      43.480  28.120  33.603  1.00  0.00     0.037 A 
ATOM     53  C   UNL A   1      38.094  30.607  29.877  1.00  0.00     0.037 A 
ATOM     54  C   UNL A   1      42.601  29.012  34.316  1.00  0.00     0.049 A 
ATOM     55  C   UNL A   1      38.284  30.964  31.322  1.00  0.00     0.074 A 
ATOM     56  C   UNL A   1      42.707  29.473  35.618  1.00  0.00     0.029 A 
ATOM     57  N   UNL A   1      41.456  29.590  33.784  1.00  0.00    -0.354 N 
ATOM     58  N   UNL A   1      39.244  30.608  32.141  1.00  0.00    -0.248 NA
ATOM     59  C   UNL A   1      37.260  31.821  31.931  1.00  0.00     0.031 C 
ATOM     60  C   UNL A   1      41.601  30.286  35.889  1.00  0.00     0.029 A 
ATOM     61  C   UNL A   1      40.836  30.383  34.737  1.00  0.00     0.049 A 
ATOM     62  H   UNL A   1      41.131  29.455  32.864  1.00  0.00     0.167 HD
ATOM     63  C   UNL A   1      38.952  31.212  33.355  1.00  0.00     0.074 A 
ATOM     64  C   UNL A   1      37.734  31.973  33.159  1.00  0.00     0.031 C 
ATOM     65  C   UNL A   1      39.629  31.141  34.525  1.00  0.00     0.037 A 
BRANCH  52  66
ATOM     66  C   UNL A   1      44.648  27.536  34.349  1.00  0.00     0.064 A 
ATOM     67  C   UNL A   1      45.892  28.181  34.415  1.00  0.00     0.173 A 
ATOM     68  C   UNL A   1      44.504  26.325  35.047  1.00  0.00     0.173 A 
ATOM     69  F   UNL A   1      46.091  29.334  33.760  1.00  0.00    -0.203 F 
ATOM     70  C   UNL A   1      46.954  27.622  35.125  1.00  0.00     0.198 A 
ATOM     71  C   UNL A   1      45.557  25.786  35.783  1.00  0.00     0.198 A 
ATOM     72  F   UNL A   1      43.334  25.669  35.027  1.00  0.00    -0.203 F 
ATOM     73  F   UNL A   1      48.148  28.230  35.131  1.00  0.00    -0.200 F 
ATOM     74  C   UNL A   1      46.783  26.430  35.814  1.00  0.00     0.200 A 
ATOM     75  F   UNL A   1      45.382  24.644  36.461  1.00  0.00    -0.200 F 
ATOM     76  F   UNL A   1      47.803  25.899  36.502  1.00  0.00    -0.200 F 
ENDBRANCH  52  66
BRANCH  53  77
ATOM     77  C   UNL A   1      36.917  31.100  29.112  1.00  0.00     0.064 A 
ATOM     78  C   UNL A   1      35.854  30.245  28.797  1.00  0.00     0.173 A 
ATOM     79  C   UNL A   1      36.824  32.438  28.695  1.00  0.00     0.173 A 
ATOM     80  F   UNL A   1      35.905  28.953  29.153  1.00  0.00    -0.203 F 
ATOM     81  C   UNL A   1      34.747  30.705  28.084  1.00  0.00     0.198 A 
ATOM     82  C   UNL A   1      35.701  32.905  28.015  1.00  0.00     0.198 A 
ATOM     83  F   UNL A   1      37.812  33.300  28.974  1.00  0.00    -0.203 F 
ATOM     84  F   UNL A   1      33.763  29.856  27.758  1.00  0.00    -0.200 F 
ATOM     85  C   UNL A   1      34.667  32.036  27.703  1.00  0.00     0.200 A 
ATOM     86  F   UNL A   1      35.620  34.197  27.670  1.00  0.00    -0.200 F 
ATOM     87  F   UNL A   1      33.597  32.481  27.031  1.00  0.00    -0.200 F 
ENDBRANCH  53  77
BRANCH  65  88
ATOM     88  C   UNL A   1      39.095  31.946  35.674  1.00  0.00     0.064 A 
ATOM     89  C   UNL A   1      38.265  31.378  36.651  1.00  0.00     0.173 A 
ATOM     90  C   UNL A   1      39.443  33.298  35.810  1.00  0.00     0.173 A 
ATOM     91  F   UNL A   1      37.888  30.095  36.554  1.00  0.00    -0.203 F 
ATOM     92  C   UNL A   1      37.781  32.143  37.709  1.00  0.00     0.198 A 
ATOM     93  C   UNL A   1      38.985  34.051  36.887  1.00  0.00     0.198 A 
ATOM     94  F   UNL A   1      40.237  33.888  34.903  1.00  0.00    -0.203 F 
ATOM     95  F   UNL A   1      36.946  31.594  38.603  1.00  0.00    -0.200 F 
ATOM     96  C   UNL A   1      38.148  33.475  37.831  1.00  0.00     0.200 A 
ATOM     97  F   UNL A   1      39.350  35.334  37.010  1.00  0.00    -0.200 F 
ATOM     98  F   UNL A   1      37.687  34.208  38.854  1.00  0.00    -0.200 F 
ENDBRANCH  65  88
ENDBRANCH  39  40
ENDBRANCH  32  34
ENDBRANCH  31  32
ENDBRANCH  30  31
ENDBRANCH   1  30
TORSDOF 15
ENDMDL
