MODEL 1
REMARK VINA RESULT:     -12.7      0.000      0.000
REMARK SMILES COc1ccc(-n2ccnc2C[N@@H+]2Cc3[nH]cnc3C[C@H]2C(=O)OCCOC(=O)c2ccc(-c3c4nc(c(-c5c(F)c(F)c(F)c(F)c5F)c5ccc([nH]5)c(-c5c(F)c(F)c(F)c(F)c5F)c5nc(c(-c6c(F)c(F)c(F)c(F)c6F)c6ccc3[nH]6)C=C5)C=C4)cc2)cc1
REMARK SMILES IDX 25 1 24 2 22 3 23 4 21 5 13 6 14 7 15 9 20 10 16 11 19 12
REMARK SMILES IDX 17 13 18 15 12 16 11 17 7 18 8 19 9 20 10 21 6 22 3 23 4 24
REMARK SMILES IDX 94 25 5 26 93 27 2 28 1 29 26 30 27 31 28 32 29 33 30 34
REMARK SMILES IDX 31 35 92 36 32 37 91 38 33 39 34 40 35 41 85 42 36 43 90 44
REMARK SMILES IDX 84 45 86 46 37 47 89 48 83 49 82 50 38 52 70 53 50 54 69 55
REMARK SMILES IDX 51 56 54 57 68 58 87 59 52 60 53 61 67 63 88 64 55 65 39 66
REMARK SMILES IDX 40 67 48 68 41 69 42 70 46 71 49 72 43 73 44 74 47 75 45 76
REMARK SMILES IDX 71 77 72 78 80 79 73 80 74 81 78 82 81 83 75 84 76 85 79 86
REMARK SMILES IDX 77 87 56 88 57 89 65 90 58 91 59 92 63 93 66 94 60 95 61 96
REMARK SMILES IDX 64 97 62 98
REMARK H PARENT 13 8 16 14 86 51 54 62
REMARK Flexibility Score: inf
ROOT
ATOM      1  C   UNL A   1      36.803  21.853  25.123  1.00  0.00     0.274 C 
ENDROOT
BRANCH   1   2
ATOM      2  O   UNL A   1      35.941  20.702  25.109  1.00  0.00    -0.458 OA
BRANCH   2   3
ATOM      3  C   UNL A   1      34.597  20.935  25.098  1.00  0.00     0.365 C 
ATOM      4  O   UNL A   1      33.744  20.075  24.890  1.00  0.00    -0.245 OA
BRANCH   3   5
ATOM      5  C   UNL A   1      34.256  22.420  25.260  1.00  0.00     0.301 C 
ATOM      6  N   UNL A   1      33.704  23.024  23.985  1.00  0.00    -0.312 N 
ATOM      7  C   UNL A   1      32.262  22.763  23.816  1.00  0.00     0.320 C 
ATOM      8  H   UNL A   1      34.155  22.558  23.197  1.00  0.00     0.349 HD
ATOM      9  C   UNL A   1      31.559  23.136  25.058  1.00  0.00     0.093 A 
ATOM     10  C   UNL A   1      33.444  22.542  26.587  1.00  0.00     0.136 C 
ATOM     11  N   UNL A   1      30.342  23.726  25.211  1.00  0.00    -0.344 N 
ATOM     12  C   UNL A   1      32.077  23.032  26.322  1.00  0.00     0.074 A 
ATOM     13  C   UNL A   1      30.182  23.949  26.554  1.00  0.00     0.197 A 
ATOM     14  H   UNL A   1      29.702  23.949  24.497  1.00  0.00     0.167 HD
ATOM     15  N   UNL A   1      31.215  23.532  27.254  1.00  0.00    -0.241 NA
BRANCH   6  16
ATOM     16  C   UNL A   1      34.045  24.466  23.898  1.00  0.00     0.340 C 
BRANCH  16  17
ATOM     17  C   UNL A   1      33.392  25.206  22.747  1.00  0.00     0.168 A 
ATOM     18  N   UNL A   1      32.667  26.393  22.872  1.00  0.00    -0.299 N 
ATOM     19  C   UNL A   1      31.950  26.530  21.702  1.00  0.00     0.113 A 
ATOM     20  C   UNL A   1      32.389  25.531  20.871  1.00  0.00     0.132 A 
ATOM     21  N   UNL A   1      33.288  24.731  21.514  1.00  0.00    -0.236 NA
BRANCH  18  22
ATOM     22  C   UNL A   1      32.599  27.282  23.975  1.00  0.00     0.047 A 
ATOM     23  C   UNL A   1      32.573  28.966  26.199  1.00  0.00     0.119 A 
ATOM     24  C   UNL A   1      33.276  29.338  25.057  1.00  0.00     0.048 A 
ATOM     25  C   UNL A   1      31.818  27.793  26.211  1.00  0.00     0.048 A 
ATOM     26  C   UNL A   1      33.296  28.494  23.945  1.00  0.00     0.030 A 
ATOM     27  C   UNL A   1      31.817  26.954  25.093  1.00  0.00     0.030 A 
BRANCH  23  28
ATOM     28  O   UNL A   1      32.570  29.834  27.256  1.00  0.00    -0.497 OA
ATOM     29  C   UNL A   1      33.890  30.258  27.595  1.00  0.00     0.278 C 
ENDBRANCH  23  28
ENDBRANCH  18  22
ENDBRANCH  16  17
ENDBRANCH   6  16
ENDBRANCH   3   5
ENDBRANCH   2   3
ENDBRANCH   1   2
BRANCH   1  30
ATOM     30  C   UNL A   1      38.189  21.509  25.645  1.00  0.00     0.275 C 
BRANCH  30  31
ATOM     31  O   UNL A   1      38.826  22.687  26.126  1.00  0.00    -0.458 OA
BRANCH  31  32
ATOM     32  C   UNL A   1      39.996  22.482  26.774  1.00  0.00     0.338 C 
ATOM     33  O   UNL A   1      40.352  21.465  27.336  1.00  0.00    -0.246 OA
BRANCH  32  34
ATOM     34  C   UNL A   1      40.691  23.767  26.896  1.00  0.00     0.060 A 
ATOM     35  C   UNL A   1      41.779  23.829  27.775  1.00  0.00     0.016 A 
ATOM     36  C   UNL A   1      40.043  24.915  26.426  1.00  0.00     0.016 A 
ATOM     37  C   UNL A   1      42.083  25.045  28.352  1.00  0.00     0.010 A 
ATOM     38  C   UNL A   1      40.309  26.108  27.040  1.00  0.00     0.010 A 
ATOM     39  C   UNL A   1      41.275  26.140  28.046  1.00  0.00    -0.014 A 
BRANCH  39  40
ATOM     40  C   UNL A   1      41.433  27.367  28.793  1.00  0.00     0.031 A 
ATOM     41  C   UNL A   1      42.618  28.168  28.410  1.00  0.00     0.074 A 
ATOM     42  C   UNL A   1      40.434  27.810  29.579  1.00  0.00     0.049 A 
ATOM     43  N   UNL A   1      43.560  28.625  29.167  1.00  0.00    -0.248 NA
ATOM     44  C   UNL A   1      42.835  28.409  26.973  1.00  0.00     0.031 C 
ATOM     45  C   UNL A   1      39.086  27.244  29.714  1.00  0.00     0.029 A 
ATOM     46  N   UNL A   1      40.362  28.950  30.316  1.00  0.00    -0.354 N 
ATOM     47  C   UNL A   1      44.393  29.354  28.323  1.00  0.00     0.074 A 
ATOM     48  C   UNL A   1      44.008  29.034  26.978  1.00  0.00     0.031 C 
ATOM     49  C   UNL A   1      38.278  28.157  30.297  1.00  0.00     0.029 A 
ATOM     50  C   UNL A   1      39.072  29.317  30.668  1.00  0.00     0.049 A 
ATOM     51  H   UNL A   1      41.157  29.469  30.578  1.00  0.00     0.167 HD
ATOM     52  C   UNL A   1      45.152  30.377  28.798  1.00  0.00     0.037 A 
ATOM     53  C   UNL A   1      38.685  30.530  31.132  1.00  0.00     0.037 A 
ATOM     54  C   UNL A   1      45.389  30.231  30.212  1.00  0.00     0.049 A 
ATOM     55  C   UNL A   1      39.905  31.254  31.574  1.00  0.00     0.074 A 
ATOM     56  C   UNL A   1      45.956  29.245  30.998  1.00  0.00     0.029 A 
ATOM     57  N   UNL A   1      44.699  31.040  31.080  1.00  0.00    -0.354 N 
ATOM     58  N   UNL A   1      40.621  30.928  32.614  1.00  0.00    -0.248 NA
ATOM     59  C   UNL A   1      40.573  32.107  30.602  1.00  0.00     0.031 C 
ATOM     60  C   UNL A   1      45.193  29.242  32.203  1.00  0.00     0.029 A 
ATOM     61  C   UNL A   1      44.234  30.250  32.098  1.00  0.00     0.049 A 
ATOM     62  H   UNL A   1      44.563  32.011  30.988  1.00  0.00     0.167 HD
ATOM     63  C   UNL A   1      41.933  31.177  32.233  1.00  0.00     0.074 A 
ATOM     64  C   UNL A   1      41.832  32.000  31.033  1.00  0.00     0.031 C 
ATOM     65  C   UNL A   1      42.966  30.453  32.756  1.00  0.00     0.037 A 
BRANCH  52  66
ATOM     66  C   UNL A   1      45.324  31.689  28.064  1.00  0.00     0.064 A 
ATOM     67  C   UNL A   1      44.170  32.399  27.677  1.00  0.00     0.173 A 
ATOM     68  C   UNL A   1      46.529  32.124  27.461  1.00  0.00     0.173 A 
ATOM     69  F   UNL A   1      42.970  32.080  28.182  1.00  0.00    -0.203 F 
ATOM     70  C   UNL A   1      44.204  33.379  26.681  1.00  0.00     0.198 A 
ATOM     71  C   UNL A   1      46.565  33.142  26.511  1.00  0.00     0.198 A 
ATOM     72  F   UNL A   1      47.704  31.524  27.672  1.00  0.00    -0.203 F 
ATOM     73  F   UNL A   1      43.059  33.918  26.244  1.00  0.00    -0.200 F 
ATOM     74  C   UNL A   1      45.400  33.740  26.091  1.00  0.00     0.200 A 
ATOM     75  F   UNL A   1      47.736  33.471  25.945  1.00  0.00    -0.200 F 
ATOM     76  F   UNL A   1      45.425  34.626  25.086  1.00  0.00    -0.200 F 
ENDBRANCH  52  66
BRANCH  53  77
ATOM     77  C   UNL A   1      37.386  31.217  30.929  1.00  0.00     0.064 A 
ATOM     78  C   UNL A   1      36.542  31.499  32.015  1.00  0.00     0.173 A 
ATOM     79  C   UNL A   1      37.059  31.838  29.707  1.00  0.00     0.173 A 
ATOM     80  F   UNL A   1      36.810  30.989  33.226  1.00  0.00    -0.203 F 
ATOM     81  C   UNL A   1      35.449  32.362  31.891  1.00  0.00     0.198 A 
ATOM     82  C   UNL A   1      35.958  32.686  29.579  1.00  0.00     0.198 A 
ATOM     83  F   UNL A   1      37.850  31.711  28.633  1.00  0.00    -0.203 F 
ATOM     84  F   UNL A   1      34.704  32.656  32.965  1.00  0.00    -0.200 F 
ATOM     85  C   UNL A   1      35.161  32.960  30.674  1.00  0.00     0.200 A 
ATOM     86  F   UNL A   1      35.713  33.284  28.405  1.00  0.00    -0.200 F 
ATOM     87  F   UNL A   1      34.146  33.828  30.567  1.00  0.00    -0.200 F 
ENDBRANCH  53  77
BRANCH  65  88
ATOM     88  C   UNL A   1      42.682  29.600  33.958  1.00  0.00     0.064 A 
ATOM     89  C   UNL A   1      42.066  28.337  33.895  1.00  0.00     0.173 A 
ATOM     90  C   UNL A   1      43.176  30.014  35.202  1.00  0.00     0.173 A 
ATOM     91  F   UNL A   1      41.664  27.825  32.726  1.00  0.00    -0.203 F 
ATOM     92  C   UNL A   1      41.907  27.553  35.034  1.00  0.00     0.198 A 
ATOM     93  C   UNL A   1      43.051  29.211  36.332  1.00  0.00     0.198 A 
ATOM     94  F   UNL A   1      43.826  31.184  35.312  1.00  0.00    -0.203 F 
ATOM     95  F   UNL A   1      41.298  26.360  34.951  1.00  0.00    -0.200 F 
ATOM     96  C   UNL A   1      42.406  27.987  36.251  1.00  0.00     0.200 A 
ATOM     97  F   UNL A   1      43.580  29.612  37.496  1.00  0.00    -0.200 F 
ATOM     98  F   UNL A   1      42.290  27.215  37.340  1.00  0.00    -0.200 F 
ENDBRANCH  65  88
ENDBRANCH  39  40
ENDBRANCH  32  34
ENDBRANCH  31  32
ENDBRANCH  30  31
ENDBRANCH   1  30
TORSDOF 15
ENDMDL
MODEL 2
REMARK VINA RESULT:     -12.6      2.549      8.402
REMARK SMILES COc1ccc(-n2ccnc2C[N@@H+]2Cc3[nH]cnc3C[C@H]2C(=O)OCCOC(=O)c2ccc(-c3c4nc(c(-c5c(F)c(F)c(F)c(F)c5F)c5ccc([nH]5)c(-c5c(F)c(F)c(F)c(F)c5F)c5nc(c(-c6c(F)c(F)c(F)c(F)c6F)c6ccc3[nH]6)C=C5)C=C4)cc2)cc1
REMARK SMILES IDX 25 1 24 2 22 3 23 4 21 5 13 6 14 7 15 9 20 10 16 11 19 12
REMARK SMILES IDX 17 13 18 15 12 16 11 17 7 18 8 19 9 20 10 21 6 22 3 23 4 24
REMARK SMILES IDX 94 25 5 26 93 27 2 28 1 29 26 30 27 31 28 32 29 33 30 34
REMARK SMILES IDX 31 35 92 36 32 37 91 38 33 39 34 40 35 41 85 42 36 43 90 44
REMARK SMILES IDX 84 45 86 46 37 47 89 48 83 49 82 50 38 52 70 53 50 54 69 55
REMARK SMILES IDX 51 56 54 57 68 58 87 59 52 60 53 61 67 63 88 64 55 65 39 66
REMARK SMILES IDX 40 67 48 68 41 69 42 70 46 71 49 72 43 73 44 74 47 75 45 76
REMARK SMILES IDX 71 77 72 78 80 79 73 80 74 81 78 82 81 83 75 84 76 85 79 86
REMARK SMILES IDX 77 87 56 88 57 89 65 90 58 91 59 92 63 93 66 94 60 95 61 96
REMARK SMILES IDX 64 97 62 98
REMARK H PARENT 13 8 16 14 86 51 54 62
REMARK Flexibility Score: inf
ROOT
ATOM      1  C   UNL A   1      32.690  30.655  25.989  1.00  0.00     0.274 C 
ENDROOT
BRANCH   1   2
ATOM      2  O   UNL A   1      31.477  29.911  25.786  1.00  0.00    -0.458 OA
BRANCH   2   3
ATOM      3  C   UNL A   1      31.399  29.150  24.657  1.00  0.00     0.365 C 
ATOM      4  O   UNL A   1      30.642  29.377  23.716  1.00  0.00    -0.245 OA
BRANCH   3   5
ATOM      5  C   UNL A   1      32.281  27.900  24.728  1.00  0.00     0.301 C 
ATOM      6  N   UNL A   1      31.499  26.667  25.133  1.00  0.00    -0.312 N 
ATOM      7  C   UNL A   1      30.797  26.045  23.993  1.00  0.00     0.320 C 
ATOM      8  H   UNL A   1      30.761  26.962  25.773  1.00  0.00     0.349 HD
ATOM      9  C   UNL A   1      31.753  25.862  22.885  1.00  0.00     0.093 A 
ATOM     10  C   UNL A   1      33.125  27.882  23.415  1.00  0.00     0.136 C 
ATOM     11  N   UNL A   1      31.855  24.831  22.002  1.00  0.00    -0.344 N 
ATOM     12  C   UNL A   1      32.807  26.690  22.603  1.00  0.00     0.074 A 
ATOM     13  C   UNL A   1      32.959  25.084  21.231  1.00  0.00     0.197 A 
ATOM     14  H   UNL A   1      31.253  24.055  21.931  1.00  0.00     0.167 HD
ATOM     15  N   UNL A   1      33.554  26.209  21.567  1.00  0.00    -0.241 NA
BRANCH   6  16
ATOM     16  C   UNL A   1      32.367  25.713  25.867  1.00  0.00     0.340 C 
BRANCH  16  17
ATOM     17  C   UNL A   1      31.694  24.412  26.256  1.00  0.00     0.168 A 
ATOM     18  N   UNL A   1      32.204  23.140  25.987  1.00  0.00    -0.299 N 
ATOM     19  C   UNL A   1      31.155  22.261  26.159  1.00  0.00     0.113 A 
ATOM     20  C   UNL A   1      30.123  23.002  26.676  1.00  0.00     0.132 A 
ATOM     21  N   UNL A   1      30.467  24.320  26.749  1.00  0.00    -0.236 NA
BRANCH  18  22
ATOM     22  C   UNL A   1      33.507  22.775  25.561  1.00  0.00     0.047 A 
ATOM     23  C   UNL A   1      36.020  21.933  24.690  1.00  0.00     0.119 A 
ATOM     24  C   UNL A   1      35.171  22.601  23.813  1.00  0.00     0.048 A 
ATOM     25  C   UNL A   1      35.653  21.751  26.024  1.00  0.00     0.048 A 
ATOM     26  C   UNL A   1      33.910  23.017  24.244  1.00  0.00     0.030 A 
ATOM     27  C   UNL A   1      34.401  22.185  26.467  1.00  0.00     0.030 A 
BRANCH  23  28
ATOM     28  O   UNL A   1      37.252  21.561  24.226  1.00  0.00    -0.497 OA
ATOM     29  C   UNL A   1      38.147  21.251  25.294  1.00  0.00     0.278 C 
ENDBRANCH  23  28
ENDBRANCH  18  22
ENDBRANCH  16  17
ENDBRANCH   6  16
ENDBRANCH   3   5
ENDBRANCH   2   3
ENDBRANCH   1   2
BRANCH   1  30
ATOM     30  C   UNL A   1      33.041  30.764  27.464  1.00  0.00     0.275 C 
BRANCH  30  31
ATOM     31  O   UNL A   1      34.434  30.532  27.644  1.00  0.00    -0.458 OA
BRANCH  31  32
ATOM     32  C   UNL A   1      35.150  31.613  28.029  1.00  0.00     0.338 C 
ATOM     33  O   UNL A   1      35.067  32.741  27.585  1.00  0.00    -0.246 OA
BRANCH  32  34
ATOM     34  C   UNL A   1      36.222  31.167  28.924  1.00  0.00     0.060 A 
ATOM     35  C   UNL A   1      37.238  32.084  29.220  1.00  0.00     0.016 A 
ATOM     36  C   UNL A   1      36.368  29.792  29.142  1.00  0.00     0.016 A 
ATOM     37  C   UNL A   1      38.487  31.594  29.539  1.00  0.00     0.010 A 
ATOM     38  C   UNL A   1      37.620  29.306  29.404  1.00  0.00     0.010 A 
ATOM     39  C   UNL A   1      38.675  30.211  29.526  1.00  0.00    -0.014 A 
BRANCH  39  40
ATOM     40  C   UNL A   1      40.013  29.678  29.644  1.00  0.00     0.031 A 
ATOM     41  C   UNL A   1      40.517  29.590  31.033  1.00  0.00     0.074 A 
ATOM     42  C   UNL A   1      40.605  29.103  28.580  1.00  0.00     0.049 A 
ATOM     43  N   UNL A   1      41.615  30.062  31.523  1.00  0.00    -0.248 NA
ATOM     44  C   UNL A   1      39.629  28.977  32.036  1.00  0.00     0.031 C 
ATOM     45  C   UNL A   1      40.009  28.832  27.266  1.00  0.00     0.029 A 
ATOM     46  N   UNL A   1      41.822  28.504  28.494  1.00  0.00    -0.354 N 
ATOM     47  C   UNL A   1      41.631  29.656  32.855  1.00  0.00     0.074 A 
ATOM     48  C   UNL A   1      40.319  29.162  33.157  1.00  0.00     0.031 C 
ATOM     49  C   UNL A   1      40.777  27.936  26.607  1.00  0.00     0.029 A 
ATOM     50  C   UNL A   1      41.960  27.658  27.404  1.00  0.00     0.049 A 
ATOM     51  H   UNL A   1      42.542  28.658  29.147  1.00  0.00     0.167 HD
ATOM     52  C   UNL A   1      42.803  29.500  33.526  1.00  0.00     0.037 A 
ATOM     53  C   UNL A   1      42.930  26.725  27.235  1.00  0.00     0.037 A 
ATOM     54  C   UNL A   1      43.852  30.284  32.924  1.00  0.00     0.049 A 
ATOM     55  C   UNL A   1      44.022  27.032  28.194  1.00  0.00     0.074 A 
ATOM     56  C   UNL A   1      44.013  31.629  32.649  1.00  0.00     0.029 A 
ATOM     57  N   UNL A   1      44.806  29.640  32.176  1.00  0.00    -0.354 N 
ATOM     58  N   UNL A   1      44.810  28.069  28.111  1.00  0.00    -0.248 NA
ATOM     59  C   UNL A   1      43.971  26.394  29.502  1.00  0.00     0.031 C 
ATOM     60  C   UNL A   1      44.721  31.676  31.412  1.00  0.00     0.029 A 
ATOM     61  C   UNL A   1      44.984  30.361  31.026  1.00  0.00     0.049 A 
ATOM     62  H   UNL A   1      45.277  28.810  32.422  1.00  0.00     0.167 HD
ATOM     63  C   UNL A   1      45.019  28.460  29.427  1.00  0.00     0.074 A 
ATOM     64  C   UNL A   1      44.573  27.333  30.236  1.00  0.00     0.031 C 
ATOM     65  C   UNL A   1      45.263  29.766  29.741  1.00  0.00     0.037 A 
BRANCH  52  66
ATOM     66  C   UNL A   1      43.074  28.340  34.460  1.00  0.00     0.064 A 
ATOM     67  C   UNL A   1      43.455  28.619  35.787  1.00  0.00     0.173 A 
ATOM     68  C   UNL A   1      43.276  27.001  34.045  1.00  0.00     0.173 A 
ATOM     69  F   UNL A   1      43.310  29.852  36.294  1.00  0.00    -0.203 F 
ATOM     70  C   UNL A   1      44.095  27.669  36.588  1.00  0.00     0.198 A 
ATOM     71  C   UNL A   1      43.862  26.042  34.868  1.00  0.00     0.198 A 
ATOM     72  F   UNL A   1      43.024  26.581  32.801  1.00  0.00    -0.203 F 
ATOM     73  F   UNL A   1      44.572  28.029  37.787  1.00  0.00    -0.200 F 
ATOM     74  C   UNL A   1      44.309  26.386  36.123  1.00  0.00     0.200 A 
ATOM     75  F   UNL A   1      44.066  24.805  34.393  1.00  0.00    -0.200 F 
ATOM     76  F   UNL A   1      44.986  25.497  36.860  1.00  0.00    -0.200 F 
ENDBRANCH  52  66
BRANCH  53  77
ATOM     77  C   UNL A   1      42.836  25.423  26.531  1.00  0.00     0.064 A 
ATOM     78  C   UNL A   1      43.699  25.115  25.468  1.00  0.00     0.173 A 
ATOM     79  C   UNL A   1      42.073  24.356  27.045  1.00  0.00     0.173 A 
ATOM     80  F   UNL A   1      44.497  26.061  24.952  1.00  0.00    -0.203 F 
ATOM     81  C   UNL A   1      43.806  23.816  24.961  1.00  0.00     0.198 A 
ATOM     82  C   UNL A   1      42.168  23.062  26.529  1.00  0.00     0.198 A 
ATOM     83  F   UNL A   1      41.288  24.520  28.118  1.00  0.00    -0.203 F 
ATOM     84  F   UNL A   1      44.687  23.548  23.988  1.00  0.00    -0.200 F 
ATOM     85  C   UNL A   1      43.045  22.789  25.496  1.00  0.00     0.200 A 
ATOM     86  F   UNL A   1      41.451  22.073  27.079  1.00  0.00    -0.200 F 
ATOM     87  F   UNL A   1      43.185  21.534  25.048  1.00  0.00    -0.200 F 
ENDBRANCH  53  77
BRANCH  65  88
ATOM     88  C   UNL A   1      45.591  30.705  28.616  1.00  0.00     0.064 A 
ATOM     89  C   UNL A   1      44.622  31.372  27.845  1.00  0.00     0.173 A 
ATOM     90  C   UNL A   1      46.933  31.049  28.403  1.00  0.00     0.173 A 
ATOM     91  F   UNL A   1      43.317  31.178  28.062  1.00  0.00    -0.203 F 
ATOM     92  C   UNL A   1      44.987  32.298  26.871  1.00  0.00     0.198 A 
ATOM     93  C   UNL A   1      47.292  32.003  27.457  1.00  0.00     0.198 A 
ATOM     94  F   UNL A   1      47.897  30.488  29.151  1.00  0.00    -0.203 F 
ATOM     95  F   UNL A   1      44.045  32.907  26.135  1.00  0.00    -0.200 F 
ATOM     96  C   UNL A   1      46.321  32.619  26.683  1.00  0.00     0.200 A 
ATOM     97  F   UNL A   1      48.579  32.348  27.313  1.00  0.00    -0.200 F 
ATOM     98  F   UNL A   1      46.670  33.541  25.774  1.00  0.00    -0.200 F 
ENDBRANCH  65  88
ENDBRANCH  39  40
ENDBRANCH  32  34
ENDBRANCH  31  32
ENDBRANCH  30  31
ENDBRANCH   1  30
TORSDOF 15
ENDMDL
MODEL 3
REMARK VINA RESULT:     -12.6      0.748      2.089
REMARK SMILES COc1ccc(-n2ccnc2C[N@@H+]2Cc3[nH]cnc3C[C@H]2C(=O)OCCOC(=O)c2ccc(-c3c4nc(c(-c5c(F)c(F)c(F)c(F)c5F)c5ccc([nH]5)c(-c5c(F)c(F)c(F)c(F)c5F)c5nc(c(-c6c(F)c(F)c(F)c(F)c6F)c6ccc3[nH]6)C=C5)C=C4)cc2)cc1
REMARK SMILES IDX 25 1 24 2 22 3 23 4 21 5 13 6 14 7 15 9 20 10 16 11 19 12
REMARK SMILES IDX 17 13 18 15 12 16 11 17 7 18 8 19 9 20 10 21 6 22 3 23 4 24
REMARK SMILES IDX 94 25 5 26 93 27 2 28 1 29 26 30 27 31 28 32 29 33 30 34
REMARK SMILES IDX 31 35 92 36 32 37 91 38 33 39 34 40 35 41 85 42 36 43 90 44
REMARK SMILES IDX 84 45 86 46 37 47 89 48 83 49 82 50 38 52 70 53 50 54 69 55
REMARK SMILES IDX 51 56 54 57 68 58 87 59 52 60 53 61 67 63 88 64 55 65 39 66
REMARK SMILES IDX 40 67 48 68 41 69 42 70 46 71 49 72 43 73 44 74 47 75 45 76
REMARK SMILES IDX 71 77 72 78 80 79 73 80 74 81 78 82 81 83 75 84 76 85 79 86
REMARK SMILES IDX 77 87 56 88 57 89 65 90 58 91 59 92 63 93 66 94 60 95 61 96
REMARK SMILES IDX 64 97 62 98
REMARK H PARENT 13 8 16 14 86 51 54 62
REMARK Flexibility Score: inf
ROOT
ATOM      1  C   UNL A   1      36.887  21.797  25.049  1.00  0.00     0.274 C 
ENDROOT
BRANCH   1   2
ATOM      2  O   UNL A   1      35.996  20.708  24.757  1.00  0.00    -0.458 OA
BRANCH   2   3
ATOM      3  C   UNL A   1      34.679  20.883  25.068  1.00  0.00     0.365 C 
ATOM      4  O   UNL A   1      33.842  19.984  25.082  1.00  0.00    -0.245 OA
BRANCH   3   5
ATOM      5  C   UNL A   1      34.319  22.356  25.292  1.00  0.00     0.301 C 
ATOM      6  N   UNL A   1      33.720  22.994  24.056  1.00  0.00    -0.312 N 
ATOM      7  C   UNL A   1      32.277  22.714  23.921  1.00  0.00     0.320 C 
ATOM      8  H   UNL A   1      34.154  22.563  23.239  1.00  0.00     0.349 HD
ATOM      9  C   UNL A   1      31.606  23.032  25.195  1.00  0.00     0.093 A 
ATOM     10  C   UNL A   1      33.546  22.418  26.646  1.00  0.00     0.136 C 
ATOM     11  N   UNL A   1      30.385  23.595  25.405  1.00  0.00    -0.344 N 
ATOM     12  C   UNL A   1      32.164  22.894  26.439  1.00  0.00     0.074 A 
ATOM     13  C   UNL A   1      30.262  23.769  26.759  1.00  0.00     0.197 A 
ATOM     14  H   UNL A   1      29.720  23.832  24.718  1.00  0.00     0.167 HD
ATOM     15  N   UNL A   1      31.322  23.346  27.413  1.00  0.00    -0.241 NA
BRANCH   6  16
ATOM     16  C   UNL A   1      34.034  24.443  24.009  1.00  0.00     0.340 C 
BRANCH  16  17
ATOM     17  C   UNL A   1      33.465  25.180  22.812  1.00  0.00     0.168 A 
ATOM     18  N   UNL A   1      32.702  26.347  22.883  1.00  0.00    -0.299 N 
ATOM     19  C   UNL A   1      32.087  26.479  21.656  1.00  0.00     0.113 A 
ATOM     20  C   UNL A   1      32.623  25.501  20.858  1.00  0.00     0.132 A 
ATOM     21  N   UNL A   1      33.483  24.717  21.571  1.00  0.00    -0.236 NA
BRANCH  18  22
ATOM     22  C   UNL A   1      32.514  27.221  23.984  1.00  0.00     0.047 A 
ATOM     23  C   UNL A   1      32.039  29.001  26.080  1.00  0.00     0.119 A 
ATOM     24  C   UNL A   1      31.428  27.750  26.081  1.00  0.00     0.048 A 
ATOM     25  C   UNL A   1      32.948  29.339  25.077  1.00  0.00     0.048 A 
ATOM     26  C   UNL A   1      31.657  26.861  25.030  1.00  0.00     0.030 A 
ATOM     27  C   UNL A   1      33.199  28.444  24.034  1.00  0.00     0.030 A 
BRANCH  23  28
ATOM     28  O   UNL A   1      31.795  29.830  27.140  1.00  0.00    -0.497 OA
ATOM     29  C   UNL A   1      32.740  30.899  27.202  1.00  0.00     0.278 C 
ENDBRANCH  23  28
ENDBRANCH  18  22
ENDBRANCH  16  17
ENDBRANCH   6  16
ENDBRANCH   3   5
ENDBRANCH   2   3
ENDBRANCH   1   2
BRANCH   1  30
ATOM     30  C   UNL A   1      38.188  21.308  25.665  1.00  0.00     0.275 C 
BRANCH  30  31
ATOM     31  O   UNL A   1      38.888  22.405  26.241  1.00  0.00    -0.458 OA
BRANCH  31  32
ATOM     32  C   UNL A   1      40.025  22.077  26.897  1.00  0.00     0.338 C 
ATOM     33  O   UNL A   1      40.257  21.040  27.486  1.00  0.00    -0.246 OA
BRANCH  32  34
ATOM     34  C   UNL A   1      40.870  23.272  26.988  1.00  0.00     0.060 A 
ATOM     35  C   UNL A   1      41.844  23.297  27.994  1.00  0.00     0.016 A 
ATOM     36  C   UNL A   1      40.444  24.432  26.331  1.00  0.00     0.016 A 
ATOM     37  C   UNL A   1      42.241  24.521  28.488  1.00  0.00     0.010 A 
ATOM     38  C   UNL A   1      40.796  25.644  26.859  1.00  0.00     0.010 A 
ATOM     39  C   UNL A   1      41.632  25.668  27.976  1.00  0.00    -0.014 A 
BRANCH  39  40
ATOM     40  C   UNL A   1      41.866  26.941  28.618  1.00  0.00     0.031 A 
ATOM     41  C   UNL A   1      43.070  27.656  28.138  1.00  0.00     0.074 A 
ATOM     42  C   UNL A   1      40.913  27.488  29.396  1.00  0.00     0.049 A 
ATOM     43  N   UNL A   1      44.055  28.128  28.828  1.00  0.00    -0.248 NA
ATOM     44  C   UNL A   1      43.250  27.774  26.680  1.00  0.00     0.031 C 
ATOM     45  C   UNL A   1      39.548  26.995  29.616  1.00  0.00     0.029 A 
ATOM     46  N   UNL A   1      40.915  28.684  30.042  1.00  0.00    -0.354 N 
ATOM     47  C   UNL A   1      44.890  28.751  27.903  1.00  0.00     0.074 A 
ATOM     48  C   UNL A   1      44.447  28.345  26.601  1.00  0.00     0.031 C 
ATOM     49  C   UNL A   1      38.799  27.985  30.148  1.00  0.00     0.029 A 
ATOM     50  C   UNL A   1      39.653  29.134  30.402  1.00  0.00     0.049 A 
ATOM     51  H   UNL A   1      41.738  29.186  30.238  1.00  0.00     0.167 HD
ATOM     52  C   UNL A   1      45.707  29.773  28.273  1.00  0.00     0.037 A 
ATOM     53  C   UNL A   1      39.333  30.396  30.780  1.00  0.00     0.037 A 
ATOM     54  C   UNL A   1      45.984  29.727  29.687  1.00  0.00     0.049 A 
ATOM     55  C   UNL A   1      40.597  31.097  31.126  1.00  0.00     0.074 A 
ATOM     56  C   UNL A   1      46.535  28.781  30.531  1.00  0.00     0.029 A 
ATOM     57  N   UNL A   1      45.358  30.632  30.508  1.00  0.00    -0.354 N 
ATOM     58  N   UNL A   1      41.333  30.822  32.167  1.00  0.00    -0.248 NA
ATOM     59  C   UNL A   1      41.268  31.841  30.070  1.00  0.00     0.031 C 
ATOM     60  C   UNL A   1      45.814  28.907  31.755  1.00  0.00     0.029 A 
ATOM     61  C   UNL A   1      44.895  29.945  31.599  1.00  0.00     0.049 A 
ATOM     62  H   UNL A   1      45.260  31.598  30.343  1.00  0.00     0.167 HD
ATOM     63  C   UNL A   1      42.641  30.981  31.728  1.00  0.00     0.074 A 
ATOM     64  C   UNL A   1      42.535  31.712  30.471  1.00  0.00     0.031 C 
ATOM     65  C   UNL A   1      43.659  30.255  32.276  1.00  0.00     0.037 A 
BRANCH  52  66
ATOM     66  C   UNL A   1      45.909  31.015  27.433  1.00  0.00     0.064 A 
ATOM     67  C   UNL A   1      47.225  31.457  27.192  1.00  0.00     0.173 A 
ATOM     68  C   UNL A   1      44.893  31.951  27.120  1.00  0.00     0.173 A 
ATOM     69  F   UNL A   1      48.271  30.659  27.448  1.00  0.00    -0.203 F 
ATOM     70  C   UNL A   1      47.503  32.765  26.785  1.00  0.00     0.198 A 
ATOM     71  C   UNL A   1      45.174  33.235  26.659  1.00  0.00     0.198 A 
ATOM     72  F   UNL A   1      43.596  31.716  27.343  1.00  0.00    -0.203 F 
ATOM     73  F   UNL A   1      48.775  33.179  26.715  1.00  0.00    -0.200 F 
ATOM     74  C   UNL A   1      46.478  33.656  26.532  1.00  0.00     0.200 A 
ATOM     75  F   UNL A   1      44.163  34.086  26.427  1.00  0.00    -0.200 F 
ATOM     76  F   UNL A   1      46.743  34.930  26.214  1.00  0.00    -0.200 F 
ENDBRANCH  52  66
BRANCH  53  77
ATOM     77  C   UNL A   1      38.058  31.123  30.562  1.00  0.00     0.064 A 
ATOM     78  C   UNL A   1      37.545  31.306  29.268  1.00  0.00     0.173 A 
ATOM     79  C   UNL A   1      37.190  31.431  31.628  1.00  0.00     0.173 A 
ATOM     80  F   UNL A   1      38.288  30.990  28.198  1.00  0.00    -0.203 F 
ATOM     81  C   UNL A   1      36.238  31.754  29.054  1.00  0.00     0.198 A 
ATOM     82  C   UNL A   1      35.890  31.893  31.413  1.00  0.00     0.198 A 
ATOM     83  F   UNL A   1      37.547  31.205  32.899  1.00  0.00    -0.203 F 
ATOM     84  F   UNL A   1      35.762  31.856  27.805  1.00  0.00    -0.200 F 
ATOM     85  C   UNL A   1      35.409  32.040  30.126  1.00  0.00     0.200 A 
ATOM     86  F   UNL A   1      35.090  32.134  32.460  1.00  0.00    -0.200 F 
ATOM     87  F   UNL A   1      34.139  32.417  29.923  1.00  0.00    -0.200 F 
ENDBRANCH  53  77
BRANCH  65  88
ATOM     88  C   UNL A   1      43.380  29.512  33.551  1.00  0.00     0.064 A 
ATOM     89  C   UNL A   1      43.492  30.083  34.831  1.00  0.00     0.173 A 
ATOM     90  C   UNL A   1      42.847  28.219  33.466  1.00  0.00     0.173 A 
ATOM     91  F   UNL A   1      43.891  31.351  34.987  1.00  0.00    -0.203 F 
ATOM     92  C   UNL A   1      43.136  29.371  35.973  1.00  0.00     0.198 A 
ATOM     93  C   UNL A   1      42.455  27.524  34.607  1.00  0.00     0.198 A 
ATOM     94  F   UNL A   1      42.662  27.645  32.267  1.00  0.00    -0.203 F 
ATOM     95  F   UNL A   1      43.270  29.932  37.184  1.00  0.00    -0.200 F 
ATOM     96  C   UNL A   1      42.611  28.095  35.860  1.00  0.00     0.200 A 
ATOM     97  F   UNL A   1      41.901  26.309  34.489  1.00  0.00    -0.200 F 
ATOM     98  F   UNL A   1      42.230  27.424  36.956  1.00  0.00    -0.200 F 
ENDBRANCH  65  88
ENDBRANCH  39  40
ENDBRANCH  32  34
ENDBRANCH  31  32
ENDBRANCH  30  31
ENDBRANCH   1  30
TORSDOF 15
ENDMDL
