MODEL 1
REMARK VINA RESULT:     -10.4      0.000      0.000
REMARK SMILES O=C(C[C@H]1C[N@@H+](CCSc2ccccc2F)CCO1)OCCOC(=O)c1ccc(-c2c3nc(c(-c4c(F)c(F)c(F)c(F)c4F)c4ccc([nH]4)c(-c4c(F)c(F)c(F)c(F)c4F)c4nc(c(-c5c(F)c(F)c(F)c(F)c5F)c5ccc2[nH]5)C=C4)C=C3)cc1
REMARK SMILES IDX 20 1 2 2 1 3 3 4 4 5 5 6 19 7 6 8 18 9 17 10 7 12 8 13 9 14
REMARK SMILES IDX 10 15 11 16 15 17 12 18 14 19 16 20 13 21 21 22 22 23 23 24
REMARK SMILES IDX 24 25 25 26 26 27 27 28 88 29 28 30 87 31 29 32 30 33 31 34
REMARK SMILES IDX 81 35 32 36 86 37 80 38 82 39 33 40 85 41 79 42 78 43 34 45
REMARK SMILES IDX 66 46 46 47 65 48 47 49 50 50 64 51 83 52 48 53 49 54 63 56
REMARK SMILES IDX 84 57 51 58 35 59 36 60 44 61 37 62 38 63 42 64 45 65 39 66
REMARK SMILES IDX 40 67 43 68 41 69 67 70 68 71 76 72 69 73 70 74 74 75 77 76
REMARK SMILES IDX 71 77 72 78 75 79 73 80 52 81 53 82 61 83 54 84 55 85 59 86
REMARK SMILES IDX 62 87 56 88 57 89 60 90 58 91
REMARK H PARENT 6 11 82 44 50 55
REMARK Flexibility Score: inf
ROOT
ATOM      1  O   UNL A   1      33.198  34.738  27.965  1.00  0.00    -0.462 OA
ENDROOT
BRANCH   1   2
ATOM      2  C   UNL A   1      33.120  35.688  28.922  1.00  0.00     0.308 C 
ATOM      3  O   UNL A   1      32.697  36.805  28.640  1.00  0.00    -0.252 OA
BRANCH   2   4
ATOM      4  C   UNL A   1      33.631  35.371  30.297  1.00  0.00     0.160 C 
BRANCH   4   5
ATOM      5  C   UNL A   1      32.895  35.823  31.532  1.00  0.00     0.184 C 
ATOM      6  C   UNL A   1      33.225  34.946  32.767  1.00  0.00     0.295 C 
ATOM      7  O   UNL A   1      32.909  37.231  31.724  1.00  0.00    -0.366 OA
ATOM      8  N   UNL A   1      34.228  35.453  33.703  1.00  0.00    -0.330 N 
ATOM      9  C   UNL A   1      33.946  37.654  32.610  1.00  0.00     0.222 C 
ATOM     10  C   UNL A   1      33.921  36.854  33.914  1.00  0.00     0.291 C 
ATOM     11  H   UNL A   1      34.155  34.959  34.592  1.00  0.00     0.348 HD
BRANCH   8  12
ATOM     12  C   UNL A   1      35.634  35.083  33.446  1.00  0.00     0.273 C 
BRANCH  12  13
ATOM     13  C   UNL A   1      36.547  34.214  34.383  1.00  0.00     0.136 C 
BRANCH  13  14
ATOM     14  S   UNL A   1      37.790  33.033  33.688  1.00  0.00    -0.117 SA
BRANCH  14  15
ATOM     15  C   UNL A   1      37.879  33.500  31.950  1.00  0.00     0.043 A 
ATOM     16  C   UNL A   1      38.783  34.453  31.464  1.00  0.00     0.018 A 
ATOM     17  C   UNL A   1      37.069  32.826  31.019  1.00  0.00     0.136 A 
ATOM     18  C   UNL A   1      38.936  34.643  30.080  1.00  0.00     0.001 A 
ATOM     19  C   UNL A   1      37.255  32.973  29.646  1.00  0.00     0.040 A 
ATOM     20  F   UNL A   1      36.188  31.900  31.433  1.00  0.00    -0.206 F 
ATOM     21  C   UNL A   1      38.199  33.878  29.172  1.00  0.00     0.003 A 
ENDBRANCH  14  15
ENDBRANCH  13  14
ENDBRANCH  12  13
ENDBRANCH   8  12
ENDBRANCH   4   5
ENDBRANCH   2   4
ENDBRANCH   1   2
BRANCH   1  22
ATOM     22  C   UNL A   1      34.172  33.675  27.990  1.00  0.00     0.274 C 
BRANCH  22  23
ATOM     23  C   UNL A   1      33.530  32.298  27.729  1.00  0.00     0.275 C 
BRANCH  23  24
ATOM     24  O   UNL A   1      34.181  31.254  28.498  1.00  0.00    -0.458 OA
BRANCH  24  25
ATOM     25  C   UNL A   1      34.581  30.134  27.836  1.00  0.00     0.338 C 
ATOM     26  O   UNL A   1      33.986  29.592  26.918  1.00  0.00    -0.246 OA
BRANCH  25  27
ATOM     27  C   UNL A   1      35.977  29.770  28.240  1.00  0.00     0.060 A 
ATOM     28  C   UNL A   1      37.018  30.037  27.333  1.00  0.00     0.016 A 
ATOM     29  C   UNL A   1      36.303  29.329  29.531  1.00  0.00     0.016 A 
ATOM     30  C   UNL A   1      38.362  29.854  27.704  1.00  0.00     0.010 A 
ATOM     31  C   UNL A   1      37.649  29.137  29.897  1.00  0.00     0.010 A 
ATOM     32  C   UNL A   1      38.692  29.375  28.982  1.00  0.00    -0.014 A 
BRANCH  32  33
ATOM     33  C   UNL A   1      40.070  28.867  29.266  1.00  0.00     0.031 A 
ATOM     34  C   UNL A   1      40.965  29.746  30.101  1.00  0.00     0.074 A 
ATOM     35  C   UNL A   1      40.557  27.686  28.836  1.00  0.00     0.049 A 
ATOM     36  N   UNL A   1      42.203  29.554  30.481  1.00  0.00    -0.248 NA
ATOM     37  C   UNL A   1      40.375  31.006  30.582  1.00  0.00     0.031 C 
ATOM     38  C   UNL A   1      39.815  26.680  28.093  1.00  0.00     0.029 A 
ATOM     39  N   UNL A   1      41.813  27.128  28.963  1.00  0.00    -0.354 N 
ATOM     40  C   UNL A   1      42.525  30.650  31.268  1.00  0.00     0.074 A 
ATOM     41  C   UNL A   1      41.373  31.525  31.277  1.00  0.00     0.031 C 
ATOM     42  C   UNL A   1      40.621  25.647  27.798  1.00  0.00     0.029 A 
ATOM     43  C   UNL A   1      41.954  25.914  28.329  1.00  0.00     0.049 A 
ATOM     44  H   UNL A   1      42.543  27.560  29.463  1.00  0.00     0.167 HD
ATOM     45  C   UNL A   1      43.672  30.906  31.936  1.00  0.00     0.037 A 
ATOM     46  C   UNL A   1      43.026  25.105  28.186  1.00  0.00     0.037 A 
ATOM     47  C   UNL A   1      44.844  30.076  31.908  1.00  0.00     0.049 A 
ATOM     48  C   UNL A   1      44.340  25.481  28.824  1.00  0.00     0.074 A 
ATOM     49  C   UNL A   1      46.056  30.283  32.541  1.00  0.00     0.029 A 
ATOM     50  N   UNL A   1      44.961  28.894  31.195  1.00  0.00    -0.354 N 
ATOM     51  N   UNL A   1      44.623  26.507  29.588  1.00  0.00    -0.248 NA
ATOM     52  C   UNL A   1      45.483  24.583  28.587  1.00  0.00     0.031 C 
ATOM     53  C   UNL A   1      46.927  29.261  32.163  1.00  0.00     0.029 A 
ATOM     54  C   UNL A   1      46.239  28.380  31.345  1.00  0.00     0.049 A 
ATOM     55  H   UNL A   1      44.244  28.481  30.661  1.00  0.00     0.167 HD
ATOM     56  C   UNL A   1      45.956  26.359  29.951  1.00  0.00     0.074 A 
ATOM     57  C   UNL A   1      46.431  25.144  29.327  1.00  0.00     0.031 C 
ATOM     58  C   UNL A   1      46.711  27.162  30.738  1.00  0.00     0.037 A 
BRANCH  45  59
ATOM     59  C   UNL A   1      43.722  32.164  32.744  1.00  0.00     0.064 A 
ATOM     60  C   UNL A   1      44.181  33.358  32.171  1.00  0.00     0.173 A 
ATOM     61  C   UNL A   1      43.350  32.178  34.097  1.00  0.00     0.173 A 
ATOM     62  F   UNL A   1      44.544  33.393  30.880  1.00  0.00    -0.203 F 
ATOM     63  C   UNL A   1      44.281  34.520  32.928  1.00  0.00     0.198 A 
ATOM     64  C   UNL A   1      43.425  33.350  34.843  1.00  0.00     0.198 A 
ATOM     65  F   UNL A   1      42.882  31.065  34.681  1.00  0.00    -0.203 F 
ATOM     66  F   UNL A   1      44.748  35.644  32.368  1.00  0.00    -0.200 F 
ATOM     67  C   UNL A   1      43.900  34.516  34.261  1.00  0.00     0.200 A 
ATOM     68  F   UNL A   1      43.030  33.352  36.124  1.00  0.00    -0.200 F 
ATOM     69  F   UNL A   1      43.982  35.641  34.985  1.00  0.00    -0.200 F 
ENDBRANCH  45  59
BRANCH  46  70
ATOM     70  C   UNL A   1      42.914  23.842  27.404  1.00  0.00     0.064 A 
ATOM     71  C   UNL A   1      43.281  23.787  26.051  1.00  0.00     0.173 A 
ATOM     72  C   UNL A   1      42.473  22.654  28.005  1.00  0.00     0.173 A 
ATOM     73  F   UNL A   1      43.725  24.890  25.431  1.00  0.00    -0.203 F 
ATOM     74  C   UNL A   1      43.200  22.598  25.328  1.00  0.00     0.198 A 
ATOM     75  C   UNL A   1      42.418  21.459  27.289  1.00  0.00     0.198 A 
ATOM     76  F   UNL A   1      42.146  22.643  29.306  1.00  0.00    -0.203 F 
ATOM     77  F   UNL A   1      43.548  22.577  24.034  1.00  0.00    -0.200 F 
ATOM     78  C   UNL A   1      42.775  21.432  25.949  1.00  0.00     0.200 A 
ATOM     79  F   UNL A   1      42.043  20.328  27.902  1.00  0.00    -0.200 F 
ATOM     80  F   UNL A   1      42.727  20.284  25.262  1.00  0.00    -0.200 F 
ENDBRANCH  46  70
BRANCH  58  81
ATOM     81  C   UNL A   1      48.132  26.763  31.014  1.00  0.00     0.064 A 
ATOM     82  C   UNL A   1      49.168  27.212  30.180  1.00  0.00     0.173 A 
ATOM     83  C   UNL A   1      48.456  25.849  32.027  1.00  0.00     0.173 A 
ATOM     84  F   UNL A   1      48.910  28.078  29.189  1.00  0.00    -0.203 F 
ATOM     85  C   UNL A   1      50.469  26.739  30.331  1.00  0.00     0.198 A 
ATOM     86  C   UNL A   1      49.765  25.401  32.195  1.00  0.00     0.198 A 
ATOM     87  F   UNL A   1      47.506  25.397  32.859  1.00  0.00    -0.203 F 
ATOM     88  F   UNL A   1      51.430  27.144  29.489  1.00  0.00    -0.200 F 
ATOM     89  C   UNL A   1      50.766  25.835  31.339  1.00  0.00     0.200 A 
ATOM     90  F   UNL A   1      50.055  24.542  33.182  1.00  0.00    -0.200 F 
ATOM     91  F   UNL A   1      52.018  25.379  31.483  1.00  0.00    -0.200 F 
ENDBRANCH  58  81
ENDBRANCH  32  33
ENDBRANCH  25  27
ENDBRANCH  24  25
ENDBRANCH  23  24
ENDBRANCH  22  23
ENDBRANCH   1  22
TORSDOF 16
ENDMDL
MODEL 2
REMARK VINA RESULT:     -10.4      0.199      1.612
REMARK SMILES O=C(C[C@H]1C[N@@H+](CCSc2ccccc2F)CCO1)OCCOC(=O)c1ccc(-c2c3nc(c(-c4c(F)c(F)c(F)c(F)c4F)c4ccc([nH]4)c(-c4c(F)c(F)c(F)c(F)c4F)c4nc(c(-c5c(F)c(F)c(F)c(F)c5F)c5ccc2[nH]5)C=C4)C=C3)cc1
REMARK SMILES IDX 20 1 2 2 1 3 3 4 4 5 5 6 19 7 6 8 18 9 17 10 7 12 8 13 9 14
REMARK SMILES IDX 10 15 11 16 15 17 12 18 14 19 16 20 13 21 21 22 22 23 23 24
REMARK SMILES IDX 24 25 25 26 26 27 27 28 88 29 28 30 87 31 29 32 30 33 31 34
REMARK SMILES IDX 81 35 32 36 86 37 80 38 82 39 33 40 85 41 79 42 78 43 34 45
REMARK SMILES IDX 66 46 46 47 65 48 47 49 50 50 64 51 83 52 48 53 49 54 63 56
REMARK SMILES IDX 84 57 51 58 35 59 36 60 44 61 37 62 38 63 42 64 45 65 39 66
REMARK SMILES IDX 40 67 43 68 41 69 67 70 68 71 76 72 69 73 70 74 74 75 77 76
REMARK SMILES IDX 71 77 72 78 75 79 73 80 52 81 53 82 61 83 54 84 55 85 59 86
REMARK SMILES IDX 62 87 56 88 57 89 60 90 58 91
REMARK H PARENT 6 11 82 44 50 55
REMARK Flexibility Score: inf
ROOT
ATOM      1  O   UNL A   1      33.004  34.615  28.005  1.00  0.00    -0.462 OA
ENDROOT
BRANCH   1   2
ATOM      2  C   UNL A   1      32.847  35.564  28.952  1.00  0.00     0.308 C 
ATOM      3  O   UNL A   1      32.313  36.631  28.664  1.00  0.00    -0.252 OA
BRANCH   2   4
ATOM      4  C   UNL A   1      33.408  35.317  30.322  1.00  0.00     0.160 C 
BRANCH   4   5
ATOM      5  C   UNL A   1      32.752  35.885  31.554  1.00  0.00     0.184 C 
ATOM      6  C   UNL A   1      33.063  35.050  32.824  1.00  0.00     0.295 C 
ATOM      7  O   UNL A   1      32.874  37.296  31.668  1.00  0.00    -0.366 OA
ATOM      8  N   UNL A   1      34.133  35.530  33.697  1.00  0.00    -0.330 N 
ATOM      9  C   UNL A   1      33.970  37.687  32.496  1.00  0.00     0.222 C 
ATOM     10  C   UNL A   1      33.935  36.959  33.842  1.00  0.00     0.291 C 
ATOM     11  H   UNL A   1      34.057  35.090  34.614  1.00  0.00     0.348 HD
BRANCH   8  12
ATOM     12  C   UNL A   1      35.499  35.045  33.415  1.00  0.00     0.273 C 
BRANCH  12  13
ATOM     13  C   UNL A   1      36.371  34.142  34.357  1.00  0.00     0.136 C 
BRANCH  13  14
ATOM     14  S   UNL A   1      37.568  32.909  33.670  1.00  0.00    -0.117 SA
BRANCH  14  15
ATOM     15  C   UNL A   1      37.764  33.433  31.957  1.00  0.00     0.043 A 
ATOM     16  C   UNL A   1      38.711  34.385  31.557  1.00  0.00     0.018 A 
ATOM     17  C   UNL A   1      36.997  32.807  30.959  1.00  0.00     0.136 A 
ATOM     18  C   UNL A   1      38.946  34.619  30.191  1.00  0.00     0.001 A 
ATOM     19  C   UNL A   1      37.264  32.997  29.605  1.00  0.00     0.040 A 
ATOM     20  F   UNL A   1      36.078  31.885  31.290  1.00  0.00    -0.206 F 
ATOM     21  C   UNL A   1      38.249  33.899  29.217  1.00  0.00     0.003 A 
ENDBRANCH  14  15
ENDBRANCH  13  14
ENDBRANCH  12  13
ENDBRANCH   8  12
ENDBRANCH   4   5
ENDBRANCH   2   4
ENDBRANCH   1   2
BRANCH   1  22
ATOM     22  C   UNL A   1      34.042  33.615  28.057  1.00  0.00     0.274 C 
BRANCH  22  23
ATOM     23  C   UNL A   1      33.505  32.207  27.732  1.00  0.00     0.275 C 
BRANCH  23  24
ATOM     24  O   UNL A   1      34.179  31.188  28.514  1.00  0.00    -0.458 OA
BRANCH  24  25
ATOM     25  C   UNL A   1      34.599  30.066  27.868  1.00  0.00     0.338 C 
ATOM     26  O   UNL A   1      34.013  29.501  26.959  1.00  0.00    -0.246 OA
BRANCH  25  27
ATOM     27  C   UNL A   1      36.002  29.734  28.274  1.00  0.00     0.060 A 
ATOM     28  C   UNL A   1      37.036  30.010  27.363  1.00  0.00     0.016 A 
ATOM     29  C   UNL A   1      36.337  29.316  29.571  1.00  0.00     0.016 A 
ATOM     30  C   UNL A   1      38.384  29.856  27.735  1.00  0.00     0.010 A 
ATOM     31  C   UNL A   1      37.687  29.154  29.938  1.00  0.00     0.010 A 
ATOM     32  C   UNL A   1      38.725  29.400  29.018  1.00  0.00    -0.014 A 
BRANCH  32  33
ATOM     33  C   UNL A   1      40.112  28.922  29.308  1.00  0.00     0.031 A 
ATOM     34  C   UNL A   1      40.989  29.824  30.137  1.00  0.00     0.074 A 
ATOM     35  C   UNL A   1      40.623  27.747  28.886  1.00  0.00     0.049 A 
ATOM     36  N   UNL A   1      42.230  29.661  30.519  1.00  0.00    -0.248 NA
ATOM     37  C   UNL A   1      40.373  31.076  30.608  1.00  0.00     0.031 C 
ATOM     38  C   UNL A   1      39.902  26.722  28.150  1.00  0.00     0.029 A 
ATOM     39  N   UNL A   1      41.890  27.216  29.018  1.00  0.00    -0.354 N 
ATOM     40  C   UNL A   1      42.529  30.768  31.298  1.00  0.00     0.074 A 
ATOM     41  C   UNL A   1      41.360  31.620  31.300  1.00  0.00     0.031 C 
ATOM     42  C   UNL A   1      40.729  25.703  27.864  1.00  0.00     0.029 A 
ATOM     43  C   UNL A   1      42.056  26.000  28.394  1.00  0.00     0.049 A 
ATOM     44  H   UNL A   1      42.611  27.666  29.516  1.00  0.00     0.167 HD
ATOM     45  C   UNL A   1      43.670  31.052  31.965  1.00  0.00     0.037 A 
ATOM     46  C   UNL A   1      43.144  25.212  28.257  1.00  0.00     0.037 A 
ATOM     47  C   UNL A   1      44.858  30.245  31.944  1.00  0.00     0.049 A 
ATOM     48  C   UNL A   1      44.449  25.619  28.893  1.00  0.00     0.074 A 
ATOM     49  C   UNL A   1      46.066  30.482  32.576  1.00  0.00     0.029 A 
ATOM     50  N   UNL A   1      45.000  29.061  31.239  1.00  0.00    -0.354 N 
ATOM     51  N   UNL A   1      44.711  26.656  29.650  1.00  0.00    -0.248 NA
ATOM     52  C   UNL A   1      45.611  24.743  28.664  1.00  0.00     0.031 C 
ATOM     53  C   UNL A   1      46.957  29.474  32.207  1.00  0.00     0.029 A 
ATOM     54  C   UNL A   1      46.288  28.574  31.395  1.00  0.00     0.049 A 
ATOM     55  H   UNL A   1      44.292  28.630  30.709  1.00  0.00     0.167 HD
ATOM     56  C   UNL A   1      46.047  26.538  30.015  1.00  0.00     0.074 A 
ATOM     57  C   UNL A   1      46.546  25.328  29.401  1.00  0.00     0.031 C 
ATOM     58  C   UNL A   1      46.785  27.362  30.797  1.00  0.00     0.037 A 
BRANCH  45  59
ATOM     59  C   UNL A   1      43.694  32.317  32.764  1.00  0.00     0.064 A 
ATOM     60  C   UNL A   1      43.353  32.304  34.124  1.00  0.00     0.173 A 
ATOM     61  C   UNL A   1      44.019  33.547  32.174  1.00  0.00     0.173 A 
ATOM     62  F   UNL A   1      43.039  31.150  34.731  1.00  0.00    -0.203 F 
ATOM     63  C   UNL A   1      43.322  33.482  34.862  1.00  0.00     0.198 A 
ATOM     64  C   UNL A   1      44.014  34.719  32.923  1.00  0.00     0.198 A 
ATOM     65  F   UNL A   1      44.375  33.603  30.881  1.00  0.00    -0.203 F 
ATOM     66  F   UNL A   1      42.968  33.452  36.153  1.00  0.00    -0.200 F 
ATOM     67  C   UNL A   1      43.656  34.687  34.262  1.00  0.00     0.200 A 
ATOM     68  F   UNL A   1      44.365  35.879  32.350  1.00  0.00    -0.200 F 
ATOM     69  F   UNL A   1      43.640  35.819  34.979  1.00  0.00    -0.200 F 
ENDBRANCH  45  59
BRANCH  46  70
ATOM     70  C   UNL A   1      43.058  23.941  27.484  1.00  0.00     0.064 A 
ATOM     71  C   UNL A   1      42.637  22.747  28.090  1.00  0.00     0.173 A 
ATOM     72  C   UNL A   1      43.358  23.904  26.114  1.00  0.00     0.173 A 
ATOM     73  F   UNL A   1      42.322  22.731  29.393  1.00  0.00    -0.203 F 
ATOM     74  C   UNL A   1      42.532  21.565  27.358  1.00  0.00     0.198 A 
ATOM     75  C   UNL A   1      43.226  22.727  25.378  1.00  0.00     0.198 A 
ATOM     76  F   UNL A   1      43.727  25.026  25.479  1.00  0.00    -0.203 F 
ATOM     77  F   UNL A   1      42.137  20.437  27.965  1.00  0.00    -0.200 F 
ATOM     78  C   UNL A   1      42.820  21.556  26.002  1.00  0.00     0.200 A 
ATOM     79  F   UNL A   1      43.469  22.732  24.060  1.00  0.00    -0.200 F 
ATOM     80  F   UNL A   1      42.689  20.427  25.293  1.00  0.00    -0.200 F 
ENDBRANCH  46  70
BRANCH  58  81
ATOM     81  C   UNL A   1      48.213  26.992  31.077  1.00  0.00     0.064 A 
ATOM     82  C   UNL A   1      49.241  27.457  30.241  1.00  0.00     0.173 A 
ATOM     83  C   UNL A   1      48.554  26.092  32.096  1.00  0.00     0.173 A 
ATOM     84  F   UNL A   1      48.967  28.312  29.245  1.00  0.00    -0.203 F 
ATOM     85  C   UNL A   1      50.551  27.012  30.397  1.00  0.00     0.198 A 
ATOM     86  C   UNL A   1      49.872  25.671  32.268  1.00  0.00     0.198 A 
ATOM     87  F   UNL A   1      47.612  25.625  32.929  1.00  0.00    -0.203 F 
ATOM     88  F   UNL A   1      51.505  27.432  29.554  1.00  0.00    -0.200 F 
ATOM     89  C   UNL A   1      50.865  26.120  31.411  1.00  0.00     0.200 A 
ATOM     90  F   UNL A   1      50.178  24.824  33.260  1.00  0.00    -0.200 F 
ATOM     91  F   UNL A   1      52.126  25.691  31.559  1.00  0.00    -0.200 F 
ENDBRANCH  58  81
ENDBRANCH  32  33
ENDBRANCH  25  27
ENDBRANCH  24  25
ENDBRANCH  23  24
ENDBRANCH  22  23
ENDBRANCH   1  22
TORSDOF 16
ENDMDL
MODEL 3
REMARK VINA RESULT:     -10.0      4.760     10.234
REMARK SMILES O=C(C[C@H]1C[N@@H+](CCSc2ccccc2F)CCO1)OCCOC(=O)c1ccc(-c2c3nc(c(-c4c(F)c(F)c(F)c(F)c4F)c4ccc([nH]4)c(-c4c(F)c(F)c(F)c(F)c4F)c4nc(c(-c5c(F)c(F)c(F)c(F)c5F)c5ccc2[nH]5)C=C4)C=C3)cc1
REMARK SMILES IDX 20 1 2 2 1 3 3 4 4 5 5 6 19 7 6 8 18 9 17 10 7 12 8 13 9 14
REMARK SMILES IDX 10 15 11 16 15 17 12 18 14 19 16 20 13 21 21 22 22 23 23 24
REMARK SMILES IDX 24 25 25 26 26 27 27 28 88 29 28 30 87 31 29 32 30 33 31 34
REMARK SMILES IDX 81 35 32 36 86 37 80 38 82 39 33 40 85 41 79 42 78 43 34 45
REMARK SMILES IDX 66 46 46 47 65 48 47 49 50 50 64 51 83 52 48 53 49 54 63 56
REMARK SMILES IDX 84 57 51 58 35 59 36 60 44 61 37 62 38 63 42 64 45 65 39 66
REMARK SMILES IDX 40 67 43 68 41 69 67 70 68 71 76 72 69 73 70 74 74 75 77 76
REMARK SMILES IDX 71 77 72 78 75 79 73 80 52 81 53 82 61 83 54 84 55 85 59 86
REMARK SMILES IDX 62 87 56 88 57 89 60 90 58 91
REMARK H PARENT 6 11 82 44 50 55
REMARK Flexibility Score: inf
ROOT
ATOM      1  O   UNL A   1      31.051  27.021  26.862  1.00  0.00    -0.462 OA
ENDROOT
BRANCH   1   2
ATOM      2  C   UNL A   1      30.861  25.791  26.337  1.00  0.00     0.308 C 
ATOM      3  O   UNL A   1      29.794  25.211  26.512  1.00  0.00    -0.252 OA
BRANCH   2   4
ATOM      4  C   UNL A   1      31.999  25.132  25.614  1.00  0.00     0.160 C 
BRANCH   4   5
ATOM      5  C   UNL A   1      31.853  23.763  25.002  1.00  0.00     0.184 C 
ATOM      6  C   UNL A   1      31.181  23.813  23.604  1.00  0.00     0.295 C 
ATOM      7  O   UNL A   1      33.014  22.953  25.125  1.00  0.00    -0.366 OA
ATOM      8  N   UNL A   1      32.057  23.770  22.435  1.00  0.00    -0.330 N 
ATOM      9  C   UNL A   1      33.845  23.002  23.964  1.00  0.00     0.222 C 
ATOM     10  C   UNL A   1      33.035  22.732  22.693  1.00  0.00     0.291 C 
ATOM     11  H   UNL A   1      31.519  23.520  21.606  1.00  0.00     0.348 HD
BRANCH   8  12
ATOM     12  C   UNL A   1      32.541  25.063  21.911  1.00  0.00     0.273 C 
BRANCH  12  13
ATOM     13  C   UNL A   1      31.675  26.353  21.690  1.00  0.00     0.136 C 
BRANCH  13  14
ATOM     14  S   UNL A   1      31.913  27.862  22.733  1.00  0.00    -0.117 SA
BRANCH  14  15
ATOM     15  C   UNL A   1      30.319  28.697  22.623  1.00  0.00     0.043 A 
ATOM     16  C   UNL A   1      30.134  29.894  21.919  1.00  0.00     0.018 A 
ATOM     17  C   UNL A   1      29.189  28.087  23.195  1.00  0.00     0.136 A 
ATOM     18  C   UNL A   1      28.840  30.401  21.712  1.00  0.00     0.001 A 
ATOM     19  C   UNL A   1      27.901  28.557  22.946  1.00  0.00     0.040 A 
ATOM     20  F   UNL A   1      29.311  26.937  23.876  1.00  0.00    -0.206 F 
ATOM     21  C   UNL A   1      27.723  29.714  22.194  1.00  0.00     0.003 A 
ENDBRANCH  14  15
ENDBRANCH  13  14
ENDBRANCH  12  13
ENDBRANCH   8  12
ENDBRANCH   4   5
ENDBRANCH   2   4
ENDBRANCH   1   2
BRANCH   1  22
ATOM     22  C   UNL A   1      32.192  27.844  26.546  1.00  0.00     0.274 C 
BRANCH  22  23
ATOM     23  C   UNL A   1      31.781  29.284  26.179  1.00  0.00     0.275 C 
BRANCH  23  24
ATOM     24  O   UNL A   1      32.941  30.127  25.957  1.00  0.00    -0.458 OA
BRANCH  24  25
ATOM     25  C   UNL A   1      33.146  31.163  26.815  1.00  0.00     0.338 C 
ATOM     26  O   UNL A   1      32.350  32.052  27.071  1.00  0.00    -0.246 OA
BRANCH  25  27
ATOM     27  C   UNL A   1      34.413  30.947  27.585  1.00  0.00     0.060 A 
ATOM     28  C   UNL A   1      34.827  29.624  27.819  1.00  0.00     0.016 A 
ATOM     29  C   UNL A   1      35.276  31.996  27.936  1.00  0.00     0.016 A 
ATOM     30  C   UNL A   1      36.075  29.352  28.408  1.00  0.00     0.010 A 
ATOM     31  C   UNL A   1      36.521  31.722  28.534  1.00  0.00     0.010 A 
ATOM     32  C   UNL A   1      36.925  30.399  28.798  1.00  0.00    -0.014 A 
BRANCH  32  33
ATOM     33  C   UNL A   1      38.080  30.136  29.711  1.00  0.00     0.031 A 
ATOM     34  C   UNL A   1      39.149  29.198  29.211  1.00  0.00     0.074 A 
ATOM     35  C   UNL A   1      38.231  30.681  30.935  1.00  0.00     0.049 A 
ATOM     36  N   UNL A   1      40.242  28.788  29.802  1.00  0.00    -0.248 NA
ATOM     37  C   UNL A   1      38.960  28.661  27.853  1.00  0.00     0.031 C 
ATOM     38  C   UNL A   1      37.348  31.662  31.543  1.00  0.00     0.029 A 
ATOM     39  N   UNL A   1      39.197  30.477  31.900  1.00  0.00    -0.354 N 
ATOM     40  C   UNL A   1      40.883  27.976  28.879  1.00  0.00     0.074 A 
ATOM     41  C   UNL A   1      40.040  27.912  27.706  1.00  0.00     0.031 C 
ATOM     42  C   UNL A   1      37.780  31.957  32.780  1.00  0.00     0.029 A 
ATOM     43  C   UNL A   1      38.981  31.177  33.066  1.00  0.00     0.049 A 
ATOM     44  H   UNL A   1      39.972  29.885  31.765  1.00  0.00     0.167 HD
ATOM     45  C   UNL A   1      42.073  27.345  28.987  1.00  0.00     0.037 A 
ATOM     46  C   UNL A   1      39.662  31.193  34.231  1.00  0.00     0.037 A 
ATOM     47  C   UNL A   1      42.908  27.357  30.156  1.00  0.00     0.049 A 
ATOM     48  C   UNL A   1      40.916  30.369  34.379  1.00  0.00     0.074 A 
ATOM     49  C   UNL A   1      44.120  26.719  30.350  1.00  0.00     0.029 A 
ATOM     50  N   UNL A   1      42.611  28.022  31.335  1.00  0.00    -0.354 N 
ATOM     51  N   UNL A   1      41.525  29.626  33.489  1.00  0.00    -0.248 NA
ATOM     52  C   UNL A   1      41.583  30.390  35.692  1.00  0.00     0.031 C 
ATOM     53  C   UNL A   1      44.528  26.946  31.665  1.00  0.00     0.029 A 
ATOM     54  C   UNL A   1      43.603  27.779  32.273  1.00  0.00     0.049 A 
ATOM     55  H   UNL A   1      41.816  28.582  31.484  1.00  0.00     0.167 HD
ATOM     56  C   UNL A   1      42.658  29.125  34.118  1.00  0.00     0.074 A 
ATOM     57  C   UNL A   1      42.659  29.647  35.466  1.00  0.00     0.031 C 
ATOM     58  C   UNL A   1      43.614  28.309  33.611  1.00  0.00     0.037 A 
BRANCH  45  59
ATOM     59  C   UNL A   1      42.536  26.557  27.802  1.00  0.00     0.064 A 
ATOM     60  C   UNL A   1      42.181  25.208  27.663  1.00  0.00     0.173 A 
ATOM     61  C   UNL A   1      43.363  27.129  26.824  1.00  0.00     0.173 A 
ATOM     62  F   UNL A   1      41.388  24.621  28.573  1.00  0.00    -0.203 F 
ATOM     63  C   UNL A   1      42.649  24.454  26.593  1.00  0.00     0.198 A 
ATOM     64  C   UNL A   1      43.807  26.378  25.740  1.00  0.00     0.198 A 
ATOM     65  F   UNL A   1      43.710  28.423  26.903  1.00  0.00    -0.203 F 
ATOM     66  F   UNL A   1      42.318  23.160  26.493  1.00  0.00    -0.200 F 
ATOM     67  C   UNL A   1      43.458  25.040  25.631  1.00  0.00     0.200 A 
ATOM     68  F   UNL A   1      44.565  26.953  24.795  1.00  0.00    -0.200 F 
ATOM     69  F   UNL A   1      43.895  24.316  24.592  1.00  0.00    -0.200 F 
ENDBRANCH  45  59
BRANCH  46  70
ATOM     70  C   UNL A   1      39.181  32.026  35.370  1.00  0.00     0.064 A 
ATOM     71  C   UNL A   1      38.384  31.479  36.387  1.00  0.00     0.173 A 
ATOM     72  C   UNL A   1      39.540  33.377  35.482  1.00  0.00     0.173 A 
ATOM     73  F   UNL A   1      38.026  30.188  36.338  1.00  0.00    -0.203 F 
ATOM     74  C   UNL A   1      37.958  32.254  37.465  1.00  0.00     0.198 A 
ATOM     75  C   UNL A   1      39.135  34.144  36.574  1.00  0.00     0.198 A 
ATOM     76  F   UNL A   1      40.331  33.938  34.556  1.00  0.00    -0.203 F 
ATOM     77  F   UNL A   1      37.190  31.708  38.418  1.00  0.00    -0.200 F 
ATOM     78  C   UNL A   1      38.338  33.584  37.562  1.00  0.00     0.200 A 
ATOM     79  F   UNL A   1      39.536  35.418  36.682  1.00  0.00    -0.200 F 
ATOM     80  F   UNL A   1      37.953  34.319  38.613  1.00  0.00    -0.200 F 
ENDBRANCH  46  70
BRANCH  58  81
ATOM     81  C   UNL A   1      44.774  27.934  34.489  1.00  0.00     0.064 A 
ATOM     82  C   UNL A   1      45.952  28.697  34.468  1.00  0.00     0.173 A 
ATOM     83  C   UNL A   1      44.765  26.764  35.260  1.00  0.00     0.173 A 
ATOM     84  F   UNL A   1      46.016  29.821  33.738  1.00  0.00    -0.203 F 
ATOM     85  C   UNL A   1      47.087  28.287  35.163  1.00  0.00     0.198 A 
ATOM     86  C   UNL A   1      45.893  26.371  35.979  1.00  0.00     0.198 A 
ATOM     87  F   UNL A   1      43.662  26.004  35.323  1.00  0.00    -0.203 F 
ATOM     88  F   UNL A   1      48.215  29.007  35.086  1.00  0.00    -0.200 F 
ATOM     89  C   UNL A   1      47.056  27.125  35.918  1.00  0.00     0.200 A 
ATOM     90  F   UNL A   1      45.857  25.258  36.724  1.00  0.00    -0.200 F 
ATOM     91  F   UNL A   1      48.149  26.730  36.585  1.00  0.00    -0.200 F 
ENDBRANCH  58  81
ENDBRANCH  32  33
ENDBRANCH  25  27
ENDBRANCH  24  25
ENDBRANCH  23  24
ENDBRANCH  22  23
ENDBRANCH   1  22
TORSDOF 16
ENDMDL
