MODEL 1
REMARK VINA RESULT:     -12.9      0.000      0.000
REMARK SMILES C[C@H]1CC[C@@](C[C@@H]2CCCc3ccccc32)(C(=O)OCCOC(=O)c2ccc(-c3c4nc(c(-c5c(F)c(F)c(F)c(F)c5F)c5ccc([nH]5)c(-c5c(F)c(F)c(F)c(F)c5F)c5nc(c(-c6c(F)c(F)c(F)c(F)c6F)c6ccc3[nH]6)C=C5)C=C4)cc2)C1
REMARK SMILES IDX 20 1 19 2 17 3 18 4 5 5 1 6 2 7 3 8 88 9 4 10 6 11 7 12 8 13
REMARK SMILES IDX 16 14 9 15 11 16 15 17 10 18 12 19 14 20 13 21 21 22 22 23
REMARK SMILES IDX 23 24 24 25 25 26 26 27 87 28 27 29 86 30 28 31 29 32 30 33
REMARK SMILES IDX 80 34 31 35 85 36 79 37 81 38 32 39 84 40 78 41 77 42 33 44
REMARK SMILES IDX 65 45 45 46 64 47 46 48 49 49 63 50 82 51 47 52 48 53 62 55
REMARK SMILES IDX 83 56 50 57 34 58 35 59 43 60 36 61 37 62 41 63 44 64 38 65
REMARK SMILES IDX 39 66 42 67 40 68 66 69 67 70 75 71 68 72 69 73 73 74 76 75
REMARK SMILES IDX 70 76 71 77 74 78 72 79 51 80 52 81 60 82 53 83 54 84 58 85
REMARK SMILES IDX 61 86 55 87 56 88 59 89 57 90
REMARK H PARENT 81 43 49 54
REMARK Flexibility Score: inf
ROOT
ATOM      1  C   UNL A   1      31.487  28.697  27.033  1.00  0.00     0.274 C 
ENDROOT
BRANCH   1   2
ATOM      2  O   UNL A   1      32.095  27.454  26.628  1.00  0.00    -0.462 OA
BRANCH   2   3
ATOM      3  C   UNL A   1      31.709  26.921  25.444  1.00  0.00     0.312 C 
ATOM      4  O   UNL A   1      30.540  26.840  25.083  1.00  0.00    -0.252 OA
BRANCH   3   5
ATOM      5  C   UNL A   1      32.889  26.374  24.621  1.00  0.00     0.069 C 
ATOM      6  C   UNL A   1      32.605  25.684  20.846  1.00  0.00     0.007 C 
ATOM      7  C   UNL A   1      33.221  25.917  22.216  1.00  0.00    -0.013 C 
ATOM      8  C   UNL A   1      33.574  27.372  22.453  1.00  0.00     0.004 C 
ATOM      9  C   UNL A   1      32.285  25.614  23.388  1.00  0.00     0.022 C 
ATOM     10  C   UNL A   1      33.802  27.438  23.958  1.00  0.00     0.019 C 
BRANCH   5  11
ATOM     11  C   UNL A   1      33.630  25.343  25.527  1.00  0.00     0.027 C 
BRANCH  11  12
ATOM     12  C   UNL A   1      33.432  23.801  25.393  1.00  0.00     0.020 C 
ATOM     13  C   UNL A   1      32.648  23.116  26.524  1.00  0.00     0.009 C 
ATOM     14  C   UNL A   1      34.702  23.066  25.002  1.00  0.00    -0.042 A 
ATOM     15  C   UNL A   1      33.525  22.489  27.601  1.00  0.00     0.005 C 
ATOM     16  C   UNL A   1      35.260  22.060  25.810  1.00  0.00    -0.045 A 
ATOM     17  C   UNL A   1      35.357  23.420  23.808  1.00  0.00     0.004 A 
ATOM     18  C   UNL A   1      34.549  21.526  27.025  1.00  0.00     0.036 C 
ATOM     19  C   UNL A   1      36.489  21.486  25.445  1.00  0.00     0.004 A 
ATOM     20  C   UNL A   1      36.573  22.840  23.454  1.00  0.00     0.000 A 
ATOM     21  C   UNL A   1      37.148  21.886  24.283  1.00  0.00     0.000 A 
ENDBRANCH  11  12
ENDBRANCH   5  11
ENDBRANCH   3   5
ENDBRANCH   2   3
ENDBRANCH   1   2
BRANCH   1  22
ATOM     22  C   UNL A   1      31.794  29.760  25.978  1.00  0.00     0.275 C 
BRANCH  22  23
ATOM     23  O   UNL A   1      33.167  30.153  26.142  1.00  0.00    -0.458 OA
BRANCH  23  24
ATOM     24  C   UNL A   1      33.372  31.223  26.942  1.00  0.00     0.338 C 
ATOM     25  O   UNL A   1      32.596  32.108  27.243  1.00  0.00    -0.246 OA
BRANCH  24  26
ATOM     26  C   UNL A   1      34.671  31.017  27.593  1.00  0.00     0.060 A 
ATOM     27  C   UNL A   1      34.998  29.713  27.962  1.00  0.00     0.016 A 
ATOM     28  C   UNL A   1      35.526  32.073  27.879  1.00  0.00     0.016 A 
ATOM     29  C   UNL A   1      36.162  29.456  28.673  1.00  0.00     0.010 A 
ATOM     30  C   UNL A   1      36.728  31.805  28.541  1.00  0.00     0.010 A 
ATOM     31  C   UNL A   1      37.045  30.498  28.964  1.00  0.00    -0.014 A 
BRANCH  31  32
ATOM     32  C   UNL A   1      38.260  30.237  29.777  1.00  0.00     0.031 A 
ATOM     33  C   UNL A   1      39.353  29.382  29.205  1.00  0.00     0.074 A 
ATOM     34  C   UNL A   1      38.402  30.774  31.004  1.00  0.00     0.049 A 
ATOM     35  N   UNL A   1      40.366  28.815  29.806  1.00  0.00    -0.248 NA
ATOM     36  C   UNL A   1      39.283  29.115  27.759  1.00  0.00     0.031 C 
ATOM     37  C   UNL A   1      37.459  31.692  31.644  1.00  0.00     0.029 A 
ATOM     38  N   UNL A   1      39.400  30.622  31.933  1.00  0.00    -0.354 N 
ATOM     39  C   UNL A   1      41.009  28.066  28.830  1.00  0.00     0.074 A 
ATOM     40  C   UNL A   1      40.280  28.260  27.595  1.00  0.00     0.031 C 
ATOM     41  C   UNL A   1      37.934  32.039  32.851  1.00  0.00     0.029 A 
ATOM     42  C   UNL A   1      39.165  31.299  33.106  1.00  0.00     0.049 A 
ATOM     43  H   UNL A   1      40.208  30.082  31.775  1.00  0.00     0.167 HD
ATOM     44  C   UNL A   1      42.101  27.277  28.965  1.00  0.00     0.037 A 
ATOM     45  C   UNL A   1      39.835  31.279  34.273  1.00  0.00     0.037 A 
ATOM     46  C   UNL A   1      42.850  27.145  30.188  1.00  0.00     0.049 A 
ATOM     47  C   UNL A   1      41.039  30.388  34.405  1.00  0.00     0.074 A 
ATOM     48  C   UNL A   1      43.962  26.362  30.444  1.00  0.00     0.029 A 
ATOM     49  N   UNL A   1      42.571  27.839  31.357  1.00  0.00    -0.354 N 
ATOM     50  N   UNL A   1      41.581  29.594  33.515  1.00  0.00    -0.248 NA
ATOM     51  C   UNL A   1      41.709  30.371  35.713  1.00  0.00     0.031 C 
ATOM     52  C   UNL A   1      44.343  26.566  31.776  1.00  0.00     0.029 A 
ATOM     53  C   UNL A   1      43.492  27.505  32.337  1.00  0.00     0.049 A 
ATOM     54  H   UNL A   1      41.830  28.476  31.473  1.00  0.00     0.167 HD
ATOM     55  C   UNL A   1      42.656  28.986  34.148  1.00  0.00     0.074 A 
ATOM     56  C   UNL A   1      42.705  29.524  35.493  1.00  0.00     0.031 C 
ATOM     57  C   UNL A   1      43.519  28.058  33.666  1.00  0.00     0.037 A 
BRANCH  44  58
ATOM     58  C   UNL A   1      42.517  26.461  27.777  1.00  0.00     0.064 A 
ATOM     59  C   UNL A   1      43.466  26.919  26.852  1.00  0.00     0.173 A 
ATOM     60  C   UNL A   1      41.958  25.190  27.568  1.00  0.00     0.173 A 
ATOM     61  F   UNL A   1      44.015  28.135  26.994  1.00  0.00    -0.203 F 
ATOM     62  C   UNL A   1      43.819  26.147  25.747  1.00  0.00     0.198 A 
ATOM     63  C   UNL A   1      42.334  24.410  26.479  1.00  0.00     0.198 A 
ATOM     64  F   UNL A   1      41.046  24.704  28.424  1.00  0.00    -0.203 F 
ATOM     65  F   UNL A   1      44.688  26.627  24.847  1.00  0.00    -0.200 F 
ATOM     66  C   UNL A   1      43.257  24.892  25.565  1.00  0.00     0.200 A 
ATOM     67  F   UNL A   1      41.797  23.193  26.311  1.00  0.00    -0.200 F 
ATOM     68  F   UNL A   1      43.600  24.151  24.503  1.00  0.00    -0.200 F 
ENDBRANCH  44  58
BRANCH  45  69
ATOM     69  C   UNL A   1      39.347  32.089  35.420  1.00  0.00     0.064 A 
ATOM     70  C   UNL A   1      38.523  31.527  36.403  1.00  0.00     0.173 A 
ATOM     71  C   UNL A   1      39.707  33.438  35.565  1.00  0.00     0.173 A 
ATOM     72  F   UNL A   1      38.127  30.250  36.295  1.00  0.00    -0.203 F 
ATOM     73  C   UNL A   1      38.072  32.283  37.484  1.00  0.00     0.198 A 
ATOM     74  C   UNL A   1      39.282  34.184  36.662  1.00  0.00     0.198 A 
ATOM     75  F   UNL A   1      40.491  34.026  34.651  1.00  0.00    -0.203 F 
ATOM     76  F   UNL A   1      37.253  31.731  38.391  1.00  0.00    -0.200 F 
ATOM     77  C   UNL A   1      38.461  33.608  37.618  1.00  0.00     0.200 A 
ATOM     78  F   UNL A   1      39.672  35.460  36.794  1.00  0.00    -0.200 F 
ATOM     79  F   UNL A   1      38.038  34.330  38.664  1.00  0.00    -0.200 F 
ENDBRANCH  45  69
BRANCH  57  80
ATOM     80  C   UNL A   1      44.601  27.591  34.592  1.00  0.00     0.064 A 
ATOM     81  C   UNL A   1      45.848  28.229  34.641  1.00  0.00     0.173 A 
ATOM     82  C   UNL A   1      44.373  26.515  35.462  1.00  0.00     0.173 A 
ATOM     83  F   UNL A   1      46.117  29.253  33.816  1.00  0.00    -0.203 F 
ATOM     84  C   UNL A   1      46.841  27.789  35.514  1.00  0.00     0.198 A 
ATOM     85  C   UNL A   1      45.359  26.094  36.350  1.00  0.00     0.198 A 
ATOM     86  F   UNL A   1      43.194  25.877  35.455  1.00  0.00    -0.203 F 
ATOM     87  F   UNL A   1      48.041  28.385  35.515  1.00  0.00    -0.200 F 
ATOM     88  C   UNL A   1      46.593  26.727  36.371  1.00  0.00     0.200 A 
ATOM     89  F   UNL A   1      45.116  25.073  37.183  1.00  0.00    -0.200 F 
ATOM     90  F   UNL A   1      47.548  26.307  37.211  1.00  0.00    -0.200 F 
ENDBRANCH  57  80
ENDBRANCH  31  32
ENDBRANCH  24  26
ENDBRANCH  23  24
ENDBRANCH  22  23
ENDBRANCH   1  22
TORSDOF 13
ENDMDL
MODEL 2
REMARK VINA RESULT:     -12.9      0.086      1.603
REMARK SMILES C[C@H]1CC[C@@](C[C@@H]2CCCc3ccccc32)(C(=O)OCCOC(=O)c2ccc(-c3c4nc(c(-c5c(F)c(F)c(F)c(F)c5F)c5ccc([nH]5)c(-c5c(F)c(F)c(F)c(F)c5F)c5nc(c(-c6c(F)c(F)c(F)c(F)c6F)c6ccc3[nH]6)C=C5)C=C4)cc2)C1
REMARK SMILES IDX 20 1 19 2 17 3 18 4 5 5 1 6 2 7 3 8 88 9 4 10 6 11 7 12 8 13
REMARK SMILES IDX 16 14 9 15 11 16 15 17 10 18 12 19 14 20 13 21 21 22 22 23
REMARK SMILES IDX 23 24 24 25 25 26 26 27 87 28 27 29 86 30 28 31 29 32 30 33
REMARK SMILES IDX 80 34 31 35 85 36 79 37 81 38 32 39 84 40 78 41 77 42 33 44
REMARK SMILES IDX 65 45 45 46 64 47 46 48 49 49 63 50 82 51 47 52 48 53 62 55
REMARK SMILES IDX 83 56 50 57 34 58 35 59 43 60 36 61 37 62 41 63 44 64 38 65
REMARK SMILES IDX 39 66 42 67 40 68 66 69 67 70 75 71 68 72 69 73 73 74 76 75
REMARK SMILES IDX 70 76 71 77 74 78 72 79 51 80 52 81 60 82 53 83 54 84 58 85
REMARK SMILES IDX 61 86 55 87 56 88 59 89 57 90
REMARK H PARENT 81 43 49 54
REMARK Flexibility Score: inf
ROOT
ATOM      1  C   UNL A   1      31.481  28.705  27.029  1.00  0.00     0.274 C 
ENDROOT
BRANCH   1   2
ATOM      2  O   UNL A   1      32.092  27.463  26.626  1.00  0.00    -0.462 OA
BRANCH   2   3
ATOM      3  C   UNL A   1      31.707  26.926  25.444  1.00  0.00     0.312 C 
ATOM      4  O   UNL A   1      30.538  26.842  25.083  1.00  0.00    -0.252 OA
BRANCH   3   5
ATOM      5  C   UNL A   1      32.887  26.378  24.623  1.00  0.00     0.069 C 
ATOM      6  C   UNL A   1      32.608  25.687  20.847  1.00  0.00     0.007 C 
ATOM      7  C   UNL A   1      33.222  25.921  22.218  1.00  0.00    -0.013 C 
ATOM      8  C   UNL A   1      33.576  27.375  22.455  1.00  0.00     0.004 C 
ATOM      9  C   UNL A   1      32.285  25.618  23.390  1.00  0.00     0.022 C 
ATOM     10  C   UNL A   1      33.801  27.442  23.960  1.00  0.00     0.019 C 
BRANCH   5  11
ATOM     11  C   UNL A   1      33.627  25.348  25.530  1.00  0.00     0.027 C 
BRANCH  11  12
ATOM     12  C   UNL A   1      33.431  23.805  25.395  1.00  0.00     0.020 C 
ATOM     13  C   UNL A   1      32.649  23.119  26.526  1.00  0.00     0.009 C 
ATOM     14  C   UNL A   1      34.702  23.072  25.002  1.00  0.00    -0.042 A 
ATOM     15  C   UNL A   1      33.527  22.492  27.602  1.00  0.00     0.005 C 
ATOM     16  C   UNL A   1      35.261  22.066  25.809  1.00  0.00    -0.045 A 
ATOM     17  C   UNL A   1      35.356  23.428  23.807  1.00  0.00     0.004 A 
ATOM     18  C   UNL A   1      34.552  21.530  27.024  1.00  0.00     0.036 C 
ATOM     19  C   UNL A   1      36.491  21.494  25.443  1.00  0.00     0.004 A 
ATOM     20  C   UNL A   1      36.571  22.850  23.452  1.00  0.00     0.000 A 
ATOM     21  C   UNL A   1      37.149  21.895  24.281  1.00  0.00     0.000 A 
ENDBRANCH  11  12
ENDBRANCH   5  11
ENDBRANCH   3   5
ENDBRANCH   2   3
ENDBRANCH   1   2
BRANCH   1  22
ATOM     22  C   UNL A   1      31.785  29.766  25.972  1.00  0.00     0.275 C 
BRANCH  22  23
ATOM     23  O   UNL A   1      33.155  30.168  26.140  1.00  0.00    -0.458 OA
BRANCH  23  24
ATOM     24  C   UNL A   1      33.352  31.233  26.949  1.00  0.00     0.338 C 
ATOM     25  O   UNL A   1      32.569  32.110  27.257  1.00  0.00    -0.246 OA
BRANCH  24  26
ATOM     26  C   UNL A   1      34.651  31.030  27.601  1.00  0.00     0.060 A 
ATOM     27  C   UNL A   1      34.986  29.726  27.961  1.00  0.00     0.016 A 
ATOM     28  C   UNL A   1      35.498  32.090  27.897  1.00  0.00     0.016 A 
ATOM     29  C   UNL A   1      36.149  29.470  28.672  1.00  0.00     0.010 A 
ATOM     30  C   UNL A   1      36.701  31.825  28.559  1.00  0.00     0.010 A 
ATOM     31  C   UNL A   1      37.026  30.516  28.973  1.00  0.00    -0.014 A 
BRANCH  31  32
ATOM     32  C   UNL A   1      38.241  30.257  29.786  1.00  0.00     0.031 A 
ATOM     33  C   UNL A   1      39.339  29.412  29.210  1.00  0.00     0.074 A 
ATOM     34  C   UNL A   1      38.378  30.786  31.017  1.00  0.00     0.049 A 
ATOM     35  N   UNL A   1      40.355  28.847  29.808  1.00  0.00    -0.248 NA
ATOM     36  C   UNL A   1      39.274  29.154  27.762  1.00  0.00     0.031 C 
ATOM     37  C   UNL A   1      37.429  31.694  31.661  1.00  0.00     0.029 A 
ATOM     38  N   UNL A   1      39.376  30.634  31.946  1.00  0.00    -0.354 N 
ATOM     39  C   UNL A   1      41.004  28.108  28.828  1.00  0.00     0.074 A 
ATOM     40  C   UNL A   1      40.276  28.306  27.594  1.00  0.00     0.031 C 
ATOM     41  C   UNL A   1      37.900  32.037  32.871  1.00  0.00     0.029 A 
ATOM     42  C   UNL A   1      39.135  31.301  33.123  1.00  0.00     0.049 A 
ATOM     43  H   UNL A   1      40.186  30.099  31.786  1.00  0.00     0.167 HD
ATOM     44  C   UNL A   1      42.101  27.324  28.960  1.00  0.00     0.037 A 
ATOM     45  C   UNL A   1      39.803  31.278  34.291  1.00  0.00     0.037 A 
ATOM     46  C   UNL A   1      42.848  27.188  30.183  1.00  0.00     0.049 A 
ATOM     47  C   UNL A   1      41.012  30.393  34.419  1.00  0.00     0.074 A 
ATOM     48  C   UNL A   1      43.964  26.410  30.436  1.00  0.00     0.029 A 
ATOM     49  N   UNL A   1      42.564  27.873  31.357  1.00  0.00    -0.354 N 
ATOM     50  N   UNL A   1      41.560  29.608  33.524  1.00  0.00    -0.248 NA
ATOM     51  C   UNL A   1      41.680  30.371  35.727  1.00  0.00     0.031 C 
ATOM     52  C   UNL A   1      44.342  26.607  31.769  1.00  0.00     0.029 A 
ATOM     53  C   UNL A   1      43.485  27.538  32.336  1.00  0.00     0.049 A 
ATOM     54  H   UNL A   1      41.818  28.504  31.476  1.00  0.00     0.167 HD
ATOM     55  C   UNL A   1      42.638  29.002  34.155  1.00  0.00     0.074 A 
ATOM     56  C   UNL A   1      42.682  29.531  35.504  1.00  0.00     0.031 C 
ATOM     57  C   UNL A   1      43.507  28.082  33.668  1.00  0.00     0.037 A 
BRANCH  44  58
ATOM     58  C   UNL A   1      42.522  26.519  27.767  1.00  0.00     0.064 A 
ATOM     59  C   UNL A   1      42.005  25.241  27.509  1.00  0.00     0.173 A 
ATOM     60  C   UNL A   1      43.457  27.043  26.861  1.00  0.00     0.173 A 
ATOM     61  F   UNL A   1      41.125  24.686  28.355  1.00  0.00    -0.203 F 
ATOM     62  C   UNL A   1      42.429  24.507  26.403  1.00  0.00     0.198 A 
ATOM     63  C   UNL A   1      43.857  26.319  25.741  1.00  0.00     0.198 A 
ATOM     64  F   UNL A   1      43.983  28.261  27.061  1.00  0.00    -0.203 F 
ATOM     65  F   UNL A   1      41.961  23.268  26.204  1.00  0.00    -0.200 F 
ATOM     66  C   UNL A   1      43.350  25.050  25.518  1.00  0.00     0.200 A 
ATOM     67  F   UNL A   1      44.739  26.849  24.882  1.00  0.00    -0.200 F 
ATOM     68  F   UNL A   1      43.754  24.343  24.454  1.00  0.00    -0.200 F 
ENDBRANCH  44  58
BRANCH  45  69
ATOM     69  C   UNL A   1      39.309  32.077  35.443  1.00  0.00     0.064 A 
ATOM     70  C   UNL A   1      38.486  31.504  36.420  1.00  0.00     0.173 A 
ATOM     71  C   UNL A   1      39.660  33.427  35.597  1.00  0.00     0.173 A 
ATOM     72  F   UNL A   1      38.097  30.225  36.303  1.00  0.00    -0.203 F 
ATOM     73  C   UNL A   1      38.029  32.250  37.506  1.00  0.00     0.198 A 
ATOM     74  C   UNL A   1      39.230  34.163  36.698  1.00  0.00     0.198 A 
ATOM     75  F   UNL A   1      40.443  34.026  34.688  1.00  0.00    -0.203 F 
ATOM     76  F   UNL A   1      37.212  31.687  38.407  1.00  0.00    -0.200 F 
ATOM     77  C   UNL A   1      38.410  33.576  37.649  1.00  0.00     0.200 A 
ATOM     78  F   UNL A   1      39.612  35.440  36.840  1.00  0.00    -0.200 F 
ATOM     79  F   UNL A   1      37.982  34.289  38.700  1.00  0.00    -0.200 F 
ENDBRANCH  45  69
BRANCH  57  80
ATOM     80  C   UNL A   1      44.590  27.615  34.593  1.00  0.00     0.064 A 
ATOM     81  C   UNL A   1      44.435  26.466  35.380  1.00  0.00     0.173 A 
ATOM     82  C   UNL A   1      45.807  28.309  34.666  1.00  0.00     0.173 A 
ATOM     83  F   UNL A   1      43.282  25.780  35.355  1.00  0.00    -0.203 F 
ATOM     84  C   UNL A   1      45.454  26.039  36.228  1.00  0.00     0.198 A 
ATOM     85  C   UNL A   1      46.832  27.865  35.497  1.00  0.00     0.198 A 
ATOM     86  F   UNL A   1      46.004  29.411  33.928  1.00  0.00    -0.203 F 
ATOM     87  F   UNL A   1      45.270  24.963  37.005  1.00  0.00    -0.200 F 
ATOM     88  C   UNL A   1      46.653  26.736  36.281  1.00  0.00     0.200 A 
ATOM     89  F   UNL A   1      47.993  28.533  35.541  1.00  0.00    -0.200 F 
ATOM     90  F   UNL A   1      47.632  26.322  37.095  1.00  0.00    -0.200 F 
ENDBRANCH  57  80
ENDBRANCH  31  32
ENDBRANCH  24  26
ENDBRANCH  23  24
ENDBRANCH  22  23
ENDBRANCH   1  22
TORSDOF 13
ENDMDL
MODEL 3
REMARK VINA RESULT:     -12.6      1.084      2.321
REMARK SMILES C[C@H]1CC[C@@](C[C@@H]2CCCc3ccccc32)(C(=O)OCCOC(=O)c2ccc(-c3c4nc(c(-c5c(F)c(F)c(F)c(F)c5F)c5ccc([nH]5)c(-c5c(F)c(F)c(F)c(F)c5F)c5nc(c(-c6c(F)c(F)c(F)c(F)c6F)c6ccc3[nH]6)C=C5)C=C4)cc2)C1
REMARK SMILES IDX 20 1 19 2 17 3 18 4 5 5 1 6 2 7 3 8 88 9 4 10 6 11 7 12 8 13
REMARK SMILES IDX 16 14 9 15 11 16 15 17 10 18 12 19 14 20 13 21 21 22 22 23
REMARK SMILES IDX 23 24 24 25 25 26 26 27 87 28 27 29 86 30 28 31 29 32 30 33
REMARK SMILES IDX 80 34 31 35 85 36 79 37 81 38 32 39 84 40 78 41 77 42 33 44
REMARK SMILES IDX 65 45 45 46 64 47 46 48 49 49 63 50 82 51 47 52 48 53 62 55
REMARK SMILES IDX 83 56 50 57 34 58 35 59 43 60 36 61 37 62 41 63 44 64 38 65
REMARK SMILES IDX 39 66 42 67 40 68 66 69 67 70 75 71 68 72 69 73 73 74 76 75
REMARK SMILES IDX 70 76 71 77 74 78 72 79 51 80 52 81 60 82 53 83 54 84 58 85
REMARK SMILES IDX 61 86 55 87 56 88 59 89 57 90
REMARK H PARENT 81 43 49 54
REMARK Flexibility Score: inf
ROOT
ATOM      1  C   UNL A   1      32.416  29.075  23.692  1.00  0.00     0.274 C 
ENDROOT
BRANCH   1   2
ATOM      2  O   UNL A   1      33.268  27.952  23.995  1.00  0.00    -0.462 OA
BRANCH   2   3
ATOM      3  C   UNL A   1      33.392  26.984  23.057  1.00  0.00     0.312 C 
ATOM      4  O   UNL A   1      33.927  27.157  21.967  1.00  0.00    -0.252 OA
BRANCH   3   5
ATOM      5  C   UNL A   1      32.740  25.655  23.478  1.00  0.00     0.069 C 
ATOM      6  C   UNL A   1      29.952  25.493  26.126  1.00  0.00     0.007 C 
ATOM      7  C   UNL A   1      30.872  25.079  24.989  1.00  0.00    -0.013 C 
ATOM      8  C   UNL A   1      30.278  25.369  23.626  1.00  0.00     0.004 C 
ATOM      9  C   UNL A   1      32.196  25.845  24.938  1.00  0.00     0.022 C 
ATOM     10  C   UNL A   1      31.471  25.244  22.687  1.00  0.00     0.019 C 
BRANCH   5  11
ATOM     11  C   UNL A   1      33.874  24.586  23.505  1.00  0.00     0.027 C 
BRANCH  11  12
ATOM     12  C   UNL A   1      34.292  23.826  24.803  1.00  0.00     0.020 C 
ATOM     13  C   UNL A   1      35.723  24.078  25.307  1.00  0.00     0.009 C 
ATOM     14  C   UNL A   1      33.902  22.359  24.790  1.00  0.00    -0.042 A 
ATOM     15  C   UNL A   1      36.735  23.028  24.866  1.00  0.00     0.005 C 
ATOM     16  C   UNL A   1      34.856  21.333  24.908  1.00  0.00    -0.045 A 
ATOM     17  C   UNL A   1      32.548  22.012  24.625  1.00  0.00     0.004 A 
ATOM     18  C   UNL A   1      36.299  21.618  25.229  1.00  0.00     0.036 C 
ATOM     19  C   UNL A   1      34.447  19.995  24.789  1.00  0.00     0.004 A 
ATOM     20  C   UNL A   1      32.154  20.681  24.513  1.00  0.00     0.000 A 
ATOM     21  C   UNL A   1      33.107  19.672  24.576  1.00  0.00     0.000 A 
ENDBRANCH  11  12
ENDBRANCH   5  11
ENDBRANCH   3   5
ENDBRANCH   2   3
ENDBRANCH   1   2
BRANCH   1  22
ATOM     22  C   UNL A   1      31.944  29.701  25.004  1.00  0.00     0.275 C 
BRANCH  22  23
ATOM     23  O   UNL A   1      33.043  29.653  25.930  1.00  0.00    -0.458 OA
BRANCH  23  24
ATOM     24  C   UNL A   1      33.212  30.759  26.687  1.00  0.00     0.338 C 
ATOM     25  O   UNL A   1      32.407  31.629  26.954  1.00  0.00    -0.246 OA
BRANCH  24  26
ATOM     26  C   UNL A   1      34.515  30.621  27.347  1.00  0.00     0.060 A 
ATOM     27  C   UNL A   1      34.946  29.328  27.641  1.00  0.00     0.016 A 
ATOM     28  C   UNL A   1      35.275  31.725  27.713  1.00  0.00     0.016 A 
ATOM     29  C   UNL A   1      36.118  29.124  28.355  1.00  0.00     0.010 A 
ATOM     30  C   UNL A   1      36.487  31.516  28.378  1.00  0.00     0.010 A 
ATOM     31  C   UNL A   1      36.908  30.215  28.725  1.00  0.00    -0.014 A 
BRANCH  31  32
ATOM     32  C   UNL A   1      38.130  30.005  29.541  1.00  0.00     0.031 A 
ATOM     33  C   UNL A   1      39.250  29.178  28.981  1.00  0.00     0.074 A 
ATOM     34  C   UNL A   1      38.255  30.565  30.760  1.00  0.00     0.049 A 
ATOM     35  N   UNL A   1      40.281  28.652  29.590  1.00  0.00    -0.248 NA
ATOM     36  C   UNL A   1      39.189  28.887  27.540  1.00  0.00     0.031 C 
ATOM     37  C   UNL A   1      37.283  31.461  31.387  1.00  0.00     0.029 A 
ATOM     38  N   UNL A   1      39.257  30.459  31.691  1.00  0.00    -0.354 N 
ATOM     39  C   UNL A   1      40.948  27.910  28.625  1.00  0.00     0.074 A 
ATOM     40  C   UNL A   1      40.214  28.063  27.388  1.00  0.00     0.031 C 
ATOM     41  C   UNL A   1      37.746  31.841  32.588  1.00  0.00     0.029 A 
ATOM     42  C   UNL A   1      39.000  31.144  32.854  1.00  0.00     0.049 A 
ATOM     43  H   UNL A   1      40.081  29.942  31.541  1.00  0.00     0.167 HD
ATOM     44  C   UNL A   1      42.065  27.158  28.772  1.00  0.00     0.037 A 
ATOM     45  C   UNL A   1      39.670  31.163  34.021  1.00  0.00     0.037 A 
ATOM     46  C   UNL A   1      42.817  27.068  29.996  1.00  0.00     0.049 A 
ATOM     47  C   UNL A   1      40.902  30.313  34.166  1.00  0.00     0.074 A 
ATOM     48  C   UNL A   1      43.953  26.326  30.264  1.00  0.00     0.029 A 
ATOM     49  N   UNL A   1      42.516  27.770  31.155  1.00  0.00    -0.354 N 
ATOM     50  N   UNL A   1      41.469  29.524  33.287  1.00  0.00    -0.248 NA
ATOM     51  C   UNL A   1      41.572  30.337  35.473  1.00  0.00     0.031 C 
ATOM     52  C   UNL A   1      44.327  26.561  31.592  1.00  0.00     0.029 A 
ATOM     53  C   UNL A   1      43.447  27.480  32.140  1.00  0.00     0.049 A 
ATOM     54  H   UNL A   1      41.754  28.384  31.262  1.00  0.00     0.167 HD
ATOM     55  C   UNL A   1      42.564  28.960  33.929  1.00  0.00     0.074 A 
ATOM     56  C   UNL A   1      42.595  29.519  35.266  1.00  0.00     0.031 C 
ATOM     57  C   UNL A   1      43.456  28.054  33.460  1.00  0.00     0.037 A 
BRANCH  44  58
ATOM     58  C   UNL A   1      42.506  26.339  27.596  1.00  0.00     0.064 A 
ATOM     59  C   UNL A   1      41.959  25.078  27.317  1.00  0.00     0.173 A 
ATOM     60  C   UNL A   1      43.492  26.832  26.726  1.00  0.00     0.173 A 
ATOM     61  F   UNL A   1      41.029  24.552  28.128  1.00  0.00    -0.203 F 
ATOM     62  C   UNL A   1      42.402  24.331  26.227  1.00  0.00     0.198 A 
ATOM     63  C   UNL A   1      43.911  26.095  25.623  1.00  0.00     0.198 A 
ATOM     64  F   UNL A   1      44.048  28.033  26.947  1.00  0.00    -0.203 F 
ATOM     65  F   UNL A   1      41.902  23.106  26.010  1.00  0.00    -0.200 F 
ATOM     66  C   UNL A   1      43.373  24.843  25.379  1.00  0.00     0.200 A 
ATOM     67  F   UNL A   1      44.842  26.596  24.799  1.00  0.00    -0.200 F 
ATOM     68  F   UNL A   1      43.795  24.122  24.331  1.00  0.00    -0.200 F 
ENDBRANCH  44  58
BRANCH  45  69
ATOM     69  C   UNL A   1      39.156  31.974  35.156  1.00  0.00     0.064 A 
ATOM     70  C   UNL A   1      38.410  31.385  36.185  1.00  0.00     0.173 A 
ATOM     71  C   UNL A   1      39.412  33.351  35.243  1.00  0.00     0.173 A 
ATOM     72  F   UNL A   1      38.113  30.078  36.134  1.00  0.00    -0.203 F 
ATOM     73  C   UNL A   1      37.936  32.143  37.255  1.00  0.00     0.198 A 
ATOM     74  C   UNL A   1      38.965  34.101  36.328  1.00  0.00     0.198 A 
ATOM     75  F   UNL A   1      40.119  33.965  34.283  1.00  0.00    -0.203 F 
ATOM     76  F   UNL A   1      37.192  31.562  38.207  1.00  0.00    -0.200 F 
ATOM     77  C   UNL A   1      38.223  33.498  37.331  1.00  0.00     0.200 A 
ATOM     78  F   UNL A   1      39.257  35.407  36.403  1.00  0.00    -0.200 F 
ATOM     79  F   UNL A   1      37.777  34.222  38.366  1.00  0.00    -0.200 F 
ENDBRANCH  45  69
BRANCH  57  80
ATOM     80  C   UNL A   1      44.552  27.635  34.393  1.00  0.00     0.064 A 
ATOM     81  C   UNL A   1      44.436  26.490  35.191  1.00  0.00     0.173 A 
ATOM     82  C   UNL A   1      45.743  28.372  34.463  1.00  0.00     0.173 A 
ATOM     83  F   UNL A   1      43.308  25.763  35.170  1.00  0.00    -0.203 F 
ATOM     84  C   UNL A   1      45.466  26.108  36.047  1.00  0.00     0.198 A 
ATOM     85  C   UNL A   1      46.781  27.974  35.300  1.00  0.00     0.198 A 
ATOM     86  F   UNL A   1      45.903  29.473  33.714  1.00  0.00    -0.203 F 
ATOM     87  F   UNL A   1      45.318  25.033  36.834  1.00  0.00    -0.200 F 
ATOM     88  C   UNL A   1      46.640  26.847  36.096  1.00  0.00     0.200 A 
ATOM     89  F   UNL A   1      47.917  28.684  35.341  1.00  0.00    -0.200 F 
ATOM     90  F   UNL A   1      47.630  26.477  36.917  1.00  0.00    -0.200 F 
ENDBRANCH  57  80
ENDBRANCH  31  32
ENDBRANCH  24  26
ENDBRANCH  23  24
ENDBRANCH  22  23
ENDBRANCH   1  22
TORSDOF 13
ENDMDL
