MODEL 1
REMARK VINA RESULT:     -12.2      0.000      0.000
REMARK SMILES O=C(OCCOC(=O)[C@H]1CCCN1S(=O)(=O)c1ccccc1Cl)c1ccc(-c2c3nc(c(-c4c(F)c(F)c(F)c(F)c4F)c4ccc([nH]4)c(-c4c(F)c(F)c(F)c(F)c4F)c4nc(c(-c5c(F)c(F)c(F)c(F)c5F)c5ccc2[nH]5)C=C4)C=C3)cc1
REMARK SMILES IDX 4 1 3 2 2 3 1 4 24 5 25 6 86 7 26 8 85 9 27 10 28 11 29 12
REMARK SMILES IDX 79 13 30 14 84 15 78 16 80 17 31 18 83 19 77 20 76 21 32 23
REMARK SMILES IDX 64 24 44 25 63 26 45 27 48 28 62 29 81 30 46 31 47 32 61 34
REMARK SMILES IDX 82 35 49 36 33 37 34 38 42 39 35 40 36 41 40 42 43 43 37 44
REMARK SMILES IDX 38 45 41 46 39 47 65 48 66 49 74 50 67 51 68 52 72 53 75 54
REMARK SMILES IDX 69 55 70 56 73 57 71 58 50 59 51 60 59 61 52 62 53 63 57 64
REMARK SMILES IDX 60 65 54 66 55 67 58 68 56 69 5 70 6 71 7 72 8 73 9 74 10 75
REMARK SMILES IDX 13 76 11 77 12 78 14 79 15 80 16 81 17 82 18 83 22 84 19 85
REMARK SMILES IDX 21 86 23 87 20 88
REMARK H PARENT 80 22 48 33
REMARK Flexibility Score: inf
ROOT
ATOM      1  C   UNL A   1      31.569  32.205  27.097  1.00  0.00     0.275 C 
ENDROOT
BRANCH   1   2
ATOM      2  O   UNL A   1      32.474  33.319  27.050  1.00  0.00    -0.458 OA
BRANCH   2   3
ATOM      3  C   UNL A   1      33.280  33.838  28.004  1.00  0.00     0.338 C 
ATOM      4  O   UNL A   1      32.995  34.947  28.454  1.00  0.00    -0.246 OA
BRANCH   3   5
ATOM      5  C   UNL A   1      34.559  33.211  28.489  1.00  0.00     0.060 A 
ATOM      6  C   UNL A   1      35.869  33.599  28.181  1.00  0.00     0.016 A 
ATOM      7  C   UNL A   1      34.404  32.134  29.377  1.00  0.00     0.016 A 
ATOM      8  C   UNL A   1      36.978  33.009  28.810  1.00  0.00     0.010 A 
ATOM      9  C   UNL A   1      35.504  31.549  30.008  1.00  0.00     0.010 A 
ATOM     10  C   UNL A   1      36.802  31.996  29.749  1.00  0.00    -0.014 A 
BRANCH  10  11
ATOM     11  C   UNL A   1      37.954  31.301  30.371  1.00  0.00     0.031 A 
ATOM     12  C   UNL A   1      38.397  31.755  31.727  1.00  0.00     0.074 A 
ATOM     13  C   UNL A   1      38.609  30.307  29.735  1.00  0.00     0.049 A 
ATOM     14  N   UNL A   1      39.340  31.271  32.490  1.00  0.00    -0.248 NA
ATOM     15  C   UNL A   1      37.663  32.888  32.320  1.00  0.00     0.031 C 
ATOM     16  C   UNL A   1      38.240  29.742  28.443  1.00  0.00     0.029 A 
ATOM     17  N   UNL A   1      39.740  29.609  30.074  1.00  0.00    -0.354 N 
ATOM     18  C   UNL A   1      39.258  31.986  33.673  1.00  0.00     0.074 A 
ATOM     19  C   UNL A   1      38.270  33.023  33.486  1.00  0.00     0.031 C 
ATOM     20  C   UNL A   1      39.176  28.869  28.040  1.00  0.00     0.029 A 
ATOM     21  C   UNL A   1      40.181  28.757  29.085  1.00  0.00     0.049 A 
ATOM     22  H   UNL A   1      40.195  29.709  30.942  1.00  0.00     0.167 HD
ATOM     23  C   UNL A   1      39.896  31.744  34.839  1.00  0.00     0.037 A 
ATOM     24  C   UNL A   1      41.259  27.952  29.045  1.00  0.00     0.037 A 
ATOM     25  C   UNL A   1      40.910  30.740  34.991  1.00  0.00     0.049 A 
ATOM     26  C   UNL A   1      42.065  27.806  30.305  1.00  0.00     0.074 A 
ATOM     27  C   UNL A   1      41.647  30.415  36.114  1.00  0.00     0.029 A 
ATOM     28  N   UNL A   1      41.346  29.909  33.966  1.00  0.00    -0.354 N 
ATOM     29  N   UNL A   1      41.903  28.408  31.459  1.00  0.00    -0.248 NA
ATOM     30  C   UNL A   1      43.150  26.818  30.287  1.00  0.00     0.031 C 
ATOM     31  C   UNL A   1      42.565  29.423  35.753  1.00  0.00     0.029 A 
ATOM     32  C   UNL A   1      42.360  29.087  34.422  1.00  0.00     0.049 A 
ATOM     33  H   UNL A   1      40.985  29.906  33.049  1.00  0.00     0.167 HD
ATOM     34  C   UNL A   1      42.819  27.830  32.322  1.00  0.00     0.074 A 
ATOM     35  C   UNL A   1      43.532  26.825  31.556  1.00  0.00     0.031 C 
ATOM     36  C   UNL A   1      43.043  28.091  33.634  1.00  0.00     0.037 A 
BRANCH  23  37
ATOM     37  C   UNL A   1      39.478  32.575  36.013  1.00  0.00     0.064 A 
ATOM     38  C   UNL A   1      38.420  32.169  36.846  1.00  0.00     0.173 A 
ATOM     39  C   UNL A   1      40.095  33.801  36.287  1.00  0.00     0.173 A 
ATOM     40  F   UNL A   1      37.778  31.014  36.607  1.00  0.00    -0.203 F 
ATOM     41  C   UNL A   1      37.970  32.980  37.882  1.00  0.00     0.198 A 
ATOM     42  C   UNL A   1      39.661  34.597  37.344  1.00  0.00     0.198 A 
ATOM     43  F   UNL A   1      41.103  34.239  35.519  1.00  0.00    -0.203 F 
ATOM     44  F   UNL A   1      36.913  32.604  38.615  1.00  0.00    -0.200 F 
ATOM     45  C   UNL A   1      38.593  34.192  38.133  1.00  0.00     0.200 A 
ATOM     46  F   UNL A   1      40.264  35.769  37.589  1.00  0.00    -0.200 F 
ATOM     47  F   UNL A   1      38.153  34.980  39.124  1.00  0.00    -0.200 F 
ENDBRANCH  23  37
BRANCH  24  48
ATOM     48  C   UNL A   1      41.583  27.167  27.821  1.00  0.00     0.064 A 
ATOM     49  C   UNL A   1      41.094  25.866  27.636  1.00  0.00     0.173 A 
ATOM     50  C   UNL A   1      42.424  27.688  26.826  1.00  0.00     0.173 A 
ATOM     51  F   UNL A   1      40.289  25.316  28.557  1.00  0.00    -0.203 F 
ATOM     52  C   UNL A   1      41.468  25.102  26.530  1.00  0.00     0.198 A 
ATOM     53  C   UNL A   1      42.778  26.932  25.707  1.00  0.00     0.198 A 
ATOM     54  F   UNL A   1      42.913  28.931  26.943  1.00  0.00    -0.203 F 
ATOM     55  F   UNL A   1      41.031  23.840  26.413  1.00  0.00    -0.200 F 
ATOM     56  C   UNL A   1      42.310  25.634  25.567  1.00  0.00     0.200 A 
ATOM     57  F   UNL A   1      43.582  27.455  24.771  1.00  0.00    -0.200 F 
ATOM     58  F   UNL A   1      42.679  24.895  24.512  1.00  0.00    -0.200 F 
ENDBRANCH  24  48
BRANCH  36  59
ATOM     59  C   UNL A   1      44.070  27.248  34.327  1.00  0.00     0.064 A 
ATOM     60  C   UNL A   1      45.409  27.652  34.427  1.00  0.00     0.173 A 
ATOM     61  C   UNL A   1      43.697  26.037  34.931  1.00  0.00     0.173 A 
ATOM     62  F   UNL A   1      45.816  28.793  33.851  1.00  0.00    -0.203 F 
ATOM     63  C   UNL A   1      46.345  26.857  35.080  1.00  0.00     0.198 A 
ATOM     64  C   UNL A   1      44.628  25.266  35.617  1.00  0.00     0.198 A 
ATOM     65  F   UNL A   1      42.426  25.612  34.867  1.00  0.00    -0.203 F 
ATOM     66  F   UNL A   1      47.631  27.232  35.112  1.00  0.00    -0.200 F 
ATOM     67  C   UNL A   1      45.952  25.671  35.682  1.00  0.00     0.200 A 
ATOM     68  F   UNL A   1      44.243  24.129  36.213  1.00  0.00    -0.200 F 
ATOM     69  F   UNL A   1      46.854  24.913  36.321  1.00  0.00    -0.200 F 
ENDBRANCH  36  59
ENDBRANCH  10  11
ENDBRANCH   3   5
ENDBRANCH   2   3
ENDBRANCH   1   2
BRANCH   1  70
ATOM     70  C   UNL A   1      32.125  30.922  26.475  1.00  0.00     0.274 C 
BRANCH  70  71
ATOM     71  O   UNL A   1      32.250  29.868  27.443  1.00  0.00    -0.461 OA
BRANCH  71  72
ATOM     72  C   UNL A   1      31.897  28.596  27.076  1.00  0.00     0.324 C 
ATOM     73  O   UNL A   1      31.296  27.818  27.805  1.00  0.00    -0.250 OA
BRANCH  72  74
ATOM     74  C   UNL A   1      32.304  28.313  25.610  1.00  0.00     0.183 C 
ATOM     75  C   UNL A   1      33.653  27.622  25.541  1.00  0.00     0.034 C 
ATOM     76  N   UNL A   1      31.394  27.334  24.934  1.00  0.00    -0.184 NA
ATOM     77  C   UNL A   1      33.342  26.151  25.751  1.00  0.00     0.019 C 
ATOM     78  C   UNL A   1      31.862  25.990  25.414  1.00  0.00     0.103 C 
BRANCH  76  79
ATOM     79  S   UNL A   1      31.290  27.377  23.214  1.00  0.00     0.245 S 
ATOM     80  O   UNL A   1      32.516  27.960  22.720  1.00  0.00    -0.207 OA
ATOM     81  O   UNL A   1      30.937  26.032  22.797  1.00  0.00    -0.207 OA
BRANCH  79  82
ATOM     82  C   UNL A   1      29.906  28.422  22.840  1.00  0.00     0.101 A 
ATOM     83  C   UNL A   1      30.187  29.690  22.307  1.00  0.00     0.023 A 
ATOM     84  C   UNL A   1      28.581  28.085  23.126  1.00  0.00     0.061 A 
ATOM     85  C   UNL A   1      29.153  30.572  21.988  1.00  0.00     0.002 A 
ATOM     86  C   UNL A   1      27.544  28.944  22.732  1.00  0.00     0.022 A 
ATOM     87  Cl  UNL A   1      28.085  26.703  24.018  1.00  0.00    -0.083 Cl
ATOM     88  C   UNL A   1      27.829  30.183  22.164  1.00  0.00     0.002 A 
ENDBRANCH  79  82
ENDBRANCH  76  79
ENDBRANCH  72  74
ENDBRANCH  71  72
ENDBRANCH  70  71
ENDBRANCH   1  70
TORSDOF 13
ENDMDL
MODEL 2
REMARK VINA RESULT:     -12.1      3.810      6.140
REMARK SMILES O=C(OCCOC(=O)[C@H]1CCCN1S(=O)(=O)c1ccccc1Cl)c1ccc(-c2c3nc(c(-c4c(F)c(F)c(F)c(F)c4F)c4ccc([nH]4)c(-c4c(F)c(F)c(F)c(F)c4F)c4nc(c(-c5c(F)c(F)c(F)c(F)c5F)c5ccc2[nH]5)C=C4)C=C3)cc1
REMARK SMILES IDX 4 1 3 2 2 3 1 4 24 5 25 6 86 7 26 8 85 9 27 10 28 11 29 12
REMARK SMILES IDX 79 13 30 14 84 15 78 16 80 17 31 18 83 19 77 20 76 21 32 23
REMARK SMILES IDX 64 24 44 25 63 26 45 27 48 28 62 29 81 30 46 31 47 32 61 34
REMARK SMILES IDX 82 35 49 36 33 37 34 38 42 39 35 40 36 41 40 42 43 43 37 44
REMARK SMILES IDX 38 45 41 46 39 47 65 48 66 49 74 50 67 51 68 52 72 53 75 54
REMARK SMILES IDX 69 55 70 56 73 57 71 58 50 59 51 60 59 61 52 62 53 63 57 64
REMARK SMILES IDX 60 65 54 66 55 67 58 68 56 69 5 70 6 71 7 72 8 73 9 74 10 75
REMARK SMILES IDX 13 76 11 77 12 78 14 79 15 80 16 81 17 82 18 83 22 84 19 85
REMARK SMILES IDX 21 86 23 87 20 88
REMARK H PARENT 80 22 48 33
REMARK Flexibility Score: inf
ROOT
ATOM      1  C   UNL A   1      34.204  32.974  27.763  1.00  0.00     0.275 C 
ENDROOT
BRANCH   1   2
ATOM      2  O   UNL A   1      33.715  31.623  27.746  1.00  0.00    -0.458 OA
BRANCH   2   3
ATOM      3  C   UNL A   1      34.325  30.472  27.386  1.00  0.00     0.338 C 
ATOM      4  O   UNL A   1      33.696  29.685  26.680  1.00  0.00    -0.246 OA
BRANCH   3   5
ATOM      5  C   UNL A   1      35.681  30.027  27.865  1.00  0.00     0.060 A 
ATOM      6  C   UNL A   1      36.894  30.093  27.170  1.00  0.00     0.016 A 
ATOM      7  C   UNL A   1      35.721  29.518  29.174  1.00  0.00     0.016 A 
ATOM      8  C   UNL A   1      38.114  29.766  27.786  1.00  0.00     0.010 A 
ATOM      9  C   UNL A   1      36.932  29.196  29.792  1.00  0.00     0.010 A 
ATOM     10  C   UNL A   1      38.144  29.339  29.112  1.00  0.00    -0.014 A 
BRANCH  10  11
ATOM     11  C   UNL A   1      39.405  28.911  29.764  1.00  0.00     0.031 A 
ATOM     12  C   UNL A   1      39.892  29.708  30.935  1.00  0.00     0.074 A 
ATOM     13  C   UNL A   1      40.115  27.858  29.311  1.00  0.00     0.049 A 
ATOM     14  N   UNL A   1      40.933  29.499  31.696  1.00  0.00    -0.248 NA
ATOM     15  C   UNL A   1      39.086  30.879  31.323  1.00  0.00     0.031 C 
ATOM     16  C   UNL A   1      39.718  26.976  28.220  1.00  0.00     0.029 A 
ATOM     17  N   UNL A   1      41.335  27.359  29.692  1.00  0.00    -0.354 N 
ATOM     18  C   UNL A   1      40.859  30.461  32.690  1.00  0.00     0.074 A 
ATOM     19  C   UNL A   1      39.756  31.336  32.366  1.00  0.00     0.031 C 
ATOM     20  C   UNL A   1      40.710  26.117  27.940  1.00  0.00     0.029 A 
ATOM     21  C   UNL A   1      41.793  26.341  28.885  1.00  0.00     0.049 A 
ATOM     22  H   UNL A   1      41.837  27.698  30.468  1.00  0.00     0.167 HD
ATOM     23  C   UNL A   1      41.600  30.555  33.815  1.00  0.00     0.037 A 
ATOM     24  C   UNL A   1      42.945  25.646  28.926  1.00  0.00     0.037 A 
ATOM     25  C   UNL A   1      42.723  29.707  34.095  1.00  0.00     0.049 A 
ATOM     26  C   UNL A   1      43.849  25.870  30.106  1.00  0.00     0.074 A 
ATOM     27  C   UNL A   1      43.568  29.719  35.188  1.00  0.00     0.029 A 
ATOM     28  N   UNL A   1      43.171  28.700  33.248  1.00  0.00    -0.354 N 
ATOM     29  N   UNL A   1      43.706  26.709  31.104  1.00  0.00    -0.248 NA
ATOM     30  C   UNL A   1      45.028  25.003  30.211  1.00  0.00     0.031 C 
ATOM     31  C   UNL A   1      44.558  28.753  34.977  1.00  0.00     0.029 A 
ATOM     32  C   UNL A   1      44.297  28.099  33.781  1.00  0.00     0.049 A 
ATOM     33  H   UNL A   1      42.749  28.451  32.394  1.00  0.00     0.167 HD
ATOM     34  C   UNL A   1      44.737  26.430  31.987  1.00  0.00     0.074 A 
ATOM     35  C   UNL A   1      45.496  25.340  31.404  1.00  0.00     0.031 C 
ATOM     36  C   UNL A   1      45.024  27.010  33.178  1.00  0.00     0.037 A 
BRANCH  23  37
ATOM     37  C   UNL A   1      41.180  31.599  34.805  1.00  0.00     0.064 A 
ATOM     38  C   UNL A   1      40.160  31.340  35.738  1.00  0.00     0.173 A 
ATOM     39  C   UNL A   1      41.756  32.874  34.799  1.00  0.00     0.173 A 
ATOM     40  F   UNL A   1      39.558  30.141  35.766  1.00  0.00    -0.203 F 
ATOM     41  C   UNL A   1      39.706  32.334  36.599  1.00  0.00     0.198 A 
ATOM     42  C   UNL A   1      41.319  33.858  35.682  1.00  0.00     0.198 A 
ATOM     43  F   UNL A   1      42.726  33.175  33.924  1.00  0.00    -0.203 F 
ATOM     44  F   UNL A   1      38.684  32.084  37.428  1.00  0.00    -0.200 F 
ATOM     45  C   UNL A   1      40.288  33.591  36.572  1.00  0.00     0.200 A 
ATOM     46  F   UNL A   1      41.881  35.074  35.659  1.00  0.00    -0.200 F 
ATOM     47  F   UNL A   1      39.843  34.554  37.392  1.00  0.00    -0.200 F 
ENDBRANCH  23  37
BRANCH  24  48
ATOM     48  C   UNL A   1      43.263  24.628  27.887  1.00  0.00     0.064 A 
ATOM     49  C   UNL A   1      43.943  24.972  26.710  1.00  0.00     0.173 A 
ATOM     50  C   UNL A   1      42.858  23.292  28.032  1.00  0.00     0.173 A 
ATOM     51  F   UNL A   1      44.349  26.235  26.517  1.00  0.00    -0.203 F 
ATOM     52  C   UNL A   1      44.165  24.034  25.701  1.00  0.00     0.198 A 
ATOM     53  C   UNL A   1      43.104  22.348  27.033  1.00  0.00     0.198 A 
ATOM     54  F   UNL A   1      42.216  22.901  29.142  1.00  0.00    -0.203 F 
ATOM     55  F   UNL A   1      44.764  24.410  24.562  1.00  0.00    -0.200 F 
ATOM     56  C   UNL A   1      43.744  22.724  25.862  1.00  0.00     0.200 A 
ATOM     57  F   UNL A   1      42.707  21.078  27.197  1.00  0.00    -0.200 F 
ATOM     58  F   UNL A   1      43.947  21.828  24.887  1.00  0.00    -0.200 F 
ENDBRANCH  24  48
BRANCH  36  59
ATOM     59  C   UNL A   1      46.181  26.445  33.944  1.00  0.00     0.064 A 
ATOM     60  C   UNL A   1      47.479  26.957  33.803  1.00  0.00     0.173 A 
ATOM     61  C   UNL A   1      45.977  25.401  34.860  1.00  0.00     0.173 A 
ATOM     62  F   UNL A   1      47.725  27.943  32.928  1.00  0.00    -0.203 F 
ATOM     63  C   UNL A   1      48.538  26.422  34.529  1.00  0.00     0.198 A 
ATOM     64  C   UNL A   1      47.032  24.897  35.613  1.00  0.00     0.198 A 
ATOM     65  F   UNL A   1      44.753  24.882  35.035  1.00  0.00    -0.203 F 
ATOM     66  F   UNL A   1      49.780  26.885  34.335  1.00  0.00    -0.200 F 
ATOM     67  C   UNL A   1      48.312  25.400  35.440  1.00  0.00     0.200 A 
ATOM     68  F   UNL A   1      46.809  23.921  36.505  1.00  0.00    -0.200 F 
ATOM     69  F   UNL A   1      49.332  24.894  36.146  1.00  0.00    -0.200 F 
ENDBRANCH  36  59
ENDBRANCH  10  11
ENDBRANCH   3   5
ENDBRANCH   2   3
ENDBRANCH   1   2
BRANCH   1  70
ATOM     70  C   UNL A   1      33.117  34.028  27.979  1.00  0.00     0.274 C 
BRANCH  70  71
ATOM     71  O   UNL A   1      32.913  34.309  29.373  1.00  0.00    -0.461 OA
BRANCH  71  72
ATOM     72  C   UNL A   1      32.957  35.614  29.792  1.00  0.00     0.324 C 
ATOM     73  O   UNL A   1      32.252  36.501  29.331  1.00  0.00    -0.250 OA
BRANCH  72  74
ATOM     74  C   UNL A   1      33.964  35.785  30.954  1.00  0.00     0.183 C 
ATOM     75  C   UNL A   1      33.559  36.927  31.866  1.00  0.00     0.034 C 
ATOM     76  N   UNL A   1      33.983  34.609  31.882  1.00  0.00    -0.184 NA
ATOM     77  C   UNL A   1      32.546  36.317  32.818  1.00  0.00     0.019 C 
ATOM     78  C   UNL A   1      32.790  34.811  32.772  1.00  0.00     0.103 C 
BRANCH  76  79
ATOM     79  S   UNL A   1      35.409  34.331  32.809  1.00  0.00     0.245 S 
ATOM     80  O   UNL A   1      35.582  35.462  33.689  1.00  0.00    -0.207 OA
ATOM     81  O   UNL A   1      35.261  33.008  33.390  1.00  0.00    -0.207 OA
BRANCH  79  82
ATOM     82  C   UNL A   1      36.738  34.242  31.637  1.00  0.00     0.101 A 
ATOM     83  C   UNL A   1      36.422  33.792  30.345  1.00  0.00     0.023 A 
ATOM     84  C   UNL A   1      38.071  34.506  31.956  1.00  0.00     0.061 A 
ATOM     85  C   UNL A   1      37.413  33.691  29.366  1.00  0.00     0.002 A 
ATOM     86  C   UNL A   1      39.047  34.476  30.947  1.00  0.00     0.022 A 
ATOM     87  Cl  UNL A   1      38.668  34.800  33.540  1.00  0.00    -0.083 Cl
ATOM     88  C   UNL A   1      38.718  34.071  29.657  1.00  0.00     0.002 A 
ENDBRANCH  79  82
ENDBRANCH  76  79
ENDBRANCH  72  74
ENDBRANCH  71  72
ENDBRANCH  70  71
ENDBRANCH   1  70
TORSDOF 13
ENDMDL
MODEL 3
REMARK VINA RESULT:     -12.0      6.216     11.553
REMARK SMILES O=C(OCCOC(=O)[C@H]1CCCN1S(=O)(=O)c1ccccc1Cl)c1ccc(-c2c3nc(c(-c4c(F)c(F)c(F)c(F)c4F)c4ccc([nH]4)c(-c4c(F)c(F)c(F)c(F)c4F)c4nc(c(-c5c(F)c(F)c(F)c(F)c5F)c5ccc2[nH]5)C=C4)C=C3)cc1
REMARK SMILES IDX 4 1 3 2 2 3 1 4 24 5 25 6 86 7 26 8 85 9 27 10 28 11 29 12
REMARK SMILES IDX 79 13 30 14 84 15 78 16 80 17 31 18 83 19 77 20 76 21 32 23
REMARK SMILES IDX 64 24 44 25 63 26 45 27 48 28 62 29 81 30 46 31 47 32 61 34
REMARK SMILES IDX 82 35 49 36 33 37 34 38 42 39 35 40 36 41 40 42 43 43 37 44
REMARK SMILES IDX 38 45 41 46 39 47 65 48 66 49 74 50 67 51 68 52 72 53 75 54
REMARK SMILES IDX 69 55 70 56 73 57 71 58 50 59 51 60 59 61 52 62 53 63 57 64
REMARK SMILES IDX 60 65 54 66 55 67 58 68 56 69 5 70 6 71 7 72 8 73 9 74 10 75
REMARK SMILES IDX 13 76 11 77 12 78 14 79 15 80 16 81 17 82 18 83 22 84 19 85
REMARK SMILES IDX 21 86 23 87 20 88
REMARK H PARENT 80 22 48 33
REMARK Flexibility Score: inf
ROOT
ATOM      1  C   UNL A   1      39.693  20.481  26.078  1.00  0.00     0.275 C 
ENDROOT
BRANCH   1   2
ATOM      2  O   UNL A   1      39.353  21.658  26.828  1.00  0.00    -0.458 OA
BRANCH   2   3
ATOM      3  C   UNL A   1      38.913  22.868  26.414  1.00  0.00     0.338 C 
ATOM      4  O   UNL A   1      38.057  22.895  25.530  1.00  0.00    -0.246 OA
BRANCH   3   5
ATOM      5  C   UNL A   1      39.461  24.191  26.877  1.00  0.00     0.060 A 
ATOM      6  C   UNL A   1      40.213  25.109  26.133  1.00  0.00     0.016 A 
ATOM      7  C   UNL A   1      39.148  24.544  28.199  1.00  0.00     0.016 A 
ATOM      8  C   UNL A   1      40.549  26.372  26.649  1.00  0.00     0.010 A 
ATOM      9  C   UNL A   1      39.475  25.801  28.713  1.00  0.00     0.010 A 
ATOM     10  C   UNL A   1      40.160  26.738  27.935  1.00  0.00    -0.014 A 
BRANCH  10  11
ATOM     11  C   UNL A   1      40.567  28.031  28.535  1.00  0.00     0.031 A 
ATOM     12  C   UNL A   1      41.987  28.178  28.986  1.00  0.00     0.074 A 
ATOM     13  C   UNL A   1      39.689  29.042  28.700  1.00  0.00     0.049 A 
ATOM     14  N   UNL A   1      42.587  29.223  29.489  1.00  0.00    -0.248 NA
ATOM     15  C   UNL A   1      42.860  27.001  28.824  1.00  0.00     0.031 C 
ATOM     16  C   UNL A   1      38.301  29.040  28.254  1.00  0.00     0.029 A 
ATOM     17  N   UNL A   1      39.821  30.263  29.312  1.00  0.00    -0.354 N 
ATOM     18  C   UNL A   1      43.914  28.853  29.627  1.00  0.00     0.074 A 
ATOM     19  C   UNL A   1      44.013  27.453  29.286  1.00  0.00     0.031 C 
ATOM     20  C   UNL A   1      37.675  30.141  28.695  1.00  0.00     0.029 A 
ATOM     21  C   UNL A   1      38.642  30.969  29.399  1.00  0.00     0.049 A 
ATOM     22  H   UNL A   1      40.679  30.602  29.658  1.00  0.00     0.167 HD
ATOM     23  C   UNL A   1      44.970  29.638  29.936  1.00  0.00     0.037 A 
ATOM     24  C   UNL A   1      38.381  32.166  29.955  1.00  0.00     0.037 A 
ATOM     25  C   UNL A   1      44.846  31.015  30.320  1.00  0.00     0.049 A 
ATOM     26  C   UNL A   1      39.550  32.974  30.445  1.00  0.00     0.074 A 
ATOM     27  C   UNL A   1      45.837  31.907  30.679  1.00  0.00     0.029 A 
ATOM     28  N   UNL A   1      43.636  31.692  30.416  1.00  0.00    -0.354 N 
ATOM     29  N   UNL A   1      40.822  32.653  30.464  1.00  0.00    -0.248 NA
ATOM     30  C   UNL A   1      39.265  34.334  30.917  1.00  0.00     0.031 C 
ATOM     31  C   UNL A   1      45.222  33.110  31.043  1.00  0.00     0.029 A 
ATOM     32  C   UNL A   1      43.853  32.986  30.854  1.00  0.00     0.049 A 
ATOM     33  H   UNL A   1      42.755  31.307  30.204  1.00  0.00     0.167 HD
ATOM     34  C   UNL A   1      41.495  33.787  30.886  1.00  0.00     0.074 A 
ATOM     35  C   UNL A   1      40.488  34.807  31.111  1.00  0.00     0.031 C 
ATOM     36  C   UNL A   1      42.826  33.978  31.059  1.00  0.00     0.037 A 
BRANCH  23  37
ATOM     37  C   UNL A   1      46.323  29.002  29.839  1.00  0.00     0.064 A 
ATOM     38  C   UNL A   1      47.011  28.952  28.613  1.00  0.00     0.173 A 
ATOM     39  C   UNL A   1      46.921  28.400  30.951  1.00  0.00     0.173 A 
ATOM     40  F   UNL A   1      46.468  29.492  27.510  1.00  0.00    -0.203 F 
ATOM     41  C   UNL A   1      48.226  28.285  28.499  1.00  0.00     0.198 A 
ATOM     42  C   UNL A   1      48.152  27.758  30.840  1.00  0.00     0.198 A 
ATOM     43  F   UNL A   1      46.303  28.412  32.141  1.00  0.00    -0.203 F 
ATOM     44  F   UNL A   1      48.827  28.189  27.304  1.00  0.00    -0.200 F 
ATOM     45  C   UNL A   1      48.798  27.692  29.613  1.00  0.00     0.200 A 
ATOM     46  F   UNL A   1      48.706  27.185  31.917  1.00  0.00    -0.200 F 
ATOM     47  F   UNL A   1      49.963  27.038  29.502  1.00  0.00    -0.200 F 
ENDBRANCH  23  37
BRANCH  24  48
ATOM     48  C   UNL A   1      36.993  32.705  29.999  1.00  0.00     0.064 A 
ATOM     49  C   UNL A   1      36.477  33.482  28.952  1.00  0.00     0.173 A 
ATOM     50  C   UNL A   1      36.164  32.486  31.110  1.00  0.00     0.173 A 
ATOM     51  F   UNL A   1      37.228  33.727  27.868  1.00  0.00    -0.203 F 
ATOM     52  C   UNL A   1      35.208  34.056  29.033  1.00  0.00     0.198 A 
ATOM     53  C   UNL A   1      34.884  33.039  31.179  1.00  0.00     0.198 A 
ATOM     54  F   UNL A   1      36.598  31.740  32.135  1.00  0.00    -0.203 F 
ATOM     55  F   UNL A   1      34.769  34.844  28.042  1.00  0.00    -0.200 F 
ATOM     56  C   UNL A   1      34.413  33.836  30.147  1.00  0.00     0.200 A 
ATOM     57  F   UNL A   1      34.113  32.813  32.251  1.00  0.00    -0.200 F 
ATOM     58  F   UNL A   1      33.200  34.398  30.228  1.00  0.00    -0.200 F 
ENDBRANCH  24  48
BRANCH  36  59
ATOM     59  C   UNL A   1      43.266  35.350  31.471  1.00  0.00     0.064 A 
ATOM     60  C   UNL A   1      43.352  35.723  32.820  1.00  0.00     0.173 A 
ATOM     61  C   UNL A   1      43.642  36.291  30.499  1.00  0.00     0.173 A 
ATOM     62  F   UNL A   1      42.987  34.863  33.783  1.00  0.00    -0.203 F 
ATOM     63  C   UNL A   1      43.768  37.000  33.181  1.00  0.00     0.198 A 
ATOM     64  C   UNL A   1      44.096  37.553  30.867  1.00  0.00     0.198 A 
ATOM     65  F   UNL A   1      43.583  35.979  29.196  1.00  0.00    -0.203 F 
ATOM     66  F   UNL A   1      43.786  37.355  34.473  1.00  0.00    -0.200 F 
ATOM     67  C   UNL A   1      44.149  37.909  32.205  1.00  0.00     0.200 A 
ATOM     68  F   UNL A   1      44.479  38.425  29.924  1.00  0.00    -0.200 F 
ATOM     69  F   UNL A   1      44.561  39.135  32.557  1.00  0.00    -0.200 F 
ENDBRANCH  36  59
ENDBRANCH  10  11
ENDBRANCH   3   5
ENDBRANCH   2   3
ENDBRANCH   1   2
BRANCH   1  70
ATOM     70  C   UNL A   1      41.004  19.822  26.512  1.00  0.00     0.274 C 
BRANCH  70  71
ATOM     71  O   UNL A   1      41.886  19.602  25.399  1.00  0.00    -0.461 OA
BRANCH  71  72
ATOM     72  C   UNL A   1      43.040  18.891  25.608  1.00  0.00     0.324 C 
ATOM     73  O   UNL A   1      43.095  17.669  25.612  1.00  0.00    -0.250 OA
BRANCH  72  74
ATOM     74  C   UNL A   1      44.249  19.842  25.773  1.00  0.00     0.183 C 
ATOM     75  C   UNL A   1      45.535  19.175  25.321  1.00  0.00     0.034 C 
ATOM     76  N   UNL A   1      44.166  21.044  24.883  1.00  0.00    -0.184 NA
ATOM     77  C   UNL A   1      45.564  19.379  23.817  1.00  0.00     0.019 C 
ATOM     78  C   UNL A   1      44.626  20.552  23.540  1.00  0.00     0.103 C 
BRANCH  76  79
ATOM     79  S   UNL A   1      45.027  22.461  25.353  1.00  0.00     0.245 S 
ATOM     80  O   UNL A   1      46.430  22.121  25.400  1.00  0.00    -0.207 OA
ATOM     81  O   UNL A   1      44.593  23.514  24.452  1.00  0.00    -0.207 OA
BRANCH  79  82
ATOM     82  C   UNL A   1      44.429  22.876  26.970  1.00  0.00     0.101 A 
ATOM     83  C   UNL A   1      43.087  22.576  27.253  1.00  0.00     0.023 A 
ATOM     84  C   UNL A   1      45.188  23.554  27.927  1.00  0.00     0.061 A 
ATOM     85  C   UNL A   1      42.540  22.874  28.502  1.00  0.00     0.002 A 
ATOM     86  C   UNL A   1      44.655  23.781  29.205  1.00  0.00     0.022 A 
ATOM     87  Cl  UNL A   1      46.742  24.233  27.653  1.00  0.00    -0.083 Cl
ATOM     88  C   UNL A   1      43.336  23.440  29.492  1.00  0.00     0.002 A 
ENDBRANCH  79  82
ENDBRANCH  76  79
ENDBRANCH  72  74
ENDBRANCH  71  72
ENDBRANCH  70  71
ENDBRANCH   1  70
TORSDOF 13
ENDMDL
