MODEL 1
REMARK VINA RESULT:     -12.7      0.000      0.000
REMARK SMILES CCc1c(C(=O)NCC(=O)OCCOC(=O)c2ccc(-c3c4nc(c(-c5c(F)c(F)c(F)c(F)c5F)c5ccc([nH]5)c(-c5c(F)c(F)c(F)c(F)c5F)c5nc(c(-c6c(F)c(F)c(F)c(F)c6F)c6ccc3[nH]6)C=C5)C=C4)cc2)nnn1-c1ccc(C)cc1
REMARK SMILES IDX 12 1 11 2 9 3 10 4 8 5 7 6 5 7 6 8 4 10 3 11 82 12 80 13
REMARK SMILES IDX 81 14 2 15 1 16 83 17 84 18 89 19 85 20 88 21 86 22 87 23
REMARK SMILES IDX 13 24 14 25 15 26 16 27 17 28 18 29 79 30 19 31 78 32 20 33
REMARK SMILES IDX 21 34 22 35 72 36 23 37 77 38 71 39 73 40 24 41 76 42 70 43
REMARK SMILES IDX 69 44 25 46 57 47 37 48 56 49 38 50 41 51 55 52 74 53 39 54
REMARK SMILES IDX 40 55 54 57 75 58 42 59 26 60 27 61 35 62 28 63 29 64 33 65
REMARK SMILES IDX 36 66 30 67 31 68 34 69 32 70 58 71 59 72 67 73 60 74 61 75
REMARK SMILES IDX 65 76 68 77 62 78 63 79 66 80 64 81 43 82 44 83 52 84 45 85
REMARK SMILES IDX 46 86 50 87 53 88 47 89 48 90 51 91 49 92
REMARK H PARENT 7 9 73 45 41 56
REMARK Flexibility Score: inf
ROOT
ATOM      1  C   UNL A   1      37.223  21.929  25.442  1.00  0.00     0.274 C 
ENDROOT
BRANCH   1   2
ATOM      2  O   UNL A   1      36.558  20.800  24.849  1.00  0.00    -0.461 OA
BRANCH   2   3
ATOM      3  C   UNL A   1      35.206  20.724  25.004  1.00  0.00     0.325 C 
ATOM      4  O   UNL A   1      34.548  19.693  24.926  1.00  0.00    -0.250 OA
BRANCH   3   5
ATOM      5  C   UNL A   1      34.592  22.075  25.382  1.00  0.00     0.239 C 
BRANCH   5   6
ATOM      6  N   UNL A   1      33.920  22.092  26.656  1.00  0.00    -0.340 N 
ATOM      7  C   UNL A   1      32.912  22.828  27.203  1.00  0.00     0.274 C 
ATOM      8  O   UNL A   1      32.615  22.472  28.349  1.00  0.00    -0.267 OA
ATOM      9  H   UNL A   1      34.271  21.413  27.277  1.00  0.00     0.164 HD
BRANCH   7  10
ATOM     10  C   UNL A   1      32.198  23.953  26.576  1.00  0.00     0.174 A 
ATOM     11  C   UNL A   1      32.473  25.015  25.703  1.00  0.00     0.077 A 
ATOM     12  N   UNL A   1      31.249  25.687  25.611  1.00  0.00    -0.217 N 
ATOM     13  N   UNL A   1      30.885  24.104  27.006  1.00  0.00    -0.124 NA
ATOM     14  N   UNL A   1      30.373  25.204  26.500  1.00  0.00    -0.061 NA
BRANCH  11  15
ATOM     15  C   UNL A   1      33.686  25.607  25.061  1.00  0.00     0.055 C 
ATOM     16  C   UNL A   1      33.813  25.204  23.597  1.00  0.00     0.011 C 
ENDBRANCH  11  15
BRANCH  12  17
ATOM     17  C   UNL A   1      30.941  26.843  24.862  1.00  0.00     0.067 A 
ATOM     18  C   UNL A   1      30.103  26.724  23.750  1.00  0.00     0.029 A 
ATOM     19  C   UNL A   1      31.403  28.096  25.276  1.00  0.00     0.029 A 
ATOM     20  C   UNL A   1      29.636  27.880  23.124  1.00  0.00     0.005 A 
ATOM     21  C   UNL A   1      30.950  29.244  24.631  1.00  0.00     0.005 A 
ATOM     22  C   UNL A   1      30.037  29.147  23.577  1.00  0.00    -0.051 A 
ATOM     23  C   UNL A   1      29.475  30.381  22.936  1.00  0.00     0.044 C 
ENDBRANCH  12  17
ENDBRANCH   7  10
ENDBRANCH   5   6
ENDBRANCH   3   5
ENDBRANCH   2   3
ENDBRANCH   1   2
BRANCH   1  24
ATOM     24  C   UNL A   1      38.620  21.540  25.916  1.00  0.00     0.275 C 
BRANCH  24  25
ATOM     25  O   UNL A   1      39.492  22.673  25.969  1.00  0.00    -0.458 OA
BRANCH  25  26
ATOM     26  C   UNL A   1      40.191  22.810  27.119  1.00  0.00     0.338 C 
ATOM     27  O   UNL A   1      40.402  21.960  27.965  1.00  0.00    -0.246 OA
BRANCH  26  28
ATOM     28  C   UNL A   1      40.653  24.195  27.260  1.00  0.00     0.060 A 
ATOM     29  C   UNL A   1      41.473  24.498  28.353  1.00  0.00     0.016 A 
ATOM     30  C   UNL A   1      40.127  25.197  26.438  1.00  0.00     0.016 A 
ATOM     31  C   UNL A   1      41.656  25.822  28.704  1.00  0.00     0.010 A 
ATOM     32  C   UNL A   1      40.309  26.518  26.790  1.00  0.00     0.010 A 
ATOM     33  C   UNL A   1      41.013  26.814  27.958  1.00  0.00    -0.014 A 
BRANCH  33  34
ATOM     34  C   UNL A   1      41.081  28.183  28.441  1.00  0.00     0.031 A 
ATOM     35  C   UNL A   1      42.253  28.961  27.989  1.00  0.00     0.074 A 
ATOM     36  C   UNL A   1      40.086  28.731  29.164  1.00  0.00     0.049 A 
ATOM     37  N   UNL A   1      43.136  29.557  28.722  1.00  0.00    -0.248 NA
ATOM     38  C   UNL A   1      42.510  29.044  26.544  1.00  0.00     0.031 C 
ATOM     39  C   UNL A   1      38.770  28.143  29.434  1.00  0.00     0.029 A 
ATOM     40  N   UNL A   1      39.998  29.974  29.727  1.00  0.00    -0.354 N 
ATOM     41  C   UNL A   1      43.960  30.239  27.835  1.00  0.00     0.074 A 
ATOM     42  C   UNL A   1      43.608  29.798  26.510  1.00  0.00     0.031 C 
ATOM     43  C   UNL A   1      37.950  29.095  29.922  1.00  0.00     0.029 A 
ATOM     44  C   UNL A   1      38.718  30.312  30.132  1.00  0.00     0.049 A 
ATOM     45  H   UNL A   1      40.773  30.572  29.835  1.00  0.00     0.167 HD
ATOM     46  C   UNL A   1      44.696  31.304  28.246  1.00  0.00     0.037 A 
ATOM     47  C   UNL A   1      38.286  31.510  30.585  1.00  0.00     0.037 A 
ATOM     48  C   UNL A   1      44.813  31.370  29.675  1.00  0.00     0.049 A 
ATOM     49  C   UNL A   1      39.443  32.267  31.109  1.00  0.00     0.074 A 
ATOM     50  C   UNL A   1      45.623  30.819  30.643  1.00  0.00     0.029 A 
ATOM     51  N   UNL A   1      43.738  31.927  30.309  1.00  0.00    -0.354 N 
ATOM     52  N   UNL A   1      40.107  31.920  32.178  1.00  0.00    -0.248 NA
ATOM     53  C   UNL A   1      40.076  33.294  30.287  1.00  0.00     0.031 C 
ATOM     54  C   UNL A   1      44.926  30.952  31.880  1.00  0.00     0.029 A 
ATOM     55  C   UNL A   1      43.706  31.574  31.634  1.00  0.00     0.049 A 
ATOM     56  H   UNL A   1      43.073  32.507  29.873  1.00  0.00     0.167 HD
ATOM     57  C   UNL A   1      41.390  32.363  31.936  1.00  0.00     0.074 A 
ATOM     58  C   UNL A   1      41.275  33.350  30.874  1.00  0.00     0.031 C 
ATOM     59  C   UNL A   1      42.466  31.649  32.365  1.00  0.00     0.037 A 
BRANCH  46  60
ATOM     60  C   UNL A   1      44.939  32.527  27.402  1.00  0.00     0.064 A 
ATOM     61  C   UNL A   1      46.178  32.689  26.754  1.00  0.00     0.173 A 
ATOM     62  C   UNL A   1      44.127  33.681  27.479  1.00  0.00     0.173 A 
ATOM     63  F   UNL A   1      47.035  31.662  26.658  1.00  0.00    -0.203 F 
ATOM     64  C   UNL A   1      46.593  33.930  26.263  1.00  0.00     0.198 A 
ATOM     65  C   UNL A   1      44.522  34.904  26.941  1.00  0.00     0.198 A 
ATOM     66  F   UNL A   1      42.984  33.693  28.175  1.00  0.00    -0.203 F 
ATOM     67  F   UNL A   1      47.823  34.066  25.750  1.00  0.00    -0.200 F 
ATOM     68  C   UNL A   1      45.765  35.035  26.358  1.00  0.00     0.200 A 
ATOM     69  F   UNL A   1      43.720  35.970  27.067  1.00  0.00    -0.200 F 
ATOM     70  F   UNL A   1      46.184  36.236  25.935  1.00  0.00    -0.200 F 
ENDBRANCH  46  60
BRANCH  47  71
ATOM     71  C   UNL A   1      36.934  32.091  30.467  1.00  0.00     0.064 A 
ATOM     72  C   UNL A   1      36.024  32.052  31.533  1.00  0.00     0.173 A 
ATOM     73  C   UNL A   1      36.595  32.912  29.375  1.00  0.00     0.173 A 
ATOM     74  F   UNL A   1      36.294  31.328  32.628  1.00  0.00    -0.203 F 
ATOM     75  C   UNL A   1      34.847  32.807  31.513  1.00  0.00     0.198 A 
ATOM     76  C   UNL A   1      35.417  33.656  29.351  1.00  0.00     0.198 A 
ATOM     77  F   UNL A   1      37.444  33.074  28.349  1.00  0.00    -0.203 F 
ATOM     78  F   UNL A   1      34.026  32.790  32.573  1.00  0.00    -0.200 F 
ATOM     79  C   UNL A   1      34.548  33.613  30.427  1.00  0.00     0.200 A 
ATOM     80  F   UNL A   1      35.157  34.456  28.308  1.00  0.00    -0.200 F 
ATOM     81  F   UNL A   1      33.448  34.378  30.432  1.00  0.00    -0.200 F 
ENDBRANCH  47  71
BRANCH  59  82
ATOM     82  C   UNL A   1      42.251  30.733  33.525  1.00  0.00     0.064 A 
ATOM     83  C   UNL A   1      42.349  31.139  34.864  1.00  0.00     0.173 A 
ATOM     84  C   UNL A   1      41.898  29.403  33.268  1.00  0.00     0.173 A 
ATOM     85  F   UNL A   1      42.609  32.414  35.179  1.00  0.00    -0.203 F 
ATOM     86  C   UNL A   1      42.150  30.231  35.903  1.00  0.00     0.198 A 
ATOM     87  C   UNL A   1      41.667  28.509  34.307  1.00  0.00     0.198 A 
ATOM     88  F   UNL A   1      41.750  28.979  32.002  1.00  0.00    -0.203 F 
ATOM     89  F   UNL A   1      42.274  30.632  37.178  1.00  0.00    -0.200 F 
ATOM     90  C   UNL A   1      41.806  28.919  35.623  1.00  0.00     0.200 A 
ATOM     91  F   UNL A   1      41.297  27.249  34.032  1.00  0.00    -0.200 F 
ATOM     92  F   UNL A   1      41.591  28.052  36.623  1.00  0.00    -0.200 F 
ENDBRANCH  59  82
ENDBRANCH  33  34
ENDBRANCH  26  28
ENDBRANCH  25  26
ENDBRANCH  24  25
ENDBRANCH   1  24
TORSDOF 15
ENDMDL
MODEL 2
REMARK VINA RESULT:     -12.7      4.204      7.093
REMARK SMILES CCc1c(C(=O)NCC(=O)OCCOC(=O)c2ccc(-c3c4nc(c(-c5c(F)c(F)c(F)c(F)c5F)c5ccc([nH]5)c(-c5c(F)c(F)c(F)c(F)c5F)c5nc(c(-c6c(F)c(F)c(F)c(F)c6F)c6ccc3[nH]6)C=C5)C=C4)cc2)nnn1-c1ccc(C)cc1
REMARK SMILES IDX 12 1 11 2 9 3 10 4 8 5 7 6 5 7 6 8 4 10 3 11 82 12 80 13
REMARK SMILES IDX 81 14 2 15 1 16 83 17 84 18 89 19 85 20 88 21 86 22 87 23
REMARK SMILES IDX 13 24 14 25 15 26 16 27 17 28 18 29 79 30 19 31 78 32 20 33
REMARK SMILES IDX 21 34 22 35 72 36 23 37 77 38 71 39 73 40 24 41 76 42 70 43
REMARK SMILES IDX 69 44 25 46 57 47 37 48 56 49 38 50 41 51 55 52 74 53 39 54
REMARK SMILES IDX 40 55 54 57 75 58 42 59 26 60 27 61 35 62 28 63 29 64 33 65
REMARK SMILES IDX 36 66 30 67 31 68 34 69 32 70 58 71 59 72 67 73 60 74 61 75
REMARK SMILES IDX 65 76 68 77 62 78 63 79 66 80 64 81 43 82 44 83 52 84 45 85
REMARK SMILES IDX 46 86 50 87 53 88 47 89 48 90 51 91 49 92
REMARK H PARENT 7 9 73 45 41 56
REMARK Flexibility Score: inf
ROOT
ATOM      1  C   UNL A   1      43.110  20.072  26.080  1.00  0.00     0.274 C 
ENDROOT
BRANCH   1   2
ATOM      2  O   UNL A   1      44.070  21.108  25.808  1.00  0.00    -0.461 OA
BRANCH   2   3
ATOM      3  C   UNL A   1      44.873  20.939  24.719  1.00  0.00     0.325 C 
ATOM      4  O   UNL A   1      45.633  19.992  24.549  1.00  0.00    -0.250 OA
BRANCH   3   5
ATOM      5  C   UNL A   1      44.656  22.031  23.667  1.00  0.00     0.239 C 
BRANCH   5   6
ATOM      6  N   UNL A   1      45.772  22.926  23.495  1.00  0.00    -0.340 N 
ATOM      7  C   UNL A   1      46.502  23.724  24.324  1.00  0.00     0.274 C 
ATOM      8  O   UNL A   1      47.422  24.314  23.746  1.00  0.00    -0.267 OA
ATOM      9  H   UNL A   1      46.077  22.974  22.561  1.00  0.00     0.164 HD
BRANCH   7  10
ATOM     10  C   UNL A   1      46.288  23.931  25.766  1.00  0.00     0.174 A 
ATOM     11  C   UNL A   1      45.224  24.183  26.644  1.00  0.00     0.077 A 
ATOM     12  N   UNL A   1      45.850  24.291  27.891  1.00  0.00    -0.217 N 
ATOM     13  N   UNL A   1      47.459  23.990  26.512  1.00  0.00    -0.124 NA
ATOM     14  N   UNL A   1      47.181  24.310  27.757  1.00  0.00    -0.061 NA
BRANCH  11  15
ATOM     15  C   UNL A   1      43.766  24.490  26.524  1.00  0.00     0.055 C 
ATOM     16  C   UNL A   1      43.429  25.153  25.195  1.00  0.00     0.011 C 
ENDBRANCH  11  15
BRANCH  12  17
ATOM     17  C   UNL A   1      45.257  24.544  29.147  1.00  0.00     0.067 A 
ATOM     18  C   UNL A   1      44.644  23.489  29.830  1.00  0.00     0.029 A 
ATOM     19  C   UNL A   1      45.353  25.811  29.730  1.00  0.00     0.029 A 
ATOM     20  C   UNL A   1      44.232  23.682  31.149  1.00  0.00     0.005 A 
ATOM     21  C   UNL A   1      44.919  26.000  31.040  1.00  0.00     0.005 A 
ATOM     22  C   UNL A   1      44.390  24.930  31.770  1.00  0.00    -0.051 A 
ATOM     23  C   UNL A   1      44.003  25.103  33.208  1.00  0.00     0.044 C 
ENDBRANCH  12  17
ENDBRANCH   7  10
ENDBRANCH   5   6
ENDBRANCH   3   5
ENDBRANCH   2   3
ENDBRANCH   1   2
BRANCH   1  24
ATOM     24  C   UNL A   1      41.694  20.565  25.794  1.00  0.00     0.275 C 
BRANCH  24  25
ATOM     25  O   UNL A   1      41.535  21.942  26.151  1.00  0.00    -0.458 OA
BRANCH  25  26
ATOM     26  C   UNL A   1      40.258  22.343  26.345  1.00  0.00     0.338 C 
ATOM     27  O   UNL A   1      39.247  21.862  25.865  1.00  0.00    -0.246 OA
BRANCH  26  28
ATOM     28  C   UNL A   1      40.233  23.521  27.218  1.00  0.00     0.060 A 
ATOM     29  C   UNL A   1      39.364  24.564  26.877  1.00  0.00     0.016 A 
ATOM     30  C   UNL A   1      41.187  23.664  28.232  1.00  0.00     0.016 A 
ATOM     31  C   UNL A   1      39.542  25.802  27.464  1.00  0.00     0.010 A 
ATOM     32  C   UNL A   1      41.365  24.901  28.816  1.00  0.00     0.010 A 
ATOM     33  C   UNL A   1      40.588  25.973  28.377  1.00  0.00    -0.014 A 
BRANCH  33  34
ATOM     34  C   UNL A   1      40.862  27.317  28.855  1.00  0.00     0.031 A 
ATOM     35  C   UNL A   1      42.091  27.945  28.325  1.00  0.00     0.074 A 
ATOM     36  C   UNL A   1      39.995  27.982  29.643  1.00  0.00     0.049 A 
ATOM     37  N   UNL A   1      43.089  28.416  28.996  1.00  0.00    -0.248 NA
ATOM     38  C   UNL A   1      42.259  28.007  26.865  1.00  0.00     0.031 C 
ATOM     39  C   UNL A   1      38.636  27.563  30.001  1.00  0.00     0.029 A 
ATOM     40  N   UNL A   1      40.105  29.221  30.211  1.00  0.00    -0.354 N 
ATOM     41  C   UNL A   1      43.933  28.996  28.057  1.00  0.00     0.074 A 
ATOM     42  C   UNL A   1      43.440  28.615  26.758  1.00  0.00     0.031 C 
ATOM     43  C   UNL A   1      37.979  28.608  30.543  1.00  0.00     0.029 A 
ATOM     44  C   UNL A   1      38.908  29.715  30.701  1.00  0.00     0.049 A 
ATOM     45  H   UNL A   1      40.955  29.715  30.267  1.00  0.00     0.167 HD
ATOM     46  C   UNL A   1      44.824  29.955  28.417  1.00  0.00     0.037 A 
ATOM     47  C   UNL A   1      38.663  30.955  31.183  1.00  0.00     0.037 A 
ATOM     48  C   UNL A   1      45.044  29.993  29.835  1.00  0.00     0.049 A 
ATOM     49  C   UNL A   1      39.940  31.553  31.628  1.00  0.00     0.074 A 
ATOM     50  C   UNL A   1      45.840  29.335  30.746  1.00  0.00     0.029 A 
ATOM     51  N   UNL A   1      44.094  30.677  30.541  1.00  0.00    -0.354 N 
ATOM     52  N   UNL A   1      40.624  31.115  32.649  1.00  0.00    -0.248 NA
ATOM     53  C   UNL A   1      40.643  32.498  30.765  1.00  0.00     0.031 C 
ATOM     54  C   UNL A   1      45.249  29.545  32.028  1.00  0.00     0.029 A 
ATOM     55  C   UNL A   1      44.105  30.319  31.864  1.00  0.00     0.049 A 
ATOM     56  H   UNL A   1      43.480  31.340  30.150  1.00  0.00     0.167 HD
ATOM     57  C   UNL A   1      41.934  31.394  32.321  1.00  0.00     0.074 A 
ATOM     58  C   UNL A   1      41.875  32.397  31.271  1.00  0.00     0.031 C 
ATOM     59  C   UNL A   1      42.937  30.545  32.677  1.00  0.00     0.037 A 
BRANCH  46  60
ATOM     60  C   UNL A   1      45.164  31.145  27.559  1.00  0.00     0.064 A 
ATOM     61  C   UNL A   1      46.475  31.297  27.070  1.00  0.00     0.173 A 
ATOM     62  C   UNL A   1      44.340  32.290  27.480  1.00  0.00     0.173 A 
ATOM     63  F   UNL A   1      47.347  30.279  27.131  1.00  0.00    -0.203 F 
ATOM     64  C   UNL A   1      46.940  32.522  26.584  1.00  0.00     0.198 A 
ATOM     65  C   UNL A   1      44.791  33.494  26.945  1.00  0.00     0.198 A 
ATOM     66  F   UNL A   1      43.115  32.314  28.022  1.00  0.00    -0.203 F 
ATOM     67  F   UNL A   1      48.225  32.654  26.229  1.00  0.00    -0.200 F 
ATOM     68  C   UNL A   1      46.098  33.618  26.522  1.00  0.00     0.200 A 
ATOM     69  F   UNL A   1      43.970  34.553  26.919  1.00  0.00    -0.200 F 
ATOM     70  F   UNL A   1      46.557  34.806  26.105  1.00  0.00    -0.200 F 
ENDBRANCH  46  60
BRANCH  47  71
ATOM     71  C   UNL A   1      37.392  31.704  31.156  1.00  0.00     0.064 A 
ATOM     72  C   UNL A   1      36.569  31.792  32.289  1.00  0.00     0.173 A 
ATOM     73  C   UNL A   1      37.076  32.550  30.077  1.00  0.00     0.173 A 
ATOM     74  F   UNL A   1      36.830  31.050  33.374  1.00  0.00    -0.203 F 
ATOM     75  C   UNL A   1      35.501  32.692  32.343  1.00  0.00     0.198 A 
ATOM     76  C   UNL A   1      36.005  33.440  30.128  1.00  0.00     0.198 A 
ATOM     77  F   UNL A   1      37.856  32.592  28.986  1.00  0.00    -0.203 F 
ATOM     78  F   UNL A   1      34.769  32.792  33.462  1.00  0.00    -0.200 F 
ATOM     79  C   UNL A   1      35.224  33.520  31.267  1.00  0.00     0.200 A 
ATOM     80  F   UNL A   1      35.768  34.257  29.092  1.00  0.00    -0.200 F 
ATOM     81  F   UNL A   1      34.234  34.420  31.340  1.00  0.00    -0.200 F 
ENDBRANCH  47  71
BRANCH  59  82
ATOM     82  C   UNL A   1      42.685  29.653  33.848  1.00  0.00     0.064 A 
ATOM     83  C   UNL A   1      42.125  28.372  33.743  1.00  0.00     0.173 A 
ATOM     84  C   UNL A   1      43.060  30.101  35.121  1.00  0.00     0.173 A 
ATOM     85  F   UNL A   1      41.813  27.853  32.548  1.00  0.00    -0.203 F 
ATOM     86  C   UNL A   1      41.902  27.592  34.877  1.00  0.00     0.198 A 
ATOM     87  C   UNL A   1      42.867  29.307  36.246  1.00  0.00     0.198 A 
ATOM     88  F   UNL A   1      43.640  31.303  35.267  1.00  0.00    -0.203 F 
ATOM     89  F   UNL A   1      41.340  26.379  34.759  1.00  0.00    -0.200 F 
ATOM     90  C   UNL A   1      42.277  28.060  36.126  1.00  0.00     0.200 A 
ATOM     91  F   UNL A   1      43.266  29.748  37.448  1.00  0.00    -0.200 F 
ATOM     92  F   UNL A   1      42.084  27.300  37.214  1.00  0.00    -0.200 F 
ENDBRANCH  59  82
ENDBRANCH  33  34
ENDBRANCH  26  28
ENDBRANCH  25  26
ENDBRANCH  24  25
ENDBRANCH   1  24
TORSDOF 15
ENDMDL
MODEL 3
REMARK VINA RESULT:     -12.6      4.090      6.882
REMARK SMILES CCc1c(C(=O)NCC(=O)OCCOC(=O)c2ccc(-c3c4nc(c(-c5c(F)c(F)c(F)c(F)c5F)c5ccc([nH]5)c(-c5c(F)c(F)c(F)c(F)c5F)c5nc(c(-c6c(F)c(F)c(F)c(F)c6F)c6ccc3[nH]6)C=C5)C=C4)cc2)nnn1-c1ccc(C)cc1
REMARK SMILES IDX 12 1 11 2 9 3 10 4 8 5 7 6 5 7 6 8 4 10 3 11 82 12 80 13
REMARK SMILES IDX 81 14 2 15 1 16 83 17 84 18 89 19 85 20 88 21 86 22 87 23
REMARK SMILES IDX 13 24 14 25 15 26 16 27 17 28 18 29 79 30 19 31 78 32 20 33
REMARK SMILES IDX 21 34 22 35 72 36 23 37 77 38 71 39 73 40 24 41 76 42 70 43
REMARK SMILES IDX 69 44 25 46 57 47 37 48 56 49 38 50 41 51 55 52 74 53 39 54
REMARK SMILES IDX 40 55 54 57 75 58 42 59 26 60 27 61 35 62 28 63 29 64 33 65
REMARK SMILES IDX 36 66 30 67 31 68 34 69 32 70 58 71 59 72 67 73 60 74 61 75
REMARK SMILES IDX 65 76 68 77 62 78 63 79 66 80 64 81 43 82 44 83 52 84 45 85
REMARK SMILES IDX 46 86 50 87 53 88 47 89 48 90 51 91 49 92
REMARK H PARENT 7 9 73 45 41 56
REMARK Flexibility Score: inf
ROOT
ATOM      1  C   UNL A   1      42.216  20.490  26.758  1.00  0.00     0.274 C 
ENDROOT
BRANCH   1   2
ATOM      2  O   UNL A   1      42.424  21.277  25.572  1.00  0.00    -0.461 OA
BRANCH   2   3
ATOM      3  C   UNL A   1      43.658  21.834  25.407  1.00  0.00     0.325 C 
ATOM      4  O   UNL A   1      44.719  21.230  25.514  1.00  0.00    -0.250 OA
BRANCH   3   5
ATOM      5  C   UNL A   1      43.575  23.301  24.976  1.00  0.00     0.239 C 
BRANCH   5   6
ATOM      6  N   UNL A   1      44.827  23.870  24.545  1.00  0.00    -0.340 N 
ATOM      7  C   UNL A   1      45.745  24.710  25.102  1.00  0.00     0.274 C 
ATOM      8  O   UNL A   1      46.722  24.914  24.373  1.00  0.00    -0.267 OA
ATOM      9  H   UNL A   1      45.077  23.587  23.637  1.00  0.00     0.164 HD
BRANCH   7  10
ATOM     10  C   UNL A   1      45.664  25.359  26.421  1.00  0.00     0.174 A 
ATOM     11  C   UNL A   1      45.651  24.990  27.773  1.00  0.00     0.077 A 
ATOM     12  N   UNL A   1      45.513  26.211  28.443  1.00  0.00    -0.217 N 
ATOM     13  N   UNL A   1      45.452  26.731  26.367  1.00  0.00    -0.124 NA
ATOM     14  N   UNL A   1      45.259  27.202  27.580  1.00  0.00    -0.061 NA
BRANCH  11  15
ATOM     15  C   UNL A   1      45.591  23.715  28.551  1.00  0.00     0.055 C 
ATOM     16  C   UNL A   1      44.163  23.207  28.706  1.00  0.00     0.011 C 
ENDBRANCH  11  15
BRANCH  12  17
ATOM     17  C   UNL A   1      45.441  26.442  29.834  1.00  0.00     0.067 A 
ATOM     18  C   UNL A   1      46.626  26.633  30.549  1.00  0.00     0.029 A 
ATOM     19  C   UNL A   1      44.200  26.556  30.467  1.00  0.00     0.029 A 
ATOM     20  C   UNL A   1      46.558  27.054  31.877  1.00  0.00     0.005 A 
ATOM     21  C   UNL A   1      44.141  26.956  31.800  1.00  0.00     0.005 A 
ATOM     22  C   UNL A   1      45.316  27.242  32.502  1.00  0.00    -0.051 A 
ATOM     23  C   UNL A   1      45.258  27.759  33.909  1.00  0.00     0.044 C 
ENDBRANCH  12  17
ENDBRANCH   7  10
ENDBRANCH   5   6
ENDBRANCH   3   5
ENDBRANCH   2   3
ENDBRANCH   1   2
BRANCH   1  24
ATOM     24  C   UNL A   1      40.838  20.771  27.351  1.00  0.00     0.275 C 
BRANCH  24  25
ATOM     25  O   UNL A   1      40.742  22.110  27.847  1.00  0.00    -0.458 OA
BRANCH  25  26
ATOM     26  C   UNL A   1      39.918  22.924  27.148  1.00  0.00     0.338 C 
ATOM     27  O   UNL A   1      38.955  22.606  26.474  1.00  0.00    -0.246 OA
BRANCH  26  28
ATOM     28  C   UNL A   1      40.373  24.314  27.268  1.00  0.00     0.060 A 
ATOM     29  C   UNL A   1      41.323  24.604  28.254  1.00  0.00     0.016 A 
ATOM     30  C   UNL A   1      39.729  25.328  26.550  1.00  0.00     0.016 A 
ATOM     31  C   UNL A   1      41.529  25.921  28.617  1.00  0.00     0.010 A 
ATOM     32  C   UNL A   1      39.935  26.642  26.914  1.00  0.00     0.010 A 
ATOM     33  C   UNL A   1      40.780  26.920  27.989  1.00  0.00    -0.014 A 
BRANCH  33  34
ATOM     34  C   UNL A   1      40.889  28.276  28.499  1.00  0.00     0.031 A 
ATOM     35  C   UNL A   1      42.065  29.040  28.033  1.00  0.00     0.074 A 
ATOM     36  C   UNL A   1      39.924  28.830  29.258  1.00  0.00     0.049 A 
ATOM     37  N   UNL A   1      42.978  29.601  28.755  1.00  0.00    -0.248 NA
ATOM     38  C   UNL A   1      42.288  29.148  26.584  1.00  0.00     0.031 C 
ATOM     39  C   UNL A   1      38.603  28.263  29.549  1.00  0.00     0.029 A 
ATOM     40  N   UNL A   1      39.877  30.062  29.848  1.00  0.00    -0.354 N 
ATOM     41  C   UNL A   1      43.795  30.285  27.863  1.00  0.00     0.074 A 
ATOM     42  C   UNL A   1      43.401  29.880  26.538  1.00  0.00     0.031 C 
ATOM     43  C   UNL A   1      37.815  29.222  30.077  1.00  0.00     0.029 A 
ATOM     44  C   UNL A   1      38.614  30.418  30.292  1.00  0.00     0.049 A 
ATOM     45  H   UNL A   1      40.666  30.642  29.949  1.00  0.00     0.167 HD
ATOM     46  C   UNL A   1      44.563  31.326  28.276  1.00  0.00     0.037 A 
ATOM     47  C   UNL A   1      38.219  31.615  30.781  1.00  0.00     0.037 A 
ATOM     48  C   UNL A   1      44.717  31.359  29.703  1.00  0.00     0.049 A 
ATOM     49  C   UNL A   1      39.405  32.336  31.291  1.00  0.00     0.074 A 
ATOM     50  C   UNL A   1      45.539  30.771  30.639  1.00  0.00     0.029 A 
ATOM     51  N   UNL A   1      43.671  31.924  30.376  1.00  0.00    -0.354 N 
ATOM     52  N   UNL A   1      40.087  31.953  32.335  1.00  0.00    -0.248 NA
ATOM     53  C   UNL A   1      40.039  33.367  30.475  1.00  0.00     0.031 C 
ATOM     54  C   UNL A   1      44.876  30.892  31.896  1.00  0.00     0.029 A 
ATOM     55  C   UNL A   1      43.664  31.544  31.693  1.00  0.00     0.049 A 
ATOM     56  H   UNL A   1      43.007  32.527  29.968  1.00  0.00     0.167 HD
ATOM     57  C   UNL A   1      41.373  32.375  32.070  1.00  0.00     0.074 A 
ATOM     58  C   UNL A   1      41.253  33.386  31.033  1.00  0.00     0.031 C 
ATOM     59  C   UNL A   1      42.444  31.630  32.457  1.00  0.00     0.037 A 
BRANCH  46  60
ATOM     60  C   UNL A   1      44.811  32.561  27.452  1.00  0.00     0.064 A 
ATOM     61  C   UNL A   1      46.034  32.708  26.771  1.00  0.00     0.173 A 
ATOM     62  C   UNL A   1      44.031  33.732  27.578  1.00  0.00     0.173 A 
ATOM     63  F   UNL A   1      46.863  31.663  26.627  1.00  0.00    -0.203 F 
ATOM     64  C   UNL A   1      46.464  33.949  26.295  1.00  0.00     0.198 A 
ATOM     65  C   UNL A   1      44.440  34.957  27.056  1.00  0.00     0.198 A 
ATOM     66  F   UNL A   1      42.909  33.755  28.309  1.00  0.00    -0.203 F 
ATOM     67  F   UNL A   1      47.682  34.067  25.748  1.00  0.00    -0.200 F 
ATOM     68  C   UNL A   1      45.668  35.071  26.438  1.00  0.00     0.200 A 
ATOM     69  F   UNL A   1      43.668  36.039  27.228  1.00  0.00    -0.200 F 
ATOM     70  F   UNL A   1      46.102  36.271  26.029  1.00  0.00    -0.200 F 
ENDBRANCH  46  60
BRANCH  47  71
ATOM     71  C   UNL A   1      36.877  32.226  30.710  1.00  0.00     0.064 A 
ATOM     72  C   UNL A   1      35.991  32.179  31.795  1.00  0.00     0.173 A 
ATOM     73  C   UNL A   1      36.531  33.081  29.646  1.00  0.00     0.173 A 
ATOM     74  F   UNL A   1      36.272  31.421  32.865  1.00  0.00    -0.203 F 
ATOM     75  C   UNL A   1      34.831  32.957  31.821  1.00  0.00     0.198 A 
ATOM     76  C   UNL A   1      35.368  33.849  29.668  1.00  0.00     0.198 A 
ATOM     77  F   UNL A   1      37.359  33.251  28.605  1.00  0.00    -0.203 F 
ATOM     78  F   UNL A   1      34.034  32.931  32.899  1.00  0.00    -0.200 F 
ATOM     79  C   UNL A   1      34.524  33.797  30.763  1.00  0.00     0.200 A 
ATOM     80  F   UNL A   1      35.101  34.680  28.652  1.00  0.00    -0.200 F 
ATOM     81  F   UNL A   1      33.440  34.583  30.812  1.00  0.00    -0.200 F 
ENDBRANCH  47  71
BRANCH  59  82
ATOM     82  C   UNL A   1      42.239  30.694  33.603  1.00  0.00     0.064 A 
ATOM     83  C   UNL A   1      42.391  31.065  34.947  1.00  0.00     0.173 A 
ATOM     84  C   UNL A   1      41.838  29.381  33.328  1.00  0.00     0.173 A 
ATOM     85  F   UNL A   1      42.699  32.325  35.281  1.00  0.00    -0.203 F 
ATOM     86  C   UNL A   1      42.198  30.141  35.971  1.00  0.00     0.198 A 
ATOM     87  C   UNL A   1      41.613  28.470  34.354  1.00  0.00     0.198 A 
ATOM     88  F   UNL A   1      41.637  28.991  32.059  1.00  0.00    -0.203 F 
ATOM     89  F   UNL A   1      42.374  30.508  37.250  1.00  0.00    -0.200 F 
ATOM     90  C   UNL A   1      41.806  28.845  35.674  1.00  0.00     0.200 A 
ATOM     91  F   UNL A   1      41.198  27.229  34.064  1.00  0.00    -0.200 F 
ATOM     92  F   UNL A   1      41.598  27.962  36.661  1.00  0.00    -0.200 F 
ENDBRANCH  59  82
ENDBRANCH  33  34
ENDBRANCH  26  28
ENDBRANCH  25  26
ENDBRANCH  24  25
ENDBRANCH   1  24
TORSDOF 15
ENDMDL
