MODEL 1
REMARK VINA RESULT:     -11.1      0.000      0.000
REMARK SMILES CSc1ccc(Cl)c(C(=O)N[C@@H](CO)C(=O)OCCOC(=O)c2ccc(-c3c4nc(c(-c5c(F)c(F)c(F)c(F)c5F)c5ccc([nH]5)c(-c5c(F)c(F)c(F)c(F)c5F)c5nc(c(-c6c(F)c(F)c(F)c(F)c6F)c6ccc3[nH]6)C=C5)C=C4)cc2)c1
REMARK SMILES IDX 18 1 17 2 15 3 16 4 12 5 11 6 9 7 10 8 8 10 3 11 4 12 86 13
REMARK SMILES IDX 5 14 6 15 7 16 2 17 1 18 13 19 14 20 19 22 20 23 21 24 22 25
REMARK SMILES IDX 23 26 24 27 85 28 25 29 84 30 26 31 27 32 28 33 78 34 29 35
REMARK SMILES IDX 83 36 77 37 79 38 30 39 82 40 76 41 75 42 31 44 63 45 43 46
REMARK SMILES IDX 62 47 44 48 47 49 61 50 80 51 45 52 46 53 60 55 81 56 48 57
REMARK SMILES IDX 32 58 33 59 41 60 34 61 35 62 39 63 42 64 36 65 37 66 40 67
REMARK SMILES IDX 38 68 64 69 65 70 73 71 66 72 67 73 71 74 74 75 68 76 69 77
REMARK SMILES IDX 72 78 70 79 49 80 50 81 58 82 51 83 52 84 56 85 59 86 53 87
REMARK SMILES IDX 54 88 57 89 55 90
REMARK H PARENT 11 9 14 21 79 43 47 54
REMARK Flexibility Score: inf
ROOT
ATOM      1  C   UNL A   1      31.646  28.428  26.638  1.00  0.00     0.274 C 
ENDROOT
BRANCH   1   2
ATOM      2  O   UNL A   1      32.677  27.886  25.789  1.00  0.00    -0.460 OA
BRANCH   2   3
ATOM      3  C   UNL A   1      32.295  27.597  24.517  1.00  0.00     0.331 C 
ATOM      4  O   UNL A   1      31.132  27.534  24.130  1.00  0.00    -0.250 OA
BRANCH   3   5
ATOM      5  C   UNL A   1      33.470  27.264  23.592  1.00  0.00     0.218 C 
BRANCH   5   6
ATOM      6  N   UNL A   1      33.150  26.632  22.306  1.00  0.00    -0.337 N 
ATOM      7  C   UNL A   1      33.226  25.339  21.850  1.00  0.00     0.253 C 
ATOM      8  O   UNL A   1      33.087  25.160  20.638  1.00  0.00    -0.269 OA
ATOM      9  H   UNL A   1      32.809  27.264  21.633  1.00  0.00     0.164 HD
BRANCH   7  10
ATOM     10  C   UNL A   1      33.327  24.133  22.720  1.00  0.00     0.059 A 
ATOM     11  C   UNL A   1      34.934  22.635  23.845  1.00  0.00     0.008 A 
ATOM     12  C   UNL A   1      33.872  21.870  24.319  1.00  0.00     0.016 A 
ATOM     13  C   UNL A   1      34.651  23.726  23.007  1.00  0.00     0.030 A 
ATOM     14  C   UNL A   1      32.559  22.284  24.088  1.00  0.00     0.022 A 
ATOM     15  C   UNL A   1      32.288  23.448  23.353  1.00  0.00     0.053 A 
ATOM     16  Cl  UNL A   1      30.666  24.017  23.450  1.00  0.00    -0.083 Cl
BRANCH  11  17
ATOM     17  S   UNL A   1      36.638  22.321  24.279  1.00  0.00    -0.130 SA
ATOM     18  C   UNL A   1      36.949  23.562  25.575  1.00  0.00     0.091 C 
ENDBRANCH  11  17
ENDBRANCH   7  10
ENDBRANCH   5   6
BRANCH   5  19
ATOM     19  C   UNL A   1      34.202  28.593  23.335  1.00  0.00     0.193 C 
BRANCH  19  20
ATOM     20  O   UNL A   1      33.381  29.713  23.681  1.00  0.00    -0.394 OA
ATOM     21  H   UNL A   1      32.940  30.049  22.886  1.00  0.00     0.210 HD
ENDBRANCH  19  20
ENDBRANCH   5  19
ENDBRANCH   3   5
ENDBRANCH   2   3
ENDBRANCH   1   2
BRANCH   1  22
ATOM     22  C   UNL A   1      31.774  29.945  26.764  1.00  0.00     0.275 C 
BRANCH  22  23
ATOM     23  O   UNL A   1      33.103  30.392  26.436  1.00  0.00    -0.458 OA
BRANCH  23  24
ATOM     24  C   UNL A   1      33.563  31.395  27.212  1.00  0.00     0.338 C 
ATOM     25  O   UNL A   1      32.980  32.421  27.539  1.00  0.00    -0.246 OA
BRANCH  24  26
ATOM     26  C   UNL A   1      34.897  31.063  27.716  1.00  0.00     0.060 A 
ATOM     27  C   UNL A   1      35.159  29.749  28.102  1.00  0.00     0.016 A 
ATOM     28  C   UNL A   1      35.830  32.073  27.944  1.00  0.00     0.016 A 
ATOM     29  C   UNL A   1      36.342  29.444  28.769  1.00  0.00     0.010 A 
ATOM     30  C   UNL A   1      37.031  31.759  28.582  1.00  0.00     0.010 A 
ATOM     31  C   UNL A   1      37.284  30.449  29.030  1.00  0.00    -0.014 A 
BRANCH  31  32
ATOM     32  C   UNL A   1      38.498  30.156  29.835  1.00  0.00     0.031 A 
ATOM     33  C   UNL A   1      39.559  29.247  29.278  1.00  0.00     0.074 A 
ATOM     34  C   UNL A   1      38.663  30.704  31.054  1.00  0.00     0.049 A 
ATOM     35  N   UNL A   1      40.599  28.721  29.874  1.00  0.00    -0.248 NA
ATOM     36  C   UNL A   1      39.434  28.886  27.859  1.00  0.00     0.031 C 
ATOM     37  C   UNL A   1      37.750  31.656  31.685  1.00  0.00     0.029 A 
ATOM     38  N   UNL A   1      39.657  30.525  31.984  1.00  0.00    -0.354 N 
ATOM     39  C   UNL A   1      41.227  27.938  28.914  1.00  0.00     0.074 A 
ATOM     40  C   UNL A   1      40.463  28.066  27.693  1.00  0.00     0.031 C 
ATOM     41  C   UNL A   1      38.228  31.983  32.897  1.00  0.00     0.029 A 
ATOM     42  C   UNL A   1      39.438  31.207  33.157  1.00  0.00     0.049 A 
ATOM     43  H   UNL A   1      40.450  29.964  31.826  1.00  0.00     0.167 HD
ATOM     44  C   UNL A   1      42.338  27.176  29.043  1.00  0.00     0.037 A 
ATOM     45  C   UNL A   1      40.105  31.170  34.325  1.00  0.00     0.037 A 
ATOM     46  C   UNL A   1      43.104  27.056  30.254  1.00  0.00     0.049 A 
ATOM     47  C   UNL A   1      41.296  30.259  34.467  1.00  0.00     0.074 A 
ATOM     48  C   UNL A   1      44.223  26.277  30.497  1.00  0.00     0.029 A 
ATOM     49  N   UNL A   1      42.834  27.745  31.425  1.00  0.00    -0.354 N 
ATOM     50  N   UNL A   1      41.847  29.473  33.576  1.00  0.00    -0.248 NA
ATOM     51  C   UNL A   1      41.944  30.217  35.786  1.00  0.00     0.031 C 
ATOM     52  C   UNL A   1      44.615  26.476  31.825  1.00  0.00     0.029 A 
ATOM     53  C   UNL A   1      43.764  27.410  32.395  1.00  0.00     0.049 A 
ATOM     54  H   UNL A   1      42.091  28.379  31.550  1.00  0.00     0.167 HD
ATOM     55  C   UNL A   1      42.917  28.862  34.215  1.00  0.00     0.074 A 
ATOM     56  C   UNL A   1      42.945  29.375  35.568  1.00  0.00     0.031 C 
ATOM     57  C   UNL A   1      43.793  27.953  33.727  1.00  0.00     0.037 A 
BRANCH  44  58
ATOM     58  C   UNL A   1      42.777  26.376  27.854  1.00  0.00     0.064 A 
ATOM     59  C   UNL A   1      42.245  25.108  27.585  1.00  0.00     0.173 A 
ATOM     60  C   UNL A   1      43.699  26.914  26.942  1.00  0.00     0.173 A 
ATOM     61  F   UNL A   1      41.367  24.550  28.432  1.00  0.00    -0.203 F 
ATOM     62  C   UNL A   1      42.627  24.401  26.447  1.00  0.00     0.198 A 
ATOM     63  C   UNL A   1      44.062  26.213  25.796  1.00  0.00     0.198 A 
ATOM     64  F   UNL A   1      44.232  28.126  27.155  1.00  0.00    -0.203 F 
ATOM     65  F   UNL A   1      42.123  23.181  26.219  1.00  0.00    -0.200 F 
ATOM     66  C   UNL A   1      43.529  24.957  25.550  1.00  0.00     0.200 A 
ATOM     67  F   UNL A   1      44.923  26.758  24.925  1.00  0.00    -0.200 F 
ATOM     68  F   UNL A   1      43.882  24.282  24.448  1.00  0.00    -0.200 F 
ENDBRANCH  44  58
BRANCH  45  69
ATOM     69  C   UNL A   1      39.640  31.990  35.473  1.00  0.00     0.064 A 
ATOM     70  C   UNL A   1      38.659  31.510  36.350  1.00  0.00     0.173 A 
ATOM     71  C   UNL A   1      40.157  33.272  35.708  1.00  0.00     0.173 A 
ATOM     72  F   UNL A   1      38.116  30.300  36.149  1.00  0.00    -0.203 F 
ATOM     73  C   UNL A   1      38.201  32.288  37.412  1.00  0.00     0.198 A 
ATOM     74  C   UNL A   1      39.720  34.038  36.787  1.00  0.00     0.198 A 
ATOM     75  F   UNL A   1      41.096  33.779  34.896  1.00  0.00    -0.203 F 
ATOM     76  F   UNL A   1      37.229  31.823  38.208  1.00  0.00    -0.200 F 
ATOM     77  C   UNL A   1      38.736  33.548  37.632  1.00  0.00     0.200 A 
ATOM     78  F   UNL A   1      40.248  35.250  37.004  1.00  0.00    -0.200 F 
ATOM     79  F   UNL A   1      38.299  34.294  38.656  1.00  0.00    -0.200 F 
ENDBRANCH  45  69
BRANCH  57  80
ATOM     80  C   UNL A   1      44.893  27.497  34.637  1.00  0.00     0.064 A 
ATOM     81  C   UNL A   1      46.105  28.193  34.731  1.00  0.00     0.173 A 
ATOM     82  C   UNL A   1      44.705  26.379  35.464  1.00  0.00     0.173 A 
ATOM     83  F   UNL A   1      46.334  29.258  33.949  1.00  0.00    -0.203 F 
ATOM     84  C   UNL A   1      47.100  27.775  35.611  1.00  0.00     0.198 A 
ATOM     85  C   UNL A   1      45.693  25.978  36.358  1.00  0.00     0.198 A 
ATOM     86  F   UNL A   1      43.559  25.684  35.413  1.00  0.00    -0.203 F 
ATOM     87  F   UNL A   1      48.266  28.435  35.662  1.00  0.00    -0.200 F 
ATOM     88  C   UNL A   1      46.891  26.675  36.428  1.00  0.00     0.200 A 
ATOM     89  F   UNL A   1      45.486  24.920  37.153  1.00  0.00    -0.200 F 
ATOM     90  F   UNL A   1      47.847  26.279  37.280  1.00  0.00    -0.200 F 
ENDBRANCH  57  80
ENDBRANCH  31  32
ENDBRANCH  24  26
ENDBRANCH  23  24
ENDBRANCH  22  23
ENDBRANCH   1  22
TORSDOF 16
ENDMDL
MODEL 2
REMARK VINA RESULT:     -11.1      4.528      9.654
REMARK SMILES CSc1ccc(Cl)c(C(=O)N[C@@H](CO)C(=O)OCCOC(=O)c2ccc(-c3c4nc(c(-c5c(F)c(F)c(F)c(F)c5F)c5ccc([nH]5)c(-c5c(F)c(F)c(F)c(F)c5F)c5nc(c(-c6c(F)c(F)c(F)c(F)c6F)c6ccc3[nH]6)C=C5)C=C4)cc2)c1
REMARK SMILES IDX 18 1 17 2 15 3 16 4 12 5 11 6 9 7 10 8 8 10 3 11 4 12 86 13
REMARK SMILES IDX 5 14 6 15 7 16 2 17 1 18 13 19 14 20 19 22 20 23 21 24 22 25
REMARK SMILES IDX 23 26 24 27 85 28 25 29 84 30 26 31 27 32 28 33 78 34 29 35
REMARK SMILES IDX 83 36 77 37 79 38 30 39 82 40 76 41 75 42 31 44 63 45 43 46
REMARK SMILES IDX 62 47 44 48 47 49 61 50 80 51 45 52 46 53 60 55 81 56 48 57
REMARK SMILES IDX 32 58 33 59 41 60 34 61 35 62 39 63 42 64 36 65 37 66 40 67
REMARK SMILES IDX 38 68 64 69 65 70 73 71 66 72 67 73 71 74 74 75 68 76 69 77
REMARK SMILES IDX 72 78 70 79 49 80 50 81 58 82 51 83 52 84 56 85 59 86 53 87
REMARK SMILES IDX 54 88 57 89 55 90
REMARK H PARENT 11 9 14 21 79 43 47 54
REMARK Flexibility Score: inf
ROOT
ATOM      1  C   UNL A   1      35.990  22.554  23.858  1.00  0.00     0.274 C 
ENDROOT
BRANCH   1   2
ATOM      2  O   UNL A   1      35.317  23.255  24.922  1.00  0.00    -0.460 OA
BRANCH   2   3
ATOM      3  C   UNL A   1      34.068  22.809  25.219  1.00  0.00     0.331 C 
ATOM      4  O   UNL A   1      33.384  22.098  24.488  1.00  0.00    -0.250 OA
BRANCH   3   5
ATOM      5  C   UNL A   1      33.530  23.348  26.548  1.00  0.00     0.218 C 
BRANCH   5   6
ATOM      6  N   UNL A   1      32.100  23.154  26.819  1.00  0.00    -0.337 N 
ATOM      7  C   UNL A   1      30.994  23.945  26.634  1.00  0.00     0.253 C 
ATOM      8  O   UNL A   1      29.944  23.580  27.168  1.00  0.00    -0.269 OA
ATOM      9  H   UNL A   1      31.892  22.277  27.212  1.00  0.00     0.164 HD
BRANCH   7  10
ATOM     10  C   UNL A   1      30.934  25.130  25.731  1.00  0.00     0.059 A 
ATOM     11  C   UNL A   1      31.325  27.565  25.635  1.00  0.00     0.008 A 
ATOM     12  C   UNL A   1      30.901  27.570  24.310  1.00  0.00     0.016 A 
ATOM     13  C   UNL A   1      31.286  26.355  26.346  1.00  0.00     0.030 A 
ATOM     14  C   UNL A   1      30.597  26.366  23.672  1.00  0.00     0.022 A 
ATOM     15  C   UNL A   1      30.682  25.145  24.358  1.00  0.00     0.053 A 
ATOM     16  Cl  UNL A   1      30.625  23.739  23.365  1.00  0.00    -0.083 Cl
BRANCH  11  17
ATOM     17  S   UNL A   1      31.954  29.015  26.468  1.00  0.00    -0.130 SA
ATOM     18  C   UNL A   1      33.560  28.439  27.105  1.00  0.00     0.091 C 
ENDBRANCH  11  17
ENDBRANCH   7  10
ENDBRANCH   5   6
BRANCH   5  19
ATOM     19  C   UNL A   1      34.354  22.661  27.652  1.00  0.00     0.193 C 
BRANCH  19  20
ATOM     20  O   UNL A   1      34.869  21.403  27.209  1.00  0.00    -0.394 OA
ATOM     21  H   UNL A   1      35.650  21.169  27.734  1.00  0.00     0.210 HD
ENDBRANCH  19  20
ENDBRANCH   5  19
ENDBRANCH   3   5
ENDBRANCH   2   3
ENDBRANCH   1   2
BRANCH   1  22
ATOM     22  C   UNL A   1      36.974  21.523  24.410  1.00  0.00     0.275 C 
BRANCH  22  23
ATOM     23  O   UNL A   1      37.376  21.846  25.754  1.00  0.00    -0.458 OA
BRANCH  23  24
ATOM     24  C   UNL A   1      38.679  21.613  26.019  1.00  0.00     0.338 C 
ATOM     25  O   UNL A   1      39.335  20.615  25.750  1.00  0.00    -0.246 OA
BRANCH  24  26
ATOM     26  C   UNL A   1      39.280  22.797  26.636  1.00  0.00     0.060 A 
ATOM     27  C   UNL A   1      38.843  24.058  26.232  1.00  0.00     0.016 A 
ATOM     28  C   UNL A   1      40.368  22.660  27.496  1.00  0.00     0.016 A 
ATOM     29  C   UNL A   1      39.529  25.196  26.647  1.00  0.00     0.010 A 
ATOM     30  C   UNL A   1      41.033  23.806  27.939  1.00  0.00     0.010 A 
ATOM     31  C   UNL A   1      40.640  25.081  27.493  1.00  0.00    -0.014 A 
BRANCH  31  32
ATOM     32  C   UNL A   1      41.443  26.278  27.853  1.00  0.00     0.031 A 
ATOM     33  C   UNL A   1      40.819  27.372  28.676  1.00  0.00     0.074 A 
ATOM     34  C   UNL A   1      42.725  26.390  27.459  1.00  0.00     0.049 A 
ATOM     35  N   UNL A   1      41.274  28.569  28.950  1.00  0.00    -0.248 NA
ATOM     36  C   UNL A   1      39.511  27.076  29.276  1.00  0.00     0.031 C 
ATOM     37  C   UNL A   1      43.476  25.377  26.718  1.00  0.00     0.029 A 
ATOM     38  N   UNL A   1      43.620  27.420  27.619  1.00  0.00    -0.354 N 
ATOM     39  C   UNL A   1      40.291  29.178  29.719  1.00  0.00     0.074 A 
ATOM     40  C   UNL A   1      39.222  28.219  29.881  1.00  0.00     0.031 C 
ATOM     41  C   UNL A   1      44.719  25.831  26.492  1.00  0.00     0.029 A 
ATOM     42  C   UNL A   1      44.828  27.195  27.004  1.00  0.00     0.049 A 
ATOM     43  H   UNL A   1      43.416  28.239  28.126  1.00  0.00     0.167 HD
ATOM     44  C   UNL A   1      40.281  30.429  30.235  1.00  0.00     0.037 A 
ATOM     45  C   UNL A   1      45.883  28.012  26.828  1.00  0.00     0.037 A 
ATOM     46  C   UNL A   1      41.349  31.380  30.082  1.00  0.00     0.049 A 
ATOM     47  C   UNL A   1      45.819  29.423  27.349  1.00  0.00     0.074 A 
ATOM     48  C   UNL A   1      41.415  32.687  30.534  1.00  0.00     0.029 A 
ATOM     49  N   UNL A   1      42.545  31.120  29.433  1.00  0.00    -0.354 N 
ATOM     50  N   UNL A   1      44.861  30.014  28.019  1.00  0.00    -0.248 NA
ATOM     51  C   UNL A   1      46.977  30.285  27.071  1.00  0.00     0.031 C 
ATOM     52  C   UNL A   1      42.644  33.226  30.136  1.00  0.00     0.029 A 
ATOM     53  C   UNL A   1      43.356  32.240  29.471  1.00  0.00     0.049 A 
ATOM     54  H   UNL A   1      42.782  30.264  29.007  1.00  0.00     0.167 HD
ATOM     55  C   UNL A   1      45.307  31.307  28.263  1.00  0.00     0.074 A 
ATOM     56  C   UNL A   1      46.627  31.412  27.677  1.00  0.00     0.031 C 
ATOM     57  C   UNL A   1      44.678  32.317  28.908  1.00  0.00     0.037 A 
BRANCH  44  58
ATOM     58  C   UNL A   1      39.059  30.863  30.987  1.00  0.00     0.064 A 
ATOM     59  C   UNL A   1      37.957  31.431  30.332  1.00  0.00     0.173 A 
ATOM     60  C   UNL A   1      38.969  30.653  32.372  1.00  0.00     0.173 A 
ATOM     61  F   UNL A   1      38.000  31.658  29.011  1.00  0.00    -0.203 F 
ATOM     62  C   UNL A   1      36.810  31.781  31.040  1.00  0.00     0.198 A 
ATOM     63  C   UNL A   1      37.812  30.985  33.071  1.00  0.00     0.198 A 
ATOM     64  F   UNL A   1      39.996  30.108  33.040  1.00  0.00    -0.203 F 
ATOM     65  F   UNL A   1      35.775  32.342  30.399  1.00  0.00    -0.200 F 
ATOM     66  C   UNL A   1      36.735  31.551  32.407  1.00  0.00     0.200 A 
ATOM     67  F   UNL A   1      37.738  30.749  34.389  1.00  0.00    -0.200 F 
ATOM     68  F   UNL A   1      35.624  31.873  33.083  1.00  0.00    -0.200 F 
ENDBRANCH  44  58
BRANCH  45  69
ATOM     69  C   UNL A   1      47.078  27.534  26.087  1.00  0.00     0.064 A 
ATOM     70  C   UNL A   1      48.172  26.980  26.765  1.00  0.00     0.173 A 
ATOM     71  C   UNL A   1      47.156  27.632  24.690  1.00  0.00     0.173 A 
ATOM     72  F   UNL A   1      48.154  26.891  28.103  1.00  0.00    -0.203 F 
ATOM     73  C   UNL A   1      49.306  26.556  26.074  1.00  0.00     0.198 A 
ATOM     74  C   UNL A   1      48.277  27.181  23.998  1.00  0.00     0.198 A 
ATOM     75  F   UNL A   1      46.136  28.157  23.994  1.00  0.00    -0.203 F 
ATOM     76  F   UNL A   1      50.356  26.072  26.750  1.00  0.00    -0.200 F 
ATOM     77  C   UNL A   1      49.354  26.651  24.691  1.00  0.00     0.200 A 
ATOM     78  F   UNL A   1      48.315  27.262  22.660  1.00  0.00    -0.200 F 
ATOM     79  F   UNL A   1      50.443  26.238  24.028  1.00  0.00    -0.200 F 
ENDBRANCH  45  69
BRANCH  57  80
ATOM     80  C   UNL A   1      45.426  33.605  29.070  1.00  0.00     0.064 A 
ATOM     81  C   UNL A   1      45.310  34.644  28.138  1.00  0.00     0.173 A 
ATOM     82  C   UNL A   1      46.227  33.817  30.202  1.00  0.00     0.173 A 
ATOM     83  F   UNL A   1      44.567  34.480  27.033  1.00  0.00    -0.203 F 
ATOM     84  C   UNL A   1      45.983  35.849  28.326  1.00  0.00     0.198 A 
ATOM     85  C   UNL A   1      46.880  35.030  30.398  1.00  0.00     0.198 A 
ATOM     86  F   UNL A   1      46.365  32.852  31.124  1.00  0.00    -0.203 F 
ATOM     87  F   UNL A   1      45.886  36.819  27.406  1.00  0.00    -0.200 F 
ATOM     88  C   UNL A   1      46.761  36.043  29.458  1.00  0.00     0.200 A 
ATOM     89  F   UNL A   1      47.624  35.219  31.496  1.00  0.00    -0.200 F 
ATOM     90  F   UNL A   1      47.402  37.205  29.641  1.00  0.00    -0.200 F 
ENDBRANCH  57  80
ENDBRANCH  31  32
ENDBRANCH  24  26
ENDBRANCH  23  24
ENDBRANCH  22  23
ENDBRANCH   1  22
TORSDOF 16
ENDMDL
MODEL 3
REMARK VINA RESULT:     -11.1      4.624      9.771
REMARK SMILES CSc1ccc(Cl)c(C(=O)N[C@@H](CO)C(=O)OCCOC(=O)c2ccc(-c3c4nc(c(-c5c(F)c(F)c(F)c(F)c5F)c5ccc([nH]5)c(-c5c(F)c(F)c(F)c(F)c5F)c5nc(c(-c6c(F)c(F)c(F)c(F)c6F)c6ccc3[nH]6)C=C5)C=C4)cc2)c1
REMARK SMILES IDX 18 1 17 2 15 3 16 4 12 5 11 6 9 7 10 8 8 10 3 11 4 12 86 13
REMARK SMILES IDX 5 14 6 15 7 16 2 17 1 18 13 19 14 20 19 22 20 23 21 24 22 25
REMARK SMILES IDX 23 26 24 27 85 28 25 29 84 30 26 31 27 32 28 33 78 34 29 35
REMARK SMILES IDX 83 36 77 37 79 38 30 39 82 40 76 41 75 42 31 44 63 45 43 46
REMARK SMILES IDX 62 47 44 48 47 49 61 50 80 51 45 52 46 53 60 55 81 56 48 57
REMARK SMILES IDX 32 58 33 59 41 60 34 61 35 62 39 63 42 64 36 65 37 66 40 67
REMARK SMILES IDX 38 68 64 69 65 70 73 71 66 72 67 73 71 74 74 75 68 76 69 77
REMARK SMILES IDX 72 78 70 79 49 80 50 81 58 82 51 83 52 84 56 85 59 86 53 87
REMARK SMILES IDX 54 88 57 89 55 90
REMARK H PARENT 11 9 14 21 79 43 47 54
REMARK Flexibility Score: inf
ROOT
ATOM      1  C   UNL A   1      35.827  20.225  25.004  1.00  0.00     0.274 C 
ENDROOT
BRANCH   1   2
ATOM      2  O   UNL A   1      34.817  21.219  24.742  1.00  0.00    -0.460 OA
BRANCH   2   3
ATOM      3  C   UNL A   1      33.684  21.111  25.485  1.00  0.00     0.331 C 
ATOM      4  O   UNL A   1      33.071  20.065  25.683  1.00  0.00    -0.250 OA
BRANCH   3   5
ATOM      5  C   UNL A   1      33.168  22.456  26.006  1.00  0.00     0.218 C 
BRANCH   5   6
ATOM      6  N   UNL A   1      31.807  22.483  26.554  1.00  0.00    -0.337 N 
ATOM      7  C   UNL A   1      30.862  23.471  26.676  1.00  0.00     0.253 C 
ATOM      8  O   UNL A   1      29.883  23.232  27.386  1.00  0.00    -0.269 OA
ATOM      9  H   UNL A   1      31.509  21.614  26.906  1.00  0.00     0.164 HD
BRANCH   7  10
ATOM     10  C   UNL A   1      30.865  24.751  25.911  1.00  0.00     0.059 A 
ATOM     11  C   UNL A   1      31.314  27.170  26.104  1.00  0.00     0.008 A 
ATOM     12  C   UNL A   1      30.943  27.335  24.773  1.00  0.00     0.016 A 
ATOM     13  C   UNL A   1      31.221  25.889  26.672  1.00  0.00     0.030 A 
ATOM     14  C   UNL A   1      30.637  26.218  23.994  1.00  0.00     0.022 A 
ATOM     15  C   UNL A   1      30.667  24.926  24.540  1.00  0.00     0.053 A 
ATOM     16  Cl  UNL A   1      30.616  23.643  23.394  1.00  0.00    -0.083 Cl
BRANCH  11  17
ATOM     17  S   UNL A   1      31.943  28.500  27.118  1.00  0.00    -0.130 SA
ATOM     18  C   UNL A   1      33.744  28.356  26.885  1.00  0.00     0.091 C 
ENDBRANCH  11  17
ENDBRANCH   7  10
ENDBRANCH   5   6
BRANCH   5  19
ATOM     19  C   UNL A   1      34.163  22.903  27.092  1.00  0.00     0.193 C 
BRANCH  19  20
ATOM     20  O   UNL A   1      34.768  21.779  27.737  1.00  0.00    -0.394 OA
ATOM     21  H   UNL A   1      35.381  21.345  27.123  1.00  0.00     0.210 HD
ENDBRANCH  19  20
ENDBRANCH   5  19
ENDBRANCH   3   5
ENDBRANCH   2   3
ENDBRANCH   1   2
BRANCH   1  22
ATOM     22  C   UNL A   1      37.225  20.762  24.699  1.00  0.00     0.275 C 
BRANCH  22  23
ATOM     23  O   UNL A   1      37.694  21.636  25.743  1.00  0.00    -0.458 OA
BRANCH  23  24
ATOM     24  C   UNL A   1      38.973  21.425  26.116  1.00  0.00     0.338 C 
ATOM     25  O   UNL A   1      39.649  20.418  25.950  1.00  0.00    -0.246 OA
BRANCH  24  26
ATOM     26  C   UNL A   1      39.525  22.642  26.713  1.00  0.00     0.060 A 
ATOM     27  C   UNL A   1      39.077  23.878  26.247  1.00  0.00     0.016 A 
ATOM     28  C   UNL A   1      40.582  22.561  27.617  1.00  0.00     0.016 A 
ATOM     29  C   UNL A   1      39.722  25.046  26.647  1.00  0.00     0.010 A 
ATOM     30  C   UNL A   1      41.205  23.736  28.044  1.00  0.00     0.010 A 
ATOM     31  C   UNL A   1      40.802  24.985  27.538  1.00  0.00    -0.014 A 
BRANCH  31  32
ATOM     32  C   UNL A   1      41.565  26.212  27.886  1.00  0.00     0.031 A 
ATOM     33  C   UNL A   1      40.911  27.286  28.711  1.00  0.00     0.074 A 
ATOM     34  C   UNL A   1      42.838  26.368  27.477  1.00  0.00     0.049 A 
ATOM     35  N   UNL A   1      41.325  28.499  28.976  1.00  0.00    -0.248 NA
ATOM     36  C   UNL A   1      39.620  26.945  29.325  1.00  0.00     0.031 C 
ATOM     37  C   UNL A   1      43.617  25.380  26.733  1.00  0.00     0.029 A 
ATOM     38  N   UNL A   1      43.697  27.430  27.624  1.00  0.00    -0.354 N 
ATOM     39  C   UNL A   1      40.329  29.077  29.752  1.00  0.00     0.074 A 
ATOM     40  C   UNL A   1      39.296  28.080  29.930  1.00  0.00     0.031 C 
ATOM     41  C   UNL A   1      44.841  25.878  26.492  1.00  0.00     0.029 A 
ATOM     42  C   UNL A   1      44.906  27.246  26.998  1.00  0.00     0.049 A 
ATOM     43  H   UNL A   1      43.468  28.244  28.130  1.00  0.00     0.167 HD
ATOM     44  C   UNL A   1      40.278  30.328  30.264  1.00  0.00     0.037 A 
ATOM     45  C   UNL A   1      45.928  28.101  26.808  1.00  0.00     0.037 A 
ATOM     46  C   UNL A   1      41.310  31.317  30.096  1.00  0.00     0.049 A 
ATOM     47  C   UNL A   1      45.819  29.511  27.324  1.00  0.00     0.074 A 
ATOM     48  C   UNL A   1      41.334  32.627  30.543  1.00  0.00     0.029 A 
ATOM     49  N   UNL A   1      42.507  31.096  29.435  1.00  0.00    -0.354 N 
ATOM     50  N   UNL A   1      44.848  30.070  28.002  1.00  0.00    -0.248 NA
ATOM     51  C   UNL A   1      46.943  30.413  27.031  1.00  0.00     0.031 C 
ATOM     52  C   UNL A   1      42.537  33.208  30.130  1.00  0.00     0.029 A 
ATOM     53  C   UNL A   1      43.278  32.246  29.461  1.00  0.00     0.049 A 
ATOM     54  H   UNL A   1      42.771  30.249  29.010  1.00  0.00     0.167 HD
ATOM     55  C   UNL A   1      45.249  31.378  28.236  1.00  0.00     0.074 A 
ATOM     56  C   UNL A   1      46.558  31.528  27.636  1.00  0.00     0.031 C 
ATOM     57  C   UNL A   1      44.591  32.368  28.884  1.00  0.00     0.037 A 
BRANCH  44  58
ATOM     58  C   UNL A   1      39.049  30.721  31.027  1.00  0.00     0.064 A 
ATOM     59  C   UNL A   1      38.958  30.544  32.414  1.00  0.00     0.173 A 
ATOM     60  C   UNL A   1      37.973  31.333  30.366  1.00  0.00     0.173 A 
ATOM     61  F   UNL A   1      39.958  29.955  33.087  1.00  0.00    -0.203 F 
ATOM     62  C   UNL A   1      37.829  30.962  33.114  1.00  0.00     0.198 A 
ATOM     63  C   UNL A   1      36.855  31.768  31.072  1.00  0.00     0.198 A 
ATOM     64  F   UNL A   1      38.016  31.527  29.040  1.00  0.00    -0.203 F 
ATOM     65  F   UNL A   1      37.752  30.766  34.437  1.00  0.00    -0.200 F 
ATOM     66  C   UNL A   1      36.782  31.580  32.444  1.00  0.00     0.200 A 
ATOM     67  F   UNL A   1      35.852  32.377  30.425  1.00  0.00    -0.200 F 
ATOM     68  F   UNL A   1      35.703  31.996  33.121  1.00  0.00    -0.200 F 
ENDBRANCH  44  58
BRANCH  45  69
ATOM     69  C   UNL A   1      47.132  27.663  26.056  1.00  0.00     0.064 A 
ATOM     70  C   UNL A   1      48.266  27.184  26.726  1.00  0.00     0.173 A 
ATOM     71  C   UNL A   1      47.179  27.726  24.655  1.00  0.00     0.173 A 
ATOM     72  F   UNL A   1      48.277  27.131  28.067  1.00  0.00    -0.203 F 
ATOM     73  C   UNL A   1      49.406  26.798  26.025  1.00  0.00     0.198 A 
ATOM     74  C   UNL A   1      48.309  27.313  23.953  1.00  0.00     0.198 A 
ATOM     75  F   UNL A   1      46.121  28.180  23.966  1.00  0.00    -0.203 F 
ATOM     76  F   UNL A   1      50.492  26.386  26.693  1.00  0.00    -0.200 F 
ATOM     77  C   UNL A   1      49.425  26.857  24.639  1.00  0.00     0.200 A 
ATOM     78  F   UNL A   1      48.318  27.359  22.614  1.00  0.00    -0.200 F 
ATOM     79  F   UNL A   1      50.520  26.481  23.966  1.00  0.00    -0.200 F 
ENDBRANCH  45  69
BRANCH  57  80
ATOM     80  C   UNL A   1      45.294  33.683  29.033  1.00  0.00     0.064 A 
ATOM     81  C   UNL A   1      46.153  33.939  30.109  1.00  0.00     0.173 A 
ATOM     82  C   UNL A   1      45.145  34.676  28.054  1.00  0.00     0.173 A 
ATOM     83  F   UNL A   1      46.314  33.023  31.077  1.00  0.00    -0.203 F 
ATOM     84  C   UNL A   1      46.827  35.153  30.209  1.00  0.00     0.198 A 
ATOM     85  C   UNL A   1      45.838  35.879  28.146  1.00  0.00     0.198 A 
ATOM     86  F   UNL A   1      44.336  34.474  27.002  1.00  0.00    -0.203 F 
ATOM     87  F   UNL A   1      47.619  35.392  31.264  1.00  0.00    -0.200 F 
ATOM     88  C   UNL A   1      46.675  36.118  29.226  1.00  0.00     0.200 A 
ATOM     89  F   UNL A   1      45.696  36.807  27.189  1.00  0.00    -0.200 F 
ATOM     90  F   UNL A   1      47.331  37.282  29.320  1.00  0.00    -0.200 F 
ENDBRANCH  57  80
ENDBRANCH  31  32
ENDBRANCH  24  26
ENDBRANCH  23  24
ENDBRANCH  22  23
ENDBRANCH   1  22
TORSDOF 16
ENDMDL
