MODEL 1
REMARK VINA RESULT:     -12.3      0.000      0.000
REMARK SMILES O=C(OCCOC(=O)c1ccc(-c2c3nc(c(-c4c(F)c(F)c(F)c(F)c4F)c4ccc([nH]4)c(-c4c(F)c(F)c(F)c(F)c4F)c4nc(c(-c5c(F)c(F)c(F)c(F)c5F)c5ccc2[nH]5)C=C4)C=C3)cc1)C1=Cc2cc(S(F)(F)(F)(F)F)ccc2O[C@@H]1C(F)(F)F
REMARK SMILES IDX 5 1 4 2 3 3 2 4 1 5 72 6 73 7 87 8 74 9 86 10 75 11 85 12
REMARK SMILES IDX 76 13 84 14 83 15 88 16 89 17 90 18 91 19 77 20 78 21 79 22
REMARK SMILES IDX 80 23 81 24 82 25 6 26 7 27 8 28 9 29 10 30 71 31 11 32
REMARK SMILES IDX 70 33 12 34 13 35 14 36 64 37 15 38 69 39 63 40 65 41 16 42
REMARK SMILES IDX 68 43 62 44 61 45 17 47 49 48 29 49 48 50 30 51 33 52 47 53
REMARK SMILES IDX 66 54 31 55 32 56 46 58 67 59 34 60 18 61 19 62 27 63 20 64
REMARK SMILES IDX 21 65 25 66 28 67 22 68 23 69 26 70 24 71 50 72 51 73 59 74
REMARK SMILES IDX 52 75 53 76 57 77 60 78 54 79 55 80 58 81 56 82 35 83 36 84
REMARK SMILES IDX 44 85 37 86 38 87 42 88 45 89 39 90 40 91 43 92 41 93
REMARK H PARENT 65 46 33 57
REMARK Flexibility Score: inf
ROOT
ATOM      1  C   UNL A   1      37.285  22.232  24.684  1.00  0.00     0.275 C 
ENDROOT
BRANCH   1   2
ATOM      2  C   UNL A   1      36.962  23.052  23.447  1.00  0.00     0.275 C 
BRANCH   2   3
ATOM      3  O   UNL A   1      35.886  23.934  23.731  1.00  0.00    -0.459 OA
BRANCH   3   4
ATOM      4  C   UNL A   1      34.546  23.503  23.545  1.00  0.00     0.338 C 
ATOM      5  O   UNL A   1      34.089  23.336  22.371  1.00  0.00    -0.246 OA
BRANCH   4   6
ATOM      6  C   UNL A   1      33.659  23.240  24.751  1.00  0.00     0.087 C 
ATOM      7  C   UNL A   1      33.103  24.282  25.426  1.00  0.00     0.027 C 
ATOM      8  C   UNL A   1      33.392  21.813  25.202  1.00  0.00     0.316 C 
ATOM      9  C   UNL A   1      33.370  25.708  24.976  1.00  0.00     0.019 A 
ATOM     10  O   UNL A   1      33.040  24.925  22.756  1.00  0.00    -0.475 OA
ATOM     11  C   UNL A   1      33.764  26.675  25.887  1.00  0.00     0.036 A 
ATOM     12  C   UNL A   1      33.290  25.976  23.678  1.00  0.00     0.128 A 
ATOM     13  C   UNL A   1      33.776  27.989  25.360  1.00  0.00     0.107 A 
ATOM     14  C   UNL A   1      33.447  27.262  23.218  1.00  0.00     0.048 A 
ATOM     15  C   UNL A   1      33.779  28.278  24.070  1.00  0.00     0.028 A 
BRANCH   8  16
ATOM     16  C   UNL A   1      31.899  21.534  25.144  1.00  0.00     0.430 C 
ATOM     17  F   UNL A   1      31.371  22.162  24.097  1.00  0.00    -0.167 F 
ATOM     18  F   UNL A   1      31.697  20.225  25.024  1.00  0.00    -0.167 F 
ATOM     19  F   UNL A   1      31.323  21.971  26.259  1.00  0.00    -0.167 F 
ENDBRANCH   8  16
BRANCH  13  20
ATOM     20  S   UNL A   1      33.788  29.367  26.533  1.00  0.00     0.310 S 
ATOM     21  F   UNL A   1      33.703  28.395  27.783  1.00  0.00    -0.094 F 
ATOM     22  F   UNL A   1      32.213  29.373  26.516  1.00  0.00    -0.094 F 
ATOM     23  F   UNL A   1      33.811  30.555  27.535  1.00  0.00    -0.094 F 
ATOM     24  F   UNL A   1      35.360  29.253  26.645  1.00  0.00    -0.094 F 
ATOM     25  F   UNL A   1      33.777  28.087  25.604  1.00  0.00    -0.094 F 
ENDBRANCH  13  20
ENDBRANCH   4   6
ENDBRANCH   3   4
ENDBRANCH   2   3
ENDBRANCH   1   2
BRANCH   1  26
ATOM     26  O   UNL A   1      37.637  23.102  25.750  1.00  0.00    -0.458 OA
BRANCH  26  27
ATOM     27  C   UNL A   1      38.956  23.084  26.275  1.00  0.00     0.338 C 
ATOM     28  O   UNL A   1      39.682  22.052  26.132  1.00  0.00    -0.246 OA
BRANCH  27  29
ATOM     29  C   UNL A   1      39.499  24.299  27.008  1.00  0.00     0.060 A 
ATOM     30  C   UNL A   1      39.265  24.458  28.364  1.00  0.00     0.016 A 
ATOM     31  C   UNL A   1      40.094  25.250  26.296  1.00  0.00     0.016 A 
ATOM     32  C   UNL A   1      39.436  25.785  28.824  1.00  0.00     0.010 A 
ATOM     33  C   UNL A   1      40.355  26.479  26.851  1.00  0.00     0.010 A 
ATOM     34  C   UNL A   1      40.094  26.726  28.169  1.00  0.00    -0.014 A 
BRANCH  34  35
ATOM     35  C   UNL A   1      40.536  28.013  28.847  1.00  0.00     0.031 A 
ATOM     36  C   UNL A   1      39.568  29.002  29.027  1.00  0.00     0.074 A 
ATOM     37  C   UNL A   1      41.834  28.105  29.320  1.00  0.00     0.049 A 
ATOM     38  N   UNL A   1      39.694  30.154  29.687  1.00  0.00    -0.248 NA
ATOM     39  C   UNL A   1      38.198  28.921  28.496  1.00  0.00     0.031 C 
ATOM     40  C   UNL A   1      42.814  27.108  29.150  1.00  0.00     0.029 A 
ATOM     41  N   UNL A   1      42.406  29.144  30.020  1.00  0.00    -0.354 N 
ATOM     42  C   UNL A   1      38.544  30.831  29.658  1.00  0.00     0.074 A 
ATOM     43  C   UNL A   1      37.567  30.050  28.887  1.00  0.00     0.031 C 
ATOM     44  C   UNL A   1      43.963  27.543  29.729  1.00  0.00     0.029 A 
ATOM     45  C   UNL A   1      43.721  28.820  30.271  1.00  0.00     0.049 A 
ATOM     46  H   UNL A   1      41.953  29.974  30.294  1.00  0.00     0.167 HD
ATOM     47  C   UNL A   1      38.270  32.066  30.247  1.00  0.00     0.037 A 
ATOM     48  C   UNL A   1      44.671  29.583  30.933  1.00  0.00     0.037 A 
ATOM     49  C   UNL A   1      39.209  32.809  30.946  1.00  0.00     0.049 A 
ATOM     50  C   UNL A   1      44.414  30.845  31.471  1.00  0.00     0.074 A 
ATOM     51  C   UNL A   1      38.948  34.052  31.552  1.00  0.00     0.029 A 
ATOM     52  N   UNL A   1      40.531  32.496  31.176  1.00  0.00    -0.354 N 
ATOM     53  N   UNL A   1      43.254  31.503  31.476  1.00  0.00    -0.248 NA
ATOM     54  C   UNL A   1      45.422  31.676  32.144  1.00  0.00     0.031 C 
ATOM     55  C   UNL A   1      40.099  34.488  32.131  1.00  0.00     0.029 A 
ATOM     56  C   UNL A   1      41.097  33.525  31.896  1.00  0.00     0.049 A 
ATOM     57  H   UNL A   1      40.991  31.678  30.877  1.00  0.00     0.167 HD
ATOM     58  C   UNL A   1      43.392  32.674  32.101  1.00  0.00     0.074 A 
ATOM     59  C   UNL A   1      44.791  32.805  32.534  1.00  0.00     0.031 C 
ATOM     60  C   UNL A   1      42.408  33.637  32.331  1.00  0.00     0.037 A 
BRANCH  47  61
ATOM     61  C   UNL A   1      36.864  32.628  30.115  1.00  0.00     0.064 A 
ATOM     62  C   UNL A   1      36.523  33.420  29.031  1.00  0.00     0.173 A 
ATOM     63  C   UNL A   1      35.998  32.388  31.092  1.00  0.00     0.173 A 
ATOM     64  F   UNL A   1      37.254  33.483  27.922  1.00  0.00    -0.203 F 
ATOM     65  C   UNL A   1      35.328  34.156  29.212  1.00  0.00     0.198 A 
ATOM     66  C   UNL A   1      34.790  33.042  31.133  1.00  0.00     0.198 A 
ATOM     67  F   UNL A   1      36.301  31.505  32.040  1.00  0.00    -0.203 F 
ATOM     68  F   UNL A   1      35.112  35.192  28.406  1.00  0.00    -0.200 F 
ATOM     69  C   UNL A   1      34.414  33.885  30.124  1.00  0.00     0.200 A 
ATOM     70  F   UNL A   1      33.977  32.853  32.168  1.00  0.00    -0.200 F 
ATOM     71  F   UNL A   1      33.190  34.404  30.066  1.00  0.00    -0.200 F 
ENDBRANCH  47  61
BRANCH  48  72
ATOM     72  C   UNL A   1      46.072  29.012  31.079  1.00  0.00     0.064 A 
ATOM     73  C   UNL A   1      46.971  29.289  30.062  1.00  0.00     0.173 A 
ATOM     74  C   UNL A   1      46.432  28.300  32.142  1.00  0.00     0.173 A 
ATOM     75  F   UNL A   1      46.738  30.195  29.117  1.00  0.00    -0.203 F 
ATOM     76  C   UNL A   1      48.157  28.520  30.119  1.00  0.00     0.198 A 
ATOM     77  C   UNL A   1      47.661  27.688  32.189  1.00  0.00     0.198 A 
ATOM     78  F   UNL A   1      45.595  28.180  33.168  1.00  0.00    -0.203 F 
ATOM     79  F   UNL A   1      48.901  28.447  29.020  1.00  0.00    -0.200 F 
ATOM     80  C   UNL A   1      48.577  27.870  31.190  1.00  0.00     0.200 A 
ATOM     81  F   UNL A   1      47.965  26.908  33.222  1.00  0.00    -0.200 F 
ATOM     82  F   UNL A   1      49.823  27.416  31.290  1.00  0.00    -0.200 F 
ENDBRANCH  48  72
BRANCH  60  83
ATOM     83  C   UNL A   1      42.798  34.885  33.107  1.00  0.00     0.064 A 
ATOM     84  C   UNL A   1      42.582  34.946  34.474  1.00  0.00     0.173 A 
ATOM     85  C   UNL A   1      43.281  35.926  32.439  1.00  0.00     0.173 A 
ATOM     86  F   UNL A   1      42.345  33.870  35.220  1.00  0.00    -0.203 F 
ATOM     87  C   UNL A   1      42.637  36.257  35.005  1.00  0.00     0.198 A 
ATOM     88  C   UNL A   1      43.436  37.144  33.057  1.00  0.00     0.198 A 
ATOM     89  F   UNL A   1      43.617  35.789  31.160  1.00  0.00    -0.203 F 
ATOM     90  F   UNL A   1      42.099  36.461  36.204  1.00  0.00    -0.200 F 
ATOM     91  C   UNL A   1      43.185  37.290  34.393  1.00  0.00     0.200 A 
ATOM     92  F   UNL A   1      43.836  38.193  32.345  1.00  0.00    -0.200 F 
ATOM     93  F   UNL A   1      43.477  38.415  35.041  1.00  0.00    -0.200 F 
ENDBRANCH  60  83
ENDBRANCH  34  35
ENDBRANCH  27  29
ENDBRANCH  26  27
ENDBRANCH   1  26
TORSDOF 13
ENDMDL
MODEL 2
REMARK VINA RESULT:     -12.3      3.743      8.609
REMARK SMILES O=C(OCCOC(=O)c1ccc(-c2c3nc(c(-c4c(F)c(F)c(F)c(F)c4F)c4ccc([nH]4)c(-c4c(F)c(F)c(F)c(F)c4F)c4nc(c(-c5c(F)c(F)c(F)c(F)c5F)c5ccc2[nH]5)C=C4)C=C3)cc1)C1=Cc2cc(S(F)(F)(F)(F)F)ccc2O[C@@H]1C(F)(F)F
REMARK SMILES IDX 5 1 4 2 3 3 2 4 1 5 72 6 73 7 87 8 74 9 86 10 75 11 85 12
REMARK SMILES IDX 76 13 84 14 83 15 88 16 89 17 90 18 91 19 77 20 78 21 79 22
REMARK SMILES IDX 80 23 81 24 82 25 6 26 7 27 8 28 9 29 10 30 71 31 11 32
REMARK SMILES IDX 70 33 12 34 13 35 14 36 64 37 15 38 69 39 63 40 65 41 16 42
REMARK SMILES IDX 68 43 62 44 61 45 17 47 49 48 29 49 48 50 30 51 33 52 47 53
REMARK SMILES IDX 66 54 31 55 32 56 46 58 67 59 34 60 18 61 19 62 27 63 20 64
REMARK SMILES IDX 21 65 25 66 28 67 22 68 23 69 26 70 24 71 50 72 51 73 59 74
REMARK SMILES IDX 52 75 53 76 57 77 60 78 54 79 55 80 58 81 56 82 35 83 36 84
REMARK SMILES IDX 44 85 37 86 38 87 42 88 45 89 39 90 40 91 43 92 41 93
REMARK H PARENT 65 46 33 57
REMARK Flexibility Score: inf
ROOT
ATOM      1  C   UNL A   1      33.664  28.523  27.216  1.00  0.00     0.275 C 
ENDROOT
BRANCH   1   2
ATOM      2  C   UNL A   1      32.198  28.339  27.570  1.00  0.00     0.275 C 
BRANCH   2   3
ATOM      3  O   UNL A   1      31.849  26.968  27.447  1.00  0.00    -0.459 OA
BRANCH   3   4
ATOM      4  C   UNL A   1      31.052  26.533  26.357  1.00  0.00     0.338 C 
ATOM      5  O   UNL A   1      29.946  25.945  26.573  1.00  0.00    -0.246 OA
BRANCH   4   6
ATOM      6  C   UNL A   1      31.520  26.771  24.931  1.00  0.00     0.087 C 
ATOM      7  C   UNL A   1      32.503  25.995  24.400  1.00  0.00     0.027 C 
ATOM      8  C   UNL A   1      30.891  27.876  24.097  1.00  0.00     0.316 C 
ATOM      9  C   UNL A   1      33.133  24.890  25.232  1.00  0.00     0.019 A 
ATOM     10  O   UNL A   1      30.928  24.359  25.946  1.00  0.00    -0.475 OA
ATOM     11  C   UNL A   1      34.510  24.767  25.318  1.00  0.00     0.036 A 
ATOM     12  C   UNL A   1      32.325  24.102  25.932  1.00  0.00     0.128 A 
ATOM     13  C   UNL A   1      34.941  23.580  25.957  1.00  0.00     0.107 A 
ATOM     14  C   UNL A   1      32.830  23.040  26.645  1.00  0.00     0.048 A 
ATOM     15  C   UNL A   1      34.177  22.823  26.725  1.00  0.00     0.028 A 
BRANCH   8  16
ATOM     16  C   UNL A   1      30.253  27.275  22.856  1.00  0.00     0.430 C 
ATOM     17  F   UNL A   1      29.719  26.095  23.160  1.00  0.00    -0.167 F 
ATOM     18  F   UNL A   1      29.303  28.089  22.406  1.00  0.00    -0.167 F 
ATOM     19  F   UNL A   1      31.179  27.112  21.917  1.00  0.00    -0.167 F 
ENDBRANCH   8  16
BRANCH  13  20
ATOM     20  S   UNL A   1      36.657  23.063  25.705  1.00  0.00     0.310 S 
ATOM     21  F   UNL A   1      36.867  24.094  24.518  1.00  0.00    -0.094 F 
ATOM     22  F   UNL A   1      36.168  22.025  24.625  1.00  0.00    -0.094 F 
ATOM     23  F   UNL A   1      38.134  22.623  25.501  1.00  0.00    -0.094 F 
ATOM     24  F   UNL A   1      37.141  24.205  26.684  1.00  0.00    -0.094 F 
ATOM     25  F   UNL A   1      35.175  23.599  25.837  1.00  0.00    -0.094 F 
ENDBRANCH  13  20
ENDBRANCH   4   6
ENDBRANCH   3   4
ENDBRANCH   2   3
ENDBRANCH   1   2
BRANCH   1  26
ATOM     26  O   UNL A   1      33.946  29.907  27.072  1.00  0.00    -0.458 OA
BRANCH  26  27
ATOM     27  C   UNL A   1      34.788  30.561  28.009  1.00  0.00     0.338 C 
ATOM     28  O   UNL A   1      34.405  31.636  28.567  1.00  0.00    -0.246 OA
BRANCH  27  29
ATOM     29  C   UNL A   1      36.149  29.975  28.347  1.00  0.00     0.060 A 
ATOM     30  C   UNL A   1      36.400  29.479  29.616  1.00  0.00     0.016 A 
ATOM     31  C   UNL A   1      37.114  30.060  27.438  1.00  0.00     0.016 A 
ATOM     32  C   UNL A   1      37.776  29.367  29.926  1.00  0.00     0.010 A 
ATOM     33  C   UNL A   1      38.420  29.804  27.778  1.00  0.00     0.010 A 
ATOM     34  C   UNL A   1      38.748  29.368  29.031  1.00  0.00    -0.014 A 
BRANCH  34  35
ATOM     35  C   UNL A   1      40.155  28.909  29.378  1.00  0.00     0.031 A 
ATOM     36  C   UNL A   1      40.562  27.672  28.876  1.00  0.00     0.074 A 
ATOM     37  C   UNL A   1      40.978  29.764  30.091  1.00  0.00     0.049 A 
ATOM     38  N   UNL A   1      41.774  27.120  28.956  1.00  0.00    -0.248 NA
ATOM     39  C   UNL A   1      39.680  26.747  28.148  1.00  0.00     0.031 C 
ATOM     40  C   UNL A   1      40.578  31.017  30.593  1.00  0.00     0.029 A 
ATOM     41  N   UNL A   1      42.296  29.572  30.441  1.00  0.00    -0.354 N 
ATOM     42  C   UNL A   1      41.783  25.936  28.340  1.00  0.00     0.074 A 
ATOM     43  C   UNL A   1      40.434  25.676  27.817  1.00  0.00     0.031 C 
ATOM     44  C   UNL A   1      41.635  31.568  31.245  1.00  0.00     0.029 A 
ATOM     45  C   UNL A   1      42.714  30.668  31.161  1.00  0.00     0.049 A 
ATOM     46  H   UNL A   1      42.845  28.786  30.213  1.00  0.00     0.167 HD
ATOM     47  C   UNL A   1      42.862  25.064  28.192  1.00  0.00     0.037 A 
ATOM     48  C   UNL A   1      43.962  30.888  31.724  1.00  0.00     0.037 A 
ATOM     49  C   UNL A   1      44.122  25.304  28.718  1.00  0.00     0.049 A 
ATOM     50  C   UNL A   1      45.026  29.989  31.626  1.00  0.00     0.074 A 
ATOM     51  C   UNL A   1      45.223  24.440  28.572  1.00  0.00     0.029 A 
ATOM     52  N   UNL A   1      44.533  26.389  29.460  1.00  0.00    -0.354 N 
ATOM     53  N   UNL A   1      45.046  28.823  30.978  1.00  0.00    -0.248 NA
ATOM     54  C   UNL A   1      46.342  30.197  32.247  1.00  0.00     0.031 C 
ATOM     55  C   UNL A   1      46.281  24.990  29.225  1.00  0.00     0.029 A 
ATOM     56  C   UNL A   1      45.858  26.207  29.790  1.00  0.00     0.049 A 
ATOM     57  H   UNL A   1      43.976  27.161  29.711  1.00  0.00     0.167 HD
ATOM     58  C   UNL A   1      46.247  28.253  31.093  1.00  0.00     0.074 A 
ATOM     59  C   UNL A   1      47.096  29.125  31.917  1.00  0.00     0.031 C 
ATOM     60  C   UNL A   1      46.670  27.043  30.541  1.00  0.00     0.037 A 
BRANCH  47  61
ATOM     61  C   UNL A   1      42.644  23.778  27.411  1.00  0.00     0.064 A 
ATOM     62  C   UNL A   1      42.220  22.628  28.055  1.00  0.00     0.173 A 
ATOM     63  C   UNL A   1      42.927  23.776  26.114  1.00  0.00     0.173 A 
ATOM     64  F   UNL A   1      41.689  22.634  29.275  1.00  0.00    -0.203 F 
ATOM     65  C   UNL A   1      42.403  21.446  27.299  1.00  0.00     0.198 A 
ATOM     66  C   UNL A   1      42.955  22.599  25.406  1.00  0.00     0.198 A 
ATOM     67  F   UNL A   1      43.185  24.924  25.494  1.00  0.00    -0.203 F 
ATOM     68  F   UNL A   1      42.369  20.286  27.948  1.00  0.00    -0.200 F 
ATOM     69  C   UNL A   1      42.605  21.416  25.995  1.00  0.00     0.200 A 
ATOM     70  F   UNL A   1      43.329  22.611  24.130  1.00  0.00    -0.200 F 
ATOM     71  F   UNL A   1      42.475  20.295  25.291  1.00  0.00    -0.200 F 
ENDBRANCH  47  61
BRANCH  48  72
ATOM     72  C   UNL A   1      44.185  32.182  32.490  1.00  0.00     0.064 A 
ATOM     73  C   UNL A   1      44.663  33.263  31.769  1.00  0.00     0.173 A 
ATOM     74  C   UNL A   1      43.913  32.285  33.787  1.00  0.00     0.173 A 
ATOM     75  F   UNL A   1      44.709  33.283  30.440  1.00  0.00    -0.203 F 
ATOM     76  C   UNL A   1      45.100  34.341  32.573  1.00  0.00     0.198 A 
ATOM     77  C   UNL A   1      44.244  33.422  34.482  1.00  0.00     0.198 A 
ATOM     78  F   UNL A   1      43.315  31.278  34.417  1.00  0.00    -0.203 F 
ATOM     79  F   UNL A   1      45.891  35.251  32.012  1.00  0.00    -0.200 F 
ATOM     80  C   UNL A   1      44.776  34.508  33.843  1.00  0.00     0.200 A 
ATOM     81  F   UNL A   1      44.044  33.468  35.796  1.00  0.00    -0.200 F 
ATOM     82  F   UNL A   1      44.957  35.669  34.466  1.00  0.00    -0.200 F 
ENDBRANCH  48  72
BRANCH  60  83
ATOM     83  C   UNL A   1      48.109  26.614  30.779  1.00  0.00     0.064 A 
ATOM     84  C   UNL A   1      49.099  26.986  29.883  1.00  0.00     0.173 A 
ATOM     85  C   UNL A   1      48.377  25.830  31.815  1.00  0.00     0.173 A 
ATOM     86  F   UNL A   1      48.940  27.958  28.990  1.00  0.00    -0.203 F 
ATOM     87  C   UNL A   1      50.293  26.237  30.006  1.00  0.00     0.198 A 
ATOM     88  C   UNL A   1      49.611  25.238  31.944  1.00  0.00     0.198 A 
ATOM     89  F   UNL A   1      47.444  25.614  32.737  1.00  0.00    -0.203 F 
ATOM     90  F   UNL A   1      51.147  26.263  28.987  1.00  0.00    -0.200 F 
ATOM     91  C   UNL A   1      50.618  25.514  31.062  1.00  0.00     0.200 A 
ATOM     92  F   UNL A   1      49.828  24.385  32.942  1.00  0.00    -0.200 F 
ATOM     93  F   UNL A   1      51.859  25.076  31.257  1.00  0.00    -0.200 F 
ENDBRANCH  60  83
ENDBRANCH  34  35
ENDBRANCH  27  29
ENDBRANCH  26  27
ENDBRANCH   1  26
TORSDOF 13
ENDMDL
MODEL 3
REMARK VINA RESULT:     -12.3      3.843      6.947
REMARK SMILES O=C(OCCOC(=O)c1ccc(-c2c3nc(c(-c4c(F)c(F)c(F)c(F)c4F)c4ccc([nH]4)c(-c4c(F)c(F)c(F)c(F)c4F)c4nc(c(-c5c(F)c(F)c(F)c(F)c5F)c5ccc2[nH]5)C=C4)C=C3)cc1)C1=Cc2cc(S(F)(F)(F)(F)F)ccc2O[C@@H]1C(F)(F)F
REMARK SMILES IDX 5 1 4 2 3 3 2 4 1 5 72 6 73 7 87 8 74 9 86 10 75 11 85 12
REMARK SMILES IDX 76 13 84 14 83 15 88 16 89 17 90 18 91 19 77 20 78 21 79 22
REMARK SMILES IDX 80 23 81 24 82 25 6 26 7 27 8 28 9 29 10 30 71 31 11 32
REMARK SMILES IDX 70 33 12 34 13 35 14 36 64 37 15 38 69 39 63 40 65 41 16 42
REMARK SMILES IDX 68 43 62 44 61 45 17 47 49 48 29 49 48 50 30 51 33 52 47 53
REMARK SMILES IDX 66 54 31 55 32 56 46 58 67 59 34 60 18 61 19 62 27 63 20 64
REMARK SMILES IDX 21 65 25 66 28 67 22 68 23 69 26 70 24 71 50 72 51 73 59 74
REMARK SMILES IDX 52 75 53 76 57 77 60 78 54 79 55 80 58 81 56 82 35 83 36 84
REMARK SMILES IDX 44 85 37 86 38 87 42 88 45 89 39 90 40 91 43 92 41 93
REMARK H PARENT 65 46 33 57
REMARK Flexibility Score: inf
ROOT
ATOM      1  C   UNL A   1      31.762  29.561  25.690  1.00  0.00     0.275 C 
ENDROOT
BRANCH   1   2
ATOM      2  C   UNL A   1      31.752  28.473  26.751  1.00  0.00     0.275 C 
BRANCH   2   3
ATOM      3  O   UNL A   1      31.892  27.204  26.129  1.00  0.00    -0.459 OA
BRANCH   3   4
ATOM      4  C   UNL A   1      33.106  26.863  25.477  1.00  0.00     0.338 C 
ATOM      5  O   UNL A   1      34.207  26.934  26.107  1.00  0.00    -0.246 OA
BRANCH   4   6
ATOM      6  C   UNL A   1      33.088  26.414  24.026  1.00  0.00     0.087 C 
ATOM      7  C   UNL A   1      33.510  25.164  23.696  1.00  0.00     0.027 C 
ATOM      8  C   UNL A   1      32.598  27.361  22.942  1.00  0.00     0.316 C 
ATOM      9  C   UNL A   1      34.000  24.216  24.778  1.00  0.00     0.019 A 
ATOM     10  O   UNL A   1      32.148  24.955  26.072  1.00  0.00    -0.475 OA
ATOM     11  C   UNL A   1      35.198  23.536  24.634  1.00  0.00     0.036 A 
ATOM     12  C   UNL A   1      33.285  24.123  25.893  1.00  0.00     0.128 A 
ATOM     13  C   UNL A   1      35.419  22.546  25.621  1.00  0.00     0.107 A 
ATOM     14  C   UNL A   1      33.636  23.229  26.877  1.00  0.00     0.048 A 
ATOM     15  C   UNL A   1      34.776  22.482  26.773  1.00  0.00     0.028 A 
BRANCH   8  16
ATOM     16  C   UNL A   1      31.404  26.746  22.232  1.00  0.00     0.430 C 
ATOM     17  F   UNL A   1      30.678  26.053  23.106  1.00  0.00    -0.167 F 
ATOM     18  F   UNL A   1      30.658  27.710  21.702  1.00  0.00    -0.167 F 
ATOM     19  F   UNL A   1      31.830  25.934  21.269  1.00  0.00    -0.167 F 
ENDBRANCH   8  16
BRANCH  13  20
ATOM     20  S   UNL A   1      36.667  21.281  25.280  1.00  0.00     0.310 S 
ATOM     21  F   UNL A   1      36.957  21.857  23.831  1.00  0.00    -0.094 F 
ATOM     22  F   UNL A   1      35.552  20.381  24.625  1.00  0.00    -0.094 F 
ATOM     23  F   UNL A   1      37.747  20.198  24.998  1.00  0.00    -0.094 F 
ATOM     24  F   UNL A   1      37.793  22.254  25.811  1.00  0.00    -0.094 F 
ATOM     25  F   UNL A   1      35.603  22.435  25.468  1.00  0.00    -0.094 F 
ENDBRANCH  13  20
ENDBRANCH   4   6
ENDBRANCH   3   4
ENDBRANCH   2   3
ENDBRANCH   1   2
BRANCH   1  26
ATOM     26  O   UNL A   1      32.984  30.281  25.763  1.00  0.00    -0.458 OA
BRANCH  26  27
ATOM     27  C   UNL A   1      33.237  31.140  26.865  1.00  0.00     0.338 C 
ATOM     28  O   UNL A   1      32.451  32.108  27.109  1.00  0.00    -0.246 OA
BRANCH  27  29
ATOM     29  C   UNL A   1      34.447  30.903  27.753  1.00  0.00     0.060 A 
ATOM     30  C   UNL A   1      35.341  31.931  28.003  1.00  0.00     0.016 A 
ATOM     31  C   UNL A   1      34.683  29.666  28.177  1.00  0.00     0.016 A 
ATOM     32  C   UNL A   1      36.605  31.493  28.463  1.00  0.00     0.010 A 
ATOM     33  C   UNL A   1      35.892  29.340  28.742  1.00  0.00     0.010 A 
ATOM     34  C   UNL A   1      36.845  30.294  28.965  1.00  0.00    -0.014 A 
BRANCH  34  35
ATOM     35  C   UNL A   1      38.113  29.993  29.748  1.00  0.00     0.031 A 
ATOM     36  C   UNL A   1      38.232  30.572  31.013  1.00  0.00     0.074 A 
ATOM     37  C   UNL A   1      39.033  29.110  29.211  1.00  0.00     0.049 A 
ATOM     38  N   UNL A   1      39.192  30.364  31.915  1.00  0.00    -0.248 NA
ATOM     39  C   UNL A   1      37.273  31.537  31.571  1.00  0.00     0.031 C 
ATOM     40  C   UNL A   1      38.916  28.516  27.939  1.00  0.00     0.029 A 
ATOM     41  N   UNL A   1      40.199  28.651  29.784  1.00  0.00    -0.354 N 
ATOM     42  C   UNL A   1      38.953  31.081  33.015  1.00  0.00     0.074 A 
ATOM     43  C   UNL A   1      37.718  31.851  32.807  1.00  0.00     0.031 C 
ATOM     44  C   UNL A   1      40.000  27.721  27.744  1.00  0.00     0.029 A 
ATOM     45  C   UNL A   1      40.813  27.803  28.891  1.00  0.00     0.049 A 
ATOM     46  H   UNL A   1      40.534  28.889  30.680  1.00  0.00     0.167 HD
ATOM     47  C   UNL A   1      39.714  31.122  34.184  1.00  0.00     0.037 A 
ATOM     48  C   UNL A   1      42.016  27.131  29.048  1.00  0.00     0.037 A 
ATOM     49  C   UNL A   1      40.895  30.416  34.358  1.00  0.00     0.049 A 
ATOM     50  C   UNL A   1      42.808  27.218  30.195  1.00  0.00     0.074 A 
ATOM     51  C   UNL A   1      41.670  30.440  35.532  1.00  0.00     0.029 A 
ATOM     52  N   UNL A   1      41.522  29.587  33.454  1.00  0.00    -0.354 N 
ATOM     53  N   UNL A   1      42.549  27.904  31.309  1.00  0.00    -0.248 NA
ATOM     54  C   UNL A   1      44.099  26.537  30.358  1.00  0.00     0.031 C 
ATOM     55  C   UNL A   1      42.756  29.645  35.336  1.00  0.00     0.029 A 
ATOM     56  C   UNL A   1      42.675  29.111  34.037  1.00  0.00     0.049 A 
ATOM     57  H   UNL A   1      41.201  29.372  32.548  1.00  0.00     0.167 HD
ATOM     58  C   UNL A   1      43.531  27.728  32.195  1.00  0.00     0.074 A 
ATOM     59  C   UNL A   1      44.546  26.852  31.594  1.00  0.00     0.031 C 
ATOM     60  C   UNL A   1      43.619  28.260  33.483  1.00  0.00     0.037 A 
BRANCH  47  61
ATOM     61  C   UNL A   1      39.222  31.989  35.332  1.00  0.00     0.064 A 
ATOM     62  C   UNL A   1      39.642  33.303  35.450  1.00  0.00     0.173 A 
ATOM     63  C   UNL A   1      38.429  31.434  36.241  1.00  0.00     0.173 A 
ATOM     64  F   UNL A   1      40.218  33.972  34.456  1.00  0.00    -0.203 F 
ATOM     65  C   UNL A   1      39.405  33.868  36.726  1.00  0.00     0.198 A 
ATOM     66  C   UNL A   1      38.128  32.100  37.406  1.00  0.00     0.198 A 
ATOM     67  F   UNL A   1      37.921  30.225  36.024  1.00  0.00    -0.203 F 
ATOM     68  F   UNL A   1      40.079  34.968  37.050  1.00  0.00    -0.200 F 
ATOM     69  C   UNL A   1      38.561  33.380  37.615  1.00  0.00     0.200 A 
ATOM     70  F   UNL A   1      37.406  31.490  38.341  1.00  0.00    -0.200 F 
ATOM     71  F   UNL A   1      38.152  34.095  38.660  1.00  0.00    -0.200 F 
ENDBRANCH  47  61
BRANCH  48  72
ATOM     72  C   UNL A   1      42.499  26.251  27.907  1.00  0.00     0.064 A 
ATOM     73  C   UNL A   1      42.105  24.924  27.929  1.00  0.00     0.173 A 
ATOM     74  C   UNL A   1      43.246  26.731  26.918  1.00  0.00     0.173 A 
ATOM     75  F   UNL A   1      41.163  24.462  28.747  1.00  0.00    -0.203 F 
ATOM     76  C   UNL A   1      42.795  24.104  27.006  1.00  0.00     0.198 A 
ATOM     77  C   UNL A   1      43.776  25.890  25.971  1.00  0.00     0.198 A 
ATOM     78  F   UNL A   1      43.481  28.038  26.845  1.00  0.00    -0.203 F 
ATOM     79  F   UNL A   1      42.754  22.789  27.194  1.00  0.00    -0.200 F 
ATOM     80  C   UNL A   1      43.477  24.556  25.968  1.00  0.00     0.200 A 
ATOM     81  F   UNL A   1      44.594  26.380  25.043  1.00  0.00    -0.200 F 
ATOM     82  F   UNL A   1      43.852  23.755  24.974  1.00  0.00    -0.200 F 
ENDBRANCH  48  72
BRANCH  60  83
ATOM     83  C   UNL A   1      44.825  27.884  34.330  1.00  0.00     0.064 A 
ATOM     84  C   UNL A   1      44.773  26.769  35.150  1.00  0.00     0.173 A 
ATOM     85  C   UNL A   1      45.888  28.678  34.313  1.00  0.00     0.173 A 
ATOM     86  F   UNL A   1      43.855  25.815  35.021  1.00  0.00    -0.203 F 
ATOM     87  C   UNL A   1      45.786  26.737  36.138  1.00  0.00     0.198 A 
ATOM     88  C   UNL A   1      46.905  28.505  35.222  1.00  0.00     0.198 A 
ATOM     89  F   UNL A   1      45.970  29.650  33.410  1.00  0.00    -0.203 F 
ATOM     90  F   UNL A   1      45.612  25.924  37.176  1.00  0.00    -0.200 F 
ATOM     91  C   UNL A   1      46.891  27.459  36.101  1.00  0.00     0.200 A 
ATOM     92  F   UNL A   1      47.917  29.368  35.244  1.00  0.00    -0.200 F 
ATOM     93  F   UNL A   1      47.934  27.184  36.879  1.00  0.00    -0.200 F 
ENDBRANCH  60  83
ENDBRANCH  34  35
ENDBRANCH  27  29
ENDBRANCH  26  27
ENDBRANCH   1  26
TORSDOF 13
ENDMDL
