MODEL 1
REMARK VINA RESULT:     -14.1      0.000      0.000
REMARK SMILES CC(C)[C@H](NC(=O)CCC1=c2ccccc2=NC1)C(=O)OCCOC(=O)c1ccc(-c2c3nc(c(-c4c(F)c(F)c(F)c(F)c4F)c4ccc([nH]4)c(-c4c(F)c(F)c(F)c(F)c4F)c4nc(c(-c5c(F)c(F)c(F)c(F)c5F)c5ccc2[nH]5)C=C4)C=C3)cc1
REMARK SMILES IDX 22 1 21 2 19 3 20 4 4 5 2 6 1 7 3 8 5 9 6 10 7 12 8 13 9 14
REMARK SMILES IDX 10 15 11 16 18 17 12 18 16 19 17 20 13 21 15 22 14 23 23 24
REMARK SMILES IDX 24 25 25 26 26 27 27 28 28 29 89 30 29 31 88 32 30 33 31 34
REMARK SMILES IDX 32 35 82 36 33 37 87 38 81 39 83 40 34 41 86 42 80 43 79 44
REMARK SMILES IDX 35 46 67 47 47 48 66 49 48 50 51 51 65 52 84 53 49 54 50 55
REMARK SMILES IDX 64 57 85 58 52 59 36 60 37 61 45 62 38 63 39 64 43 65 46 66
REMARK SMILES IDX 40 67 41 68 44 69 42 70 68 71 69 72 77 73 70 74 71 75 75 76
REMARK SMILES IDX 78 77 72 78 73 79 76 80 74 81 53 82 54 83 62 84 55 85 56 86
REMARK SMILES IDX 60 87 63 88 57 89 58 90 61 91 59 92
REMARK H PARENT 5 11 83 45 51 56
REMARK Flexibility Score: inf
ROOT
ATOM      1  C   UNL A   1      31.686  30.793  26.582  1.00  0.00     0.274 C 
ENDROOT
BRANCH   1   2
ATOM      2  O   UNL A   1      31.582  28.962  26.627  1.00  0.00    -0.461 OA
BRANCH   2   3
ATOM      3  C   UNL A   1      31.203  27.658  25.283  1.00  0.00     0.329 C 
ATOM      4  O   UNL A   1      30.324  27.389  24.444  1.00  0.00    -0.250 OA
BRANCH   3   5
ATOM      5  C   UNL A   1      32.154  26.861  25.667  1.00  0.00     0.194 C 
BRANCH   5   6
ATOM      6  C   UNL A   1      33.203  26.379  23.721  1.00  0.00     0.017 C 
ATOM      7  C   UNL A   1      33.595  27.058  22.171  1.00  0.00     0.010 C 
ATOM      8  C   UNL A   1      34.467  25.751  25.413  1.00  0.00     0.010 C 
ENDBRANCH   5   6
BRANCH   5   9
ATOM      9  N   UNL A   1      31.113  25.843  26.531  1.00  0.00    -0.343 N 
ATOM     10  C   UNL A   1      30.650  24.564  26.362  1.00  0.00     0.221 C 
ATOM     11  H   UNL A   1      30.758  26.268  27.345  1.00  0.00     0.164 HD
ATOM     12  O   UNL A   1      29.561  24.276  26.859  1.00  0.00    -0.275 OA
BRANCH  10  13
ATOM     13  C   UNL A   1      31.508  23.520  25.625  1.00  0.00     0.104 C 
BRANCH  13  14
ATOM     14  C   UNL A   1      31.233  23.131  24.093  1.00  0.00     0.043 C 
BRANCH  14  15
ATOM     15  C   UNL A   1      32.212  22.117  23.443  1.00  0.00    -0.039 C 
ATOM     16  C   UNL A   1      33.458  22.361  24.145  1.00  0.00     0.001 A 
ATOM     17  C   UNL A   1      32.108  20.182  23.222  1.00  0.00     0.174 C 
ATOM     18  C   UNL A   1      34.974  23.184  23.208  1.00  0.00     0.010 A 
ATOM     19  C   UNL A   1      34.391  20.453  24.948  1.00  0.00     0.065 A 
ATOM     20  N   UNL A   1      33.557  19.275  24.231  1.00  0.00    -0.280 NA
ATOM     21  C   UNL A   1      36.641  22.971  23.281  1.00  0.00     0.001 A 
ATOM     22  C   UNL A   1      36.392  20.489  25.267  1.00  0.00     0.028 A 
ATOM     23  C   UNL A   1      37.495  21.648  24.500  1.00  0.00     0.002 A 
ENDBRANCH  14  15
ENDBRANCH  13  14
ENDBRANCH  10  13
ENDBRANCH   5   9
ENDBRANCH   3   5
ENDBRANCH   2   3
ENDBRANCH   1   2
BRANCH   1  24
ATOM     24  C   UNL A   1      32.911  31.788  27.392  1.00  0.00     0.275 C 
BRANCH  24  25
ATOM     25  O   UNL A   1      32.813  33.307  27.430  1.00  0.00    -0.458 OA
BRANCH  25  26
ATOM     26  C   UNL A   1      33.232  34.095  28.498  1.00  0.00     0.338 C 
ATOM     27  O   UNL A   1      32.584  34.986  29.022  1.00  0.00    -0.246 OA
BRANCH  26  28
ATOM     28  C   UNL A   1      34.527  33.588  29.108  1.00  0.00     0.060 A 
ATOM     29  C   UNL A   1      34.524  32.753  30.223  1.00  0.00     0.016 A 
ATOM     30  C   UNL A   1      35.778  33.864  28.528  1.00  0.00     0.016 A 
ATOM     31  C   UNL A   1      35.741  32.355  30.827  1.00  0.00     0.010 A 
ATOM     32  C   UNL A   1      36.992  33.555  29.175  1.00  0.00     0.010 A 
ATOM     33  C   UNL A   1      36.987  32.816  30.358  1.00  0.00    -0.014 A 
BRANCH  33  34
ATOM     34  C   UNL A   1      38.260  32.350  30.986  1.00  0.00     0.031 A 
ATOM     35  C   UNL A   1      38.811  32.972  32.240  1.00  0.00     0.074 A 
ATOM     36  C   UNL A   1      38.926  31.331  30.410  1.00  0.00     0.049 A 
ATOM     37  N   UNL A   1      39.675  32.485  33.096  1.00  0.00    -0.248 NA
ATOM     38  C   UNL A   1      38.359  34.334  32.560  1.00  0.00     0.031 C 
ATOM     39  C   UNL A   1      38.581  30.751  29.114  1.00  0.00     0.029 A 
ATOM     40  N   UNL A   1      40.000  30.587  30.835  1.00  0.00    -0.354 N 
ATOM     41  C   UNL A   1      39.822  33.448  34.090  1.00  0.00     0.074 A 
ATOM     42  C   UNL A   1      39.022  34.586  33.686  1.00  0.00     0.031 C 
ATOM     43  C   UNL A   1      39.380  29.702  28.875  1.00  0.00     0.029 A 
ATOM     44  C   UNL A   1      40.270  29.515  30.016  1.00  0.00     0.049 A 
ATOM     45  H   UNL A   1      40.521  30.799  31.643  1.00  0.00     0.167 HD
ATOM     46  C   UNL A   1      40.537  33.359  35.241  1.00  0.00     0.037 A 
ATOM     47  C   UNL A   1      41.085  28.457  30.197  1.00  0.00     0.037 A 
ATOM     48  C   UNL A   1      41.361  32.219  35.575  1.00  0.00     0.049 A 
ATOM     49  C   UNL A   1      41.819  28.335  31.503  1.00  0.00     0.074 A 
ATOM     50  C   UNL A   1      42.069  31.968  36.737  1.00  0.00     0.029 A 
ATOM     51  N   UNL A   1      41.604  31.150  34.722  1.00  0.00    -0.354 N 
ATOM     52  N   UNL A   1      41.799  29.144  32.536  1.00  0.00    -0.248 NA
ATOM     53  C   UNL A   1      42.666  27.149  31.686  1.00  0.00     0.031 C 
ATOM     54  C   UNL A   1      42.784  30.778  36.565  1.00  0.00     0.029 A 
ATOM     55  C   UNL A   1      42.474  30.253  35.319  1.00  0.00     0.049 A 
ATOM     56  H   UNL A   1      41.214  31.045  33.824  1.00  0.00     0.167 HD
ATOM     57  C   UNL A   1      42.615  28.563  33.495  1.00  0.00     0.074 A 
ATOM     58  C   UNL A   1      43.098  27.318  32.929  1.00  0.00     0.031 C 
ATOM     59  C   UNL A   1      42.941  29.021  34.729  1.00  0.00     0.037 A 
BRANCH  46  60
ATOM     60  C   UNL A   1      40.434  34.474  36.252  1.00  0.00     0.064 A 
ATOM     61  C   UNL A   1      39.475  34.431  37.278  1.00  0.00     0.173 A 
ATOM     62  C   UNL A   1      41.366  35.525  36.285  1.00  0.00     0.173 A 
ATOM     63  F   UNL A   1      38.567  33.444  37.312  1.00  0.00    -0.203 F 
ATOM     64  C   UNL A   1      39.441  35.401  38.279  1.00  0.00     0.198 A 
ATOM     65  C   UNL A   1      41.346  36.479  37.303  1.00  0.00     0.198 A 
ATOM     66  F   UNL A   1      42.323  35.611  35.348  1.00  0.00    -0.203 F 
ATOM     67  F   UNL A   1      38.498  35.346  39.231  1.00  0.00    -0.200 F 
ATOM     68  C   UNL A   1      40.381  36.418  38.297  1.00  0.00     0.200 A 
ATOM     69  F   UNL A   1      42.271  37.449  37.333  1.00  0.00    -0.200 F 
ATOM     70  F   UNL A   1      40.360  37.338  39.273  1.00  0.00    -0.200 F 
ENDBRANCH  46  60
BRANCH  47  71
ATOM     71  C   UNL A   1      41.120  27.387  29.163  1.00  0.00     0.064 A 
ATOM     72  C   UNL A   1      40.101  26.428  29.079  1.00  0.00     0.173 A 
ATOM     73  C   UNL A   1      42.120  27.360  28.179  1.00  0.00     0.173 A 
ATOM     74  F   UNL A   1      39.123  26.407  29.997  1.00  0.00    -0.203 F 
ATOM     75  C   UNL A   1      40.081  25.483  28.054  1.00  0.00     0.198 A 
ATOM     76  C   UNL A   1      42.083  26.435  27.137  1.00  0.00     0.198 A 
ATOM     77  F   UNL A   1      43.108  28.267  28.201  1.00  0.00    -0.203 F 
ATOM     78  F   UNL A   1      39.105  24.567  28.009  1.00  0.00    -0.200 F 
ATOM     79  C   UNL A   1      41.065  25.495  27.077  1.00  0.00     0.200 A 
ATOM     80  F   UNL A   1      43.021  26.467  26.180  1.00  0.00    -0.200 F 
ATOM     81  F   UNL A   1      41.029  24.605  26.076  1.00  0.00    -0.200 F 
ENDBRANCH  47  71
BRANCH  59  82
ATOM     82  C   UNL A   1      43.873  28.186  35.555  1.00  0.00     0.064 A 
ATOM     83  C   UNL A   1      45.262  28.373  35.496  1.00  0.00     0.173 A 
ATOM     84  C   UNL A   1      43.369  27.279  36.499  1.00  0.00     0.173 A 
ATOM     85  F   UNL A   1      45.792  29.220  34.601  1.00  0.00    -0.203 F 
ATOM     86  C   UNL A   1      46.112  27.683  36.354  1.00  0.00     0.198 A 
ATOM     87  C   UNL A   1      44.220  26.613  37.376  1.00  0.00     0.198 A 
ATOM     88  F   UNL A   1      42.047  27.071  36.599  1.00  0.00    -0.203 F 
ATOM     89  F   UNL A   1      47.437  27.861  36.268  1.00  0.00    -0.200 F 
ATOM     90  C   UNL A   1      45.590  26.815  37.304  1.00  0.00     0.200 A 
ATOM     91  F   UNL A   1      43.712  25.792  38.306  1.00  0.00    -0.200 F 
ATOM     92  F   UNL A   1      46.408  26.177  38.151  1.00  0.00    -0.200 F 
ENDBRANCH  59  82
ENDBRANCH  33  34
ENDBRANCH  26  28
ENDBRANCH  25  26
ENDBRANCH  24  25
ENDBRANCH   1  24
TORSDOF 16
ENDMDL
MODEL 2
REMARK VINA RESULT:     -14.0      1.774      2.628
REMARK SMILES CC(C)[C@H](NC(=O)CCC1=c2ccccc2=NC1)C(=O)OCCOC(=O)c1ccc(-c2c3nc(c(-c4c(F)c(F)c(F)c(F)c4F)c4ccc([nH]4)c(-c4c(F)c(F)c(F)c(F)c4F)c4nc(c(-c5c(F)c(F)c(F)c(F)c5F)c5ccc2[nH]5)C=C4)C=C3)cc1
REMARK SMILES IDX 22 1 21 2 19 3 20 4 4 5 2 6 1 7 3 8 5 9 6 10 7 12 8 13 9 14
REMARK SMILES IDX 10 15 11 16 18 17 12 18 16 19 17 20 13 21 15 22 14 23 23 24
REMARK SMILES IDX 24 25 25 26 26 27 27 28 28 29 89 30 29 31 88 32 30 33 31 34
REMARK SMILES IDX 32 35 82 36 33 37 87 38 81 39 83 40 34 41 86 42 80 43 79 44
REMARK SMILES IDX 35 46 67 47 47 48 66 49 48 50 51 51 65 52 84 53 49 54 50 55
REMARK SMILES IDX 64 57 85 58 52 59 36 60 37 61 45 62 38 63 39 64 43 65 46 66
REMARK SMILES IDX 40 67 41 68 44 69 42 70 68 71 69 72 77 73 70 74 71 75 75 76
REMARK SMILES IDX 78 77 72 78 73 79 76 80 74 81 53 82 54 83 62 84 55 85 56 86
REMARK SMILES IDX 60 87 63 88 57 89 58 90 61 91 59 92
REMARK H PARENT 5 11 83 45 51 56
REMARK Flexibility Score: inf
ROOT
ATOM      1  C   UNL A   1      33.927  28.330  24.862  1.00  0.00     0.274 C 
ENDROOT
BRANCH   1   2
ATOM      2  O   UNL A   1      33.003  26.799  25.277  1.00  0.00    -0.461 OA
BRANCH   2   3
ATOM      3  C   UNL A   1      31.314  26.500  26.117  1.00  0.00     0.329 C 
ATOM      4  O   UNL A   1      30.673  26.872  27.117  1.00  0.00    -0.250 OA
BRANCH   3   5
ATOM      5  C   UNL A   1      31.029  25.476  25.370  1.00  0.00     0.194 C 
BRANCH   5   6
ATOM      6  C   UNL A   1      29.676  26.381  23.797  1.00  0.00     0.017 C 
ATOM      7  C   UNL A   1      28.962  27.885  23.306  1.00  0.00     0.010 C 
ATOM      8  C   UNL A   1      31.161  25.073  22.827  1.00  0.00     0.010 C 
ENDBRANCH   5   6
BRANCH   5   9
ATOM      9  N   UNL A   1      30.551  24.509  26.675  1.00  0.00    -0.343 N 
ATOM     10  C   UNL A   1      30.398  23.161  26.876  1.00  0.00     0.221 C 
ATOM     11  H   UNL A   1      30.333  25.037  27.477  1.00  0.00     0.164 HD
ATOM     12  O   UNL A   1      29.593  22.795  27.732  1.00  0.00    -0.275 OA
BRANCH  10  13
ATOM     13  C   UNL A   1      31.261  22.158  26.090  1.00  0.00     0.104 C 
BRANCH  13  14
ATOM     14  C   UNL A   1      31.079  21.943  24.511  1.00  0.00     0.043 C 
BRANCH  14  15
ATOM     15  C   UNL A   1      32.211  21.177  23.775  1.00  0.00    -0.039 C 
ATOM     16  C   UNL A   1      33.419  21.707  24.379  1.00  0.00     0.001 A 
ATOM     17  C   UNL A   1      32.539  19.269  23.541  1.00  0.00     0.174 C 
ATOM     18  C   UNL A   1      34.626  22.850  23.334  1.00  0.00     0.010 A 
ATOM     19  C   UNL A   1      34.827  20.072  25.086  1.00  0.00     0.065 A 
ATOM     20  N   UNL A   1      34.233  18.728  24.423  1.00  0.00    -0.280 NA
ATOM     21  C   UNL A   1      36.298  23.028  23.275  1.00  0.00     0.001 A 
ATOM     22  C   UNL A   1      36.785  20.570  25.246  1.00  0.00     0.028 A 
ATOM     23  C   UNL A   1      37.527  21.947  24.408  1.00  0.00     0.002 A 
ENDBRANCH  14  15
ENDBRANCH  13  14
ENDBRANCH  10  13
ENDBRANCH   5   9
ENDBRANCH   3   5
ENDBRANCH   2   3
ENDBRANCH   1   2
BRANCH   1  24
ATOM     24  C   UNL A   1      33.359  29.991  25.114  1.00  0.00     0.275 C 
BRANCH  24  25
ATOM     25  O   UNL A   1      32.811  30.454  26.457  1.00  0.00    -0.458 OA
BRANCH  25  26
ATOM     26  C   UNL A   1      33.300  31.545  27.171  1.00  0.00     0.338 C 
ATOM     27  O   UNL A   1      32.684  32.571  27.413  1.00  0.00    -0.246 OA
BRANCH  26  28
ATOM     28  C   UNL A   1      34.637  31.247  27.825  1.00  0.00     0.060 A 
ATOM     29  C   UNL A   1      34.945  29.973  28.296  1.00  0.00     0.016 A 
ATOM     30  C   UNL A   1      35.656  32.214  27.904  1.00  0.00     0.016 A 
ATOM     31  C   UNL A   1      36.165  29.733  28.975  1.00  0.00     0.010 A 
ATOM     32  C   UNL A   1      36.828  32.011  28.661  1.00  0.00     0.010 A 
ATOM     33  C   UNL A   1      37.085  30.766  29.235  1.00  0.00    -0.014 A 
BRANCH  33  34
ATOM     34  C   UNL A   1      38.384  30.482  29.916  1.00  0.00     0.031 A 
ATOM     35  C   UNL A   1      38.680  30.961  31.311  1.00  0.00     0.074 A 
ATOM     36  C   UNL A   1      39.311  29.761  29.257  1.00  0.00     0.049 A 
ATOM     37  N   UNL A   1      39.571  30.523  32.166  1.00  0.00    -0.248 NA
ATOM     38  C   UNL A   1      37.898  32.105  31.801  1.00  0.00     0.031 C 
ATOM     39  C   UNL A   1      39.208  29.374  27.852  1.00  0.00     0.029 A 
ATOM     40  N   UNL A   1      40.497  29.204  29.672  1.00  0.00    -0.354 N 
ATOM     41  C   UNL A   1      39.414  31.289  33.317  1.00  0.00     0.074 A 
ATOM     42  C   UNL A   1      38.399  32.279  33.021  1.00  0.00     0.031 C 
ATOM     43  C   UNL A   1      40.247  28.591  27.534  1.00  0.00     0.029 A 
ATOM     44  C   UNL A   1      41.070  28.392  28.721  1.00  0.00     0.049 A 
ATOM     45  H   UNL A   1      40.894  29.369  30.557  1.00  0.00     0.167 HD
ATOM     46  C   UNL A   1      40.045  31.143  34.511  1.00  0.00     0.037 A 
ATOM     47  C   UNL A   1      42.097  27.524  28.814  1.00  0.00     0.037 A 
ATOM     48  C   UNL A   1      41.089  30.171  34.741  1.00  0.00     0.049 A 
ATOM     49  C   UNL A   1      42.744  27.322  30.156  1.00  0.00     0.074 A 
ATOM     50  C   UNL A   1      41.751  29.866  35.918  1.00  0.00     0.029 A 
ATOM     51  N   UNL A   1      41.639  29.361  33.755  1.00  0.00    -0.354 N 
ATOM     52  N   UNL A   1      42.459  27.897  31.301  1.00  0.00    -0.248 NA
ATOM     53  C   UNL A   1      43.831  26.337  30.233  1.00  0.00     0.031 C 
ATOM     54  C   UNL A   1      42.736  28.916  35.631  1.00  0.00     0.029 A 
ATOM     55  C   UNL A   1      42.650  28.580  34.288  1.00  0.00     0.049 A 
ATOM     56  H   UNL A   1      41.350  29.344  32.813  1.00  0.00     0.167 HD
ATOM     57  C   UNL A   1      43.317  27.338  32.235  1.00  0.00     0.074 A 
ATOM     58  C   UNL A   1      44.120  26.359  31.528  1.00  0.00     0.031 C 
ATOM     59  C   UNL A   1      43.436  27.615  33.557  1.00  0.00     0.037 A 
BRANCH  46  60
ATOM     60  C   UNL A   1      39.608  31.997  35.676  1.00  0.00     0.064 A 
ATOM     61  C   UNL A   1      38.558  31.590  36.515  1.00  0.00     0.173 A 
ATOM     62  C   UNL A   1      40.312  33.157  36.041  1.00  0.00     0.173 A 
ATOM     63  F   UNL A   1      37.858  30.483  36.230  1.00  0.00    -0.203 F 
ATOM     64  C   UNL A   1      38.217  32.318  37.655  1.00  0.00     0.198 A 
ATOM     65  C   UNL A   1      39.987  33.868  37.197  1.00  0.00     0.198 A 
ATOM     66  F   UNL A   1      41.342  33.588  35.296  1.00  0.00    -0.203 F 
ATOM     67  F   UNL A   1      37.194  31.916  38.423  1.00  0.00    -0.200 F 
ATOM     68  C   UNL A   1      38.937  33.450  38.000  1.00  0.00     0.200 A 
ATOM     69  F   UNL A   1      40.700  34.950  37.543  1.00  0.00    -0.200 F 
ATOM     70  F   UNL A   1      38.622  34.136  39.109  1.00  0.00    -0.200 F 
ENDBRANCH  46  60
BRANCH  47  71
ATOM     71  C   UNL A   1      42.459  26.702  27.627  1.00  0.00     0.064 A 
ATOM     72  C   UNL A   1      43.480  27.103  26.753  1.00  0.00     0.173 A 
ATOM     73  C   UNL A   1      41.861  25.454  27.396  1.00  0.00     0.173 A 
ATOM     74  F   UNL A   1      44.083  28.289  26.926  1.00  0.00    -0.203 F 
ATOM     75  C   UNL A   1      43.887  26.291  25.696  1.00  0.00     0.198 A 
ATOM     76  C   UNL A   1      42.289  24.629  26.358  1.00  0.00     0.198 A 
ATOM     77  F   UNL A   1      40.893  25.014  28.213  1.00  0.00    -0.203 F 
ATOM     78  F   UNL A   1      44.852  26.707  24.866  1.00  0.00    -0.200 F 
ATOM     79  C   UNL A   1      43.299  25.048  25.507  1.00  0.00     0.200 A 
ATOM     80  F   UNL A   1      41.736  23.419  26.195  1.00  0.00    -0.200 F 
ATOM     81  F   UNL A   1      43.710  24.256  24.508  1.00  0.00    -0.200 F 
ENDBRANCH  47  71
BRANCH  59  82
ATOM     82  C   UNL A   1      44.477  26.865  34.333  1.00  0.00     0.064 A 
ATOM     83  C   UNL A   1      45.759  27.398  34.534  1.00  0.00     0.173 A 
ATOM     84  C   UNL A   1      44.153  25.662  34.979  1.00  0.00     0.173 A 
ATOM     85  F   UNL A   1      46.118  28.539  33.927  1.00  0.00    -0.203 F 
ATOM     86  C   UNL A   1      46.678  26.755  35.357  1.00  0.00     0.198 A 
ATOM     87  C   UNL A   1      45.065  25.038  35.826  1.00  0.00     0.198 A 
ATOM     88  F   UNL A   1      42.938  25.116  34.824  1.00  0.00    -0.203 F 
ATOM     89  F   UNL A   1      47.904  27.271  35.520  1.00  0.00    -0.200 F 
ATOM     90  C   UNL A   1      46.326  25.584  36.015  1.00  0.00     0.200 A 
ATOM     91  F   UNL A   1      44.716  23.919  36.476  1.00  0.00    -0.200 F 
ATOM     92  F   UNL A   1      47.201  24.985  36.833  1.00  0.00    -0.200 F 
ENDBRANCH  59  82
ENDBRANCH  33  34
ENDBRANCH  26  28
ENDBRANCH  25  26
ENDBRANCH  24  25
ENDBRANCH   1  24
TORSDOF 16
ENDMDL
MODEL 3
REMARK VINA RESULT:     -13.9      2.402      4.672
REMARK SMILES CC(C)[C@H](NC(=O)CCC1=c2ccccc2=NC1)C(=O)OCCOC(=O)c1ccc(-c2c3nc(c(-c4c(F)c(F)c(F)c(F)c4F)c4ccc([nH]4)c(-c4c(F)c(F)c(F)c(F)c4F)c4nc(c(-c5c(F)c(F)c(F)c(F)c5F)c5ccc2[nH]5)C=C4)C=C3)cc1
REMARK SMILES IDX 22 1 21 2 19 3 20 4 4 5 2 6 1 7 3 8 5 9 6 10 7 12 8 13 9 14
REMARK SMILES IDX 10 15 11 16 18 17 12 18 16 19 17 20 13 21 15 22 14 23 23 24
REMARK SMILES IDX 24 25 25 26 26 27 27 28 28 29 89 30 29 31 88 32 30 33 31 34
REMARK SMILES IDX 32 35 82 36 33 37 87 38 81 39 83 40 34 41 86 42 80 43 79 44
REMARK SMILES IDX 35 46 67 47 47 48 66 49 48 50 51 51 65 52 84 53 49 54 50 55
REMARK SMILES IDX 64 57 85 58 52 59 36 60 37 61 45 62 38 63 39 64 43 65 46 66
REMARK SMILES IDX 40 67 41 68 44 69 42 70 68 71 69 72 77 73 70 74 71 75 75 76
REMARK SMILES IDX 78 77 72 78 73 79 76 80 74 81 53 82 54 83 62 84 55 85 56 86
REMARK SMILES IDX 60 87 63 88 57 89 58 90 61 91 59 92
REMARK H PARENT 5 11 83 45 51 56
REMARK Flexibility Score: inf
ROOT
ATOM      1  C   UNL A   1      33.721  27.775  26.274  1.00  0.00     0.274 C 
ENDROOT
BRANCH   1   2
ATOM      2  O   UNL A   1      34.237  26.484  25.077  1.00  0.00    -0.461 OA
BRANCH   2   3
ATOM      3  C   UNL A   1      34.715  24.647  25.286  1.00  0.00     0.329 C 
ATOM      4  O   UNL A   1      35.730  23.942  25.442  1.00  0.00    -0.250 OA
BRANCH   3   5
ATOM      5  C   UNL A   1      33.534  24.215  24.961  1.00  0.00     0.194 C 
BRANCH   5   6
ATOM      6  C   UNL A   1      33.232  22.494  26.400  1.00  0.00     0.017 C 
ATOM      7  C   UNL A   1      34.060  21.546  27.596  1.00  0.00     0.010 C 
ATOM      8  C   UNL A   1      31.529  23.884  26.547  1.00  0.00     0.010 C 
ENDBRANCH   5   6
BRANCH   5   9
ATOM      9  N   UNL A   1      33.901  24.098  23.313  1.00  0.00    -0.343 N 
ATOM     10  C   UNL A   1      33.196  24.269  22.150  1.00  0.00     0.221 C 
ATOM     11  H   UNL A   1      34.840  23.851  23.151  1.00  0.00     0.164 HD
ATOM     12  O   UNL A   1      33.575  23.656  21.152  1.00  0.00    -0.275 OA
BRANCH  10  13
ATOM     13  C   UNL A   1      32.009  25.248  22.099  1.00  0.00     0.104 C 
BRANCH  13  14
ATOM     14  C   UNL A   1      32.091  26.708  22.759  1.00  0.00     0.043 C 
BRANCH  14  15
ATOM     15  C   UNL A   1      30.990  27.073  23.790  1.00  0.00    -0.039 C 
ATOM     16  C   UNL A   1      30.341  28.224  23.191  1.00  0.00     0.001 A 
ATOM     17  C   UNL A   1      29.552  26.013  24.573  1.00  0.00     0.174 C 
ATOM     18  C   UNL A   1      30.542  30.002  23.998  1.00  0.00     0.010 A 
ATOM     19  C   UNL A   1      28.082  28.005  23.111  1.00  0.00     0.065 A 
ATOM     20  N   UNL A   1      27.777  26.733  24.053  1.00  0.00    -0.280 NA
ATOM     21  C   UNL A   1      29.513  31.320  24.179  1.00  0.00     0.001 A 
ATOM     22  C   UNL A   1      27.009  29.721  23.022  1.00  0.00     0.028 A 
ATOM     23  C   UNL A   1      27.634  31.305  23.520  1.00  0.00     0.002 A 
ENDBRANCH  14  15
ENDBRANCH  13  14
ENDBRANCH  10  13
ENDBRANCH   5   9
ENDBRANCH   3   5
ENDBRANCH   2   3
ENDBRANCH   1   2
BRANCH   1  24
ATOM     24  C   UNL A   1      33.367  29.470  25.892  1.00  0.00     0.275 C 
BRANCH  24  25
ATOM     25  O   UNL A   1      32.793  30.423  26.931  1.00  0.00    -0.458 OA
BRANCH  25  26
ATOM     26  C   UNL A   1      33.444  31.562  27.398  1.00  0.00     0.338 C 
ATOM     27  O   UNL A   1      32.959  32.680  27.468  1.00  0.00    -0.246 OA
BRANCH  26  28
ATOM     28  C   UNL A   1      34.785  31.236  28.030  1.00  0.00     0.060 A 
ATOM     29  C   UNL A   1      35.031  29.992  28.607  1.00  0.00     0.016 A 
ATOM     30  C   UNL A   1      35.865  32.136  27.984  1.00  0.00     0.016 A 
ATOM     31  C   UNL A   1      36.259  29.733  29.262  1.00  0.00     0.010 A 
ATOM     32  C   UNL A   1      37.052  31.925  28.715  1.00  0.00     0.010 A 
ATOM     33  C   UNL A   1      37.253  30.722  29.393  1.00  0.00    -0.014 A 
BRANCH  33  34
ATOM     34  C   UNL A   1      38.558  30.415  30.052  1.00  0.00     0.031 A 
ATOM     35  C   UNL A   1      38.876  30.867  31.452  1.00  0.00     0.074 A 
ATOM     36  C   UNL A   1      39.470  29.697  29.370  1.00  0.00     0.049 A 
ATOM     37  N   UNL A   1      39.774  30.407  32.287  1.00  0.00    -0.248 NA
ATOM     38  C   UNL A   1      38.111  32.010  31.971  1.00  0.00     0.031 C 
ATOM     39  C   UNL A   1      39.345  29.335  27.960  1.00  0.00     0.029 A 
ATOM     40  N   UNL A   1      40.655  29.122  29.759  1.00  0.00    -0.354 N 
ATOM     41  C   UNL A   1      39.639  31.154  33.453  1.00  0.00     0.074 A 
ATOM     42  C   UNL A   1      38.629  32.158  33.187  1.00  0.00     0.031 C 
ATOM     43  C   UNL A   1      40.372  28.548  27.615  1.00  0.00     0.029 A 
ATOM     44  C   UNL A   1      41.209  28.321  28.788  1.00  0.00     0.049 A 
ATOM     45  H   UNL A   1      41.065  29.268  30.642  1.00  0.00     0.167 HD
ATOM     46  C   UNL A   1      40.284  30.983  34.636  1.00  0.00     0.037 A 
ATOM     47  C   UNL A   1      42.229  27.442  28.853  1.00  0.00     0.037 A 
ATOM     48  C   UNL A   1      41.321  29.997  34.836  1.00  0.00     0.049 A 
ATOM     49  C   UNL A   1      42.891  27.211  30.183  1.00  0.00     0.074 A 
ATOM     50  C   UNL A   1      41.995  29.666  35.999  1.00  0.00     0.029 A 
ATOM     51  N   UNL A   1      41.851  29.199  33.829  1.00  0.00    -0.354 N 
ATOM     52  N   UNL A   1      42.626  27.769  31.341  1.00  0.00    -0.248 NA
ATOM     53  C   UNL A   1      43.970  26.216  30.229  1.00  0.00     0.031 C 
ATOM     54  C   UNL A   1      42.968  28.712  35.683  1.00  0.00     0.029 A 
ATOM     55  C   UNL A   1      42.861  28.400  34.336  1.00  0.00     0.049 A 
ATOM     56  H   UNL A   1      41.550  29.201  32.891  1.00  0.00     0.167 HD
ATOM     57  C   UNL A   1      43.491  27.187  32.254  1.00  0.00     0.074 A 
ATOM     58  C   UNL A   1      44.276  26.213  31.520  1.00  0.00     0.031 C 
ATOM     59  C   UNL A   1      43.629  27.441  33.579  1.00  0.00     0.037 A 
BRANCH  46  60
ATOM     60  C   UNL A   1      39.870  31.820  35.820  1.00  0.00     0.064 A 
ATOM     61  C   UNL A   1      40.542  33.014  36.131  1.00  0.00     0.173 A 
ATOM     62  C   UNL A   1      38.726  31.511  36.575  1.00  0.00     0.173 A 
ATOM     63  F   UNL A   1      41.632  33.374  35.437  1.00  0.00    -0.203 F 
ATOM     64  C   UNL A   1      40.101  33.849  37.157  1.00  0.00     0.198 A 
ATOM     65  C   UNL A   1      38.271  32.362  37.584  1.00  0.00     0.198 A 
ATOM     66  F   UNL A   1      38.023  30.398  36.315  1.00  0.00    -0.203 F 
ATOM     67  F   UNL A   1      40.779  34.970  37.444  1.00  0.00    -0.200 F 
ATOM     68  C   UNL A   1      38.962  33.528  37.876  1.00  0.00     0.200 A 
ATOM     69  F   UNL A   1      37.154  32.062  38.262  1.00  0.00    -0.200 F 
ATOM     70  F   UNL A   1      38.527  34.343  38.848  1.00  0.00    -0.200 F 
ENDBRANCH  46  60
BRANCH  47  71
ATOM     71  C   UNL A   1      42.568  26.637  27.647  1.00  0.00     0.064 A 
ATOM     72  C   UNL A   1      43.580  27.045  26.767  1.00  0.00     0.173 A 
ATOM     73  C   UNL A   1      41.957  25.398  27.404  1.00  0.00     0.173 A 
ATOM     74  F   UNL A   1      44.196  28.223  26.951  1.00  0.00    -0.203 F 
ATOM     75  C   UNL A   1      43.966  26.246  25.691  1.00  0.00     0.198 A 
ATOM     76  C   UNL A   1      42.363  24.587  26.346  1.00  0.00     0.198 A 
ATOM     77  F   UNL A   1      40.995  24.953  28.227  1.00  0.00    -0.203 F 
ATOM     78  F   UNL A   1      44.924  26.668  24.855  1.00  0.00    -0.200 F 
ATOM     79  C   UNL A   1      43.365  25.012  25.489  1.00  0.00     0.200 A 
ATOM     80  F   UNL A   1      41.798  23.384  26.171  1.00  0.00    -0.200 F 
ATOM     81  F   UNL A   1      43.756  24.233  24.471  1.00  0.00    -0.200 F 
ENDBRANCH  47  71
BRANCH  59  82
ATOM     82  C   UNL A   1      44.673  26.667  34.328  1.00  0.00     0.064 A 
ATOM     83  C   UNL A   1      44.390  25.410  34.881  1.00  0.00     0.173 A 
ATOM     84  C   UNL A   1      45.996  27.131  34.387  1.00  0.00     0.173 A 
ATOM     85  F   UNL A   1      43.137  24.931  34.860  1.00  0.00    -0.203 F 
ATOM     86  C   UNL A   1      45.393  24.645  35.466  1.00  0.00     0.198 A 
ATOM     87  C   UNL A   1      47.003  26.350  34.945  1.00  0.00     0.198 A 
ATOM     88  F   UNL A   1      46.320  28.324  33.865  1.00  0.00    -0.203 F 
ATOM     89  F   UNL A   1      45.097  23.455  36.006  1.00  0.00    -0.200 F 
ATOM     90  C   UNL A   1      46.702  25.107  35.483  1.00  0.00     0.200 A 
ATOM     91  F   UNL A   1      48.270  26.788  34.943  1.00  0.00    -0.200 F 
ATOM     92  F   UNL A   1      47.672  24.353  36.016  1.00  0.00    -0.200 F 
ENDBRANCH  59  82
ENDBRANCH  33  34
ENDBRANCH  26  28
ENDBRANCH  25  26
ENDBRANCH  24  25
ENDBRANCH   1  24
TORSDOF 16
ENDMDL
