MODEL 1
REMARK VINA RESULT:     -11.4      0.000      0.000
REMARK SMILES CC1(C)CCC[C@H]([N@H+](CC(=O)OCCOC(=O)c2ccc(-c3c4nc(c(-c5c(F)c(F)c(F)c(F)c5F)c5ccc([nH]5)c(-c5c(F)c(F)c(F)c(F)c5F)c5nc(c(-c6c(F)c(F)c(F)c(F)c6F)c6ccc3[nH]6)C=C5)C=C4)cc2)C(C)(C)C)C1
REMARK SMILES IDX 13 1 12 2 10 3 11 4 9 5 8 6 7 8 1 9 2 10 3 11 4 12 85 13
REMARK SMILES IDX 5 14 6 15 81 16 82 17 83 18 84 19 14 20 15 21 16 22 17 23
REMARK SMILES IDX 18 24 19 25 80 26 20 27 79 28 21 29 22 30 23 31 73 32 24 33
REMARK SMILES IDX 78 34 72 35 74 36 25 37 77 38 71 39 70 40 26 42 58 43 38 44
REMARK SMILES IDX 57 45 39 46 42 47 56 48 75 49 40 50 41 51 55 53 76 54 43 55
REMARK SMILES IDX 27 56 28 57 36 58 29 59 30 60 34 61 37 62 31 63 32 64 35 65
REMARK SMILES IDX 33 66 59 67 60 68 68 69 61 70 62 71 66 72 69 73 63 74 64 75
REMARK SMILES IDX 67 76 65 77 44 78 45 79 53 80 46 81 47 82 51 83 54 84 48 85
REMARK SMILES IDX 49 86 52 87 50 88
REMARK H PARENT 8 7 74 41 42 52
REMARK Flexibility Score: inf
ROOT
ATOM      1  C   UNL A   1      31.685  29.672  24.682  1.00  0.00     0.274 C 
ENDROOT
BRANCH   1   2
ATOM      2  O   UNL A   1      33.093  29.397  24.607  1.00  0.00    -0.458 OA
BRANCH   2   3
ATOM      3  C   UNL A   1      33.520  28.297  23.945  1.00  0.00     0.361 C 
ATOM      4  O   UNL A   1      33.945  28.318  22.795  1.00  0.00    -0.245 OA
BRANCH   3   5
ATOM      5  C   UNL A   1      33.654  27.085  24.883  1.00  0.00     0.387 C 
BRANCH   5   6
ATOM      6  N   UNL A   1      32.716  25.903  24.712  1.00  0.00    -0.319 N 
ATOM      7  H   UNL A   1      32.189  25.981  23.842  1.00  0.00     0.349 HD
BRANCH   6   8
ATOM      8  C   UNL A   1      33.579  24.641  24.632  1.00  0.00     0.185 C 
ATOM      9  C   UNL A   1      35.268  22.399  26.126  1.00  0.00     0.011 C 
ATOM     10  C   UNL A   1      35.876  23.588  25.352  1.00  0.00    -0.030 C 
ATOM     11  C   UNL A   1      37.217  23.943  26.023  1.00  0.00     0.011 C 
ATOM     12  C   UNL A   1      36.154  23.197  23.892  1.00  0.00     0.007 C 
ATOM     13  C   UNL A   1      34.936  24.828  25.387  1.00  0.00     0.071 C 
ATOM     14  C   UNL A   1      34.874  22.953  23.119  1.00  0.00     0.007 C 
ATOM     15  C   UNL A   1      33.918  24.136  23.210  1.00  0.00     0.065 C 
ENDBRANCH   6   8
BRANCH   6  16
ATOM     16  C   UNL A   1      31.597  25.870  25.754  1.00  0.00     0.090 C 
ATOM     17  C   UNL A   1      31.774  26.917  26.876  1.00  0.00     0.078 C 
ATOM     18  C   UNL A   1      30.213  26.281  25.179  1.00  0.00     0.078 C 
ATOM     19  C   UNL A   1      31.482  24.506  26.474  1.00  0.00     0.078 C 
ENDBRANCH   6  16
ENDBRANCH   5   6
ENDBRANCH   3   5
ENDBRANCH   2   3
ENDBRANCH   1   2
BRANCH   1  20
ATOM     20  C   UNL A   1      31.473  30.768  25.751  1.00  0.00     0.275 C 
BRANCH  20  21
ATOM     21  O   UNL A   1      32.231  30.667  26.992  1.00  0.00    -0.458 OA
BRANCH  21  22
ATOM     22  C   UNL A   1      33.075  31.662  27.333  1.00  0.00     0.338 C 
ATOM     23  O   UNL A   1      32.861  32.862  27.251  1.00  0.00    -0.246 OA
BRANCH  22  24
ATOM     24  C   UNL A   1      34.416  31.143  27.695  1.00  0.00     0.060 A 
ATOM     25  C   UNL A   1      35.366  32.096  28.074  1.00  0.00     0.016 A 
ATOM     26  C   UNL A   1      34.743  29.784  27.754  1.00  0.00     0.016 A 
ATOM     27  C   UNL A   1      36.631  31.709  28.498  1.00  0.00     0.010 A 
ATOM     28  C   UNL A   1      35.984  29.390  28.296  1.00  0.00     0.010 A 
ATOM     29  C   UNL A   1      36.922  30.353  28.707  1.00  0.00    -0.014 A 
BRANCH  29  30
ATOM     30  C   UNL A   1      38.120  30.033  29.536  1.00  0.00     0.031 A 
ATOM     31  C   UNL A   1      38.268  30.495  30.954  1.00  0.00     0.074 A 
ATOM     32  C   UNL A   1      39.055  29.224  28.991  1.00  0.00     0.049 A 
ATOM     33  N   UNL A   1      39.232  30.240  31.804  1.00  0.00    -0.248 NA
ATOM     34  C   UNL A   1      37.206  31.357  31.490  1.00  0.00     0.031 C 
ATOM     35  C   UNL A   1      39.016  28.712  27.617  1.00  0.00     0.029 A 
ATOM     36  N   UNL A   1      40.183  28.648  29.520  1.00  0.00    -0.354 N 
ATOM     37  C   UNL A   1      38.911  30.929  32.966  1.00  0.00     0.074 A 
ATOM     38  C   UNL A   1      37.660  31.616  32.711  1.00  0.00     0.031 C 
ATOM     39  C   UNL A   1      40.015  27.838  27.440  1.00  0.00     0.029 A 
ATOM     40  C   UNL A   1      40.825  27.798  28.648  1.00  0.00     0.049 A 
ATOM     41  H   UNL A   1      40.501  28.824  30.435  1.00  0.00     0.167 HD
ATOM     42  C   UNL A   1      39.605  30.984  34.131  1.00  0.00     0.037 A 
ATOM     43  C   UNL A   1      41.956  27.081  28.791  1.00  0.00     0.037 A 
ATOM     44  C   UNL A   1      40.838  30.273  34.378  1.00  0.00     0.049 A 
ATOM     45  C   UNL A   1      42.697  27.163  30.091  1.00  0.00     0.074 A 
ATOM     46  C   UNL A   1      41.603  30.245  35.533  1.00  0.00     0.029 A 
ATOM     47  N   UNL A   1      41.490  29.466  33.455  1.00  0.00    -0.354 N 
ATOM     48  N   UNL A   1      42.383  27.824  31.178  1.00  0.00    -0.248 NA
ATOM     49  C   UNL A   1      43.956  26.413  30.182  1.00  0.00     0.031 C 
ATOM     50  C   UNL A   1      42.738  29.464  35.292  1.00  0.00     0.029 A 
ATOM     51  C   UNL A   1      42.657  28.957  34.006  1.00  0.00     0.049 A 
ATOM     52  H   UNL A   1      41.169  29.281  32.542  1.00  0.00     0.167 HD
ATOM     53  C   UNL A   1      43.405  27.578  32.081  1.00  0.00     0.074 A 
ATOM     54  C   UNL A   1      44.327  26.669  31.428  1.00  0.00     0.031 C 
ATOM     55  C   UNL A   1      43.574  28.072  33.332  1.00  0.00     0.037 A 
BRANCH  42  56
ATOM     56  C   UNL A   1      39.078  31.875  35.221  1.00  0.00     0.064 A 
ATOM     57  C   UNL A   1      38.322  31.377  36.291  1.00  0.00     0.173 A 
ATOM     58  C   UNL A   1      39.384  33.245  35.217  1.00  0.00     0.173 A 
ATOM     59  F   UNL A   1      37.991  30.078  36.339  1.00  0.00    -0.203 F 
ATOM     60  C   UNL A   1      37.876  32.222  37.307  1.00  0.00     0.198 A 
ATOM     61  C   UNL A   1      38.960  34.080  36.248  1.00  0.00     0.198 A 
ATOM     62  F   UNL A   1      40.110  33.773  34.220  1.00  0.00    -0.203 F 
ATOM     63  F   UNL A   1      37.120  31.731  38.301  1.00  0.00    -0.200 F 
ATOM     64  C   UNL A   1      38.200  33.570  37.288  1.00  0.00     0.200 A 
ATOM     65  F   UNL A   1      39.287  35.380  36.232  1.00  0.00    -0.200 F 
ATOM     66  F   UNL A   1      37.778  34.377  38.270  1.00  0.00    -0.200 F 
ENDBRANCH  42  56
BRANCH  43  67
ATOM     67  C   UNL A   1      42.468  26.269  27.653  1.00  0.00     0.064 A 
ATOM     68  C   UNL A   1      43.440  26.769  26.777  1.00  0.00     0.173 A 
ATOM     69  C   UNL A   1      42.003  24.963  27.432  1.00  0.00     0.173 A 
ATOM     70  F   UNL A   1      43.900  28.019  26.928  1.00  0.00    -0.203 F 
ATOM     71  C   UNL A   1      43.919  25.998  25.718  1.00  0.00     0.198 A 
ATOM     72  C   UNL A   1      42.509  24.180  26.398  1.00  0.00     0.198 A 
ATOM     73  F   UNL A   1      41.072  24.435  28.241  1.00  0.00    -0.203 F 
ATOM     74  F   UNL A   1      44.816  26.515  24.868  1.00  0.00    -0.200 F 
ATOM     75  C   UNL A   1      43.462  24.701  25.537  1.00  0.00     0.200 A 
ATOM     76  F   UNL A   1      42.077  22.922  26.240  1.00  0.00    -0.200 F 
ATOM     77  F   UNL A   1      43.934  23.956  24.528  1.00  0.00    -0.200 F 
ENDBRANCH  43  67
BRANCH  55  78
ATOM     78  C   UNL A   1      44.806  27.626  34.066  1.00  0.00     0.064 A 
ATOM     79  C   UNL A   1      46.004  28.352  33.992  1.00  0.00     0.173 A 
ATOM     80  C   UNL A   1      44.792  26.454  34.835  1.00  0.00     0.173 A 
ATOM     81  F   UNL A   1      46.073  29.469  33.251  1.00  0.00    -0.203 F 
ATOM     82  C   UNL A   1      47.156  27.898  34.628  1.00  0.00     0.198 A 
ATOM     83  C   UNL A   1      45.939  26.021  35.497  1.00  0.00     0.198 A 
ATOM     84  F   UNL A   1      43.671  25.726  34.941  1.00  0.00    -0.203 F 
ATOM     85  F   UNL A   1      48.307  28.572  34.488  1.00  0.00    -0.200 F 
ATOM     86  C   UNL A   1      47.122  26.736  35.383  1.00  0.00     0.200 A 
ATOM     87  F   UNL A   1      45.901  24.902  36.234  1.00  0.00    -0.200 F 
ATOM     88  F   UNL A   1      48.232  26.296  35.989  1.00  0.00    -0.200 F 
ENDBRANCH  55  78
ENDBRANCH  29  30
ENDBRANCH  22  24
ENDBRANCH  21  22
ENDBRANCH  20  21
ENDBRANCH   1  20
TORSDOF 14
ENDMDL
MODEL 2
REMARK VINA RESULT:     -11.3      5.006      7.608
REMARK SMILES CC1(C)CCC[C@H]([N@H+](CC(=O)OCCOC(=O)c2ccc(-c3c4nc(c(-c5c(F)c(F)c(F)c(F)c5F)c5ccc([nH]5)c(-c5c(F)c(F)c(F)c(F)c5F)c5nc(c(-c6c(F)c(F)c(F)c(F)c6F)c6ccc3[nH]6)C=C5)C=C4)cc2)C(C)(C)C)C1
REMARK SMILES IDX 13 1 12 2 10 3 11 4 9 5 8 6 7 8 1 9 2 10 3 11 4 12 85 13
REMARK SMILES IDX 5 14 6 15 81 16 82 17 83 18 84 19 14 20 15 21 16 22 17 23
REMARK SMILES IDX 18 24 19 25 80 26 20 27 79 28 21 29 22 30 23 31 73 32 24 33
REMARK SMILES IDX 78 34 72 35 74 36 25 37 77 38 71 39 70 40 26 42 58 43 38 44
REMARK SMILES IDX 57 45 39 46 42 47 56 48 75 49 40 50 41 51 55 53 76 54 43 55
REMARK SMILES IDX 27 56 28 57 36 58 29 59 30 60 34 61 37 62 31 63 32 64 35 65
REMARK SMILES IDX 33 66 59 67 60 68 68 69 61 70 62 71 66 72 69 73 63 74 64 75
REMARK SMILES IDX 67 76 65 77 44 78 45 79 53 80 46 81 47 82 51 83 54 84 48 85
REMARK SMILES IDX 49 86 52 87 50 88
REMARK H PARENT 8 7 74 41 42 52
REMARK Flexibility Score: inf
ROOT
ATOM      1  C   UNL A   1      38.151  19.758  24.998  1.00  0.00     0.274 C 
ENDROOT
BRANCH   1   2
ATOM      2  O   UNL A   1      37.950  21.179  25.041  1.00  0.00    -0.458 OA
BRANCH   2   3
ATOM      3  C   UNL A   1      36.767  21.694  24.633  1.00  0.00     0.361 C 
ATOM      4  O   UNL A   1      36.645  22.425  23.657  1.00  0.00    -0.245 OA
BRANCH   3   5
ATOM      5  C   UNL A   1      35.581  21.049  25.371  1.00  0.00     0.387 C 
BRANCH   5   6
ATOM      6  N   UNL A   1      34.164  21.412  24.966  1.00  0.00    -0.319 N 
ATOM      7  H   UNL A   1      34.164  21.980  24.118  1.00  0.00     0.349 HD
BRANCH   6   8
ATOM      8  C   UNL A   1      33.424  20.107  24.664  1.00  0.00     0.185 C 
ATOM      9  C   UNL A   1      32.600  17.172  25.569  1.00  0.00     0.011 C 
ATOM     10  C   UNL A   1      33.689  17.497  24.525  1.00  0.00    -0.030 C 
ATOM     11  C   UNL A   1      34.747  16.379  24.594  1.00  0.00     0.011 C 
ATOM     12  C   UNL A   1      33.093  17.512  23.109  1.00  0.00     0.007 C 
ATOM     13  C   UNL A   1      34.366  18.868  24.818  1.00  0.00     0.071 C 
ATOM     14  C   UNL A   1      32.130  18.666  22.913  1.00  0.00     0.007 C 
ATOM     15  C   UNL A   1      32.765  20.005  23.268  1.00  0.00     0.065 C 
ENDBRANCH   6   8
BRANCH   6  16
ATOM     16  C   UNL A   1      33.475  22.343  25.965  1.00  0.00     0.090 C 
ATOM     17  C   UNL A   1      31.934  22.238  25.938  1.00  0.00     0.078 C 
ATOM     18  C   UNL A   1      33.773  21.979  27.447  1.00  0.00     0.078 C 
ATOM     19  C   UNL A   1      33.794  23.836  25.719  1.00  0.00     0.078 C 
ENDBRANCH   6  16
ENDBRANCH   5   6
ENDBRANCH   3   5
ENDBRANCH   2   3
ENDBRANCH   1   2
BRANCH   1  20
ATOM     20  C   UNL A   1      39.538  19.457  25.614  1.00  0.00     0.275 C 
BRANCH  20  21
ATOM     21  O   UNL A   1      39.835  20.010  26.929  1.00  0.00    -0.458 OA
BRANCH  21  22
ATOM     22  C   UNL A   1      41.081  20.456  27.191  1.00  0.00     0.338 C 
ATOM     23  O   UNL A   1      42.087  19.777  27.323  1.00  0.00    -0.246 OA
BRANCH  22  24
ATOM     24  C   UNL A   1      41.094  21.913  27.471  1.00  0.00     0.060 A 
ATOM     25  C   UNL A   1      42.029  22.353  28.411  1.00  0.00     0.016 A 
ATOM     26  C   UNL A   1      40.299  22.848  26.800  1.00  0.00     0.016 A 
ATOM     27  C   UNL A   1      42.170  23.706  28.694  1.00  0.00     0.010 A 
ATOM     28  C   UNL A   1      40.526  24.226  27.002  1.00  0.00     0.010 A 
ATOM     29  C   UNL A   1      41.492  24.662  27.925  1.00  0.00    -0.014 A 
BRANCH  29  30
ATOM     30  C   UNL A   1      41.987  26.068  27.996  1.00  0.00     0.031 A 
ATOM     31  C   UNL A   1      41.262  27.142  28.750  1.00  0.00     0.074 A 
ATOM     32  C   UNL A   1      43.179  26.337  27.421  1.00  0.00     0.049 A 
ATOM     33  N   UNL A   1      41.613  28.390  28.939  1.00  0.00    -0.248 NA
ATOM     34  C   UNL A   1      39.981  26.777  29.367  1.00  0.00     0.031 C 
ATOM     35  C   UNL A   1      43.976  25.368  26.660  1.00  0.00     0.029 A 
ATOM     36  N   UNL A   1      43.958  27.468  27.421  1.00  0.00    -0.354 N 
ATOM     37  C   UNL A   1      40.585  28.970  29.672  1.00  0.00     0.074 A 
ATOM     38  C   UNL A   1      39.596  27.934  29.893  1.00  0.00     0.031 C 
ATOM     39  C   UNL A   1      45.156  25.914  26.342  1.00  0.00     0.029 A 
ATOM     40  C   UNL A   1      45.168  27.300  26.788  1.00  0.00     0.049 A 
ATOM     41  H   UNL A   1      43.678  28.316  27.834  1.00  0.00     0.167 HD
ATOM     42  C   UNL A   1      40.483  30.250  30.110  1.00  0.00     0.037 A 
ATOM     43  C   UNL A   1      46.172  28.169  26.564  1.00  0.00     0.037 A 
ATOM     44  C   UNL A   1      41.490  31.265  29.903  1.00  0.00     0.049 A 
ATOM     45  C   UNL A   1      46.027  29.576  27.063  1.00  0.00     0.074 A 
ATOM     46  C   UNL A   1      41.488  32.583  30.329  1.00  0.00     0.029 A 
ATOM     47  N   UNL A   1      42.679  31.076  29.210  1.00  0.00    -0.354 N 
ATOM     48  N   UNL A   1      45.046  30.109  27.749  1.00  0.00    -0.248 NA
ATOM     49  C   UNL A   1      47.118  30.504  26.745  1.00  0.00     0.031 C 
ATOM     50  C   UNL A   1      42.649  33.202  29.852  1.00  0.00     0.029 A 
ATOM     51  C   UNL A   1      43.404  32.259  29.176  1.00  0.00     0.049 A 
ATOM     52  H   UNL A   1      42.965  30.226  28.803  1.00  0.00     0.167 HD
ATOM     53  C   UNL A   1      45.395  31.436  27.941  1.00  0.00     0.074 A 
ATOM     54  C   UNL A   1      46.701  31.615  27.335  1.00  0.00     0.031 C 
ATOM     55  C   UNL A   1      44.691  32.423  28.549  1.00  0.00     0.037 A 
BRANCH  42  56
ATOM     56  C   UNL A   1      39.220  30.649  30.821  1.00  0.00     0.064 A 
ATOM     57  C   UNL A   1      38.096  31.130  30.132  1.00  0.00     0.173 A 
ATOM     58  C   UNL A   1      39.118  30.496  32.213  1.00  0.00     0.173 A 
ATOM     59  F   UNL A   1      38.142  31.306  28.804  1.00  0.00    -0.203 F 
ATOM     60  C   UNL A   1      36.926  31.460  30.814  1.00  0.00     0.198 A 
ATOM     61  C   UNL A   1      37.938  30.801  32.886  1.00  0.00     0.198 A 
ATOM     62  F   UNL A   1      40.160  30.034  32.920  1.00  0.00    -0.203 F 
ATOM     63  F   UNL A   1      35.877  31.955  30.141  1.00  0.00    -0.200 F 
ATOM     64  C   UNL A   1      36.845  31.289  32.188  1.00  0.00     0.200 A 
ATOM     65  F   UNL A   1      37.860  30.622  34.212  1.00  0.00    -0.200 F 
ATOM     66  F   UNL A   1      35.716  31.598  32.839  1.00  0.00    -0.200 F 
ENDBRANCH  42  56
BRANCH  43  67
ATOM     67  C   UNL A   1      47.370  27.737  25.794  1.00  0.00     0.064 A 
ATOM     68  C   UNL A   1      47.389  27.763  24.393  1.00  0.00     0.173 A 
ATOM     69  C   UNL A   1      48.533  27.303  26.452  1.00  0.00     0.173 A 
ATOM     70  F   UNL A   1      46.297  28.144  23.715  1.00  0.00    -0.203 F 
ATOM     71  C   UNL A   1      48.519  27.362  23.681  1.00  0.00     0.198 A 
ATOM     72  C   UNL A   1      49.673  26.940  25.741  1.00  0.00     0.198 A 
ATOM     73  F   UNL A   1      48.569  27.258  27.792  1.00  0.00    -0.203 F 
ATOM     74  F   UNL A   1      48.496  27.354  22.342  1.00  0.00    -0.200 F 
ATOM     75  C   UNL A   1      49.663  26.962  24.356  1.00  0.00     0.200 A 
ATOM     76  F   UNL A   1      50.781  26.573  26.399  1.00  0.00    -0.200 F 
ATOM     77  F   UNL A   1      50.754  26.593  23.671  1.00  0.00    -0.200 F 
ENDBRANCH  43  67
BRANCH  55  78
ATOM     78  C   UNL A   1      45.336  33.778  28.585  1.00  0.00     0.064 A 
ATOM     79  C   UNL A   1      45.096  34.729  27.582  1.00  0.00     0.173 A 
ATOM     80  C   UNL A   1      46.214  34.122  29.622  1.00  0.00     0.173 A 
ATOM     81  F   UNL A   1      44.279  34.440  26.557  1.00  0.00    -0.203 F 
ATOM     82  C   UNL A   1      45.744  35.961  27.595  1.00  0.00     0.198 A 
ATOM     83  C   UNL A   1      46.836  35.368  29.648  1.00  0.00     0.198 A 
ATOM     84  F   UNL A   1      46.475  33.249  30.607  1.00  0.00    -0.203 F 
ATOM     85  F   UNL A   1      45.552  36.828  26.590  1.00  0.00    -0.200 F 
ATOM     86  C   UNL A   1      46.610  36.281  28.629  1.00  0.00     0.200 A 
ATOM     87  F   UNL A   1      47.665  35.679  30.654  1.00  0.00    -0.200 F 
ATOM     88  F   UNL A   1      47.240  37.464  28.636  1.00  0.00    -0.200 F 
ENDBRANCH  55  78
ENDBRANCH  29  30
ENDBRANCH  22  24
ENDBRANCH  21  22
ENDBRANCH  20  21
ENDBRANCH   1  20
TORSDOF 14
ENDMDL
MODEL 3
REMARK VINA RESULT:     -11.2      4.361      9.658
REMARK SMILES CC1(C)CCC[C@H]([N@H+](CC(=O)OCCOC(=O)c2ccc(-c3c4nc(c(-c5c(F)c(F)c(F)c(F)c5F)c5ccc([nH]5)c(-c5c(F)c(F)c(F)c(F)c5F)c5nc(c(-c6c(F)c(F)c(F)c(F)c6F)c6ccc3[nH]6)C=C5)C=C4)cc2)C(C)(C)C)C1
REMARK SMILES IDX 13 1 12 2 10 3 11 4 9 5 8 6 7 8 1 9 2 10 3 11 4 12 85 13
REMARK SMILES IDX 5 14 6 15 81 16 82 17 83 18 84 19 14 20 15 21 16 22 17 23
REMARK SMILES IDX 18 24 19 25 80 26 20 27 79 28 21 29 22 30 23 31 73 32 24 33
REMARK SMILES IDX 78 34 72 35 74 36 25 37 77 38 71 39 70 40 26 42 58 43 38 44
REMARK SMILES IDX 57 45 39 46 42 47 56 48 75 49 40 50 41 51 55 53 76 54 43 55
REMARK SMILES IDX 27 56 28 57 36 58 29 59 30 60 34 61 37 62 31 63 32 64 35 65
REMARK SMILES IDX 33 66 59 67 60 68 68 69 61 70 62 71 66 72 69 73 63 74 64 75
REMARK SMILES IDX 67 76 65 77 44 78 45 79 53 80 46 81 47 82 51 83 54 84 48 85
REMARK SMILES IDX 49 86 52 87 50 88
REMARK H PARENT 8 7 74 41 42 52
REMARK Flexibility Score: inf
ROOT
ATOM      1  C   UNL A   1      35.993  21.580  25.517  1.00  0.00     0.274 C 
ENDROOT
BRANCH   1   2
ATOM      2  O   UNL A   1      35.380  21.712  24.226  1.00  0.00    -0.458 OA
BRANCH   2   3
ATOM      3  C   UNL A   1      35.572  22.846  23.513  1.00  0.00     0.361 C 
ATOM      4  O   UNL A   1      36.646  23.160  23.011  1.00  0.00    -0.245 OA
BRANCH   3   5
ATOM      5  C   UNL A   1      34.241  23.546  23.189  1.00  0.00     0.387 C 
BRANCH   5   6
ATOM      6  N   UNL A   1      33.193  23.695  24.278  1.00  0.00    -0.319 N 
ATOM      7  H   UNL A   1      33.523  23.293  25.156  1.00  0.00     0.349 HD
BRANCH   6   8
ATOM      8  C   UNL A   1      32.968  25.193  24.497  1.00  0.00     0.185 C 
ATOM      9  C   UNL A   1      31.856  27.967  23.411  1.00  0.00     0.011 C 
ATOM     10  C   UNL A   1      33.348  27.574  23.453  1.00  0.00    -0.030 C 
ATOM     11  C   UNL A   1      34.050  28.288  22.282  1.00  0.00     0.011 C 
ATOM     12  C   UNL A   1      33.994  28.046  24.765  1.00  0.00     0.007 C 
ATOM     13  C   UNL A   1      33.534  26.035  23.307  1.00  0.00     0.071 C 
ATOM     14  C   UNL A   1      33.448  27.298  25.964  1.00  0.00     0.007 C 
ATOM     15  C   UNL A   1      33.561  25.788  25.796  1.00  0.00     0.065 C 
ENDBRANCH   6   8
BRANCH   6  16
ATOM     16  C   UNL A   1      31.932  22.872  24.011  1.00  0.00     0.090 C 
ATOM     17  C   UNL A   1      31.387  22.161  25.270  1.00  0.00     0.078 C 
ATOM     18  C   UNL A   1      30.708  23.742  23.607  1.00  0.00     0.078 C 
ATOM     19  C   UNL A   1      32.149  21.755  22.965  1.00  0.00     0.078 C 
ENDBRANCH   6  16
ENDBRANCH   5   6
ENDBRANCH   3   5
ENDBRANCH   2   3
ENDBRANCH   1   2
BRANCH   1  20
ATOM     20  C   UNL A   1      37.194  20.615  25.375  1.00  0.00     0.275 C 
BRANCH  20  21
ATOM     21  O   UNL A   1      38.511  21.194  25.147  1.00  0.00    -0.458 OA
BRANCH  21  22
ATOM     22  C   UNL A   1      39.439  21.128  26.124  1.00  0.00     0.338 C 
ATOM     23  O   UNL A   1      39.928  20.115  26.599  1.00  0.00    -0.246 OA
BRANCH  22  24
ATOM     24  C   UNL A   1      39.719  22.463  26.705  1.00  0.00     0.060 A 
ATOM     25  C   UNL A   1      40.834  22.551  27.544  1.00  0.00     0.016 A 
ATOM     26  C   UNL A   1      38.995  23.621  26.399  1.00  0.00     0.016 A 
ATOM     27  C   UNL A   1      41.222  23.770  28.084  1.00  0.00     0.010 A 
ATOM     28  C   UNL A   1      39.460  24.873  26.852  1.00  0.00     0.010 A 
ATOM     29  C   UNL A   1      40.602  24.957  27.668  1.00  0.00    -0.014 A 
BRANCH  29  30
ATOM     30  C   UNL A   1      41.316  26.236  27.955  1.00  0.00     0.031 A 
ATOM     31  C   UNL A   1      42.680  26.538  27.413  1.00  0.00     0.074 A 
ATOM     32  C   UNL A   1      40.650  27.174  28.663  1.00  0.00     0.049 A 
ATOM     33  N   UNL A   1      43.388  27.633  27.539  1.00  0.00    -0.248 NA
ATOM     34  C   UNL A   1      43.339  25.481  26.635  1.00  0.00     0.031 C 
ATOM     35  C   UNL A   1      39.314  26.990  29.242  1.00  0.00     0.029 A 
ATOM     36  N   UNL A   1      40.964  28.472  28.979  1.00  0.00    -0.354 N 
ATOM     37  C   UNL A   1      44.588  27.391  26.882  1.00  0.00     0.074 A 
ATOM     38  C   UNL A   1      44.511  26.042  26.358  1.00  0.00     0.031 C 
ATOM     39  C   UNL A   1      38.892  28.149  29.763  1.00  0.00     0.029 A 
ATOM     40  C   UNL A   1      39.958  29.133  29.646  1.00  0.00     0.049 A 
ATOM     41  H   UNL A   1      41.825  28.890  28.749  1.00  0.00     0.167 HD
ATOM     42  C   UNL A   1      45.651  28.222  26.740  1.00  0.00     0.037 A 
ATOM     43  C   UNL A   1      39.902  30.386  30.136  1.00  0.00     0.037 A 
ATOM     44  C   UNL A   1      45.703  29.573  27.247  1.00  0.00     0.049 A 
ATOM     45  C   UNL A   1      41.095  31.278  29.960  1.00  0.00     0.074 A 
ATOM     46  C   UNL A   1      46.726  30.501  27.133  1.00  0.00     0.029 A 
ATOM     47  N   UNL A   1      44.688  30.192  27.966  1.00  0.00    -0.354 N 
ATOM     48  N   UNL A   1      42.223  31.032  29.342  1.00  0.00    -0.248 NA
ATOM     49  C   UNL A   1      41.013  32.614  30.561  1.00  0.00     0.031 C 
ATOM     50  C   UNL A   1      46.351  31.659  27.823  1.00  0.00     0.029 A 
ATOM     51  C   UNL A   1      45.072  31.478  28.322  1.00  0.00     0.049 A 
ATOM     52  H   UNL A   1      43.823  29.779  28.189  1.00  0.00     0.167 HD
ATOM     53  C   UNL A   1      42.991  32.176  29.483  1.00  0.00     0.074 A 
ATOM     54  C   UNL A   1      42.180  33.135  30.209  1.00  0.00     0.031 C 
ATOM     55  C   UNL A   1      44.259  32.409  29.064  1.00  0.00     0.037 A 
BRANCH  42  56
ATOM     56  C   UNL A   1      46.873  27.685  26.047  1.00  0.00     0.064 A 
ATOM     57  C   UNL A   1      47.019  27.730  24.653  1.00  0.00     0.173 A 
ATOM     58  C   UNL A   1      47.938  27.166  26.801  1.00  0.00     0.173 A 
ATOM     59  F   UNL A   1      46.029  28.205  23.884  1.00  0.00    -0.203 F 
ATOM     60  C   UNL A   1      48.179  27.257  24.039  1.00  0.00     0.198 A 
ATOM     61  C   UNL A   1      49.105  26.721  26.186  1.00  0.00     0.198 A 
ATOM     62  F   UNL A   1      47.853  27.107  28.138  1.00  0.00    -0.203 F 
ATOM     63  F   UNL A   1      48.281  27.273  22.702  1.00  0.00    -0.200 F 
ATOM     64  C   UNL A   1      49.222  26.759  24.806  1.00  0.00     0.200 A 
ATOM     65  F   UNL A   1      50.116  26.252  26.931  1.00  0.00    -0.200 F 
ATOM     66  F   UNL A   1      50.339  26.314  24.214  1.00  0.00    -0.200 F 
ENDBRANCH  42  56
BRANCH  43  67
ATOM     67  C   UNL A   1      38.693  30.841  30.874  1.00  0.00     0.064 A 
ATOM     68  C   UNL A   1      38.611  30.751  32.271  1.00  0.00     0.173 A 
ATOM     69  C   UNL A   1      37.596  31.394  30.193  1.00  0.00     0.173 A 
ATOM     70  F   UNL A   1      39.619  30.209  32.967  1.00  0.00    -0.203 F 
ATOM     71  C   UNL A   1      37.476  31.187  32.954  1.00  0.00     0.198 A 
ATOM     72  C   UNL A   1      36.480  31.863  30.879  1.00  0.00     0.198 A 
ATOM     73  F   UNL A   1      37.621  31.503  28.856  1.00  0.00    -0.203 F 
ATOM     74  F   UNL A   1      37.405  31.050  34.285  1.00  0.00    -0.200 F 
ATOM     75  C   UNL A   1      36.417  31.752  32.259  1.00  0.00     0.200 A 
ATOM     76  F   UNL A   1      35.469  32.426  30.204  1.00  0.00    -0.200 F 
ATOM     77  F   UNL A   1      35.334  32.185  32.919  1.00  0.00    -0.200 F 
ENDBRANCH  43  67
BRANCH  55  78
ATOM     78  C   UNL A   1      44.832  33.759  29.385  1.00  0.00     0.064 A 
ATOM     79  C   UNL A   1      45.550  33.986  30.570  1.00  0.00     0.173 A 
ATOM     80  C   UNL A   1      44.648  34.838  28.510  1.00  0.00     0.173 A 
ATOM     81  F   UNL A   1      45.734  32.990  31.450  1.00  0.00    -0.203 F 
ATOM     82  C   UNL A   1      46.025  35.255  30.885  1.00  0.00     0.198 A 
ATOM     83  C   UNL A   1      45.154  36.099  28.813  1.00  0.00     0.198 A 
ATOM     84  F   UNL A   1      43.972  34.672  27.363  1.00  0.00    -0.203 F 
ATOM     85  F   UNL A   1      46.649  35.465  32.053  1.00  0.00    -0.200 F 
ATOM     86  C   UNL A   1      45.831  36.310  30.005  1.00  0.00     0.200 A 
ATOM     87  F   UNL A   1      44.974  37.115  27.957  1.00  0.00    -0.200 F 
ATOM     88  F   UNL A   1      46.283  37.533  30.313  1.00  0.00    -0.200 F 
ENDBRANCH  55  78
ENDBRANCH  29  30
ENDBRANCH  22  24
ENDBRANCH  21  22
ENDBRANCH  20  21
ENDBRANCH   1  20
TORSDOF 14
ENDMDL
