MODEL 1
REMARK VINA RESULT:     -12.8      0.000      0.000
REMARK SMILES COc1cc(S(=O)(=O)Nc2cccc(C(=O)OCCOC(=O)c3ccc(-c4c5nc(c(-c6c(F)c(F)c(F)c(F)c6F)c6ccc([nH]6)c(-c6c(F)c(F)c(F)c(F)c6F)c6nc(c(-c7c(F)c(F)c(F)c(F)c7F)c7ccc4[nH]7)C=C6)C=C5)cc3)c2)c(OC)cc1C
REMARK SMILES IDX 18 1 17 2 15 3 16 4 14 5 10 6 11 7 86 8 12 9 13 10 9 11 6 13
REMARK SMILES IDX 7 14 8 15 5 16 3 17 4 18 91 19 90 20 92 21 87 22 2 23 1 24
REMARK SMILES IDX 88 25 89 26 19 27 20 28 21 29 22 30 23 31 24 32 85 33 25 34
REMARK SMILES IDX 84 35 26 36 27 37 28 38 78 39 29 40 83 41 77 42 79 43 30 44
REMARK SMILES IDX 82 45 76 46 75 47 31 49 63 50 43 51 62 52 44 53 47 54 61 55
REMARK SMILES IDX 80 56 45 57 46 58 60 60 81 61 48 62 32 63 33 64 41 65 34 66
REMARK SMILES IDX 35 67 39 68 42 69 36 70 37 71 40 72 38 73 64 74 65 75 73 76
REMARK SMILES IDX 66 77 67 78 71 79 74 80 68 81 69 82 72 83 70 84 49 85 50 86
REMARK SMILES IDX 58 87 51 88 52 89 56 90 59 91 53 92 54 93 57 94 55 95
REMARK H PARENT 9 12 79 48 47 59
REMARK Flexibility Score: inf
ROOT
ATOM      1  C   UNL A   1      36.553  23.865  25.377  1.00  0.00     0.275 C 
ENDROOT
BRANCH   1   2
ATOM      2  O   UNL A   1      36.284  22.688  24.601  1.00  0.00    -0.458 OA
BRANCH   2   3
ATOM      3  C   UNL A   1      35.301  22.858  23.686  1.00  0.00     0.338 C 
ATOM      4  O   UNL A   1      35.344  23.551  22.680  1.00  0.00    -0.246 OA
BRANCH   3   5
ATOM      5  C   UNL A   1      34.063  22.164  24.075  1.00  0.00     0.062 A 
ATOM      6  C   UNL A   1      31.809  22.298  24.955  1.00  0.00     0.050 A 
ATOM      7  C   UNL A   1      31.917  20.981  25.400  1.00  0.00     0.027 A 
ATOM      8  C   UNL A   1      32.853  22.853  24.201  1.00  0.00     0.042 A 
ATOM      9  C   UNL A   1      33.110  20.274  25.221  1.00  0.00     0.003 A 
ATOM     10  C   UNL A   1      34.197  20.878  24.595  1.00  0.00     0.016 A 
BRANCH   6  11
ATOM     11  N   UNL A   1      30.724  23.159  25.296  1.00  0.00    -0.279 N 
ATOM     12  H   UNL A   1      29.848  22.960  24.892  1.00  0.00     0.180 HD
BRANCH  11  13
ATOM     13  S   UNL A   1      30.812  24.482  26.328  1.00  0.00     0.265 S 
ATOM     14  O   UNL A   1      31.771  24.156  27.365  1.00  0.00    -0.201 OA
ATOM     15  O   UNL A   1      29.440  24.794  26.676  1.00  0.00    -0.201 OA
BRANCH  13  16
ATOM     16  C   UNL A   1      31.452  25.924  25.495  1.00  0.00     0.133 A 
ATOM     17  C   UNL A   1      33.169  27.655  25.562  1.00  0.00     0.123 A 
ATOM     18  C   UNL A   1      32.463  26.622  26.184  1.00  0.00     0.073 A 
ATOM     19  C   UNL A   1      32.973  27.903  24.204  1.00  0.00    -0.005 A 
ATOM     20  C   UNL A   1      31.889  27.284  23.565  1.00  0.00     0.055 A 
ATOM     21  C   UNL A   1      33.860  28.803  23.394  1.00  0.00     0.048 C 
ATOM     22  C   UNL A   1      31.088  26.330  24.212  1.00  0.00     0.139 A 
BRANCH  17  23
ATOM     23  O   UNL A   1      34.085  28.326  26.326  1.00  0.00    -0.496 OA
ATOM     24  C   UNL A   1      33.480  28.993  27.440  1.00  0.00     0.278 C 
ENDBRANCH  17  23
BRANCH  22  25
ATOM     25  O   UNL A   1      29.952  25.824  23.650  1.00  0.00    -0.495 OA
ATOM     26  C   UNL A   1      28.774  26.617  23.762  1.00  0.00     0.278 C 
ENDBRANCH  22  25
ENDBRANCH  13  16
ENDBRANCH  11  13
ENDBRANCH   6  11
ENDBRANCH   3   5
ENDBRANCH   2   3
ENDBRANCH   1   2
BRANCH   1  27
ATOM     27  C   UNL A   1      37.480  23.591  26.569  1.00  0.00     0.275 C 
BRANCH  27  28
ATOM     28  O   UNL A   1      38.922  23.700  26.373  1.00  0.00    -0.458 OA
BRANCH  28  29
ATOM     29  C   UNL A   1      39.890  24.097  27.245  1.00  0.00     0.338 C 
ATOM     30  O   UNL A   1      40.759  23.352  27.636  1.00  0.00    -0.246 OA
BRANCH  29  31
ATOM     31  C   UNL A   1      39.863  25.502  27.696  1.00  0.00     0.060 A 
ATOM     32  C   UNL A   1      40.281  26.529  26.830  1.00  0.00     0.016 A 
ATOM     33  C   UNL A   1      39.355  25.799  28.947  1.00  0.00     0.016 A 
ATOM     34  C   UNL A   1      40.068  27.857  27.184  1.00  0.00     0.010 A 
ATOM     35  C   UNL A   1      38.922  27.069  29.191  1.00  0.00     0.010 A 
ATOM     36  C   UNL A   1      39.354  28.103  28.353  1.00  0.00    -0.014 A 
BRANCH  36  37
ATOM     37  C   UNL A   1      39.330  29.379  29.037  1.00  0.00     0.031 A 
ATOM     38  C   UNL A   1      38.301  30.382  28.772  1.00  0.00     0.074 A 
ATOM     39  C   UNL A   1      40.207  29.394  30.067  1.00  0.00     0.049 A 
ATOM     40  N   UNL A   1      38.493  31.651  28.851  1.00  0.00    -0.248 NA
ATOM     41  C   UNL A   1      36.944  30.030  28.369  1.00  0.00     0.031 C 
ATOM     42  C   UNL A   1      40.360  30.272  31.206  1.00  0.00     0.029 A 
ATOM     43  N   UNL A   1      41.285  28.495  30.192  1.00  0.00    -0.354 N 
ATOM     44  C   UNL A   1      37.241  32.229  28.918  1.00  0.00     0.074 A 
ATOM     45  C   UNL A   1      36.333  31.221  28.422  1.00  0.00     0.031 C 
ATOM     46  C   UNL A   1      41.610  30.110  31.691  1.00  0.00     0.029 A 
ATOM     47  C   UNL A   1      42.322  29.204  30.790  1.00  0.00     0.049 A 
ATOM     48  H   UNL A   1      41.302  27.553  29.911  1.00  0.00     0.167 HD
ATOM     49  C   UNL A   1      37.088  33.385  29.633  1.00  0.00     0.037 A 
ATOM     50  C   UNL A   1      43.390  29.506  29.995  1.00  0.00     0.037 A 
ATOM     51  C   UNL A   1      38.360  33.725  30.279  1.00  0.00     0.049 A 
ATOM     52  C   UNL A   1      43.449  30.993  29.758  1.00  0.00     0.074 A 
ATOM     53  C   UNL A   1      38.812  33.488  31.569  1.00  0.00     0.029 A 
ATOM     54  N   UNL A   1      39.488  34.007  29.514  1.00  0.00    -0.354 N 
ATOM     55  N   UNL A   1      42.402  31.774  29.724  1.00  0.00    -0.248 NA
ATOM     56  C   UNL A   1      44.705  31.712  29.622  1.00  0.00     0.031 C 
ATOM     57  C   UNL A   1      40.227  33.572  31.561  1.00  0.00     0.029 A 
ATOM     58  C   UNL A   1      40.638  33.861  30.271  1.00  0.00     0.049 A 
ATOM     59  H   UNL A   1      39.471  34.275  28.568  1.00  0.00     0.167 HD
ATOM     60  C   UNL A   1      42.818  33.077  29.658  1.00  0.00     0.074 A 
ATOM     61  C   UNL A   1      44.267  32.981  29.585  1.00  0.00     0.031 C 
ATOM     62  C   UNL A   1      41.951  34.135  29.705  1.00  0.00     0.037 A 
BRANCH  49  63
ATOM     63  C   UNL A   1      35.757  33.971  30.075  1.00  0.00     0.064 A 
ATOM     64  C   UNL A   1      34.891  34.589  29.143  1.00  0.00     0.173 A 
ATOM     65  C   UNL A   1      35.275  33.967  31.399  1.00  0.00     0.173 A 
ATOM     66  F   UNL A   1      35.144  34.570  27.828  1.00  0.00    -0.203 F 
ATOM     67  C   UNL A   1      33.716  35.248  29.518  1.00  0.00     0.198 A 
ATOM     68  C   UNL A   1      34.116  34.656  31.782  1.00  0.00     0.198 A 
ATOM     69  F   UNL A   1      35.879  33.248  32.355  1.00  0.00    -0.203 F 
ATOM     70  F   UNL A   1      32.950  35.827  28.582  1.00  0.00    -0.200 F 
ATOM     71  C   UNL A   1      33.343  35.308  30.843  1.00  0.00     0.200 A 
ATOM     72  F   UNL A   1      33.749  34.676  33.072  1.00  0.00    -0.200 F 
ATOM     73  F   UNL A   1      32.230  35.959  31.207  1.00  0.00    -0.200 F 
ENDBRANCH  49  63
BRANCH  50  74
ATOM     74  C   UNL A   1      43.725  28.441  28.982  1.00  0.00     0.064 A 
ATOM     75  C   UNL A   1      43.433  28.683  27.617  1.00  0.00     0.173 A 
ATOM     76  C   UNL A   1      44.548  27.342  29.254  1.00  0.00     0.173 A 
ATOM     77  F   UNL A   1      42.649  29.719  27.271  1.00  0.00    -0.203 F 
ATOM     78  C   UNL A   1      44.015  27.942  26.587  1.00  0.00     0.198 A 
ATOM     79  C   UNL A   1      45.109  26.579  28.218  1.00  0.00     0.198 A 
ATOM     80  F   UNL A   1      44.882  27.038  30.516  1.00  0.00    -0.203 F 
ATOM     81  F   UNL A   1      43.806  28.290  25.309  1.00  0.00    -0.200 F 
ATOM     82  C   UNL A   1      44.862  26.894  26.889  1.00  0.00     0.200 A 
ATOM     83  F   UNL A   1      45.960  25.583  28.506  1.00  0.00    -0.200 F 
ATOM     84  F   UNL A   1      45.476  26.218  25.908  1.00  0.00    -0.200 F 
ENDBRANCH  50  74
BRANCH  62  85
ATOM     85  C   UNL A   1      42.289  35.567  29.359  1.00  0.00     0.064 A 
ATOM     86  C   UNL A   1      43.152  36.374  30.115  1.00  0.00     0.173 A 
ATOM     87  C   UNL A   1      41.849  36.137  28.136  1.00  0.00     0.173 A 
ATOM     88  F   UNL A   1      43.774  35.908  31.204  1.00  0.00    -0.203 F 
ATOM     89  C   UNL A   1      43.465  37.680  29.737  1.00  0.00     0.198 A 
ATOM     90  C   UNL A   1      42.235  37.408  27.719  1.00  0.00     0.198 A 
ATOM     91  F   UNL A   1      41.056  35.471  27.282  1.00  0.00    -0.203 F 
ATOM     92  F   UNL A   1      44.235  38.430  30.538  1.00  0.00    -0.200 F 
ATOM     93  C   UNL A   1      43.019  38.191  28.535  1.00  0.00     0.200 A 
ATOM     94  F   UNL A   1      41.856  37.855  26.513  1.00  0.00    -0.200 F 
ATOM     95  F   UNL A   1      43.369  39.425  28.151  1.00  0.00    -0.200 F 
ENDBRANCH  62  85
ENDBRANCH  36  37
ENDBRANCH  29  31
ENDBRANCH  28  29
ENDBRANCH  27  28
ENDBRANCH   1  27
TORSDOF 16
ENDMDL
MODEL 2
REMARK VINA RESULT:     -12.7      3.578      9.889
REMARK SMILES COc1cc(S(=O)(=O)Nc2cccc(C(=O)OCCOC(=O)c3ccc(-c4c5nc(c(-c6c(F)c(F)c(F)c(F)c6F)c6ccc([nH]6)c(-c6c(F)c(F)c(F)c(F)c6F)c6nc(c(-c7c(F)c(F)c(F)c(F)c7F)c7ccc4[nH]7)C=C6)C=C5)cc3)c2)c(OC)cc1C
REMARK SMILES IDX 18 1 17 2 15 3 16 4 14 5 10 6 11 7 86 8 12 9 13 10 9 11 6 13
REMARK SMILES IDX 7 14 8 15 5 16 3 17 4 18 91 19 90 20 92 21 87 22 2 23 1 24
REMARK SMILES IDX 88 25 89 26 19 27 20 28 21 29 22 30 23 31 24 32 85 33 25 34
REMARK SMILES IDX 84 35 26 36 27 37 28 38 78 39 29 40 83 41 77 42 79 43 30 44
REMARK SMILES IDX 82 45 76 46 75 47 31 49 63 50 43 51 62 52 44 53 47 54 61 55
REMARK SMILES IDX 80 56 45 57 46 58 60 60 81 61 48 62 32 63 33 64 41 65 34 66
REMARK SMILES IDX 35 67 39 68 42 69 36 70 37 71 40 72 38 73 64 74 65 75 73 76
REMARK SMILES IDX 66 77 67 78 71 79 74 80 68 81 69 82 72 83 70 84 49 85 50 86
REMARK SMILES IDX 58 87 51 88 52 89 56 90 59 91 53 92 54 93 57 94 55 95
REMARK H PARENT 9 12 79 48 47 59
REMARK Flexibility Score: inf
ROOT
ATOM      1  C   UNL A   1      32.550  30.325  25.952  1.00  0.00     0.275 C 
ENDROOT
BRANCH   1   2
ATOM      2  O   UNL A   1      31.702  29.180  25.779  1.00  0.00    -0.458 OA
BRANCH   2   3
ATOM      3  C   UNL A   1      30.951  29.229  24.654  1.00  0.00     0.338 C 
ATOM      4  O   UNL A   1      30.256  30.161  24.275  1.00  0.00    -0.246 OA
BRANCH   3   5
ATOM      5  C   UNL A   1      30.969  27.952  23.923  1.00  0.00     0.062 A 
ATOM      6  C   UNL A   1      30.693  25.545  23.965  1.00  0.00     0.050 A 
ATOM      7  C   UNL A   1      31.544  25.441  22.865  1.00  0.00     0.027 A 
ATOM      8  C   UNL A   1      30.329  26.817  24.428  1.00  0.00     0.042 A 
ATOM      9  C   UNL A   1      32.139  26.585  22.324  1.00  0.00     0.003 A 
ATOM     10  C   UNL A   1      31.885  27.837  22.879  1.00  0.00     0.016 A 
BRANCH   6  11
ATOM     11  N   UNL A   1      30.230  24.422  24.713  1.00  0.00    -0.279 N 
ATOM     12  H   UNL A   1      29.355  24.044  24.463  1.00  0.00     0.180 HD
BRANCH  11  13
ATOM     13  S   UNL A   1      31.048  23.689  25.984  1.00  0.00     0.265 S 
ATOM     14  O   UNL A   1      30.528  22.342  26.111  1.00  0.00    -0.201 OA
ATOM     15  O   UNL A   1      30.951  24.616  27.094  1.00  0.00    -0.201 OA
BRANCH  13  16
ATOM     16  C   UNL A   1      32.789  23.518  25.632  1.00  0.00     0.133 A 
ATOM     17  C   UNL A   1      34.503  21.999  24.792  1.00  0.00     0.123 A 
ATOM     18  C   UNL A   1      33.208  22.223  25.265  1.00  0.00     0.073 A 
ATOM     19  C   UNL A   1      35.343  23.084  24.543  1.00  0.00    -0.005 A 
ATOM     20  C   UNL A   1      34.957  24.345  25.019  1.00  0.00     0.055 A 
ATOM     21  C   UNL A   1      36.640  22.968  23.798  1.00  0.00     0.048 C 
ATOM     22  C   UNL A   1      33.704  24.569  25.611  1.00  0.00     0.139 A 
BRANCH  17  23
ATOM     23  O   UNL A   1      34.849  20.702  24.525  1.00  0.00    -0.496 OA
ATOM     24  C   UNL A   1      33.811  19.779  24.878  1.00  0.00     0.278 C 
ENDBRANCH  17  23
BRANCH  22  25
ATOM     25  O   UNL A   1      33.373  25.754  26.200  1.00  0.00    -0.495 OA
ATOM     26  C   UNL A   1      34.056  26.914  25.736  1.00  0.00     0.278 C 
ENDBRANCH  22  25
ENDBRANCH  13  16
ENDBRANCH  11  13
ENDBRANCH   6  11
ENDBRANCH   3   5
ENDBRANCH   2   3
ENDBRANCH   1   2
BRANCH   1  27
ATOM     27  C   UNL A   1      33.352  30.278  27.260  1.00  0.00     0.275 C 
BRANCH  27  28
ATOM     28  O   UNL A   1      34.808  30.241  27.187  1.00  0.00    -0.458 OA
BRANCH  28  29
ATOM     29  C   UNL A   1      35.735  30.792  28.020  1.00  0.00     0.338 C 
ATOM     30  O   UNL A   1      35.571  31.861  28.560  1.00  0.00    -0.246 OA
BRANCH  29  31
ATOM     31  C   UNL A   1      36.967  30.018  28.269  1.00  0.00     0.060 A 
ATOM     32  C   UNL A   1      37.075  29.215  29.419  1.00  0.00     0.016 A 
ATOM     33  C   UNL A   1      37.977  30.037  27.326  1.00  0.00     0.016 A 
ATOM     34  C   UNL A   1      38.149  28.341  29.549  1.00  0.00     0.010 A 
ATOM     35  C   UNL A   1      38.888  29.022  27.324  1.00  0.00     0.010 A 
ATOM     36  C   UNL A   1      39.024  28.234  28.471  1.00  0.00    -0.014 A 
BRANCH  36  37
ATOM     37  C   UNL A   1      40.346  27.649  28.554  1.00  0.00     0.031 A 
ATOM     38  C   UNL A   1      40.612  26.275  28.136  1.00  0.00     0.074 A 
ATOM     39  C   UNL A   1      41.277  28.590  28.828  1.00  0.00     0.049 A 
ATOM     40  N   UNL A   1      41.507  25.519  28.666  1.00  0.00    -0.248 NA
ATOM     41  C   UNL A   1      39.863  25.616  27.071  1.00  0.00     0.031 C 
ATOM     42  C   UNL A   1      42.720  28.595  28.727  1.00  0.00     0.029 A 
ATOM     43  N   UNL A   1      40.979  29.850  29.385  1.00  0.00    -0.354 N 
ATOM     44  C   UNL A   1      41.720  24.485  27.777  1.00  0.00     0.074 A 
ATOM     45  C   UNL A   1      40.558  24.481  26.919  1.00  0.00     0.031 C 
ATOM     46  C   UNL A   1      43.189  29.598  29.500  1.00  0.00     0.029 A 
ATOM     47  C   UNL A   1      42.049  30.181  30.209  1.00  0.00     0.049 A 
ATOM     48  H   UNL A   1      40.172  30.389  29.223  1.00  0.00     0.167 HD
ATOM     49  C   UNL A   1      42.968  23.931  27.699  1.00  0.00     0.037 A 
ATOM     50  C   UNL A   1      41.814  30.152  31.553  1.00  0.00     0.037 A 
ATOM     51  C   UNL A   1      43.880  24.668  28.579  1.00  0.00     0.049 A 
ATOM     52  C   UNL A   1      42.586  29.022  32.184  1.00  0.00     0.074 A 
ATOM     53  C   UNL A   1      44.779  25.687  28.302  1.00  0.00     0.029 A 
ATOM     54  N   UNL A   1      43.664  24.699  29.954  1.00  0.00    -0.354 N 
ATOM     55  N   UNL A   1      42.884  27.905  31.576  1.00  0.00    -0.248 NA
ATOM     56  C   UNL A   1      43.144  29.112  33.524  1.00  0.00     0.031 C 
ATOM     57  C   UNL A   1      45.057  26.369  29.514  1.00  0.00     0.029 A 
ATOM     58  C   UNL A   1      44.332  25.767  30.527  1.00  0.00     0.049 A 
ATOM     59  H   UNL A   1      43.115  24.050  30.450  1.00  0.00     0.167 HD
ATOM     60  C   UNL A   1      43.728  27.175  32.370  1.00  0.00     0.074 A 
ATOM     61  C   UNL A   1      43.848  27.970  33.582  1.00  0.00     0.031 C 
ATOM     62  C   UNL A   1      44.292  25.996  31.965  1.00  0.00     0.037 A 
BRANCH  49  63
ATOM     63  C   UNL A   1      43.456  23.028  26.578  1.00  0.00     0.064 A 
ATOM     64  C   UNL A   1      43.200  21.636  26.603  1.00  0.00     0.173 A 
ATOM     65  C   UNL A   1      44.187  23.462  25.455  1.00  0.00     0.173 A 
ATOM     66  F   UNL A   1      42.416  21.083  27.536  1.00  0.00    -0.203 F 
ATOM     67  C   UNL A   1      43.730  20.749  25.661  1.00  0.00     0.198 A 
ATOM     68  C   UNL A   1      44.748  22.571  24.529  1.00  0.00     0.198 A 
ATOM     69  F   UNL A   1      44.335  24.765  25.184  1.00  0.00    -0.203 F 
ATOM     70  F   UNL A   1      43.460  19.439  25.755  1.00  0.00    -0.200 F 
ATOM     71  C   UNL A   1      44.530  21.212  24.639  1.00  0.00     0.200 A 
ATOM     72  F   UNL A   1      45.497  23.041  23.521  1.00  0.00    -0.200 F 
ATOM     73  F   UNL A   1      45.059  20.361  23.750  1.00  0.00    -0.200 F 
ENDBRANCH  49  63
BRANCH  50  74
ATOM     74  C   UNL A   1      40.428  30.596  31.946  1.00  0.00     0.064 A 
ATOM     75  C   UNL A   1      39.496  29.620  32.379  1.00  0.00     0.173 A 
ATOM     76  C   UNL A   1      40.075  31.932  32.170  1.00  0.00     0.173 A 
ATOM     77  F   UNL A   1      39.761  28.314  32.200  1.00  0.00    -0.203 F 
ATOM     78  C   UNL A   1      38.342  29.954  33.088  1.00  0.00     0.198 A 
ATOM     79  C   UNL A   1      38.898  32.268  32.858  1.00  0.00     0.198 A 
ATOM     80  F   UNL A   1      40.896  32.924  31.798  1.00  0.00    -0.203 F 
ATOM     81  F   UNL A   1      37.558  28.987  33.587  1.00  0.00    -0.200 F 
ATOM     82  C   UNL A   1      38.048  31.280  33.336  1.00  0.00     0.200 A 
ATOM     83  F   UNL A   1      38.628  33.553  33.132  1.00  0.00    -0.200 F 
ATOM     84  F   UNL A   1      36.977  31.608  34.072  1.00  0.00    -0.200 F 
ENDBRANCH  50  74
BRANCH  62  85
ATOM     85  C   UNL A   1      44.992  25.000  32.860  1.00  0.00     0.064 A 
ATOM     86  C   UNL A   1      44.454  23.754  33.216  1.00  0.00     0.173 A 
ATOM     87  C   UNL A   1      46.329  25.221  33.280  1.00  0.00     0.173 A 
ATOM     88  F   UNL A   1      43.270  23.341  32.751  1.00  0.00    -0.203 F 
ATOM     89  C   UNL A   1      45.153  22.848  34.016  1.00  0.00     0.198 A 
ATOM     90  C   UNL A   1      47.054  24.277  34.003  1.00  0.00     0.198 A 
ATOM     91  F   UNL A   1      46.996  26.346  32.978  1.00  0.00    -0.203 F 
ATOM     92  F   UNL A   1      44.560  21.705  34.387  1.00  0.00    -0.200 F 
ATOM     93  C   UNL A   1      46.455  23.103  34.397  1.00  0.00     0.200 A 
ATOM     94  F   UNL A   1      48.342  24.511  34.295  1.00  0.00    -0.200 F 
ATOM     95  F   UNL A   1      47.140  22.206  35.117  1.00  0.00    -0.200 F 
ENDBRANCH  62  85
ENDBRANCH  36  37
ENDBRANCH  29  31
ENDBRANCH  28  29
ENDBRANCH  27  28
ENDBRANCH   1  27
TORSDOF 16
ENDMDL
MODEL 3
REMARK VINA RESULT:     -12.7      3.682     10.343
REMARK SMILES COc1cc(S(=O)(=O)Nc2cccc(C(=O)OCCOC(=O)c3ccc(-c4c5nc(c(-c6c(F)c(F)c(F)c(F)c6F)c6ccc([nH]6)c(-c6c(F)c(F)c(F)c(F)c6F)c6nc(c(-c7c(F)c(F)c(F)c(F)c7F)c7ccc4[nH]7)C=C6)C=C5)cc3)c2)c(OC)cc1C
REMARK SMILES IDX 18 1 17 2 15 3 16 4 14 5 10 6 11 7 86 8 12 9 13 10 9 11 6 13
REMARK SMILES IDX 7 14 8 15 5 16 3 17 4 18 91 19 90 20 92 21 87 22 2 23 1 24
REMARK SMILES IDX 88 25 89 26 19 27 20 28 21 29 22 30 23 31 24 32 85 33 25 34
REMARK SMILES IDX 84 35 26 36 27 37 28 38 78 39 29 40 83 41 77 42 79 43 30 44
REMARK SMILES IDX 82 45 76 46 75 47 31 49 63 50 43 51 62 52 44 53 47 54 61 55
REMARK SMILES IDX 80 56 45 57 46 58 60 60 81 61 48 62 32 63 33 64 41 65 34 66
REMARK SMILES IDX 35 67 39 68 42 69 36 70 37 71 40 72 38 73 64 74 65 75 73 76
REMARK SMILES IDX 66 77 67 78 71 79 74 80 68 81 69 82 72 83 70 84 49 85 50 86
REMARK SMILES IDX 58 87 51 88 52 89 56 90 59 91 53 92 54 93 57 94 55 95
REMARK H PARENT 9 12 79 48 47 59
REMARK Flexibility Score: inf
ROOT
ATOM      1  C   UNL A   1      33.132  30.040  26.351  1.00  0.00     0.275 C 
ENDROOT
BRANCH   1   2
ATOM      2  O   UNL A   1      31.771  29.766  26.715  1.00  0.00    -0.458 OA
BRANCH   2   3
ATOM      3  C   UNL A   1      31.530  28.456  26.958  1.00  0.00     0.338 C 
ATOM      4  O   UNL A   1      31.491  27.906  28.049  1.00  0.00    -0.246 OA
BRANCH   3   5
ATOM      5  C   UNL A   1      31.400  27.680  25.714  1.00  0.00     0.062 A 
ATOM      6  C   UNL A   1      32.183  25.852  24.329  1.00  0.00     0.050 A 
ATOM      7  C   UNL A   1      31.693  26.512  23.203  1.00  0.00     0.027 A 
ATOM      8  C   UNL A   1      31.943  26.397  25.599  1.00  0.00     0.042 A 
ATOM      9  C   UNL A   1      31.097  27.772  23.328  1.00  0.00     0.003 A 
ATOM     10  C   UNL A   1      30.988  28.375  24.578  1.00  0.00     0.016 A 
BRANCH   6  11
ATOM     11  N   UNL A   1      32.999  24.684  24.266  1.00  0.00    -0.279 N 
ATOM     12  H   UNL A   1      33.776  24.645  24.870  1.00  0.00     0.180 HD
BRANCH  11  13
ATOM     13  S   UNL A   1      32.747  23.368  23.252  1.00  0.00     0.265 S 
ATOM     14  O   UNL A   1      33.523  23.598  22.048  1.00  0.00    -0.201 OA
ATOM     15  O   UNL A   1      31.309  23.210  23.173  1.00  0.00    -0.201 OA
BRANCH  13  16
ATOM     16  C   UNL A   1      33.375  21.859  23.966  1.00  0.00     0.133 A 
ATOM     17  C   UNL A   1      33.099  19.436  24.044  1.00  0.00     0.123 A 
ATOM     18  C   UNL A   1      32.618  20.701  23.696  1.00  0.00     0.073 A 
ATOM     19  C   UNL A   1      34.399  19.303  24.530  1.00  0.00    -0.005 A 
ATOM     20  C   UNL A   1      35.092  20.465  24.900  1.00  0.00     0.055 A 
ATOM     21  C   UNL A   1      35.090  17.980  24.683  1.00  0.00     0.048 C 
ATOM     22  C   UNL A   1      34.572  21.749  24.671  1.00  0.00     0.139 A 
BRANCH  17  23
ATOM     23  O   UNL A   1      32.270  18.373  23.809  1.00  0.00    -0.496 OA
ATOM     24  C   UNL A   1      32.220  18.019  22.422  1.00  0.00     0.278 C 
ENDBRANCH  17  23
BRANCH  22  25
ATOM     25  O   UNL A   1      35.170  22.878  25.149  1.00  0.00    -0.495 OA
ATOM     26  C   UNL A   1      35.111  23.089  26.557  1.00  0.00     0.278 C 
ENDBRANCH  22  25
ENDBRANCH  13  16
ENDBRANCH  11  13
ENDBRANCH   6  11
ENDBRANCH   3   5
ENDBRANCH   2   3
ENDBRANCH   1   2
BRANCH   1  27
ATOM     27  C   UNL A   1      33.916  30.738  27.470  1.00  0.00     0.275 C 
BRANCH  27  28
ATOM     28  O   UNL A   1      35.160  30.134  27.935  1.00  0.00    -0.458 OA
BRANCH  28  29
ATOM     29  C   UNL A   1      36.380  30.705  28.141  1.00  0.00     0.338 C 
ATOM     30  O   UNL A   1      36.545  31.902  28.153  1.00  0.00    -0.246 OA
BRANCH  29  31
ATOM     31  C   UNL A   1      37.521  29.799  28.378  1.00  0.00     0.060 A 
ATOM     32  C   UNL A   1      37.550  28.985  29.525  1.00  0.00     0.016 A 
ATOM     33  C   UNL A   1      38.518  29.708  27.424  1.00  0.00     0.016 A 
ATOM     34  C   UNL A   1      38.521  27.997  29.644  1.00  0.00     0.010 A 
ATOM     35  C   UNL A   1      39.310  28.597  27.412  1.00  0.00     0.010 A 
ATOM     36  C   UNL A   1      39.368  27.797  28.558  1.00  0.00    -0.014 A 
BRANCH  36  37
ATOM     37  C   UNL A   1      40.618  27.067  28.627  1.00  0.00     0.031 A 
ATOM     38  C   UNL A   1      40.698  25.638  28.337  1.00  0.00     0.074 A 
ATOM     39  C   UNL A   1      41.666  27.912  28.751  1.00  0.00     0.049 A 
ATOM     40  N   UNL A   1      41.534  24.835  28.892  1.00  0.00    -0.248 NA
ATOM     41  C   UNL A   1      39.809  24.976  27.388  1.00  0.00     0.031 C 
ATOM     42  C   UNL A   1      43.090  27.735  28.570  1.00  0.00     0.029 A 
ATOM     43  N   UNL A   1      41.551  29.246  29.191  1.00  0.00    -0.354 N 
ATOM     44  C   UNL A   1      41.568  23.702  28.103  1.00  0.00     0.074 A 
ATOM     45  C   UNL A   1      40.359  23.756  27.316  1.00  0.00     0.031 C 
ATOM     46  C   UNL A   1      43.721  28.744  29.210  1.00  0.00     0.029 A 
ATOM     47  C   UNL A   1      42.705  29.524  29.916  1.00  0.00     0.049 A 
ATOM     48  H   UNL A   1      40.802  29.860  29.020  1.00  0.00     0.167 HD
ATOM     49  C   UNL A   1      42.737  22.998  28.014  1.00  0.00     0.037 A 
ATOM     50  C   UNL A   1      42.558  29.652  31.268  1.00  0.00     0.037 A 
ATOM     51  C   UNL A   1      43.784  23.702  28.762  1.00  0.00     0.049 A 
ATOM     52  C   UNL A   1      43.237  28.503  31.968  1.00  0.00     0.074 A 
ATOM     53  C   UNL A   1      44.773  24.575  28.333  1.00  0.00     0.029 A 
ATOM     54  N   UNL A   1      43.666  23.889  30.137  1.00  0.00    -0.354 N 
ATOM     55  N   UNL A   1      43.365  27.305  31.462  1.00  0.00    -0.248 NA
ATOM     56  C   UNL A   1      43.890  28.653  33.258  1.00  0.00     0.031 C 
ATOM     57  C   UNL A   1      45.207  25.331  29.451  1.00  0.00     0.029 A 
ATOM     58  C   UNL A   1      44.487  24.919  30.559  1.00  0.00     0.049 A 
ATOM     59  H   UNL A   1      43.081  23.361  30.726  1.00  0.00     0.167 HD
ATOM     60  C   UNL A   1      44.171  26.558  32.279  1.00  0.00     0.074 A 
ATOM     61  C   UNL A   1      44.462  27.446  33.394  1.00  0.00     0.031 C 
ATOM     62  C   UNL A   1      44.570  25.288  31.966  1.00  0.00     0.037 A 
BRANCH  49  63
ATOM     63  C   UNL A   1      43.044  21.940  26.965  1.00  0.00     0.064 A 
ATOM     64  C   UNL A   1      42.419  20.672  27.010  1.00  0.00     0.173 A 
ATOM     65  C   UNL A   1      43.946  22.104  25.897  1.00  0.00     0.173 A 
ATOM     66  F   UNL A   1      41.447  20.398  27.889  1.00  0.00    -0.203 F 
ATOM     67  C   UNL A   1      42.756  19.627  26.144  1.00  0.00     0.198 A 
ATOM     68  C   UNL A   1      44.311  21.049  25.049  1.00  0.00     0.198 A 
ATOM     69  F   UNL A   1      44.462  23.304  25.601  1.00  0.00    -0.203 F 
ATOM     70  F   UNL A   1      42.134  18.445  26.254  1.00  0.00    -0.200 F 
ATOM     71  C   UNL A   1      43.725  19.806  25.181  1.00  0.00     0.200 A 
ATOM     72  F   UNL A   1      45.233  21.248  24.096  1.00  0.00    -0.200 F 
ATOM     73  F   UNL A   1      44.067  18.799  24.366  1.00  0.00    -0.200 F 
ENDBRANCH  49  63
BRANCH  50  74
ATOM     74  C   UNL A   1      41.260  30.293  31.689  1.00  0.00     0.064 A 
ATOM     75  C   UNL A   1      40.253  29.481  32.266  1.00  0.00     0.173 A 
ATOM     76  C   UNL A   1      41.079  31.678  31.799  1.00  0.00     0.173 A 
ATOM     77  F   UNL A   1      40.354  28.142  32.203  1.00  0.00    -0.203 F 
ATOM     78  C   UNL A   1      39.194  30.016  33.000  1.00  0.00     0.198 A 
ATOM     79  C   UNL A   1      39.996  32.214  32.513  1.00  0.00     0.198 A 
ATOM     80  F   UNL A   1      41.982  32.525  31.287  1.00  0.00    -0.203 F 
ATOM     81  F   UNL A   1      38.338  29.200  33.634  1.00  0.00    -0.200 F 
ATOM     82  C   UNL A   1      39.071  31.385  33.131  1.00  0.00     0.200 A 
ATOM     83  F   UNL A   1      39.893  33.542  32.672  1.00  0.00    -0.200 F 
ATOM     84  F   UNL A   1      38.095  31.906  33.888  1.00  0.00    -0.200 F 
ENDBRANCH  50  74
BRANCH  62  85
ATOM     85  C   UNL A   1      45.210  24.304  32.919  1.00  0.00     0.064 A 
ATOM     86  C   UNL A   1      46.482  24.478  33.485  1.00  0.00     0.173 A 
ATOM     87  C   UNL A   1      44.476  23.196  33.414  1.00  0.00     0.173 A 
ATOM     88  F   UNL A   1      47.219  25.567  33.238  1.00  0.00    -0.203 F 
ATOM     89  C   UNL A   1      47.019  23.562  34.391  1.00  0.00     0.198 A 
ATOM     90  C   UNL A   1      44.982  22.335  34.384  1.00  0.00     0.198 A 
ATOM     91  F   UNL A   1      43.228  22.925  33.004  1.00  0.00    -0.203 F 
ATOM     92  F   UNL A   1      48.269  23.739  34.841  1.00  0.00    -0.200 F 
ATOM     93  C   UNL A   1      46.266  22.501  34.850  1.00  0.00     0.200 A 
ATOM     94  F   UNL A   1      44.206  21.357  34.875  1.00  0.00    -0.200 F 
ATOM     95  F   UNL A   1      46.766  21.657  35.761  1.00  0.00    -0.200 F 
ENDBRANCH  62  85
ENDBRANCH  36  37
ENDBRANCH  29  31
ENDBRANCH  28  29
ENDBRANCH  27  28
ENDBRANCH   1  27
TORSDOF 16
ENDMDL
