MODEL 1
REMARK VINA RESULT:     -11.4      0.000      0.000
REMARK SMILES C[C@@H]1[NH2+]CC[C@H]1C(=O)NCc1cccc(C(=O)OCCOC(=O)c2ccc(-c3c4nc(c(-c5c(F)c(F)c(F)c(F)c5F)c5ccc([nH]5)c(-c5c(F)c(F)c(F)c(F)c5F)c5nc(c(-c6c(F)c(F)c(F)c(F)c6F)c6ccc3[nH]6)C=C5)C=C4)cc2)c1
REMARK SMILES IDX 19 1 18 2 16 3 17 4 15 5 11 6 12 7 87 8 13 9 14 10 10 11
REMARK SMILES IDX 9 12 7 13 8 14 6 16 1 17 2 18 3 19 4 20 5 23 20 24 21 25
REMARK SMILES IDX 22 26 23 27 24 28 25 29 86 30 26 31 85 32 27 33 28 34 29 35
REMARK SMILES IDX 79 36 30 37 84 38 78 39 80 40 31 41 83 42 77 43 76 44 32 46
REMARK SMILES IDX 64 47 44 48 63 49 45 50 48 51 62 52 81 53 46 54 47 55 61 57
REMARK SMILES IDX 82 58 49 59 33 60 34 61 42 62 35 63 36 64 40 65 43 66 37 67
REMARK SMILES IDX 38 68 41 69 39 70 65 71 66 72 74 73 67 74 68 75 72 76 75 77
REMARK SMILES IDX 69 78 70 79 73 80 71 81 50 82 51 83 59 84 52 85 53 86 57 87
REMARK SMILES IDX 60 88 54 89 55 90 58 91 56 92
REMARK H PARENT 9 15 3 21 3 22 80 45 48 56
REMARK Flexibility Score: inf
ROOT
ATOM      1  C   UNL A   1      33.904  35.477  28.819  1.00  0.00     0.275 C 
ENDROOT
BRANCH   1   2
ATOM      2  O   UNL A   1      34.129  34.126  29.268  1.00  0.00    -0.458 OA
BRANCH   2   3
ATOM      3  C   UNL A   1      35.296  33.551  28.888  1.00  0.00     0.338 C 
ATOM      4  O   UNL A   1      36.420  33.964  29.127  1.00  0.00    -0.246 OA
BRANCH   3   5
ATOM      5  C   UNL A   1      35.040  32.244  28.227  1.00  0.00     0.060 A 
ATOM      6  C   UNL A   1      33.557  30.594  27.224  1.00  0.00    -0.028 A 
ATOM      7  C   UNL A   1      34.624  29.682  27.193  1.00  0.00     0.005 A 
ATOM      8  C   UNL A   1      33.767  31.863  27.788  1.00  0.00     0.021 A 
ATOM      9  C   UNL A   1      35.900  30.066  27.600  1.00  0.00     0.001 A 
ATOM     10  C   UNL A   1      36.113  31.354  28.083  1.00  0.00     0.016 A 
BRANCH   6  11
ATOM     11  C   UNL A   1      32.211  30.190  26.672  1.00  0.00     0.151 C 
BRANCH  11  12
ATOM     12  N   UNL A   1      31.833  28.847  27.068  1.00  0.00    -0.352 N 
ATOM     13  C   UNL A   1      31.509  27.737  26.359  1.00  0.00     0.229 C 
ATOM     14  O   UNL A   1      31.117  26.762  27.009  1.00  0.00    -0.275 OA
ATOM     15  H   UNL A   1      31.808  28.713  28.043  1.00  0.00     0.163 HD
BRANCH  13  16
ATOM     16  C   UNL A   1      31.618  27.635  24.845  1.00  0.00     0.142 C 
ATOM     17  C   UNL A   1      29.653  27.911  23.261  1.00  0.00     0.076 C 
ATOM     18  C   UNL A   1      30.741  28.620  24.071  1.00  0.00     0.192 C 
ATOM     19  N   UNL A   1      31.632  29.345  23.146  1.00  0.00    -0.343 N 
ATOM     20  C   UNL A   1      32.832  28.523  22.981  1.00  0.00     0.261 C 
ATOM     21  H   UNL A   1      31.880  30.253  23.537  1.00  0.00     0.346 HD
ATOM     22  H   UNL A   1      31.174  29.506  22.249  1.00  0.00     0.346 HD
ATOM     23  C   UNL A   1      33.027  27.800  24.298  1.00  0.00     0.081 C 
ENDBRANCH  13  16
ENDBRANCH  11  12
ENDBRANCH   6  11
ENDBRANCH   3   5
ENDBRANCH   2   3
ENDBRANCH   1   2
BRANCH   1  24
ATOM     24  C   UNL A   1      32.912  36.192  29.737  1.00  0.00     0.275 C 
BRANCH  24  25
ATOM     25  O   UNL A   1      32.452  35.301  30.770  1.00  0.00    -0.458 OA
BRANCH  25  26
ATOM     26  C   UNL A   1      32.638  35.726  32.040  1.00  0.00     0.338 C 
ATOM     27  O   UNL A   1      31.942  36.484  32.689  1.00  0.00    -0.246 OA
BRANCH  26  28
ATOM     28  C   UNL A   1      33.800  35.028  32.610  1.00  0.00     0.060 A 
ATOM     29  C   UNL A   1      35.047  35.633  32.476  1.00  0.00     0.016 A 
ATOM     30  C   UNL A   1      33.690  33.753  33.163  1.00  0.00     0.016 A 
ATOM     31  C   UNL A   1      36.202  34.967  32.873  1.00  0.00     0.010 A 
ATOM     32  C   UNL A   1      34.851  33.090  33.586  1.00  0.00     0.010 A 
ATOM     33  C   UNL A   1      36.118  33.683  33.425  1.00  0.00    -0.014 A 
BRANCH  33  34
ATOM     34  C   UNL A   1      37.365  32.940  33.745  1.00  0.00     0.031 A 
ATOM     35  C   UNL A   1      38.049  33.161  35.066  1.00  0.00     0.074 A 
ATOM     36  C   UNL A   1      37.856  32.027  32.886  1.00  0.00     0.049 A 
ATOM     37  N   UNL A   1      39.188  32.684  35.502  1.00  0.00    -0.248 NA
ATOM     38  C   UNL A   1      37.361  34.039  36.024  1.00  0.00     0.031 C 
ATOM     39  C   UNL A   1      37.261  31.671  31.598  1.00  0.00     0.029 A 
ATOM     40  N   UNL A   1      38.966  31.221  32.974  1.00  0.00    -0.354 N 
ATOM     41  C   UNL A   1      39.373  33.236  36.762  1.00  0.00     0.074 A 
ATOM     42  C   UNL A   1      38.231  34.087  37.023  1.00  0.00     0.031 C 
ATOM     43  C   UNL A   1      37.997  30.703  31.028  1.00  0.00     0.029 A 
ATOM     44  C   UNL A   1      39.146  30.410  31.881  1.00  0.00     0.049 A 
ATOM     45  H   UNL A   1      39.574  31.225  33.748  1.00  0.00     0.167 HD
ATOM     46  C   UNL A   1      40.402  33.052  37.623  1.00  0.00     0.037 A 
ATOM     47  C   UNL A   1      40.138  29.548  31.586  1.00  0.00     0.037 A 
ATOM     48  C   UNL A   1      41.515  32.171  37.387  1.00  0.00     0.049 A 
ATOM     49  C   UNL A   1      41.279  29.376  32.550  1.00  0.00     0.074 A 
ATOM     50  C   UNL A   1      42.604  31.914  38.204  1.00  0.00     0.029 A 
ATOM     51  N   UNL A   1      41.674  31.388  36.255  1.00  0.00    -0.354 N 
ATOM     52  N   UNL A   1      41.469  29.940  33.718  1.00  0.00    -0.248 NA
ATOM     53  C   UNL A   1      42.355  28.457  32.147  1.00  0.00     0.031 C 
ATOM     54  C   UNL A   1      43.436  30.998  37.553  1.00  0.00     0.029 A 
ATOM     55  C   UNL A   1      42.846  30.653  36.347  1.00  0.00     0.049 A 
ATOM     56  H   UNL A   1      41.047  31.357  35.496  1.00  0.00     0.167 HD
ATOM     57  C   UNL A   1      42.671  29.437  34.194  1.00  0.00     0.074 A 
ATOM     58  C   UNL A   1      43.161  28.507  33.199  1.00  0.00     0.031 C 
ATOM     59  C   UNL A   1      43.316  29.726  35.351  1.00  0.00     0.037 A 
BRANCH  46  60
ATOM     60  C   UNL A   1      40.391  33.847  38.895  1.00  0.00     0.064 A 
ATOM     61  C   UNL A   1      41.068  35.069  39.011  1.00  0.00     0.173 A 
ATOM     62  C   UNL A   1      39.662  33.390  40.003  1.00  0.00     0.173 A 
ATOM     63  F   UNL A   1      41.790  35.540  37.984  1.00  0.00    -0.203 F 
ATOM     64  C   UNL A   1      41.033  35.795  40.200  1.00  0.00     0.198 A 
ATOM     65  C   UNL A   1      39.610  34.130  41.182  1.00  0.00     0.198 A 
ATOM     66  F   UNL A   1      38.994  32.228  39.941  1.00  0.00    -0.203 F 
ATOM     67  F   UNL A   1      41.721  36.940  40.303  1.00  0.00    -0.200 F 
ATOM     68  C   UNL A   1      40.300  35.328  41.280  1.00  0.00     0.200 A 
ATOM     69  F   UNL A   1      38.892  33.682  42.221  1.00  0.00    -0.200 F 
ATOM     70  F   UNL A   1      40.264  36.030  42.421  1.00  0.00    -0.200 F 
ENDBRANCH  46  60
BRANCH  47  71
ATOM     71  C   UNL A   1      40.106  28.793  30.307  1.00  0.00     0.064 A 
ATOM     72  C   UNL A   1      39.494  27.535  30.226  1.00  0.00     0.173 A 
ATOM     73  C   UNL A   1      40.692  29.311  29.142  1.00  0.00     0.173 A 
ATOM     74  F   UNL A   1      38.946  26.985  31.319  1.00  0.00    -0.203 F 
ATOM     75  C   UNL A   1      39.477  26.819  29.029  1.00  0.00     0.198 A 
ATOM     76  C   UNL A   1      40.651  28.608  27.942  1.00  0.00     0.198 A 
ATOM     77  F   UNL A   1      41.296  30.509  29.171  1.00  0.00    -0.203 F 
ATOM     78  F   UNL A   1      38.921  25.601  28.988  1.00  0.00    -0.200 F 
ATOM     79  C   UNL A   1      40.049  27.360  27.887  1.00  0.00     0.200 A 
ATOM     80  F   UNL A   1      41.196  29.137  26.838  1.00  0.00    -0.200 F 
ATOM     81  F   UNL A   1      40.028  26.674  26.736  1.00  0.00    -0.200 F 
ENDBRANCH  47  71
BRANCH  59  82
ATOM     82  C   UNL A   1      44.606  29.009  35.616  1.00  0.00     0.064 A 
ATOM     83  C   UNL A   1      45.837  29.544  35.211  1.00  0.00     0.173 A 
ATOM     84  C   UNL A   1      44.613  27.794  36.315  1.00  0.00     0.173 A 
ATOM     85  F   UNL A   1      45.880  30.697  34.525  1.00  0.00    -0.203 F 
ATOM     86  C   UNL A   1      47.029  28.876  35.479  1.00  0.00     0.198 A 
ATOM     87  C   UNL A   1      45.807  27.140  36.602  1.00  0.00     0.198 A 
ATOM     88  F   UNL A   1      43.461  27.245  36.728  1.00  0.00    -0.203 F 
ATOM     89  F   UNL A   1      48.192  29.385  35.049  1.00  0.00    -0.200 F 
ATOM     90  C   UNL A   1      47.015  27.678  36.179  1.00  0.00     0.200 A 
ATOM     91  F   UNL A   1      45.793  25.988  37.286  1.00  0.00    -0.200 F 
ATOM     92  F   UNL A   1      48.163  27.039  36.439  1.00  0.00    -0.200 F 
ENDBRANCH  59  82
ENDBRANCH  33  34
ENDBRANCH  26  28
ENDBRANCH  25  26
ENDBRANCH  24  25
ENDBRANCH   1  24
TORSDOF 14
ENDMDL
MODEL 2
REMARK VINA RESULT:     -11.3      5.154     10.619
REMARK SMILES C[C@@H]1[NH2+]CC[C@H]1C(=O)NCc1cccc(C(=O)OCCOC(=O)c2ccc(-c3c4nc(c(-c5c(F)c(F)c(F)c(F)c5F)c5ccc([nH]5)c(-c5c(F)c(F)c(F)c(F)c5F)c5nc(c(-c6c(F)c(F)c(F)c(F)c6F)c6ccc3[nH]6)C=C5)C=C4)cc2)c1
REMARK SMILES IDX 19 1 18 2 16 3 17 4 15 5 11 6 12 7 87 8 13 9 14 10 10 11
REMARK SMILES IDX 9 12 7 13 8 14 6 16 1 17 2 18 3 19 4 20 5 23 20 24 21 25
REMARK SMILES IDX 22 26 23 27 24 28 25 29 86 30 26 31 85 32 27 33 28 34 29 35
REMARK SMILES IDX 79 36 30 37 84 38 78 39 80 40 31 41 83 42 77 43 76 44 32 46
REMARK SMILES IDX 64 47 44 48 63 49 45 50 48 51 62 52 81 53 46 54 47 55 61 57
REMARK SMILES IDX 82 58 49 59 33 60 34 61 42 62 35 63 36 64 40 65 43 66 37 67
REMARK SMILES IDX 38 68 41 69 39 70 65 71 66 72 74 73 67 74 68 75 72 76 75 77
REMARK SMILES IDX 69 78 70 79 73 80 71 81 50 82 51 83 59 84 52 85 53 86 57 87
REMARK SMILES IDX 60 88 54 89 55 90 58 91 56 92
REMARK H PARENT 9 15 3 21 3 22 80 45 48 56
REMARK Flexibility Score: inf
ROOT
ATOM      1  C   UNL A   1      39.883  20.261  26.029  1.00  0.00     0.275 C 
ENDROOT
BRANCH   1   2
ATOM      2  O   UNL A   1      41.236  20.648  25.715  1.00  0.00    -0.458 OA
BRANCH   2   3
ATOM      3  C   UNL A   1      42.113  20.669  26.748  1.00  0.00     0.338 C 
ATOM      4  O   UNL A   1      42.609  19.699  27.299  1.00  0.00    -0.246 OA
BRANCH   3   5
ATOM      5  C   UNL A   1      42.510  22.067  27.063  1.00  0.00     0.060 A 
ATOM      6  C   UNL A   1      43.722  24.122  26.578  1.00  0.00    -0.028 A 
ATOM      7  C   UNL A   1      43.372  24.606  27.848  1.00  0.00     0.005 A 
ATOM      8  C   UNL A   1      43.320  22.826  26.212  1.00  0.00     0.021 A 
ATOM      9  C   UNL A   1      42.539  23.868  28.686  1.00  0.00     0.001 A 
ATOM     10  C   UNL A   1      42.082  22.617  28.279  1.00  0.00     0.016 A 
BRANCH   6  11
ATOM     11  C   UNL A   1      44.532  24.988  25.643  1.00  0.00     0.151 C 
BRANCH  11  12
ATOM     12  N   UNL A   1      43.716  25.973  24.958  1.00  0.00    -0.352 N 
ATOM     13  C   UNL A   1      43.418  27.268  25.230  1.00  0.00     0.229 C 
ATOM     14  O   UNL A   1      42.586  27.809  24.493  1.00  0.00    -0.275 OA
ATOM     15  H   UNL A   1      43.297  25.636  24.133  1.00  0.00     0.163 HD
BRANCH  13  16
ATOM     16  C   UNL A   1      44.056  28.068  26.356  1.00  0.00     0.142 C 
ATOM     17  C   UNL A   1      46.458  27.768  27.122  1.00  0.00     0.076 C 
ATOM     18  C   UNL A   1      45.520  28.448  26.123  1.00  0.00     0.192 C 
ATOM     19  N   UNL A   1      45.611  29.909  26.297  1.00  0.00    -0.343 N 
ATOM     20  C   UNL A   1      44.445  30.317  27.082  1.00  0.00     0.261 C 
ATOM     21  H   UNL A   1      45.602  30.373  25.389  1.00  0.00     0.346 HD
ATOM     22  H   UNL A   1      46.477  30.168  26.771  1.00  0.00     0.346 HD
ATOM     23  C   UNL A   1      43.333  29.359  26.706  1.00  0.00     0.081 C 
ENDBRANCH  13  16
ENDBRANCH  11  12
ENDBRANCH   6  11
ENDBRANCH   3   5
ENDBRANCH   2   3
ENDBRANCH   1   2
BRANCH   1  24
ATOM     24  C   UNL A   1      38.918  21.419  25.776  1.00  0.00     0.275 C 
BRANCH  24  25
ATOM     25  O   UNL A   1      39.286  22.562  26.570  1.00  0.00    -0.458 OA
BRANCH  25  26
ATOM     26  C   UNL A   1      38.667  23.722  26.254  1.00  0.00     0.338 C 
ATOM     27  O   UNL A   1      37.704  23.888  25.528  1.00  0.00    -0.246 OA
BRANCH  26  28
ATOM     28  C   UNL A   1      39.273  24.812  27.034  1.00  0.00     0.060 A 
ATOM     29  C   UNL A   1      38.940  24.904  28.382  1.00  0.00     0.016 A 
ATOM     30  C   UNL A   1      40.058  25.794  26.432  1.00  0.00     0.016 A 
ATOM     31  C   UNL A   1      39.370  25.985  29.144  1.00  0.00     0.010 A 
ATOM     32  C   UNL A   1      40.513  26.873  27.204  1.00  0.00     0.010 A 
ATOM     33  C   UNL A   1      40.154  26.988  28.561  1.00  0.00    -0.014 A 
BRANCH  33  34
ATOM     34  C   UNL A   1      40.516  28.191  29.356  1.00  0.00     0.031 A 
ATOM     35  C   UNL A   1      41.914  28.340  29.893  1.00  0.00     0.074 A 
ATOM     36  C   UNL A   1      39.620  29.177  29.551  1.00  0.00     0.049 A 
ATOM     37  N   UNL A   1      42.407  29.263  30.681  1.00  0.00    -0.248 NA
ATOM     38  C   UNL A   1      42.885  27.311  29.492  1.00  0.00     0.031 C 
ATOM     39  C   UNL A   1      38.251  29.188  29.037  1.00  0.00     0.029 A 
ATOM     40  N   UNL A   1      39.733  30.368  30.227  1.00  0.00    -0.354 N 
ATOM     41  C   UNL A   1      43.729  28.903  30.905  1.00  0.00     0.074 A 
ATOM     42  C   UNL A   1      43.963  27.676  30.172  1.00  0.00     0.031 C 
ATOM     43  C   UNL A   1      37.659  30.339  29.394  1.00  0.00     0.029 A 
ATOM     44  C   UNL A   1      38.585  31.121  30.210  1.00  0.00     0.049 A 
ATOM     45  H   UNL A   1      40.558  30.654  30.680  1.00  0.00     0.167 HD
ATOM     46  C   UNL A   1      44.662  29.536  31.653  1.00  0.00     0.037 A 
ATOM     47  C   UNL A   1      38.301  32.295  30.806  1.00  0.00     0.037 A 
ATOM     48  C   UNL A   1      44.447  30.781  32.344  1.00  0.00     0.049 A 
ATOM     49  C   UNL A   1      39.349  32.969  31.648  1.00  0.00     0.074 A 
ATOM     50  C   UNL A   1      45.335  31.502  33.124  1.00  0.00     0.029 A 
ATOM     51  N   UNL A   1      43.260  31.497  32.325  1.00  0.00    -0.354 N 
ATOM     52  N   UNL A   1      40.581  32.596  31.892  1.00  0.00    -0.248 NA
ATOM     53  C   UNL A   1      38.960  34.223  32.312  1.00  0.00     0.031 C 
ATOM     54  C   UNL A   1      44.677  32.641  33.600  1.00  0.00     0.029 A 
ATOM     55  C   UNL A   1      43.391  32.650  33.085  1.00  0.00     0.049 A 
ATOM     56  H   UNL A   1      42.445  31.229  31.842  1.00  0.00     0.167 HD
ATOM     57  C   UNL A   1      41.118  33.570  32.722  1.00  0.00     0.074 A 
ATOM     58  C   UNL A   1      40.085  34.563  32.927  1.00  0.00     0.031 C 
ATOM     59  C   UNL A   1      42.355  33.632  33.272  1.00  0.00     0.037 A 
BRANCH  46  60
ATOM     60  C   UNL A   1      46.002  28.876  31.794  1.00  0.00     0.064 A 
ATOM     61  C   UNL A   1      46.294  28.014  32.860  1.00  0.00     0.173 A 
ATOM     62  C   UNL A   1      46.995  29.088  30.825  1.00  0.00     0.173 A 
ATOM     63  F   UNL A   1      45.383  27.792  33.818  1.00  0.00    -0.203 F 
ATOM     64  C   UNL A   1      47.543  27.404  32.962  1.00  0.00     0.198 A 
ATOM     65  C   UNL A   1      48.232  28.457  30.918  1.00  0.00     0.198 A 
ATOM     66  F   UNL A   1      46.762  29.902  29.784  1.00  0.00    -0.203 F 
ATOM     67  F   UNL A   1      47.817  26.615  34.011  1.00  0.00    -0.200 F 
ATOM     68  C   UNL A   1      48.507  27.621  31.989  1.00  0.00     0.200 A 
ATOM     69  F   UNL A   1      49.159  28.660  29.971  1.00  0.00    -0.200 F 
ATOM     70  F   UNL A   1      49.705  27.029  32.087  1.00  0.00    -0.200 F 
ENDBRANCH  46  60
BRANCH  47  71
ATOM     71  C   UNL A   1      36.954  32.901  30.643  1.00  0.00     0.064 A 
ATOM     72  C   UNL A   1      36.628  33.640  29.498  1.00  0.00     0.173 A 
ATOM     73  C   UNL A   1      35.969  32.758  31.632  1.00  0.00     0.173 A 
ATOM     74  F   UNL A   1      37.546  33.829  28.539  1.00  0.00    -0.203 F 
ATOM     75  C   UNL A   1      35.369  34.221  29.351  1.00  0.00     0.198 A 
ATOM     76  C   UNL A   1      34.703  33.317  31.472  1.00  0.00     0.198 A 
ATOM     77  F   UNL A   1      36.234  32.065  32.749  1.00  0.00    -0.203 F 
ATOM     78  F   UNL A   1      35.096  34.957  28.266  1.00  0.00    -0.200 F 
ATOM     79  C   UNL A   1      34.407  34.053  30.335  1.00  0.00     0.200 A 
ATOM     80  F   UNL A   1      33.772  33.143  32.420  1.00  0.00    -0.200 F 
ATOM     81  F   UNL A   1      33.195  34.607  30.192  1.00  0.00    -0.200 F 
ENDBRANCH  47  71
BRANCH  59  82
ATOM     82  C   UNL A   1      42.670  34.825  34.124  1.00  0.00     0.064 A 
ATOM     83  C   UNL A   1      42.480  34.803  35.513  1.00  0.00     0.173 A 
ATOM     84  C   UNL A   1      43.200  35.989  33.549  1.00  0.00     0.173 A 
ATOM     85  F   UNL A   1      41.960  33.718  36.106  1.00  0.00    -0.203 F 
ATOM     86  C   UNL A   1      42.792  35.913  36.294  1.00  0.00     0.198 A 
ATOM     87  C   UNL A   1      43.533  37.088  34.335  1.00  0.00     0.198 A 
ATOM     88  F   UNL A   1      43.404  36.056  32.225  1.00  0.00    -0.203 F 
ATOM     89  F   UNL A   1      42.568  35.885  37.615  1.00  0.00    -0.200 F 
ATOM     90  C   UNL A   1      43.325  37.051  35.706  1.00  0.00     0.200 A 
ATOM     91  F   UNL A   1      44.055  38.183  33.767  1.00  0.00    -0.200 F 
ATOM     92  F   UNL A   1      43.628  38.117  36.460  1.00  0.00    -0.200 F 
ENDBRANCH  59  82
ENDBRANCH  33  34
ENDBRANCH  26  28
ENDBRANCH  25  26
ENDBRANCH  24  25
ENDBRANCH   1  24
TORSDOF 14
ENDMDL
MODEL 3
REMARK VINA RESULT:     -11.3      7.560     12.983
REMARK SMILES C[C@@H]1[NH2+]CC[C@H]1C(=O)NCc1cccc(C(=O)OCCOC(=O)c2ccc(-c3c4nc(c(-c5c(F)c(F)c(F)c(F)c5F)c5ccc([nH]5)c(-c5c(F)c(F)c(F)c(F)c5F)c5nc(c(-c6c(F)c(F)c(F)c(F)c6F)c6ccc3[nH]6)C=C5)C=C4)cc2)c1
REMARK SMILES IDX 19 1 18 2 16 3 17 4 15 5 11 6 12 7 87 8 13 9 14 10 10 11
REMARK SMILES IDX 9 12 7 13 8 14 6 16 1 17 2 18 3 19 4 20 5 23 20 24 21 25
REMARK SMILES IDX 22 26 23 27 24 28 25 29 86 30 26 31 85 32 27 33 28 34 29 35
REMARK SMILES IDX 79 36 30 37 84 38 78 39 80 40 31 41 83 42 77 43 76 44 32 46
REMARK SMILES IDX 64 47 44 48 63 49 45 50 48 51 62 52 81 53 46 54 47 55 61 57
REMARK SMILES IDX 82 58 49 59 33 60 34 61 42 62 35 63 36 64 40 65 43 66 37 67
REMARK SMILES IDX 38 68 41 69 39 70 65 71 66 72 74 73 67 74 68 75 72 76 75 77
REMARK SMILES IDX 69 78 70 79 73 80 71 81 50 82 51 83 59 84 52 85 53 86 57 87
REMARK SMILES IDX 60 88 54 89 55 90 58 91 56 92
REMARK H PARENT 9 15 3 21 3 22 80 45 48 56
REMARK Flexibility Score: inf
ROOT
ATOM      1  C   UNL A   1      42.278  19.196  27.245  1.00  0.00     0.275 C 
ENDROOT
BRANCH   1   2
ATOM      2  O   UNL A   1      41.251  20.074  26.743  1.00  0.00    -0.458 OA
BRANCH   2   3
ATOM      3  C   UNL A   1      41.242  21.337  27.237  1.00  0.00     0.338 C 
ATOM      4  O   UNL A   1      42.137  21.875  27.870  1.00  0.00    -0.246 OA
BRANCH   3   5
ATOM      5  C   UNL A   1      40.019  22.058  26.796  1.00  0.00     0.060 A 
ATOM      6  C   UNL A   1      38.025  22.268  25.415  1.00  0.00    -0.028 A 
ATOM      7  C   UNL A   1      37.866  23.583  25.878  1.00  0.00     0.005 A 
ATOM      8  C   UNL A   1      39.136  21.526  25.849  1.00  0.00     0.021 A 
ATOM      9  C   UNL A   1      38.722  24.105  26.844  1.00  0.00     0.001 A 
ATOM     10  C   UNL A   1      39.775  23.332  27.327  1.00  0.00     0.016 A 
BRANCH   6  11
ATOM     11  C   UNL A   1      37.017  21.685  24.453  1.00  0.00     0.151 C 
BRANCH  11  12
ATOM     12  N   UNL A   1      36.282  22.711  23.737  1.00  0.00    -0.352 N 
ATOM     13  C   UNL A   1      34.970  23.054  23.715  1.00  0.00     0.229 C 
ATOM     14  O   UNL A   1      34.640  23.920  22.896  1.00  0.00    -0.275 OA
ATOM     15  H   UNL A   1      36.846  23.268  23.153  1.00  0.00     0.163 HD
BRANCH  13  16
ATOM     16  C   UNL A   1      33.919  22.453  24.637  1.00  0.00     0.142 C 
ATOM     17  C   UNL A   1      32.514  20.423  24.048  1.00  0.00     0.076 C 
ATOM     18  C   UNL A   1      33.843  20.926  24.612  1.00  0.00     0.192 C 
ATOM     19  N   UNL A   1      33.974  20.472  26.009  1.00  0.00    -0.343 N 
ATOM     20  C   UNL A   1      33.625  21.612  26.859  1.00  0.00     0.261 C 
ATOM     21  H   UNL A   1      34.932  20.177  26.195  1.00  0.00     0.346 HD
ATOM     22  H   UNL A   1      33.361  19.678  26.195  1.00  0.00     0.346 HD
ATOM     23  C   UNL A   1      34.057  22.848  26.099  1.00  0.00     0.081 C 
ENDBRANCH  13  16
ENDBRANCH  11  12
ENDBRANCH   6  11
ENDBRANCH   3   5
ENDBRANCH   2   3
ENDBRANCH   1   2
BRANCH   1  24
ATOM     24  C   UNL A   1      42.960  18.451  26.097  1.00  0.00     0.275 C 
BRANCH  24  25
ATOM     25  O   UNL A   1      43.063  19.300  24.940  1.00  0.00    -0.458 OA
BRANCH  25  26
ATOM     26  C   UNL A   1      44.317  19.531  24.489  1.00  0.00     0.338 C 
ATOM     27  O   UNL A   1      45.039  18.782  23.857  1.00  0.00    -0.246 OA
BRANCH  26  28
ATOM     28  C   UNL A   1      44.679  20.926  24.782  1.00  0.00     0.060 A 
ATOM     29  C   UNL A   1      45.243  21.199  26.025  1.00  0.00     0.016 A 
ATOM     30  C   UNL A   1      44.368  21.963  23.904  1.00  0.00     0.016 A 
ATOM     31  C   UNL A   1      45.485  22.512  26.418  1.00  0.00     0.010 A 
ATOM     32  C   UNL A   1      44.634  23.285  24.288  1.00  0.00     0.010 A 
ATOM     33  C   UNL A   1      45.175  23.572  25.556  1.00  0.00    -0.014 A 
BRANCH  33  34
ATOM     34  C   UNL A   1      45.338  24.971  26.029  1.00  0.00     0.031 A 
ATOM     35  C   UNL A   1      46.665  25.663  25.876  1.00  0.00     0.074 A 
ATOM     36  C   UNL A   1      44.291  25.647  26.541  1.00  0.00     0.049 A 
ATOM     37  N   UNL A   1      47.041  26.843  26.300  1.00  0.00    -0.248 NA
ATOM     38  C   UNL A   1      47.710  24.926  25.149  1.00  0.00     0.031 C 
ATOM     39  C   UNL A   1      42.936  25.117  26.692  1.00  0.00     0.029 A 
ATOM     40  N   UNL A   1      44.203  26.932  27.019  1.00  0.00    -0.354 N 
ATOM     41  C   UNL A   1      48.374  26.972  25.933  1.00  0.00     0.074 A 
ATOM     42  C   UNL A   1      48.744  25.749  25.251  1.00  0.00     0.031 C 
ATOM     43  C   UNL A   1      42.146  26.076  27.202  1.00  0.00     0.029 A 
ATOM     44  C   UNL A   1      42.950  27.267  27.469  1.00  0.00     0.049 A 
ATOM     45  H   UNL A   1      44.966  27.553  27.037  1.00  0.00     0.167 HD
ATOM     46  C   UNL A   1      49.212  28.013  26.145  1.00  0.00     0.037 A 
ATOM     47  C   UNL A   1      42.504  28.395  28.053  1.00  0.00     0.037 A 
ATOM     48  C   UNL A   1      48.834  29.249  26.779  1.00  0.00     0.049 A 
ATOM     49  C   UNL A   1      43.460  29.531  28.295  1.00  0.00     0.074 A 
ATOM     50  C   UNL A   1      49.614  30.365  27.034  1.00  0.00     0.029 A 
ATOM     51  N   UNL A   1      47.562  29.538  27.246  1.00  0.00    -0.354 N 
ATOM     52  N   UNL A   1      44.730  29.623  27.986  1.00  0.00    -0.248 NA
ATOM     53  C   UNL A   1      42.923  30.715  28.982  1.00  0.00     0.031 C 
ATOM     54  C   UNL A   1      48.821  31.318  27.680  1.00  0.00     0.029 A 
ATOM     55  C   UNL A   1      47.536  30.811  27.794  1.00  0.00     0.049 A 
ATOM     56  H   UNL A   1      46.789  28.929  27.195  1.00  0.00     0.167 HD
ATOM     57  C   UNL A   1      45.139  30.874  28.426  1.00  0.00     0.074 A 
ATOM     58  C   UNL A   1      43.980  31.516  29.007  1.00  0.00     0.031 C 
ATOM     59  C   UNL A   1      46.370  31.438  28.361  1.00  0.00     0.037 A 
BRANCH  46  60
ATOM     60  C   UNL A   1      50.640  27.851  25.714  1.00  0.00     0.064 A 
ATOM     61  C   UNL A   1      51.655  27.521  26.622  1.00  0.00     0.173 A 
ATOM     62  C   UNL A   1      50.987  27.998  24.362  1.00  0.00     0.173 A 
ATOM     63  F   UNL A   1      51.375  27.386  27.927  1.00  0.00    -0.203 F 
ATOM     64  C   UNL A   1      52.972  27.365  26.195  1.00  0.00     0.198 A 
ATOM     65  C   UNL A   1      52.300  27.817  23.936  1.00  0.00     0.198 A 
ATOM     66  F   UNL A   1      50.051  28.310  23.453  1.00  0.00    -0.203 F 
ATOM     67  F   UNL A   1      53.935  27.091  27.087  1.00  0.00    -0.200 F 
ATOM     68  C   UNL A   1      53.292  27.507  24.854  1.00  0.00     0.200 A 
ATOM     69  F   UNL A   1      52.605  27.944  22.637  1.00  0.00    -0.200 F 
ATOM     70  F   UNL A   1      54.559  27.352  24.445  1.00  0.00    -0.200 F 
ENDBRANCH  46  60
BRANCH  47  71
ATOM     71  C   UNL A   1      41.081  28.500  28.471  1.00  0.00     0.064 A 
ATOM     72  C   UNL A   1      40.105  28.992  27.593  1.00  0.00     0.173 A 
ATOM     73  C   UNL A   1      40.671  28.116  29.756  1.00  0.00     0.173 A 
ATOM     74  F   UNL A   1      40.453  29.399  26.364  1.00  0.00    -0.203 F 
ATOM     75  C   UNL A   1      38.774  29.104  27.990  1.00  0.00     0.198 A 
ATOM     76  C   UNL A   1      39.337  28.204  30.142  1.00  0.00     0.198 A 
ATOM     77  F   UNL A   1      41.570  27.645  30.634  1.00  0.00    -0.203 F 
ATOM     78  F   UNL A   1      37.867  29.615  27.147  1.00  0.00    -0.200 F 
ATOM     79  C   UNL A   1      38.390  28.704  29.261  1.00  0.00     0.200 A 
ATOM     80  F   UNL A   1      38.968  27.806  31.367  1.00  0.00    -0.200 F 
ATOM     81  F   UNL A   1      37.108  28.807  29.640  1.00  0.00    -0.200 F 
ENDBRANCH  47  71
BRANCH  59  82
ATOM     82  C   UNL A   1      46.520  32.827  28.906  1.00  0.00     0.064 A 
ATOM     83  C   UNL A   1      46.310  33.956  28.101  1.00  0.00     0.173 A 
ATOM     84  C   UNL A   1      46.841  33.030  30.256  1.00  0.00     0.173 A 
ATOM     85  F   UNL A   1      46.016  33.812  26.800  1.00  0.00    -0.203 F 
ATOM     86  C   UNL A   1      46.436  35.240  28.625  1.00  0.00     0.198 A 
ATOM     87  C   UNL A   1      46.943  34.314  30.782  1.00  0.00     0.198 A 
ATOM     88  F   UNL A   1      47.047  31.981  31.067  1.00  0.00    -0.203 F 
ATOM     89  F   UNL A   1      46.268  36.306  27.830  1.00  0.00    -0.200 F 
ATOM     90  C   UNL A   1      46.745  35.418  29.965  1.00  0.00     0.200 A 
ATOM     91  F   UNL A   1      47.234  34.485  32.079  1.00  0.00    -0.200 F 
ATOM     92  F   UNL A   1      46.862  36.655  30.468  1.00  0.00    -0.200 F 
ENDBRANCH  59  82
ENDBRANCH  33  34
ENDBRANCH  26  28
ENDBRANCH  25  26
ENDBRANCH  24  25
ENDBRANCH   1  24
TORSDOF 14
ENDMDL
