MODEL 1
REMARK VINA RESULT:     -11.3      0.000      0.000
REMARK SMILES CC(C)[C@@H](NC(=O)[C@@](C)([NH3+])C(F)(F)F)C(=O)OCCOC(=O)c1ccc(-c2c3nc(c(-c4c(F)c(F)c(F)c(F)c4F)c4ccc([nH]4)c(-c4c(F)c(F)c(F)c(F)c4F)c4nc(c(-c5c(F)c(F)c(F)c(F)c5F)c5ccc2[nH]5)C=C4)C=C3)cc1
REMARK SMILES IDX 18 1 17 2 15 3 16 4 4 5 2 6 1 7 3 8 5 9 6 10 7 12 8 13 9 14
REMARK SMILES IDX 10 15 11 19 12 20 13 21 14 22 19 23 20 24 21 25 22 26 23 27
REMARK SMILES IDX 24 28 85 29 25 30 84 31 26 32 27 33 28 34 78 35 29 36 83 37
REMARK SMILES IDX 77 38 79 39 30 40 82 41 76 42 75 43 31 45 63 46 43 47 62 48
REMARK SMILES IDX 44 49 47 50 61 51 80 52 45 53 46 54 60 56 81 57 48 58 32 59
REMARK SMILES IDX 33 60 41 61 34 62 35 63 39 64 42 65 36 66 37 67 40 68 38 69
REMARK SMILES IDX 64 70 65 71 73 72 66 73 67 74 71 75 74 76 68 77 69 78 72 79
REMARK SMILES IDX 70 80 49 81 50 82 58 83 51 84 52 85 56 86 59 87 53 88 54 89
REMARK SMILES IDX 57 90 55 91
REMARK H PARENT 5 11 10 16 10 17 10 18 79 44 47 55
REMARK Flexibility Score: inf
ROOT
ATOM      1  C   UNL A   1      31.797  28.555  26.782  1.00  0.00     0.274 C 
ENDROOT
BRANCH   1   2
ATOM      2  O   UNL A   1      31.929  28.032  25.441  1.00  0.00    -0.461 OA
BRANCH   2   3
ATOM      3  C   UNL A   1      30.875  27.316  24.971  1.00  0.00     0.329 C 
ATOM      4  O   UNL A   1      30.276  26.470  25.629  1.00  0.00    -0.250 OA
BRANCH   3   5
ATOM      5  C   UNL A   1      30.584  27.527  23.475  1.00  0.00     0.195 C 
BRANCH   5   6
ATOM      6  C   UNL A   1      31.383  26.704  22.425  1.00  0.00     0.017 C 
ATOM      7  C   UNL A   1      32.849  27.180  22.366  1.00  0.00     0.010 C 
ATOM      8  C   UNL A   1      31.423  25.203  22.749  1.00  0.00     0.010 C 
ENDBRANCH   5   6
BRANCH   5   9
ATOM      9  N   UNL A   1      29.142  27.678  23.127  1.00  0.00    -0.337 N 
ATOM     10  C   UNL A   1      28.268  28.703  22.879  1.00  0.00     0.291 C 
ATOM     11  H   UNL A   1      28.697  26.803  23.056  1.00  0.00     0.164 HD
ATOM     12  O   UNL A   1      27.089  28.441  23.131  1.00  0.00    -0.267 OA
BRANCH  10  13
ATOM     13  C   UNL A   1      28.687  30.051  22.249  1.00  0.00     0.267 C 
ATOM     14  C   UNL A   1      30.087  29.962  21.628  1.00  0.00     0.100 C 
BRANCH  13  15
ATOM     15  N   UNL A   1      27.653  30.459  21.245  1.00  0.00    -0.337 N 
ATOM     16  H   UNL A   1      27.653  29.797  20.469  1.00  0.00     0.345 HD
ATOM     17  H   UNL A   1      27.869  31.393  20.896  1.00  0.00     0.345 HD
ATOM     18  H   UNL A   1      26.734  30.465  21.687  1.00  0.00     0.345 HD
ENDBRANCH  13  15
BRANCH  13  19
ATOM     19  C   UNL A   1      28.758  31.115  23.389  1.00  0.00     0.453 C 
ATOM     20  F   UNL A   1      27.591  31.274  24.051  1.00  0.00    -0.164 F 
ATOM     21  F   UNL A   1      29.730  30.857  24.292  1.00  0.00    -0.164 F 
ATOM     22  F   UNL A   1      29.061  32.331  22.846  1.00  0.00    -0.164 F 
ENDBRANCH  13  19
ENDBRANCH  10  13
ENDBRANCH   5   9
ENDBRANCH   3   5
ENDBRANCH   2   3
ENDBRANCH   1   2
BRANCH   1  23
ATOM     23  C   UNL A   1      31.834  30.082  26.850  1.00  0.00     0.275 C 
BRANCH  23  24
ATOM     24  O   UNL A   1      33.115  30.590  26.448  1.00  0.00    -0.458 OA
BRANCH  24  25
ATOM     25  C   UNL A   1      33.590  31.577  27.241  1.00  0.00     0.338 C 
ATOM     26  O   UNL A   1      32.997  32.568  27.627  1.00  0.00    -0.246 OA
BRANCH  25  27
ATOM     27  C   UNL A   1      34.910  31.205  27.761  1.00  0.00     0.060 A 
ATOM     28  C   UNL A   1      35.099  29.864  28.107  1.00  0.00     0.016 A 
ATOM     29  C   UNL A   1      35.901  32.155  28.008  1.00  0.00     0.016 A 
ATOM     30  C   UNL A   1      36.269  29.461  28.731  1.00  0.00     0.010 A 
ATOM     31  C   UNL A   1      37.074  31.753  28.652  1.00  0.00     0.010 A 
ATOM     32  C   UNL A   1      37.243  30.413  29.039  1.00  0.00    -0.014 A 
BRANCH  32  33
ATOM     33  C   UNL A   1      38.362  30.004  29.910  1.00  0.00     0.031 A 
ATOM     34  C   UNL A   1      39.405  29.081  29.354  1.00  0.00     0.074 A 
ATOM     35  C   UNL A   1      38.481  30.526  31.141  1.00  0.00     0.049 A 
ATOM     36  N   UNL A   1      40.461  28.573  29.936  1.00  0.00    -0.248 NA
ATOM     37  C   UNL A   1      39.241  28.681  27.946  1.00  0.00     0.031 C 
ATOM     38  C   UNL A   1      37.562  31.495  31.737  1.00  0.00     0.029 A 
ATOM     39  N   UNL A   1      39.434  30.324  32.105  1.00  0.00    -0.354 N 
ATOM     40  C   UNL A   1      41.075  27.783  28.973  1.00  0.00     0.074 A 
ATOM     41  C   UNL A   1      40.272  27.869  27.773  1.00  0.00     0.031 C 
ATOM     42  C   UNL A   1      37.995  31.801  32.972  1.00  0.00     0.029 A 
ATOM     43  C   UNL A   1      39.197  31.023  33.260  1.00  0.00     0.049 A 
ATOM     44  H   UNL A   1      40.211  29.733  31.979  1.00  0.00     0.167 HD
ATOM     45  C   UNL A   1      42.208  27.052  29.088  1.00  0.00     0.037 A 
ATOM     46  C   UNL A   1      39.872  31.015  34.424  1.00  0.00     0.037 A 
ATOM     47  C   UNL A   1      42.995  26.978  30.291  1.00  0.00     0.049 A 
ATOM     48  C   UNL A   1      41.101  30.154  34.542  1.00  0.00     0.074 A 
ATOM     49  C   UNL A   1      44.139  26.242  30.535  1.00  0.00     0.029 A 
ATOM     50  N   UNL A   1      42.711  27.677  31.456  1.00  0.00    -0.354 N 
ATOM     51  N   UNL A   1      41.657  29.378  33.643  1.00  0.00    -0.248 NA
ATOM     52  C   UNL A   1      41.795  30.169  35.836  1.00  0.00     0.031 C 
ATOM     53  C   UNL A   1      44.529  26.471  31.860  1.00  0.00     0.029 A 
ATOM     54  C   UNL A   1      43.655  27.384  32.426  1.00  0.00     0.049 A 
ATOM     55  H   UNL A   1      41.950  28.291  31.576  1.00  0.00     0.167 HD
ATOM     56  C   UNL A   1      42.777  28.829  34.252  1.00  0.00     0.074 A 
ATOM     57  C   UNL A   1      42.828  29.375  35.593  1.00  0.00     0.031 C 
ATOM     58  C   UNL A   1      43.680  27.949  33.751  1.00  0.00     0.037 A 
BRANCH  45  59
ATOM     59  C   UNL A   1      42.627  26.244  27.897  1.00  0.00     0.064 A 
ATOM     60  C   UNL A   1      42.122  24.956  27.661  1.00  0.00     0.173 A 
ATOM     61  C   UNL A   1      43.550  26.765  26.979  1.00  0.00     0.173 A 
ATOM     62  F   UNL A   1      41.256  24.404  28.524  1.00  0.00    -0.203 F 
ATOM     63  C   UNL A   1      42.545  24.211  26.564  1.00  0.00     0.198 A 
ATOM     64  C   UNL A   1      43.953  26.027  25.869  1.00  0.00     0.198 A 
ATOM     65  F   UNL A   1      44.067  27.990  27.160  1.00  0.00    -0.203 F 
ATOM     66  F   UNL A   1      42.088  22.963  26.386  1.00  0.00    -0.200 F 
ATOM     67  C   UNL A   1      43.456  24.748  25.666  1.00  0.00     0.200 A 
ATOM     68  F   UNL A   1      44.829  26.549  25.000  1.00  0.00    -0.200 F 
ATOM     69  F   UNL A   1      43.865  24.028  24.612  1.00  0.00    -0.200 F 
ENDBRANCH  45  59
BRANCH  46  70
ATOM     70  C   UNL A   1      39.393  31.836  35.565  1.00  0.00     0.064 A 
ATOM     71  C   UNL A   1      38.474  31.325  36.490  1.00  0.00     0.173 A 
ATOM     72  C   UNL A   1      39.848  33.150  35.754  1.00  0.00     0.173 A 
ATOM     73  F   UNL A   1      37.992  30.082  36.339  1.00  0.00    -0.203 F 
ATOM     74  C   UNL A   1      38.017  32.101  37.553  1.00  0.00     0.198 A 
ATOM     75  C   UNL A   1      39.411  33.916  36.831  1.00  0.00     0.198 A 
ATOM     76  F   UNL A   1      40.728  33.686  34.894  1.00  0.00    -0.203 F 
ATOM     77  F   UNL A   1      37.106  31.604  38.401  1.00  0.00    -0.200 F 
ATOM     78  C   UNL A   1      38.490  33.393  37.727  1.00  0.00     0.200 A 
ATOM     79  F   UNL A   1      39.879  35.160  36.999  1.00  0.00    -0.200 F 
ATOM     80  F   UNL A   1      38.053  34.139  38.752  1.00  0.00    -0.200 F 
ENDBRANCH  46  70
BRANCH  58  81
ATOM     81  C   UNL A   1      44.813  27.559  34.651  1.00  0.00     0.064 A 
ATOM     82  C   UNL A   1      44.733  26.438  35.491  1.00  0.00     0.173 A 
ATOM     83  C   UNL A   1      46.001  28.306  34.659  1.00  0.00     0.173 A 
ATOM     84  F   UNL A   1      43.612  25.702  35.527  1.00  0.00    -0.203 F 
ATOM     85  C   UNL A   1      45.790  26.098  36.328  1.00  0.00     0.198 A 
ATOM     86  C   UNL A   1      47.065  27.947  35.479  1.00  0.00     0.198 A 
ATOM     87  F   UNL A   1      46.128  29.382  33.867  1.00  0.00    -0.203 F 
ATOM     88  F   UNL A   1      45.673  25.054  37.160  1.00  0.00    -0.200 F 
ATOM     89  C   UNL A   1      46.957  26.850  36.319  1.00  0.00     0.200 A 
ATOM     90  F   UNL A   1      48.196  28.667  35.461  1.00  0.00    -0.200 F 
ATOM     91  F   UNL A   1      47.972  26.521  37.129  1.00  0.00    -0.200 F 
ENDBRANCH  58  81
ENDBRANCH  32  33
ENDBRANCH  25  27
ENDBRANCH  24  25
ENDBRANCH  23  24
ENDBRANCH   1  23
TORSDOF 16
ENDMDL
MODEL 2
REMARK VINA RESULT:     -11.3      0.751      7.641
REMARK SMILES CC(C)[C@@H](NC(=O)[C@@](C)([NH3+])C(F)(F)F)C(=O)OCCOC(=O)c1ccc(-c2c3nc(c(-c4c(F)c(F)c(F)c(F)c4F)c4ccc([nH]4)c(-c4c(F)c(F)c(F)c(F)c4F)c4nc(c(-c5c(F)c(F)c(F)c(F)c5F)c5ccc2[nH]5)C=C4)C=C3)cc1
REMARK SMILES IDX 18 1 17 2 15 3 16 4 4 5 2 6 1 7 3 8 5 9 6 10 7 12 8 13 9 14
REMARK SMILES IDX 10 15 11 19 12 20 13 21 14 22 19 23 20 24 21 25 22 26 23 27
REMARK SMILES IDX 24 28 85 29 25 30 84 31 26 32 27 33 28 34 78 35 29 36 83 37
REMARK SMILES IDX 77 38 79 39 30 40 82 41 76 42 75 43 31 45 63 46 43 47 62 48
REMARK SMILES IDX 44 49 47 50 61 51 80 52 45 53 46 54 60 56 81 57 48 58 32 59
REMARK SMILES IDX 33 60 41 61 34 62 35 63 39 64 42 65 36 66 37 67 40 68 38 69
REMARK SMILES IDX 64 70 65 71 73 72 66 73 67 74 71 75 74 76 68 77 69 78 72 79
REMARK SMILES IDX 70 80 49 81 50 82 58 83 51 84 52 85 56 86 59 87 53 88 54 89
REMARK SMILES IDX 57 90 55 91
REMARK H PARENT 5 11 10 16 10 17 10 18 79 44 47 55
REMARK Flexibility Score: inf
ROOT
ATOM      1  C   UNL A   1      31.797  28.729  27.029  1.00  0.00     0.274 C 
ENDROOT
BRANCH   1   2
ATOM      2  O   UNL A   1      32.053  28.029  25.791  1.00  0.00    -0.461 OA
BRANCH   2   3
ATOM      3  C   UNL A   1      31.067  27.204  25.354  1.00  0.00     0.329 C 
ATOM      4  O   UNL A   1      30.390  26.496  26.095  1.00  0.00    -0.250 OA
BRANCH   3   5
ATOM      5  C   UNL A   1      30.966  27.093  23.822  1.00  0.00     0.195 C 
BRANCH   5   6
ATOM      6  C   UNL A   1      31.664  25.906  23.102  1.00  0.00     0.017 C 
ATOM      7  C   UNL A   1      30.812  24.625  23.217  1.00  0.00     0.010 C 
ATOM      8  C   UNL A   1      31.873  26.159  21.600  1.00  0.00     0.010 C 
ENDBRANCH   5   6
BRANCH   5   9
ATOM      9  N   UNL A   1      29.628  27.421  23.253  1.00  0.00    -0.337 N 
ATOM     10  C   UNL A   1      28.880  28.544  23.018  1.00  0.00     0.291 C 
ATOM     11  H   UNL A   1      29.152  26.608  22.966  1.00  0.00     0.164 HD
ATOM     12  O   UNL A   1      27.661  28.353  23.012  1.00  0.00    -0.267 OA
BRANCH  10  13
ATOM     13  C   UNL A   1      29.490  29.926  22.695  1.00  0.00     0.267 C 
ATOM     14  C   UNL A   1      29.864  30.681  23.977  1.00  0.00     0.100 C 
BRANCH  13  15
ATOM     15  N   UNL A   1      30.670  29.736  21.793  1.00  0.00    -0.337 N 
ATOM     16  H   UNL A   1      30.657  30.446  21.060  1.00  0.00     0.345 HD
ATOM     17  H   UNL A   1      30.629  28.810  21.368  1.00  0.00     0.345 HD
ATOM     18  H   UNL A   1      31.530  29.824  22.335  1.00  0.00     0.345 HD
ENDBRANCH  13  15
BRANCH  13  19
ATOM     19  C   UNL A   1      28.404  30.775  21.963  1.00  0.00     0.453 C 
ATOM     20  F   UNL A   1      27.924  30.187  20.845  1.00  0.00    -0.164 F 
ATOM     21  F   UNL A   1      27.359  31.095  22.759  1.00  0.00    -0.164 F 
ATOM     22  F   UNL A   1      28.954  31.961  21.568  1.00  0.00    -0.164 F 
ENDBRANCH  13  19
ENDBRANCH  10  13
ENDBRANCH   5   9
ENDBRANCH   3   5
ENDBRANCH   2   3
ENDBRANCH   1   2
BRANCH   1  23
ATOM     23  C   UNL A   1      31.900  30.249  26.906  1.00  0.00     0.275 C 
BRANCH  23  24
ATOM     24  O   UNL A   1      33.232  30.654  26.560  1.00  0.00    -0.458 OA
BRANCH  24  25
ATOM     25  C   UNL A   1      33.753  31.596  27.378  1.00  0.00     0.338 C 
ATOM     26  O   UNL A   1      33.182  32.559  27.857  1.00  0.00    -0.246 OA
BRANCH  25  27
ATOM     27  C   UNL A   1      35.104  31.202  27.795  1.00  0.00     0.060 A 
ATOM     28  C   UNL A   1      35.313  29.846  28.059  1.00  0.00     0.016 A 
ATOM     29  C   UNL A   1      36.108  32.141  28.028  1.00  0.00     0.016 A 
ATOM     30  C   UNL A   1      36.520  29.415  28.586  1.00  0.00     0.010 A 
ATOM     31  C   UNL A   1      37.320  31.711  28.575  1.00  0.00     0.010 A 
ATOM     32  C   UNL A   1      37.512  30.353  28.882  1.00  0.00    -0.014 A 
BRANCH  32  33
ATOM     33  C   UNL A   1      38.684  29.904  29.658  1.00  0.00     0.031 A 
ATOM     34  C   UNL A   1      38.856  30.411  31.059  1.00  0.00     0.074 A 
ATOM     35  C   UNL A   1      39.521  28.989  29.143  1.00  0.00     0.049 A 
ATOM     36  N   UNL A   1      39.812  30.172  31.918  1.00  0.00    -0.248 NA
ATOM     37  C   UNL A   1      37.801  31.305  31.564  1.00  0.00     0.031 C 
ATOM     38  C   UNL A   1      39.387  28.376  27.822  1.00  0.00     0.029 A 
ATOM     39  N   UNL A   1      40.641  28.408  29.676  1.00  0.00    -0.354 N 
ATOM     40  C   UNL A   1      39.484  30.898  33.055  1.00  0.00     0.074 A 
ATOM     41  C   UNL A   1      38.247  31.593  32.777  1.00  0.00     0.031 C 
ATOM     42  C   UNL A   1      40.394  27.503  27.645  1.00  0.00     0.029 A 
ATOM     43  C   UNL A   1      41.256  27.526  28.824  1.00  0.00     0.049 A 
ATOM     44  H   UNL A   1      40.971  28.605  30.582  1.00  0.00     0.167 HD
ATOM     45  C   UNL A   1      40.161  30.973  34.225  1.00  0.00     0.037 A 
ATOM     46  C   UNL A   1      42.399  26.835  28.981  1.00  0.00     0.037 A 
ATOM     47  C   UNL A   1      41.391  30.274  34.485  1.00  0.00     0.049 A 
ATOM     48  C   UNL A   1      43.159  26.976  30.272  1.00  0.00     0.074 A 
ATOM     49  C   UNL A   1      42.184  30.303  35.617  1.00  0.00     0.029 A 
ATOM     50  N   UNL A   1      42.005  29.410  33.588  1.00  0.00    -0.354 N 
ATOM     51  N   UNL A   1      42.867  27.692  31.331  1.00  0.00    -0.248 NA
ATOM     52  C   UNL A   1      44.407  26.211  30.390  1.00  0.00     0.031 C 
ATOM     53  C   UNL A   1      43.295  29.482  35.392  1.00  0.00     0.029 A 
ATOM     54  C   UNL A   1      43.171  28.906  34.138  1.00  0.00     0.049 A 
ATOM     55  H   UNL A   1      41.662  29.189  32.692  1.00  0.00     0.167 HD
ATOM     56  C   UNL A   1      43.879  27.450  32.249  1.00  0.00     0.074 A 
ATOM     57  C   UNL A   1      44.786  26.507  31.625  1.00  0.00     0.031 C 
ATOM     58  C   UNL A   1      44.049  27.963  33.493  1.00  0.00     0.037 A 
BRANCH  45  59
ATOM     59  C   UNL A   1      39.603  31.877  35.283  1.00  0.00     0.064 A 
ATOM     60  C   UNL A   1      38.707  31.411  36.257  1.00  0.00     0.173 A 
ATOM     61  C   UNL A   1      39.967  33.230  35.320  1.00  0.00     0.173 A 
ATOM     62  F   UNL A   1      38.308  30.130  36.250  1.00  0.00    -0.203 F 
ATOM     63  C   UNL A   1      38.178  32.274  37.214  1.00  0.00     0.198 A 
ATOM     64  C   UNL A   1      39.456  34.085  36.293  1.00  0.00     0.198 A 
ATOM     65  F   UNL A   1      40.817  33.727  34.408  1.00  0.00    -0.203 F 
ATOM     66  F   UNL A   1      37.285  31.819  38.104  1.00  0.00    -0.200 F 
ATOM     67  C   UNL A   1      38.556  33.608  37.235  1.00  0.00     0.200 A 
ATOM     68  F   UNL A   1      39.826  35.373  36.314  1.00  0.00    -0.200 F 
ATOM     69  F   UNL A   1      38.043  34.438  38.154  1.00  0.00    -0.200 F 
ENDBRANCH  45  59
BRANCH  46  70
ATOM     70  C   UNL A   1      42.894  25.963  27.885  1.00  0.00     0.064 A 
ATOM     71  C   UNL A   1      43.758  26.458  26.900  1.00  0.00     0.173 A 
ATOM     72  C   UNL A   1      42.514  24.615  27.804  1.00  0.00     0.173 A 
ATOM     73  F   UNL A   1      44.131  27.746  26.921  1.00  0.00    -0.203 F 
ATOM     74  C   UNL A   1      44.211  25.641  25.866  1.00  0.00     0.198 A 
ATOM     75  C   UNL A   1      42.989  23.792  26.786  1.00  0.00     0.198 A 
ATOM     76  F   UNL A   1      41.687  24.094  28.724  1.00  0.00    -0.203 F 
ATOM     77  F   UNL A   1      45.004  26.148  24.912  1.00  0.00    -0.200 F 
ATOM     78  C   UNL A   1      43.833  24.308  25.814  1.00  0.00     0.200 A 
ATOM     79  F   UNL A   1      42.628  22.503  26.746  1.00  0.00    -0.200 F 
ATOM     80  F   UNL A   1      44.273  23.521  24.821  1.00  0.00    -0.200 F 
ENDBRANCH  46  70
BRANCH  58  81
ATOM     81  C   UNL A   1      45.240  27.481  34.265  1.00  0.00     0.064 A 
ATOM     82  C   UNL A   1      46.472  28.151  34.210  1.00  0.00     0.173 A 
ATOM     83  C   UNL A   1      45.141  26.347  35.085  1.00  0.00     0.173 A 
ATOM     84  F   UNL A   1      46.617  29.232  33.429  1.00  0.00    -0.203 F 
ATOM     85  C   UNL A   1      47.570  27.682  34.924  1.00  0.00     0.198 A 
ATOM     86  C   UNL A   1      46.235  25.897  35.817  1.00  0.00     0.198 A 
ATOM     87  F   UNL A   1      43.982  25.678  35.176  1.00  0.00    -0.203 F 
ATOM     88  F   UNL A   1      48.751  28.306  34.817  1.00  0.00    -0.200 F 
ATOM     89  C   UNL A   1      47.450  26.559  35.730  1.00  0.00     0.200 A 
ATOM     90  F   UNL A   1      46.114  24.819  36.605  1.00  0.00    -0.200 F 
ATOM     91  F   UNL A   1      48.510  26.109  36.414  1.00  0.00    -0.200 F 
ENDBRANCH  58  81
ENDBRANCH  32  33
ENDBRANCH  25  27
ENDBRANCH  24  25
ENDBRANCH  23  24
ENDBRANCH   1  23
TORSDOF 16
ENDMDL
MODEL 3
REMARK VINA RESULT:     -11.3      0.763      7.552
REMARK SMILES CC(C)[C@@H](NC(=O)[C@@](C)([NH3+])C(F)(F)F)C(=O)OCCOC(=O)c1ccc(-c2c3nc(c(-c4c(F)c(F)c(F)c(F)c4F)c4ccc([nH]4)c(-c4c(F)c(F)c(F)c(F)c4F)c4nc(c(-c5c(F)c(F)c(F)c(F)c5F)c5ccc2[nH]5)C=C4)C=C3)cc1
REMARK SMILES IDX 18 1 17 2 15 3 16 4 4 5 2 6 1 7 3 8 5 9 6 10 7 12 8 13 9 14
REMARK SMILES IDX 10 15 11 19 12 20 13 21 14 22 19 23 20 24 21 25 22 26 23 27
REMARK SMILES IDX 24 28 85 29 25 30 84 31 26 32 27 33 28 34 78 35 29 36 83 37
REMARK SMILES IDX 77 38 79 39 30 40 82 41 76 42 75 43 31 45 63 46 43 47 62 48
REMARK SMILES IDX 44 49 47 50 61 51 80 52 45 53 46 54 60 56 81 57 48 58 32 59
REMARK SMILES IDX 33 60 41 61 34 62 35 63 39 64 42 65 36 66 37 67 40 68 38 69
REMARK SMILES IDX 64 70 65 71 73 72 66 73 67 74 71 75 74 76 68 77 69 78 72 79
REMARK SMILES IDX 70 80 49 81 50 82 58 83 51 84 52 85 56 86 59 87 53 88 54 89
REMARK SMILES IDX 57 90 55 91
REMARK H PARENT 5 11 10 16 10 17 10 18 79 44 47 55
REMARK Flexibility Score: inf
ROOT
ATOM      1  C   UNL A   1      31.778  29.034  27.119  1.00  0.00     0.274 C 
ENDROOT
BRANCH   1   2
ATOM      2  O   UNL A   1      32.197  28.246  25.982  1.00  0.00    -0.461 OA
BRANCH   2   3
ATOM      3  C   UNL A   1      31.286  27.364  25.496  1.00  0.00     0.329 C 
ATOM      4  O   UNL A   1      30.655  26.578  26.197  1.00  0.00    -0.250 OA
BRANCH   3   5
ATOM      5  C   UNL A   1      31.219  27.305  23.960  1.00  0.00     0.195 C 
BRANCH   5   6
ATOM      6  C   UNL A   1      32.066  26.241  23.206  1.00  0.00     0.017 C 
ATOM      7  C   UNL A   1      31.778  26.292  21.691  1.00  0.00     0.010 C 
ATOM      8  C   UNL A   1      33.579  26.458  23.371  1.00  0.00     0.010 C 
ENDBRANCH   5   6
BRANCH   5   9
ATOM      9  N   UNL A   1      29.859  27.490  23.379  1.00  0.00    -0.337 N 
ATOM     10  C   UNL A   1      29.021  28.534  23.090  1.00  0.00     0.291 C 
ATOM     11  H   UNL A   1      29.452  26.627  23.137  1.00  0.00     0.164 HD
ATOM     12  O   UNL A   1      27.822  28.243  23.099  1.00  0.00    -0.267 OA
BRANCH  10  13
ATOM     13  C   UNL A   1      29.514  29.943  22.692  1.00  0.00     0.267 C 
ATOM     14  C   UNL A   1      29.901  30.764  23.930  1.00  0.00     0.100 C 
BRANCH  13  15
ATOM     15  N   UNL A   1      30.655  29.804  21.732  1.00  0.00    -0.337 N 
ATOM     16  H   UNL A   1      30.919  30.726  21.382  1.00  0.00     0.345 HD
ATOM     17  H   UNL A   1      30.373  29.212  20.951  1.00  0.00     0.345 HD
ATOM     18  H   UNL A   1      31.452  29.381  22.210  1.00  0.00     0.345 HD
ENDBRANCH  13  15
BRANCH  13  19
ATOM     19  C   UNL A   1      28.333  30.691  21.997  1.00  0.00     0.453 C 
ATOM     20  F   UNL A   1      27.894  30.078  20.876  1.00  0.00    -0.164 F 
ATOM     21  F   UNL A   1      27.278  30.888  22.818  1.00  0.00    -0.164 F 
ATOM     22  F   UNL A   1      28.753  31.933  21.617  1.00  0.00    -0.164 F 
ENDBRANCH  13  19
ENDBRANCH  10  13
ENDBRANCH   5   9
ENDBRANCH   3   5
ENDBRANCH   2   3
ENDBRANCH   1   2
BRANCH   1  23
ATOM     23  C   UNL A   1      31.917  30.541  26.906  1.00  0.00     0.275 C 
BRANCH  23  24
ATOM     24  O   UNL A   1      33.269  30.899  26.584  1.00  0.00    -0.458 OA
BRANCH  24  25
ATOM     25  C   UNL A   1      33.816  31.803  27.427  1.00  0.00     0.338 C 
ATOM     26  O   UNL A   1      33.276  32.777  27.921  1.00  0.00    -0.246 OA
BRANCH  25  27
ATOM     27  C   UNL A   1      35.147  31.352  27.847  1.00  0.00     0.060 A 
ATOM     28  C   UNL A   1      35.295  29.989  28.119  1.00  0.00     0.016 A 
ATOM     29  C   UNL A   1      36.192  32.246  28.075  1.00  0.00     0.016 A 
ATOM     30  C   UNL A   1      36.481  29.507  28.649  1.00  0.00     0.010 A 
ATOM     31  C   UNL A   1      37.383  31.765  28.625  1.00  0.00     0.010 A 
ATOM     32  C   UNL A   1      37.514  30.402  28.940  1.00  0.00    -0.014 A 
BRANCH  32  33
ATOM     33  C   UNL A   1      38.664  29.904  29.720  1.00  0.00     0.031 A 
ATOM     34  C   UNL A   1      38.845  30.394  31.125  1.00  0.00     0.074 A 
ATOM     35  C   UNL A   1      39.471  28.965  29.202  1.00  0.00     0.049 A 
ATOM     36  N   UNL A   1      39.787  30.114  31.988  1.00  0.00    -0.248 NA
ATOM     37  C   UNL A   1      37.819  31.321  31.632  1.00  0.00     0.031 C 
ATOM     38  C   UNL A   1      39.325  28.367  27.875  1.00  0.00     0.029 A 
ATOM     39  N   UNL A   1      40.567  28.340  29.737  1.00  0.00    -0.354 N 
ATOM     40  C   UNL A   1      39.477  30.841  33.130  1.00  0.00     0.074 A 
ATOM     41  C   UNL A   1      38.267  31.583  32.850  1.00  0.00     0.031 C 
ATOM     42  C   UNL A   1      40.301  27.461  27.697  1.00  0.00     0.029 A 
ATOM     43  C   UNL A   1      41.156  27.444  28.882  1.00  0.00     0.049 A 
ATOM     44  H   UNL A   1      40.898  28.518  30.647  1.00  0.00     0.167 HD
ATOM     45  C   UNL A   1      40.149  30.882  34.305  1.00  0.00     0.037 A 
ATOM     46  C   UNL A   1      42.273  26.711  29.039  1.00  0.00     0.037 A 
ATOM     47  C   UNL A   1      41.352  30.138  34.566  1.00  0.00     0.049 A 
ATOM     48  C   UNL A   1      43.028  26.814  30.336  1.00  0.00     0.074 A 
ATOM     49  C   UNL A   1      42.137  30.130  35.703  1.00  0.00     0.029 A 
ATOM     50  N   UNL A   1      41.941  29.261  33.666  1.00  0.00    -0.354 N 
ATOM     51  N   UNL A   1      42.755  27.532  31.400  1.00  0.00    -0.248 NA
ATOM     52  C   UNL A   1      44.248  26.005  30.455  1.00  0.00     0.031 C 
ATOM     53  C   UNL A   1      43.220  29.272  35.478  1.00  0.00     0.029 A 
ATOM     54  C   UNL A   1      43.085  28.711  34.219  1.00  0.00     0.049 A 
ATOM     55  H   UNL A   1      41.596  29.059  32.766  1.00  0.00     0.167 HD
ATOM     56  C   UNL A   1      43.752  27.246  32.321  1.00  0.00     0.074 A 
ATOM     57  C   UNL A   1      44.629  26.276  31.696  1.00  0.00     0.031 C 
ATOM     58  C   UNL A   1      43.932  27.743  33.571  1.00  0.00     0.037 A 
BRANCH  45  59
ATOM     59  C   UNL A   1      39.617  31.798  35.367  1.00  0.00     0.064 A 
ATOM     60  C   UNL A   1      40.058  33.124  35.489  1.00  0.00     0.173 A 
ATOM     61  C   UNL A   1      38.655  31.339  36.277  1.00  0.00     0.173 A 
ATOM     62  F   UNL A   1      40.996  33.603  34.657  1.00  0.00    -0.203 F 
ATOM     63  C   UNL A   1      39.572  33.950  36.500  1.00  0.00     0.198 A 
ATOM     64  C   UNL A   1      38.153  32.175  37.272  1.00  0.00     0.198 A 
ATOM     65  F   UNL A   1      38.203  30.078  36.207  1.00  0.00    -0.203 F 
ATOM     66  F   UNL A   1      40.045  35.197  36.629  1.00  0.00    -0.200 F 
ATOM     67  C   UNL A   1      38.617  33.477  37.388  1.00  0.00     0.200 A 
ATOM     68  F   UNL A   1      37.227  31.717  38.125  1.00  0.00    -0.200 F 
ATOM     69  F   UNL A   1      38.153  34.271  38.362  1.00  0.00    -0.200 F 
ENDBRANCH  45  59
BRANCH  46  70
ATOM     70  C   UNL A   1      42.743  25.832  27.939  1.00  0.00     0.064 A 
ATOM     71  C   UNL A   1      42.305  24.506  27.834  1.00  0.00     0.173 A 
ATOM     72  C   UNL A   1      43.640  26.302  26.968  1.00  0.00     0.173 A 
ATOM     73  F   UNL A   1      41.465  24.003  28.751  1.00  0.00    -0.203 F 
ATOM     74  C   UNL A   1      42.756  23.679  26.807  1.00  0.00     0.198 A 
ATOM     75  C   UNL A   1      44.071  25.483  25.927  1.00  0.00     0.198 A 
ATOM     76  F   UNL A   1      44.091  27.565  27.026  1.00  0.00    -0.203 F 
ATOM     77  F   UNL A   1      42.354  22.402  26.752  1.00  0.00    -0.200 F 
ATOM     78  C   UNL A   1      43.633  24.170  25.851  1.00  0.00     0.200 A 
ATOM     79  F   UNL A   1      44.910  25.966  25.001  1.00  0.00    -0.200 F 
ATOM     80  F   UNL A   1      44.064  23.375  24.861  1.00  0.00    -0.200 F 
ENDBRANCH  46  70
BRANCH  58  81
ATOM     81  C   UNL A   1      45.100  27.213  34.346  1.00  0.00     0.064 A 
ATOM     82  C   UNL A   1      44.992  26.066  35.146  1.00  0.00     0.173 A 
ATOM     83  C   UNL A   1      46.348  27.850  34.272  1.00  0.00     0.173 A 
ATOM     84  F   UNL A   1      43.815  25.431  35.258  1.00  0.00    -0.203 F 
ATOM     85  C   UNL A   1      46.083  25.594  35.868  1.00  0.00     0.198 A 
ATOM     86  C   UNL A   1      47.444  27.360  34.976  1.00  0.00     0.198 A 
ATOM     87  F   UNL A   1      46.503  28.946  33.514  1.00  0.00    -0.203 F 
ATOM     88  F   UNL A   1      45.944  24.527  36.667  1.00  0.00    -0.200 F 
ATOM     89  C   UNL A   1      47.309  26.239  35.779  1.00  0.00     0.200 A 
ATOM     90  F   UNL A   1      48.630  27.977  34.880  1.00  0.00    -0.200 F 
ATOM     91  F   UNL A   1      48.357  25.784  36.478  1.00  0.00    -0.200 F 
ENDBRANCH  58  81
ENDBRANCH  32  33
ENDBRANCH  25  27
ENDBRANCH  24  25
ENDBRANCH  23  24
ENDBRANCH   1  23
TORSDOF 16
ENDMDL
