MODEL 1
REMARK VINA RESULT:     -11.8      0.000      0.000
REMARK SMILES COc1ccc(-c2ccc(CCC(=O)OCCOC(=O)c3ccc(-c4c5nc(c(-c6c(F)c(F)c(F)c(F)c6F)c6ccc([nH]6)c(-c6c(F)c(F)c(F)c(F)c6F)c6nc(c(-c7c(F)c(F)c(F)c(F)c7F)c7ccc4[nH]7)C=C6)C=C5)cc3)n2-c2ccc(C(C)=O)cc2)cc1
REMARK SMILES IDX 16 1 15 2 13 3 14 4 12 5 11 6 10 7 7 8 8 9 84 10 9 11 6 12
REMARK SMILES IDX 3 13 4 14 95 15 5 16 94 17 2 18 1 19 85 20 86 21 93 22 87 23
REMARK SMILES IDX 92 24 88 25 89 26 90 27 91 28 17 29 18 30 19 31 20 32 21 33
REMARK SMILES IDX 22 34 83 35 23 36 82 37 24 38 25 39 26 40 76 41 27 42 81 43
REMARK SMILES IDX 75 44 77 45 28 46 80 47 74 48 73 49 29 51 61 52 41 53 60 54
REMARK SMILES IDX 42 55 45 56 59 57 78 58 43 59 44 60 58 62 79 63 46 64 30 65
REMARK SMILES IDX 31 66 39 67 32 68 33 69 37 70 40 71 34 72 35 73 38 74 36 75
REMARK SMILES IDX 62 76 63 77 71 78 64 79 65 80 69 81 72 82 66 83 67 84 70 85
REMARK SMILES IDX 68 86 47 87 48 88 56 89 49 90 50 91 54 92 57 93 51 94 52 95
REMARK SMILES IDX 55 96 53 97
REMARK H PARENT 77 50 45 61
REMARK Flexibility Score: inf
ROOT
ATOM      1  C   UNL A   1      36.377  22.717  26.227  1.00  0.00     0.274 C 
ENDROOT
BRANCH   1   2
ATOM      2  O   UNL A   1      35.394  22.554  25.188  1.00  0.00    -0.462 OA
BRANCH   2   3
ATOM      3  C   UNL A   1      35.186  23.605  24.357  1.00  0.00     0.306 C 
ATOM      4  O   UNL A   1      35.447  23.611  23.159  1.00  0.00    -0.252 OA
BRANCH   3   5
ATOM      5  C   UNL A   1      34.638  24.812  25.086  1.00  0.00     0.129 C 
BRANCH   5   6
ATOM      6  C   UNL A   1      33.238  24.648  25.676  1.00  0.00     0.066 C 
BRANCH   6   7
ATOM      7  C   UNL A   1      32.128  25.014  24.722  1.00  0.00     0.024 A 
ATOM      8  C   UNL A   1      30.425  26.196  23.821  1.00  0.00     0.053 A 
ATOM      9  C   UNL A   1      30.401  24.936  23.261  1.00  0.00     0.029 A 
ATOM     10  N   UNL A   1      31.539  26.271  24.653  1.00  0.00    -0.314 N 
ATOM     11  C   UNL A   1      31.478  24.221  23.795  1.00  0.00     0.024 A 
BRANCH   8  12
ATOM     12  C   UNL A   1      29.558  27.303  23.454  1.00  0.00    -0.001 A 
ATOM     13  C   UNL A   1      27.861  29.372  22.661  1.00  0.00     0.118 A 
ATOM     14  C   UNL A   1      29.218  29.418  22.341  1.00  0.00     0.047 A 
ATOM     15  C   UNL A   1      27.344  28.273  23.349  1.00  0.00     0.047 A 
ATOM     16  C   UNL A   1      30.068  28.389  22.738  1.00  0.00     0.014 A 
ATOM     17  C   UNL A   1      28.192  27.239  23.744  1.00  0.00     0.014 A 
BRANCH  13  18
ATOM     18  O   UNL A   1      27.123  30.432  22.212  1.00  0.00    -0.497 OA
ATOM     19  C   UNL A   1      27.846  31.649  22.075  1.00  0.00     0.278 C 
ENDBRANCH  13  18
ENDBRANCH   8  12
BRANCH  10  20
ATOM     20  C   UNL A   1      32.024  27.444  25.279  1.00  0.00     0.046 A 
ATOM     21  C   UNL A   1      31.493  27.824  26.515  1.00  0.00     0.027 A 
ATOM     22  C   UNL A   1      33.048  28.180  24.686  1.00  0.00     0.027 A 
ATOM     23  C   UNL A   1      31.988  28.957  27.166  1.00  0.00     0.014 A 
ATOM     24  C   UNL A   1      33.522  29.323  25.331  1.00  0.00     0.014 A 
ATOM     25  C   UNL A   1      33.004  29.719  26.577  1.00  0.00     0.017 A 
BRANCH  25  26
ATOM     26  C   UNL A   1      33.576  30.951  27.205  1.00  0.00     0.159 C 
ATOM     27  C   UNL A   1      32.689  32.086  27.647  1.00  0.00     0.093 C 
ATOM     28  O   UNL A   1      34.793  31.024  27.378  1.00  0.00    -0.295 OA
ENDBRANCH  25  26
ENDBRANCH  10  20
ENDBRANCH   6   7
ENDBRANCH   5   6
ENDBRANCH   3   5
ENDBRANCH   2   3
ENDBRANCH   1   2
BRANCH   1  29
ATOM     29  C   UNL A   1      37.789  23.017  25.713  1.00  0.00     0.275 C 
BRANCH  29  30
ATOM     30  O   UNL A   1      38.332  24.266  26.170  1.00  0.00    -0.458 OA
BRANCH  30  31
ATOM     31  C   UNL A   1      39.390  24.092  26.985  1.00  0.00     0.338 C 
ATOM     32  O   UNL A   1      39.819  23.043  27.422  1.00  0.00    -0.246 OA
BRANCH  31  33
ATOM     33  C   UNL A   1      39.957  25.310  27.526  1.00  0.00     0.060 A 
ATOM     34  C   UNL A   1      39.622  25.633  28.849  1.00  0.00     0.016 A 
ATOM     35  C   UNL A   1      40.413  26.261  26.613  1.00  0.00     0.016 A 
ATOM     36  C   UNL A   1      39.705  26.947  29.259  1.00  0.00     0.010 A 
ATOM     37  C   UNL A   1      40.481  27.581  27.018  1.00  0.00     0.010 A 
ATOM     38  C   UNL A   1      40.125  27.912  28.338  1.00  0.00    -0.014 A 
BRANCH  38  39
ATOM     39  C   UNL A   1      40.439  29.255  28.848  1.00  0.00     0.031 A 
ATOM     40  C   UNL A   1      39.165  30.109  28.937  1.00  0.00     0.074 A 
ATOM     41  C   UNL A   1      41.746  29.502  29.158  1.00  0.00     0.049 A 
ATOM     42  N   UNL A   1      39.026  31.383  29.133  1.00  0.00    -0.248 NA
ATOM     43  C   UNL A   1      37.834  29.452  28.761  1.00  0.00     0.031 C 
ATOM     44  C   UNL A   1      42.846  28.527  28.995  1.00  0.00     0.029 A 
ATOM     45  N   UNL A   1      42.422  30.596  29.661  1.00  0.00    -0.354 N 
ATOM     46  C   UNL A   1      37.653  31.621  29.352  1.00  0.00     0.074 A 
ATOM     47  C   UNL A   1      36.959  30.427  28.993  1.00  0.00     0.031 C 
ATOM     48  C   UNL A   1      44.034  29.084  29.313  1.00  0.00     0.029 A 
ATOM     49  C   UNL A   1      43.832  30.452  29.752  1.00  0.00     0.049 A 
ATOM     50  H   UNL A   1      41.959  31.420  29.937  1.00  0.00     0.167 HD
ATOM     51  C   UNL A   1      37.190  32.738  29.981  1.00  0.00     0.037 A 
ATOM     52  C   UNL A   1      44.770  31.375  30.137  1.00  0.00     0.037 A 
ATOM     53  C   UNL A   1      38.256  33.653  30.195  1.00  0.00     0.049 A 
ATOM     54  C   UNL A   1      43.995  32.487  30.704  1.00  0.00     0.074 A 
ATOM     55  C   UNL A   1      38.983  34.431  29.335  1.00  0.00     0.029 A 
ATOM     56  N   UNL A   1      38.910  33.577  31.399  1.00  0.00    -0.354 N 
ATOM     57  N   UNL A   1      43.403  32.445  31.860  1.00  0.00    -0.248 NA
ATOM     58  C   UNL A   1      43.814  33.712  29.917  1.00  0.00     0.031 C 
ATOM     59  C   UNL A   1      40.269  34.452  29.907  1.00  0.00     0.029 A 
ATOM     60  C   UNL A   1      40.237  33.831  31.161  1.00  0.00     0.049 A 
ATOM     61  H   UNL A   1      38.502  33.378  32.272  1.00  0.00     0.167 HD
ATOM     62  C   UNL A   1      42.515  33.489  31.766  1.00  0.00     0.074 A 
ATOM     63  C   UNL A   1      43.035  34.386  30.759  1.00  0.00     0.031 C 
ATOM     64  C   UNL A   1      41.210  33.271  32.069  1.00  0.00     0.037 A 
BRANCH  51  65
ATOM     65  C   UNL A   1      35.886  33.017  30.672  1.00  0.00     0.064 A 
ATOM     66  C   UNL A   1      35.022  33.972  30.085  1.00  0.00     0.173 A 
ATOM     67  C   UNL A   1      35.641  32.703  32.016  1.00  0.00     0.173 A 
ATOM     68  F   UNL A   1      35.140  34.301  28.788  1.00  0.00    -0.203 F 
ATOM     69  C   UNL A   1      34.091  34.685  30.837  1.00  0.00     0.198 A 
ATOM     70  C   UNL A   1      34.667  33.381  32.753  1.00  0.00     0.198 A 
ATOM     71  F   UNL A   1      36.402  31.821  32.677  1.00  0.00    -0.203 F 
ATOM     72  F   UNL A   1      33.412  35.695  30.274  1.00  0.00    -0.200 F 
ATOM     73  C   UNL A   1      33.930  34.403  32.178  1.00  0.00     0.200 A 
ATOM     74  F   UNL A   1      34.505  33.098  34.054  1.00  0.00    -0.200 F 
ATOM     75  F   UNL A   1      33.095  35.138  32.925  1.00  0.00    -0.200 F 
ENDBRANCH  51  65
BRANCH  52  76
ATOM     76  C   UNL A   1      46.276  31.554  30.133  1.00  0.00     0.064 A 
ATOM     77  C   UNL A   1      47.130  31.409  31.232  1.00  0.00     0.173 A 
ATOM     78  C   UNL A   1      46.959  31.800  28.903  1.00  0.00     0.173 A 
ATOM     79  F   UNL A   1      46.652  31.281  32.472  1.00  0.00    -0.203 F 
ATOM     80  C   UNL A   1      48.534  31.399  31.094  1.00  0.00     0.198 A 
ATOM     81  C   UNL A   1      48.344  31.740  28.757  1.00  0.00     0.198 A 
ATOM     82  F   UNL A   1      46.301  32.105  27.776  1.00  0.00    -0.203 F 
ATOM     83  F   UNL A   1      49.305  31.245  32.180  1.00  0.00    -0.200 F 
ATOM     84  C   UNL A   1      49.137  31.522  29.855  1.00  0.00     0.200 A 
ATOM     85  F   UNL A   1      48.890  31.872  27.538  1.00  0.00    -0.200 F 
ATOM     86  F   UNL A   1      50.466  31.438  29.720  1.00  0.00    -0.200 F 
ENDBRANCH  52  76
BRANCH  64  87
ATOM     87  C   UNL A   1      40.995  32.116  33.033  1.00  0.00     0.064 A 
ATOM     88  C   UNL A   1      41.455  32.214  34.356  1.00  0.00     0.173 A 
ATOM     89  C   UNL A   1      40.478  30.866  32.655  1.00  0.00     0.173 A 
ATOM     90  F   UNL A   1      41.939  33.380  34.811  1.00  0.00    -0.203 F 
ATOM     91  C   UNL A   1      41.429  31.120  35.227  1.00  0.00     0.198 A 
ATOM     92  C   UNL A   1      40.448  29.772  33.521  1.00  0.00     0.198 A 
ATOM     93  F   UNL A   1      39.980  30.679  31.436  1.00  0.00    -0.203 F 
ATOM     94  F   UNL A   1      41.886  31.255  36.480  1.00  0.00    -0.200 F 
ATOM     95  C   UNL A   1      40.933  29.898  34.807  1.00  0.00     0.200 A 
ATOM     96  F   UNL A   1      39.942  28.601  33.105  1.00  0.00    -0.200 F 
ATOM     97  F   UNL A   1      40.904  28.850  35.644  1.00  0.00    -0.200 F 
ENDBRANCH  64  87
ENDBRANCH  38  39
ENDBRANCH  31  33
ENDBRANCH  30  31
ENDBRANCH  29  30
ENDBRANCH   1  29
TORSDOF 17
ENDMDL
MODEL 2
REMARK VINA RESULT:     -11.8      4.163      9.196
REMARK SMILES COc1ccc(-c2ccc(CCC(=O)OCCOC(=O)c3ccc(-c4c5nc(c(-c6c(F)c(F)c(F)c(F)c6F)c6ccc([nH]6)c(-c6c(F)c(F)c(F)c(F)c6F)c6nc(c(-c7c(F)c(F)c(F)c(F)c7F)c7ccc4[nH]7)C=C6)C=C5)cc3)n2-c2ccc(C(C)=O)cc2)cc1
REMARK SMILES IDX 16 1 15 2 13 3 14 4 12 5 11 6 10 7 7 8 8 9 84 10 9 11 6 12
REMARK SMILES IDX 3 13 4 14 95 15 5 16 94 17 2 18 1 19 85 20 86 21 93 22 87 23
REMARK SMILES IDX 92 24 88 25 89 26 90 27 91 28 17 29 18 30 19 31 20 32 21 33
REMARK SMILES IDX 22 34 83 35 23 36 82 37 24 38 25 39 26 40 76 41 27 42 81 43
REMARK SMILES IDX 75 44 77 45 28 46 80 47 74 48 73 49 29 51 61 52 41 53 60 54
REMARK SMILES IDX 42 55 45 56 59 57 78 58 43 59 44 60 58 62 79 63 46 64 30 65
REMARK SMILES IDX 31 66 39 67 32 68 33 69 37 70 40 71 34 72 35 73 38 74 36 75
REMARK SMILES IDX 62 76 63 77 71 78 64 79 65 80 69 81 72 82 66 83 67 84 70 85
REMARK SMILES IDX 68 86 47 87 48 88 56 89 49 90 50 91 54 92 57 93 51 94 52 95
REMARK SMILES IDX 55 96 53 97
REMARK H PARENT 77 50 45 61
REMARK Flexibility Score: inf
ROOT
ATOM      1  C   UNL A   1      33.032  28.584  27.382  1.00  0.00     0.274 C 
ENDROOT
BRANCH   1   2
ATOM      2  O   UNL A   1      32.131  28.101  26.368  1.00  0.00    -0.462 OA
BRANCH   2   3
ATOM      3  C   UNL A   1      32.641  27.892  25.129  1.00  0.00     0.306 C 
ATOM      4  O   UNL A   1      32.318  28.517  24.125  1.00  0.00    -0.252 OA
BRANCH   3   5
ATOM      5  C   UNL A   1      33.631  26.748  25.104  1.00  0.00     0.129 C 
BRANCH   5   6
ATOM      6  C   UNL A   1      33.729  25.989  23.781  1.00  0.00     0.066 C 
BRANCH   6   7
ATOM      7  C   UNL A   1      32.829  24.781  23.704  1.00  0.00     0.024 A 
ATOM      8  C   UNL A   1      32.221  22.612  23.518  1.00  0.00     0.053 A 
ATOM      9  C   UNL A   1      31.097  23.381  23.299  1.00  0.00     0.029 A 
ATOM     10  N   UNL A   1      33.266  23.470  23.851  1.00  0.00    -0.314 N 
ATOM     11  C   UNL A   1      31.471  24.720  23.451  1.00  0.00     0.024 A 
BRANCH   8  12
ATOM     12  C   UNL A   1      32.255  21.160  23.580  1.00  0.00    -0.001 A 
ATOM     13  C   UNL A   1      32.428  18.378  23.703  1.00  0.00     0.118 A 
ATOM     14  C   UNL A   1      32.292  19.017  22.470  1.00  0.00     0.047 A 
ATOM     15  C   UNL A   1      32.513  19.133  24.874  1.00  0.00     0.047 A 
ATOM     16  C   UNL A   1      32.202  20.405  22.406  1.00  0.00     0.014 A 
ATOM     17  C   UNL A   1      32.428  20.523  24.811  1.00  0.00     0.014 A 
BRANCH  13  18
ATOM     18  O   UNL A   1      32.515  17.014  23.643  1.00  0.00    -0.497 OA
ATOM     19  C   UNL A   1      33.513  16.441  24.479  1.00  0.00     0.278 C 
ENDBRANCH  13  18
ENDBRANCH   8  12
BRANCH  10  20
ATOM     20  C   UNL A   1      34.541  23.074  24.320  1.00  0.00     0.046 A 
ATOM     21  C   UNL A   1      34.792  23.083  25.695  1.00  0.00     0.027 A 
ATOM     22  C   UNL A   1      35.514  22.641  23.420  1.00  0.00     0.027 A 
ATOM     23  C   UNL A   1      36.032  22.658  26.179  1.00  0.00     0.014 A 
ATOM     24  C   UNL A   1      36.757  22.239  23.908  1.00  0.00     0.014 A 
ATOM     25  C   UNL A   1      37.027  22.237  25.289  1.00  0.00     0.017 A 
BRANCH  25  26
ATOM     26  C   UNL A   1      38.383  21.780  25.729  1.00  0.00     0.159 C 
ATOM     27  C   UNL A   1      38.944  20.456  25.278  1.00  0.00     0.093 C 
ATOM     28  O   UNL A   1      39.054  22.512  26.457  1.00  0.00    -0.295 OA
ENDBRANCH  25  26
ENDBRANCH  10  20
ENDBRANCH   6   7
ENDBRANCH   5   6
ENDBRANCH   3   5
ENDBRANCH   2   3
ENDBRANCH   1   2
BRANCH   1  29
ATOM     29  C   UNL A   1      34.048  29.615  26.879  1.00  0.00     0.275 C 
BRANCH  29  30
ATOM     30  O   UNL A   1      35.419  29.268  27.132  1.00  0.00    -0.458 OA
BRANCH  30  31
ATOM     31  C   UNL A   1      36.081  30.248  27.776  1.00  0.00     0.338 C 
ATOM     32  O   UNL A   1      35.809  31.432  27.795  1.00  0.00    -0.246 OA
BRANCH  31  33
ATOM     33  C   UNL A   1      37.347  29.855  28.358  1.00  0.00     0.060 A 
ATOM     34  C   UNL A   1      38.464  29.859  27.510  1.00  0.00     0.016 A 
ATOM     35  C   UNL A   1      37.302  29.113  29.538  1.00  0.00     0.016 A 
ATOM     36  C   UNL A   1      39.548  29.070  27.828  1.00  0.00     0.010 A 
ATOM     37  C   UNL A   1      38.382  28.309  29.850  1.00  0.00     0.010 A 
ATOM     38  C   UNL A   1      39.496  28.293  28.991  1.00  0.00    -0.014 A 
BRANCH  38  39
ATOM     39  C   UNL A   1      40.739  27.650  29.442  1.00  0.00     0.031 A 
ATOM     40  C   UNL A   1      40.935  26.301  28.733  1.00  0.00     0.074 A 
ATOM     41  C   UNL A   1      41.484  28.334  30.360  1.00  0.00     0.049 A 
ATOM     42  N   UNL A   1      41.769  25.340  28.984  1.00  0.00    -0.248 NA
ATOM     43  C   UNL A   1      40.055  25.951  27.577  1.00  0.00     0.031 C 
ATOM     44  C   UNL A   1      41.113  29.646  30.932  1.00  0.00     0.029 A 
ATOM     45  N   UNL A   1      42.681  28.085  31.000  1.00  0.00    -0.354 N 
ATOM     46  C   UNL A   1      41.690  24.432  27.906  1.00  0.00     0.074 A 
ATOM     47  C   UNL A   1      40.543  24.792  27.139  1.00  0.00     0.031 C 
ATOM     48  C   UNL A   1      42.006  30.034  31.867  1.00  0.00     0.029 A 
ATOM     49  C   UNL A   1      43.064  29.047  31.973  1.00  0.00     0.049 A 
ATOM     50  H   UNL A   1      43.233  27.294  30.797  1.00  0.00     0.167 HD
ATOM     51  C   UNL A   1      42.681  23.541  27.621  1.00  0.00     0.037 A 
ATOM     52  C   UNL A   1      44.147  29.039  32.814  1.00  0.00     0.037 A 
ATOM     53  C   UNL A   1      43.662  23.557  28.648  1.00  0.00     0.049 A 
ATOM     54  C   UNL A   1      44.999  27.948  32.322  1.00  0.00     0.074 A 
ATOM     55  C   UNL A   1      43.637  23.123  29.947  1.00  0.00     0.029 A 
ATOM     56  N   UNL A   1      44.736  24.393  28.471  1.00  0.00    -0.354 N 
ATOM     57  N   UNL A   1      45.707  28.013  31.234  1.00  0.00    -0.248 NA
ATOM     58  C   UNL A   1      45.030  26.675  33.051  1.00  0.00     0.031 C 
ATOM     59  C   UNL A   1      44.452  24.049  30.625  1.00  0.00     0.029 A 
ATOM     60  C   UNL A   1      45.066  24.903  29.702  1.00  0.00     0.049 A 
ATOM     61  H   UNL A   1      45.187  24.590  27.620  1.00  0.00     0.167 HD
ATOM     62  C   UNL A   1      45.977  26.689  30.987  1.00  0.00     0.074 A 
ATOM     63  C   UNL A   1      45.848  25.997  32.250  1.00  0.00     0.031 C 
ATOM     64  C   UNL A   1      45.725  26.186  29.752  1.00  0.00     0.037 A 
BRANCH  51  65
ATOM     65  C   UNL A   1      43.011  22.799  26.357  1.00  0.00     0.064 A 
ATOM     66  C   UNL A   1      42.836  21.394  26.355  1.00  0.00     0.173 A 
ATOM     67  C   UNL A   1      43.823  23.324  25.343  1.00  0.00     0.173 A 
ATOM     68  F   UNL A   1      42.034  20.800  27.254  1.00  0.00    -0.203 F 
ATOM     69  C   UNL A   1      43.559  20.563  25.503  1.00  0.00     0.198 A 
ATOM     70  C   UNL A   1      44.502  22.488  24.452  1.00  0.00     0.198 A 
ATOM     71  F   UNL A   1      44.067  24.638  25.253  1.00  0.00    -0.203 F 
ATOM     72  F   UNL A   1      43.485  19.232  25.650  1.00  0.00    -0.200 F 
ATOM     73  C   UNL A   1      44.409  21.111  24.565  1.00  0.00     0.200 A 
ATOM     74  F   UNL A   1      45.320  23.024  23.535  1.00  0.00    -0.200 F 
ATOM     75  F   UNL A   1      45.167  20.317  23.798  1.00  0.00    -0.200 F 
ENDBRANCH  51  65
BRANCH  52  76
ATOM     76  C   UNL A   1      44.665  29.786  34.027  1.00  0.00     0.064 A 
ATOM     77  C   UNL A   1      44.116  29.759  35.314  1.00  0.00     0.173 A 
ATOM     78  C   UNL A   1      45.883  30.528  33.938  1.00  0.00     0.173 A 
ATOM     79  F   UNL A   1      42.926  29.200  35.550  1.00  0.00    -0.203 F 
ATOM     80  C   UNL A   1      44.777  30.325  36.424  1.00  0.00     0.198 A 
ATOM     81  C   UNL A   1      46.562  31.043  35.041  1.00  0.00     0.198 A 
ATOM     82  F   UNL A   1      46.474  30.780  32.762  1.00  0.00    -0.203 F 
ATOM     83  F   UNL A   1      44.209  30.261  37.637  1.00  0.00    -0.200 F 
ATOM     84  C   UNL A   1      46.016  30.927  36.294  1.00  0.00     0.200 A 
ATOM     85  F   UNL A   1      47.758  31.627  34.871  1.00  0.00    -0.200 F 
ATOM     86  F   UNL A   1      46.673  31.397  37.362  1.00  0.00    -0.200 F 
ENDBRANCH  52  76
BRANCH  64  87
ATOM     87  C   UNL A   1      45.760  27.234  28.652  1.00  0.00     0.064 A 
ATOM     88  C   UNL A   1      46.969  27.870  28.329  1.00  0.00     0.173 A 
ATOM     89  C   UNL A   1      44.615  27.729  28.005  1.00  0.00     0.173 A 
ATOM     90  F   UNL A   1      48.117  27.443  28.879  1.00  0.00    -0.203 F 
ATOM     91  C   UNL A   1      47.019  28.952  27.444  1.00  0.00     0.198 A 
ATOM     92  C   UNL A   1      44.660  28.808  27.120  1.00  0.00     0.198 A 
ATOM     93  F   UNL A   1      43.425  27.172  28.210  1.00  0.00    -0.203 F 
ATOM     94  F   UNL A   1      48.194  29.536  27.171  1.00  0.00    -0.200 F 
ATOM     95  C   UNL A   1      45.864  29.426  26.846  1.00  0.00     0.200 A 
ATOM     96  F   UNL A   1      43.534  29.239  26.531  1.00  0.00    -0.200 F 
ATOM     97  F   UNL A   1      45.912  30.461  25.995  1.00  0.00    -0.200 F 
ENDBRANCH  64  87
ENDBRANCH  38  39
ENDBRANCH  31  33
ENDBRANCH  30  31
ENDBRANCH  29  30
ENDBRANCH   1  29
TORSDOF 17
ENDMDL
MODEL 3
REMARK VINA RESULT:     -11.7      3.097      8.699
REMARK SMILES COc1ccc(-c2ccc(CCC(=O)OCCOC(=O)c3ccc(-c4c5nc(c(-c6c(F)c(F)c(F)c(F)c6F)c6ccc([nH]6)c(-c6c(F)c(F)c(F)c(F)c6F)c6nc(c(-c7c(F)c(F)c(F)c(F)c7F)c7ccc4[nH]7)C=C6)C=C5)cc3)n2-c2ccc(C(C)=O)cc2)cc1
REMARK SMILES IDX 16 1 15 2 13 3 14 4 12 5 11 6 10 7 7 8 8 9 84 10 9 11 6 12
REMARK SMILES IDX 3 13 4 14 95 15 5 16 94 17 2 18 1 19 85 20 86 21 93 22 87 23
REMARK SMILES IDX 92 24 88 25 89 26 90 27 91 28 17 29 18 30 19 31 20 32 21 33
REMARK SMILES IDX 22 34 83 35 23 36 82 37 24 38 25 39 26 40 76 41 27 42 81 43
REMARK SMILES IDX 75 44 77 45 28 46 80 47 74 48 73 49 29 51 61 52 41 53 60 54
REMARK SMILES IDX 42 55 45 56 59 57 78 58 43 59 44 60 58 62 79 63 46 64 30 65
REMARK SMILES IDX 31 66 39 67 32 68 33 69 37 70 40 71 34 72 35 73 38 74 36 75
REMARK SMILES IDX 62 76 63 77 71 78 64 79 65 80 69 81 72 82 66 83 67 84 70 85
REMARK SMILES IDX 68 86 47 87 48 88 56 89 49 90 50 91 54 92 57 93 51 94 52 95
REMARK SMILES IDX 55 96 53 97
REMARK H PARENT 77 50 45 61
REMARK Flexibility Score: inf
ROOT
ATOM      1  C   UNL A   1      31.778  28.549  26.303  1.00  0.00     0.274 C 
ENDROOT
BRANCH   1   2
ATOM      2  O   UNL A   1      31.294  27.968  25.078  1.00  0.00    -0.462 OA
BRANCH   2   3
ATOM      3  C   UNL A   1      32.122  28.000  24.004  1.00  0.00     0.306 C 
ATOM      4  O   UNL A   1      31.954  28.702  23.013  1.00  0.00    -0.252 OA
BRANCH   3   5
ATOM      5  C   UNL A   1      33.268  27.021  24.135  1.00  0.00     0.129 C 
BRANCH   5   6
ATOM      6  C   UNL A   1      33.383  25.985  23.018  1.00  0.00     0.066 C 
BRANCH   6   7
ATOM      7  C   UNL A   1      32.606  24.719  23.280  1.00  0.00     0.024 A 
ATOM      8  C   UNL A   1      32.218  22.531  23.696  1.00  0.00     0.053 A 
ATOM      9  C   UNL A   1      31.028  23.096  23.287  1.00  0.00     0.029 A 
ATOM     10  N   UNL A   1      33.167  23.547  23.775  1.00  0.00    -0.314 N 
ATOM     11  C   UNL A   1      31.266  24.457  23.065  1.00  0.00     0.024 A 
BRANCH   8  12
ATOM     12  C   UNL A   1      32.392  21.162  24.151  1.00  0.00    -0.001 A 
ATOM     13  C   UNL A   1      32.834  18.548  25.023  1.00  0.00     0.118 A 
ATOM     14  C   UNL A   1      32.645  18.810  23.666  1.00  0.00     0.047 A 
ATOM     15  C   UNL A   1      32.838  19.599  25.942  1.00  0.00     0.047 A 
ATOM     16  C   UNL A   1      32.421  20.113  23.229  1.00  0.00     0.014 A 
ATOM     17  C   UNL A   1      32.618  20.905  25.505  1.00  0.00     0.014 A 
BRANCH  13  18
ATOM     18  O   UNL A   1      33.054  17.235  25.335  1.00  0.00    -0.497 OA
ATOM     19  C   UNL A   1      33.221  16.374  24.216  1.00  0.00     0.278 C 
ENDBRANCH  13  18
ENDBRANCH   8  12
BRANCH  10  20
ATOM     20  C   UNL A   1      34.466  23.422  24.322  1.00  0.00     0.046 A 
ATOM     21  C   UNL A   1      35.497  22.928  23.518  1.00  0.00     0.027 A 
ATOM     22  C   UNL A   1      34.715  23.828  25.632  1.00  0.00     0.027 A 
ATOM     23  C   UNL A   1      36.794  22.834  24.029  1.00  0.00     0.014 A 
ATOM     24  C   UNL A   1      36.008  23.712  26.142  1.00  0.00     0.014 A 
ATOM     25  C   UNL A   1      37.060  23.221  25.347  1.00  0.00     0.017 A 
BRANCH  25  26
ATOM     26  C   UNL A   1      38.418  23.140  25.970  1.00  0.00     0.159 C 
ATOM     27  C   UNL A   1      39.162  21.831  26.051  1.00  0.00     0.093 C 
ATOM     28  O   UNL A   1      38.940  24.167  26.405  1.00  0.00    -0.295 OA
ENDBRANCH  25  26
ENDBRANCH  10  20
ENDBRANCH   6   7
ENDBRANCH   5   6
ENDBRANCH   3   5
ENDBRANCH   2   3
ENDBRANCH   1   2
BRANCH   1  29
ATOM     29  C   UNL A   1      31.966  30.069  26.245  1.00  0.00     0.275 C 
BRANCH  29  30
ATOM     30  O   UNL A   1      33.335  30.492  26.138  1.00  0.00    -0.458 OA
BRANCH  30  31
ATOM     31  C   UNL A   1      33.698  31.299  27.153  1.00  0.00     0.338 C 
ATOM     32  O   UNL A   1      33.116  32.288  27.553  1.00  0.00    -0.246 OA
BRANCH  31  33
ATOM     33  C   UNL A   1      35.015  31.045  27.701  1.00  0.00     0.060 A 
ATOM     34  C   UNL A   1      35.211  29.808  28.333  1.00  0.00     0.016 A 
ATOM     35  C   UNL A   1      35.826  32.152  27.947  1.00  0.00     0.016 A 
ATOM     36  C   UNL A   1      36.218  29.687  29.266  1.00  0.00     0.010 A 
ATOM     37  C   UNL A   1      36.827  32.035  28.894  1.00  0.00     0.010 A 
ATOM     38  C   UNL A   1      37.014  30.804  29.546  1.00  0.00    -0.014 A 
BRANCH  38  39
ATOM     39  C   UNL A   1      38.225  30.597  30.353  1.00  0.00     0.031 A 
ATOM     40  C   UNL A   1      39.246  29.744  29.583  1.00  0.00     0.074 A 
ATOM     41  C   UNL A   1      38.247  31.183  31.586  1.00  0.00     0.049 A 
ATOM     42  N   UNL A   1      40.331  29.168  29.996  1.00  0.00    -0.248 NA
ATOM     43  C   UNL A   1      39.019  29.469  28.132  1.00  0.00     0.031 C 
ATOM     44  C   UNL A   1      37.139  31.979  32.156  1.00  0.00     0.029 A 
ATOM     45  N   UNL A   1      39.175  31.236  32.606  1.00  0.00    -0.354 N 
ATOM     46  C   UNL A   1      41.015  28.705  28.851  1.00  0.00     0.074 A 
ATOM     47  C   UNL A   1      40.110  28.808  27.753  1.00  0.00     0.031 C 
ATOM     48  C   UNL A   1      37.422  32.364  33.419  1.00  0.00     0.029 A 
ATOM     49  C   UNL A   1      38.746  31.900  33.787  1.00  0.00     0.049 A 
ATOM     50  H   UNL A   1      40.073  30.840  32.522  1.00  0.00     0.167 HD
ATOM     51  C   UNL A   1      42.348  28.423  28.853  1.00  0.00     0.037 A 
ATOM     52  C   UNL A   1      39.406  32.049  34.980  1.00  0.00     0.037 A 
ATOM     53  C   UNL A   1      42.858  28.493  30.177  1.00  0.00     0.049 A 
ATOM     54  C   UNL A   1      40.781  31.608  34.709  1.00  0.00     0.074 A 
ATOM     55  C   UNL A   1      42.681  27.690  31.272  1.00  0.00     0.029 A 
ATOM     56  N   UNL A   1      43.389  29.693  30.578  1.00  0.00    -0.354 N 
ATOM     57  N   UNL A   1      41.643  32.296  34.022  1.00  0.00    -0.248 NA
ATOM     58  C   UNL A   1      41.219  30.290  35.183  1.00  0.00     0.031 C 
ATOM     59  C   UNL A   1      42.710  28.589  32.355  1.00  0.00     0.029 A 
ATOM     60  C   UNL A   1      43.063  29.864  31.900  1.00  0.00     0.049 A 
ATOM     61  H   UNL A   1      43.907  30.317  30.021  1.00  0.00     0.167 HD
ATOM     62  C   UNL A   1      42.580  31.344  33.703  1.00  0.00     0.074 A 
ATOM     63  C   UNL A   1      42.452  30.290  34.683  1.00  0.00     0.031 C 
ATOM     64  C   UNL A   1      42.968  31.212  32.409  1.00  0.00     0.037 A 
BRANCH  51  65
ATOM     65  C   UNL A   1      43.341  28.324  27.730  1.00  0.00     0.064 A 
ATOM     66  C   UNL A   1      43.898  27.052  27.455  1.00  0.00     0.173 A 
ATOM     67  C   UNL A   1      44.029  29.428  27.209  1.00  0.00     0.173 A 
ATOM     68  F   UNL A   1      43.285  25.930  27.865  1.00  0.00    -0.203 F 
ATOM     69  C   UNL A   1      45.143  26.908  26.848  1.00  0.00     0.198 A 
ATOM     70  C   UNL A   1      45.252  29.275  26.549  1.00  0.00     0.198 A 
ATOM     71  F   UNL A   1      43.601  30.680  27.415  1.00  0.00    -0.203 F 
ATOM     72  F   UNL A   1      45.704  25.694  26.758  1.00  0.00    -0.200 F 
ATOM     73  C   UNL A   1      45.830  28.024  26.414  1.00  0.00     0.200 A 
ATOM     74  F   UNL A   1      45.912  30.360  26.120  1.00  0.00    -0.200 F 
ATOM     75  F   UNL A   1      47.062  27.899  25.903  1.00  0.00    -0.200 F 
ENDBRANCH  51  65
BRANCH  52  76
ATOM     76  C   UNL A   1      39.125  32.504  36.399  1.00  0.00     0.064 A 
ATOM     77  C   UNL A   1      39.611  33.667  37.007  1.00  0.00     0.173 A 
ATOM     78  C   UNL A   1      38.209  31.770  37.212  1.00  0.00     0.173 A 
ATOM     79  F   UNL A   1      40.557  34.411  36.428  1.00  0.00    -0.203 F 
ATOM     80  C   UNL A   1      39.140  34.110  38.260  1.00  0.00     0.198 A 
ATOM     81  C   UNL A   1      37.704  32.232  38.427  1.00  0.00     0.198 A 
ATOM     82  F   UNL A   1      37.753  30.562  36.852  1.00  0.00    -0.203 F 
ATOM     83  F   UNL A   1      39.631  35.238  38.792  1.00  0.00    -0.200 F 
ATOM     84  C   UNL A   1      38.159  33.417  38.947  1.00  0.00     0.200 A 
ATOM     85  F   UNL A   1      36.759  31.526  39.066  1.00  0.00    -0.200 F 
ATOM     86  F   UNL A   1      37.662  33.882  40.101  1.00  0.00    -0.200 F 
ENDBRANCH  52  76
BRANCH  64  87
ATOM     87  C   UNL A   1      42.799  32.482  31.591  1.00  0.00     0.064 A 
ATOM     88  C   UNL A   1      43.644  33.580  31.821  1.00  0.00     0.173 A 
ATOM     89  C   UNL A   1      41.743  32.700  30.691  1.00  0.00     0.173 A 
ATOM     90  F   UNL A   1      44.696  33.453  32.645  1.00  0.00    -0.203 F 
ATOM     91  C   UNL A   1      43.422  34.820  31.214  1.00  0.00     0.198 A 
ATOM     92  C   UNL A   1      41.518  33.935  30.081  1.00  0.00     0.198 A 
ATOM     93  F   UNL A   1      40.908  31.714  30.374  1.00  0.00    -0.203 F 
ATOM     94  F   UNL A   1      44.249  35.845  31.468  1.00  0.00    -0.200 F 
ATOM     95  C   UNL A   1      42.355  35.000  30.351  1.00  0.00     0.200 A 
ATOM     96  F   UNL A   1      40.492  34.086  29.229  1.00  0.00    -0.200 F 
ATOM     97  F   UNL A   1      42.143  36.188  29.765  1.00  0.00    -0.200 F 
ENDBRANCH  64  87
ENDBRANCH  38  39
ENDBRANCH  31  33
ENDBRANCH  30  31
ENDBRANCH  29  30
ENDBRANCH   1  29
TORSDOF 17
ENDMDL
