MODEL 1
REMARK VINA RESULT:     -13.0      0.000      0.000
REMARK SMILES Cc1cccc2c1N=CN1C2=[NH+]NC(=O)[C@@H]1CC(=O)OCCOC(=O)c1ccc(-c2c3nc(c(-c4c(F)c(F)c(F)c(F)c4F)c4ccc([nH]4)c(-c4c(F)c(F)c(F)c(F)c4F)c4nc(c(-c5c(F)c(F)c(F)c(F)c5F)c5ccc2[nH]5)C=C4)C=C3)cc1
REMARK SMILES IDX 22 1 21 2 20 3 18 4 19 5 17 6 16 7 1 8 2 9 3 10 7 11 4 12
REMARK SMILES IDX 6 13 8 14 5 15 11 16 9 17 10 18 12 19 13 20 14 22 15 24
REMARK SMILES IDX 23 25 24 26 25 27 26 28 27 29 88 30 28 31 87 32 29 33 30 34
REMARK SMILES IDX 31 35 81 36 32 37 86 38 80 39 82 40 33 41 85 42 79 43 78 44
REMARK SMILES IDX 34 46 66 47 46 48 65 49 47 50 50 51 64 52 83 53 48 54 49 55
REMARK SMILES IDX 63 57 84 58 51 59 35 60 36 61 44 62 37 63 38 64 42 65 45 66
REMARK SMILES IDX 39 67 40 68 43 69 41 70 67 71 68 72 76 73 69 74 70 75 74 76
REMARK SMILES IDX 77 77 71 78 72 79 75 80 73 81 52 82 53 83 61 84 54 85 55 86
REMARK SMILES IDX 59 87 62 88 56 89 57 90 60 91 58 92
REMARK H PARENT 12 21 13 23 82 45 50 56
REMARK Flexibility Score: inf
ROOT
ATOM      1  C   UNL A   1      31.563  30.687  25.785  1.00  0.00     0.275 C 
ENDROOT
BRANCH   1   2
ATOM      2  C   UNL A   1      31.734  29.775  24.574  1.00  0.00     0.274 C 
BRANCH   2   3
ATOM      3  O   UNL A   1      30.424  29.446  24.058  1.00  0.00    -0.462 OA
BRANCH   3   4
ATOM      4  C   UNL A   1      30.425  28.584  23.015  1.00  0.00     0.310 C 
ATOM      5  O   UNL A   1      30.123  28.880  21.862  1.00  0.00    -0.252 OA
BRANCH   4   6
ATOM      6  C   UNL A   1      30.903  27.196  23.347  1.00  0.00     0.183 C 
BRANCH   6   7
ATOM      7  C   UNL A   1      30.819  26.693  24.784  1.00  0.00     0.286 C 
ATOM      8  C   UNL A   1      36.409  23.603  25.255  1.00  0.00     0.047 C 
ATOM      9  C   UNL A   1      35.098  23.372  25.950  1.00  0.00    -0.024 A 
ATOM     10  C   UNL A   1      34.866  22.152  26.612  1.00  0.00     0.006 A 
ATOM     11  C   UNL A   1      34.093  24.352  25.932  1.00  0.00     0.085 A 
ATOM     12  C   UNL A   1      33.659  21.906  27.267  1.00  0.00     0.001 A 
ATOM     13  C   UNL A   1      32.866  24.061  26.556  1.00  0.00     0.092 A 
ATOM     14  N   UNL A   1      34.313  25.556  25.220  1.00  0.00    -0.215 NA
ATOM     15  C   UNL A   1      32.656  22.867  27.252  1.00  0.00     0.019 A 
ATOM     16  C   UNL A   1      31.709  24.933  26.211  1.00  0.00     0.309 C 
ATOM     17  C   UNL A   1      33.257  26.240  24.923  1.00  0.00     0.317 C 
ATOM     18  N   UNL A   1      31.965  25.921  25.268  1.00  0.00    -0.202 N 
ATOM     19  N   UNL A   1      30.553  24.645  26.737  1.00  0.00    -0.169 N 
ATOM     20  N   UNL A   1      29.457  25.226  26.188  1.00  0.00    -0.193 N 
ATOM     21  H   UNL A   1      30.478  24.031  27.503  1.00  0.00     0.340 HD
ATOM     22  C   UNL A   1      29.495  25.977  25.038  1.00  0.00     0.300 C 
ATOM     23  H   UNL A   1      28.589  25.102  26.636  1.00  0.00     0.216 HD
ATOM     24  O   UNL A   1      28.494  26.144  24.346  1.00  0.00    -0.267 OA
ENDBRANCH   6   7
ENDBRANCH   4   6
ENDBRANCH   3   4
ENDBRANCH   2   3
ENDBRANCH   1   2
BRANCH   1  25
ATOM     25  O   UNL A   1      32.668  30.480  26.682  1.00  0.00    -0.458 OA
BRANCH  25  26
ATOM     26  C   UNL A   1      33.167  31.608  27.239  1.00  0.00     0.338 C 
ATOM     27  O   UNL A   1      32.652  32.713  27.217  1.00  0.00    -0.246 OA
BRANCH  26  28
ATOM     28  C   UNL A   1      34.522  31.350  27.784  1.00  0.00     0.060 A 
ATOM     29  C   UNL A   1      35.486  32.351  27.966  1.00  0.00     0.016 A 
ATOM     30  C   UNL A   1      34.804  30.034  28.159  1.00  0.00     0.016 A 
ATOM     31  C   UNL A   1      36.722  32.034  28.543  1.00  0.00     0.010 A 
ATOM     32  C   UNL A   1      36.010  29.730  28.782  1.00  0.00     0.010 A 
ATOM     33  C   UNL A   1      36.973  30.728  28.987  1.00  0.00    -0.014 A 
BRANCH  33  34
ATOM     34  C   UNL A   1      38.192  30.382  29.755  1.00  0.00     0.031 A 
ATOM     35  C   UNL A   1      39.195  29.424  29.190  1.00  0.00     0.074 A 
ATOM     36  C   UNL A   1      38.313  30.850  31.012  1.00  0.00     0.049 A 
ATOM     37  N   UNL A   1      40.252  28.903  29.759  1.00  0.00    -0.248 NA
ATOM     38  C   UNL A   1      38.974  28.975  27.806  1.00  0.00     0.031 C 
ATOM     39  C   UNL A   1      37.368  31.758  31.664  1.00  0.00     0.029 A 
ATOM     40  N   UNL A   1      39.260  30.610  31.973  1.00  0.00    -0.354 N 
ATOM     41  C   UNL A   1      40.820  28.067  28.807  1.00  0.00     0.074 A 
ATOM     42  C   UNL A   1      39.971  28.116  27.636  1.00  0.00     0.031 C 
ATOM     43  C   UNL A   1      37.789  32.010  32.912  1.00  0.00     0.029 A 
ATOM     44  C   UNL A   1      39.008  31.249  33.163  1.00  0.00     0.049 A 
ATOM     45  H   UNL A   1      40.047  30.037  31.825  1.00  0.00     0.167 HD
ATOM     46  C   UNL A   1      41.957  27.339  28.906  1.00  0.00     0.037 A 
ATOM     47  C   UNL A   1      39.679  31.212  34.329  1.00  0.00     0.037 A 
ATOM     48  C   UNL A   1      42.783  27.298  30.084  1.00  0.00     0.049 A 
ATOM     49  C   UNL A   1      40.918  30.367  34.423  1.00  0.00     0.074 A 
ATOM     50  C   UNL A   1      43.970  26.617  30.282  1.00  0.00     0.029 A 
ATOM     51  N   UNL A   1      42.500  27.966  31.268  1.00  0.00    -0.354 N 
ATOM     52  N   UNL A   1      41.475  29.619  33.502  1.00  0.00    -0.248 NA
ATOM     53  C   UNL A   1      41.621  30.357  35.713  1.00  0.00     0.031 C 
ATOM     54  C   UNL A   1      44.384  26.838  31.599  1.00  0.00     0.029 A 
ATOM     55  C   UNL A   1      43.481  27.697  32.207  1.00  0.00     0.049 A 
ATOM     56  H   UNL A   1      41.718  28.545  31.417  1.00  0.00     0.167 HD
ATOM     57  C   UNL A   1      42.605  29.070  34.087  1.00  0.00     0.074 A 
ATOM     58  C   UNL A   1      42.659  29.575  35.445  1.00  0.00     0.031 C 
ATOM     59  C   UNL A   1      43.516  28.223  33.548  1.00  0.00     0.037 A 
BRANCH  46  60
ATOM     60  C   UNL A   1      42.383  26.537  27.712  1.00  0.00     0.064 A 
ATOM     61  C   UNL A   1      43.328  27.033  26.800  1.00  0.00     0.173 A 
ATOM     62  C   UNL A   1      41.898  25.236  27.510  1.00  0.00     0.173 A 
ATOM     63  F   UNL A   1      43.816  28.273  26.943  1.00  0.00    -0.203 F 
ATOM     64  C   UNL A   1      43.761  26.262  25.724  1.00  0.00     0.198 A 
ATOM     65  C   UNL A   1      42.351  24.458  26.447  1.00  0.00     0.198 A 
ATOM     66  F   UNL A   1      40.997  24.711  28.354  1.00  0.00    -0.203 F 
ATOM     67  F   UNL A   1      44.642  26.768  24.851  1.00  0.00    -0.200 F 
ATOM     68  C   UNL A   1      43.280  24.972  25.554  1.00  0.00     0.200 A 
ATOM     69  F   UNL A   1      41.895  23.207  26.290  1.00  0.00    -0.200 F 
ATOM     70  F   UNL A   1      43.709  24.225  24.527  1.00  0.00    -0.200 F 
ENDBRANCH  46  60
BRANCH  47  71
ATOM     71  C   UNL A   1      39.208  32.037  35.471  1.00  0.00     0.064 A 
ATOM     72  C   UNL A   1      38.389  31.481  36.462  1.00  0.00     0.173 A 
ATOM     73  C   UNL A   1      39.609  33.373  35.630  1.00  0.00     0.173 A 
ATOM     74  F   UNL A   1      37.965  30.214  36.345  1.00  0.00    -0.203 F 
ATOM     75  C   UNL A   1      37.987  32.228  37.568  1.00  0.00     0.198 A 
ATOM     76  C   UNL A   1      39.228  34.110  36.749  1.00  0.00     0.198 A 
ATOM     77  F   UNL A   1      40.400  33.950  34.713  1.00  0.00    -0.203 F 
ATOM     78  F   UNL A   1      37.186  31.676  38.490  1.00  0.00    -0.200 F 
ATOM     79  C   UNL A   1      38.415  33.538  37.716  1.00  0.00     0.200 A 
ATOM     80  F   UNL A   1      39.657  35.372  36.896  1.00  0.00    -0.200 F 
ATOM     81  F   UNL A   1      38.045  34.249  38.789  1.00  0.00    -0.200 F 
ENDBRANCH  47  71
BRANCH  59  82
ATOM     82  C   UNL A   1      44.667  27.805  34.412  1.00  0.00     0.064 A 
ATOM     83  C   UNL A   1      44.613  26.636  35.182  1.00  0.00     0.173 A 
ATOM     84  C   UNL A   1      45.867  28.530  34.390  1.00  0.00     0.173 A 
ATOM     85  F   UNL A   1      43.481  25.919  35.243  1.00  0.00    -0.203 F 
ATOM     86  C   UNL A   1      45.724  26.207  35.902  1.00  0.00     0.198 A 
ATOM     87  C   UNL A   1      46.983  28.085  35.091  1.00  0.00     0.198 A 
ATOM     88  F   UNL A   1      45.966  29.652  33.661  1.00  0.00    -0.203 F 
ATOM     89  F   UNL A   1      45.647  25.097  36.649  1.00  0.00    -0.200 F 
ATOM     90  C   UNL A   1      46.910  26.924  35.846  1.00  0.00     0.200 A 
ATOM     91  F   UNL A   1      48.132  28.771  35.024  1.00  0.00    -0.200 F 
ATOM     92  F   UNL A   1      47.985  26.496  36.523  1.00  0.00    -0.200 F 
ENDBRANCH  59  82
ENDBRANCH  33  34
ENDBRANCH  26  28
ENDBRANCH  25  26
ENDBRANCH   1  25
TORSDOF 12
ENDMDL
MODEL 2
REMARK VINA RESULT:     -12.9      0.374      1.996
REMARK SMILES Cc1cccc2c1N=CN1C2=[NH+]NC(=O)[C@@H]1CC(=O)OCCOC(=O)c1ccc(-c2c3nc(c(-c4c(F)c(F)c(F)c(F)c4F)c4ccc([nH]4)c(-c4c(F)c(F)c(F)c(F)c4F)c4nc(c(-c5c(F)c(F)c(F)c(F)c5F)c5ccc2[nH]5)C=C4)C=C3)cc1
REMARK SMILES IDX 22 1 21 2 20 3 18 4 19 5 17 6 16 7 1 8 2 9 3 10 7 11 4 12
REMARK SMILES IDX 6 13 8 14 5 15 11 16 9 17 10 18 12 19 13 20 14 22 15 24
REMARK SMILES IDX 23 25 24 26 25 27 26 28 27 29 88 30 28 31 87 32 29 33 30 34
REMARK SMILES IDX 31 35 81 36 32 37 86 38 80 39 82 40 33 41 85 42 79 43 78 44
REMARK SMILES IDX 34 46 66 47 46 48 65 49 47 50 50 51 64 52 83 53 48 54 49 55
REMARK SMILES IDX 63 57 84 58 51 59 35 60 36 61 44 62 37 63 38 64 42 65 45 66
REMARK SMILES IDX 39 67 40 68 43 69 41 70 67 71 68 72 76 73 69 74 70 75 74 76
REMARK SMILES IDX 77 77 71 78 72 79 75 80 73 81 52 82 53 83 61 84 54 85 55 86
REMARK SMILES IDX 59 87 62 88 56 89 57 90 60 91 58 92
REMARK H PARENT 12 21 13 23 82 45 50 56
REMARK Flexibility Score: inf
ROOT
ATOM      1  C   UNL A   1      31.828  30.295  25.894  1.00  0.00     0.275 C 
ENDROOT
BRANCH   1   2
ATOM      2  C   UNL A   1      31.913  29.665  24.507  1.00  0.00     0.274 C 
BRANCH   2   3
ATOM      3  O   UNL A   1      30.573  29.534  23.979  1.00  0.00    -0.462 OA
BRANCH   3   4
ATOM      4  C   UNL A   1      30.431  28.589  23.021  1.00  0.00     0.310 C 
ATOM      5  O   UNL A   1      29.936  28.783  21.914  1.00  0.00    -0.252 OA
BRANCH   4   6
ATOM      6  C   UNL A   1      30.999  27.241  23.377  1.00  0.00     0.183 C 
BRANCH   6   7
ATOM      7  C   UNL A   1      30.853  26.715  24.801  1.00  0.00     0.286 C 
ATOM      8  C   UNL A   1      36.392  23.562  25.439  1.00  0.00     0.047 C 
ATOM      9  C   UNL A   1      35.052  23.331  26.078  1.00  0.00    -0.024 A 
ATOM     10  C   UNL A   1      34.783  22.103  26.708  1.00  0.00     0.006 A 
ATOM     11  C   UNL A   1      34.058  24.322  26.036  1.00  0.00     0.085 A 
ATOM     12  C   UNL A   1      33.549  21.857  27.310  1.00  0.00     0.001 A 
ATOM     13  C   UNL A   1      32.804  24.032  26.607  1.00  0.00     0.092 A 
ATOM     14  N   UNL A   1      34.317  25.536  25.355  1.00  0.00    -0.215 NA
ATOM     15  C   UNL A   1      32.556  22.828  27.272  1.00  0.00     0.019 A 
ATOM     16  C   UNL A   1      31.670  24.920  26.231  1.00  0.00     0.309 C 
ATOM     17  C   UNL A   1      33.280  26.234  25.029  1.00  0.00     0.317 C 
ATOM     18  N   UNL A   1      31.972  25.923  25.317  1.00  0.00    -0.202 N 
ATOM     19  N   UNL A   1      30.491  24.635  26.706  1.00  0.00    -0.169 N 
ATOM     20  N   UNL A   1      29.424  25.236  26.124  1.00  0.00    -0.193 N 
ATOM     21  H   UNL A   1      30.380  24.009  27.457  1.00  0.00     0.340 HD
ATOM     22  C   UNL A   1      29.514  26.007  24.990  1.00  0.00     0.300 C 
ATOM     23  H   UNL A   1      28.537  25.113  26.534  1.00  0.00     0.216 HD
ATOM     24  O   UNL A   1      28.543  26.195  24.261  1.00  0.00    -0.267 OA
ENDBRANCH   6   7
ENDBRANCH   4   6
ENDBRANCH   3   4
ENDBRANCH   2   3
ENDBRANCH   1   2
BRANCH   1  25
ATOM     25  O   UNL A   1      33.102  30.153  26.546  1.00  0.00    -0.458 OA
BRANCH  25  26
ATOM     26  C   UNL A   1      33.508  31.240  27.242  1.00  0.00     0.338 C 
ATOM     27  O   UNL A   1      32.918  32.305  27.328  1.00  0.00    -0.246 OA
BRANCH  26  28
ATOM     28  C   UNL A   1      34.865  31.013  27.797  1.00  0.00     0.060 A 
ATOM     29  C   UNL A   1      35.799  32.038  28.000  1.00  0.00     0.016 A 
ATOM     30  C   UNL A   1      35.179  29.701  28.159  1.00  0.00     0.016 A 
ATOM     31  C   UNL A   1      37.037  31.747  28.585  1.00  0.00     0.010 A 
ATOM     32  C   UNL A   1      36.387  29.422  28.789  1.00  0.00     0.010 A 
ATOM     33  C   UNL A   1      37.320  30.443  29.016  1.00  0.00    -0.014 A 
BRANCH  33  34
ATOM     34  C   UNL A   1      38.541  30.121  29.791  1.00  0.00     0.031 A 
ATOM     35  C   UNL A   1      39.545  29.149  29.251  1.00  0.00     0.074 A 
ATOM     36  C   UNL A   1      38.663  30.624  31.035  1.00  0.00     0.049 A 
ATOM     37  N   UNL A   1      40.604  28.647  29.833  1.00  0.00    -0.248 NA
ATOM     38  C   UNL A   1      39.323  28.662  27.881  1.00  0.00     0.031 C 
ATOM     39  C   UNL A   1      37.717  31.549  31.662  1.00  0.00     0.029 A 
ATOM     40  N   UNL A   1      39.613  30.413  32.000  1.00  0.00    -0.354 N 
ATOM     41  C   UNL A   1      41.172  27.786  28.903  1.00  0.00     0.074 A 
ATOM     42  C   UNL A   1      40.321  27.800  27.733  1.00  0.00     0.031 C 
ATOM     43  C   UNL A   1      38.139  31.836  32.902  1.00  0.00     0.029 A 
ATOM     44  C   UNL A   1      39.361  31.084  33.172  1.00  0.00     0.049 A 
ATOM     45  H   UNL A   1      40.400  29.837  31.867  1.00  0.00     0.167 HD
ATOM     46  C   UNL A   1      42.311  27.063  29.021  1.00  0.00     0.037 A 
ATOM     47  C   UNL A   1      40.034  31.081  34.338  1.00  0.00     0.037 A 
ATOM     48  C   UNL A   1      43.138  27.056  30.198  1.00  0.00     0.049 A 
ATOM     49  C   UNL A   1      41.274  30.241  34.454  1.00  0.00     0.074 A 
ATOM     50  C   UNL A   1      44.328  26.383  30.414  1.00  0.00     0.029 A 
ATOM     51  N   UNL A   1      42.856  27.756  31.363  1.00  0.00    -0.354 N 
ATOM     52  N   UNL A   1      41.831  29.469  33.553  1.00  0.00    -0.248 NA
ATOM     53  C   UNL A   1      41.979  30.268  35.742  1.00  0.00     0.031 C 
ATOM     54  C   UNL A   1      44.743  26.642  31.723  1.00  0.00     0.029 A 
ATOM     55  C   UNL A   1      43.839  27.516  32.308  1.00  0.00     0.049 A 
ATOM     56  H   UNL A   1      42.073  28.338  31.498  1.00  0.00     0.167 HD
ATOM     57  C   UNL A   1      42.964  28.938  34.151  1.00  0.00     0.074 A 
ATOM     58  C   UNL A   1      43.018  29.481  35.494  1.00  0.00     0.031 C 
ATOM     59  C   UNL A   1      43.875  28.079  33.634  1.00  0.00     0.037 A 
BRANCH  46  60
ATOM     60  C   UNL A   1      42.736  26.228  27.849  1.00  0.00     0.064 A 
ATOM     61  C   UNL A   1      42.197  24.951  27.630  1.00  0.00     0.173 A 
ATOM     62  C   UNL A   1      43.638  26.731  26.899  1.00  0.00     0.173 A 
ATOM     63  F   UNL A   1      41.338  24.421  28.512  1.00  0.00    -0.203 F 
ATOM     64  C   UNL A   1      42.554  24.204  26.510  1.00  0.00     0.198 A 
ATOM     65  C   UNL A   1      43.975  25.991  25.768  1.00  0.00     0.198 A 
ATOM     66  F   UNL A   1      44.179  27.948  27.057  1.00  0.00    -0.203 F 
ATOM     67  F   UNL A   1      42.047  22.975  26.338  1.00  0.00    -0.200 F 
ATOM     68  C   UNL A   1      43.435  24.728  25.575  1.00  0.00     0.200 A 
ATOM     69  F   UNL A   1      44.816  26.503  24.858  1.00  0.00    -0.200 F 
ATOM     70  F   UNL A   1      43.766  24.013  24.490  1.00  0.00    -0.200 F 
ENDBRANCH  46  60
BRANCH  47  71
ATOM     71  C   UNL A   1      39.563  31.937  35.457  1.00  0.00     0.064 A 
ATOM     72  C   UNL A   1      39.995  33.266  35.568  1.00  0.00     0.173 A 
ATOM     73  C   UNL A   1      38.634  31.472  36.400  1.00  0.00     0.173 A 
ATOM     74  F   UNL A   1      40.895  33.750  34.700  1.00  0.00    -0.203 F 
ATOM     75  C   UNL A   1      39.517  34.097  36.579  1.00  0.00     0.198 A 
ATOM     76  C   UNL A   1      38.138  32.311  37.395  1.00  0.00     0.198 A 
ATOM     77  F   UNL A   1      38.184  30.211  36.334  1.00  0.00    -0.203 F 
ATOM     78  F   UNL A   1      39.963  35.356  36.673  1.00  0.00    -0.200 F 
ATOM     79  C   UNL A   1      38.581  33.622  37.486  1.00  0.00     0.200 A 
ATOM     80  F   UNL A   1      37.221  31.854  38.260  1.00  0.00    -0.200 F 
ATOM     81  F   UNL A   1      38.108  34.428  38.446  1.00  0.00    -0.200 F 
ENDBRANCH  47  71
BRANCH  59  82
ATOM     82  C   UNL A   1      45.028  27.687  34.508  1.00  0.00     0.064 A 
ATOM     83  C   UNL A   1      46.189  28.469  34.577  1.00  0.00     0.173 A 
ATOM     84  C   UNL A   1      44.928  26.574  35.354  1.00  0.00     0.173 A 
ATOM     85  F   UNL A   1      46.333  29.536  33.777  1.00  0.00    -0.203 F 
ATOM     86  C   UNL A   1      47.210  28.148  35.465  1.00  0.00     0.198 A 
ATOM     87  C   UNL A   1      45.940  26.270  36.257  1.00  0.00     0.198 A 
ATOM     88  F   UNL A   1      43.831  25.799  35.326  1.00  0.00    -0.203 F 
ATOM     89  F   UNL A   1      48.322  28.896  35.503  1.00  0.00    -0.200 F 
ATOM     90  C   UNL A   1      47.080  27.057  36.312  1.00  0.00     0.200 A 
ATOM     91  F   UNL A   1      45.806  25.225  37.086  1.00  0.00    -0.200 F 
ATOM     92  F   UNL A   1      48.056  26.764  37.183  1.00  0.00    -0.200 F 
ENDBRANCH  59  82
ENDBRANCH  33  34
ENDBRANCH  26  28
ENDBRANCH  25  26
ENDBRANCH   1  25
TORSDOF 12
ENDMDL
MODEL 3
REMARK VINA RESULT:     -12.9      1.259      2.319
REMARK SMILES Cc1cccc2c1N=CN1C2=[NH+]NC(=O)[C@@H]1CC(=O)OCCOC(=O)c1ccc(-c2c3nc(c(-c4c(F)c(F)c(F)c(F)c4F)c4ccc([nH]4)c(-c4c(F)c(F)c(F)c(F)c4F)c4nc(c(-c5c(F)c(F)c(F)c(F)c5F)c5ccc2[nH]5)C=C4)C=C3)cc1
REMARK SMILES IDX 22 1 21 2 20 3 18 4 19 5 17 6 16 7 1 8 2 9 3 10 7 11 4 12
REMARK SMILES IDX 6 13 8 14 5 15 11 16 9 17 10 18 12 19 13 20 14 22 15 24
REMARK SMILES IDX 23 25 24 26 25 27 26 28 27 29 88 30 28 31 87 32 29 33 30 34
REMARK SMILES IDX 31 35 81 36 32 37 86 38 80 39 82 40 33 41 85 42 79 43 78 44
REMARK SMILES IDX 34 46 66 47 46 48 65 49 47 50 50 51 64 52 83 53 48 54 49 55
REMARK SMILES IDX 63 57 84 58 51 59 35 60 36 61 44 62 37 63 38 64 42 65 45 66
REMARK SMILES IDX 39 67 40 68 43 69 41 70 67 71 68 72 76 73 69 74 70 75 74 76
REMARK SMILES IDX 77 77 71 78 72 79 75 80 73 81 52 82 53 83 61 84 54 85 55 86
REMARK SMILES IDX 59 87 62 88 56 89 57 90 60 91 58 92
REMARK H PARENT 12 21 13 23 82 45 50 56
REMARK Flexibility Score: inf
ROOT
ATOM      1  C   UNL A   1      31.819  30.135  25.634  1.00  0.00     0.275 C 
ENDROOT
BRANCH   1   2
ATOM      2  C   UNL A   1      32.311  29.170  24.560  1.00  0.00     0.274 C 
BRANCH   2   3
ATOM      3  O   UNL A   1      31.436  29.273  23.414  1.00  0.00    -0.462 OA
BRANCH   3   4
ATOM      4  C   UNL A   1      31.202  28.105  22.772  1.00  0.00     0.310 C 
ATOM      5  O   UNL A   1      30.252  27.896  22.022  1.00  0.00    -0.252 OA
BRANCH   4   6
ATOM      6  C   UNL A   1      32.255  27.050  22.982  1.00  0.00     0.183 C 
BRANCH   6   7
ATOM      7  C   UNL A   1      31.983  25.616  22.540  1.00  0.00     0.286 C 
ATOM      8  C   UNL A   1      32.937  22.508  28.059  1.00  0.00     0.047 C 
ATOM      9  C   UNL A   1      33.111  22.058  26.636  1.00  0.00    -0.024 A 
ATOM     10  C   UNL A   1      33.857  20.898  26.358  1.00  0.00     0.006 A 
ATOM     11  C   UNL A   1      32.553  22.793  25.578  1.00  0.00     0.085 A 
ATOM     12  C   UNL A   1      34.038  20.454  25.048  1.00  0.00     0.001 A 
ATOM     13  C   UNL A   1      32.791  22.353  24.262  1.00  0.00     0.092 A 
ATOM     14  N   UNL A   1      31.848  23.988  25.861  1.00  0.00    -0.215 NA
ATOM     15  C   UNL A   1      33.494  21.175  23.993  1.00  0.00     0.019 A 
ATOM     16  C   UNL A   1      32.523  23.325  23.166  1.00  0.00     0.309 C 
ATOM     17  C   UNL A   1      31.687  24.799  24.868  1.00  0.00     0.317 C 
ATOM     18  N   UNL A   1      32.103  24.586  23.574  1.00  0.00    -0.202 N 
ATOM     19  N   UNL A   1      32.789  22.955  21.946  1.00  0.00    -0.169 N 
ATOM     20  N   UNL A   1      32.849  23.925  21.001  1.00  0.00    -0.193 N 
ATOM     21  H   UNL A   1      32.940  22.009  21.721  1.00  0.00     0.340 HD
ATOM     22  C   UNL A   1      32.783  25.267  21.288  1.00  0.00     0.300 C 
ATOM     23  H   UNL A   1      32.946  23.654  20.059  1.00  0.00     0.216 HD
ATOM     24  O   UNL A   1      33.235  26.112  20.519  1.00  0.00    -0.267 OA
ENDBRANCH   6   7
ENDBRANCH   4   6
ENDBRANCH   3   4
ENDBRANCH   2   3
ENDBRANCH   1   2
BRANCH   1  25
ATOM     25  O   UNL A   1      32.688  30.040  26.777  1.00  0.00    -0.458 OA
BRANCH  25  26
ATOM     26  C   UNL A   1      33.195  31.220  27.204  1.00  0.00     0.338 C 
ATOM     27  O   UNL A   1      32.684  32.319  27.066  1.00  0.00    -0.246 OA
BRANCH  26  28
ATOM     28  C   UNL A   1      34.554  31.017  27.764  1.00  0.00     0.060 A 
ATOM     29  C   UNL A   1      35.478  32.055  27.947  1.00  0.00     0.016 A 
ATOM     30  C   UNL A   1      34.881  29.716  28.152  1.00  0.00     0.016 A 
ATOM     31  C   UNL A   1      36.718  31.789  28.537  1.00  0.00     0.010 A 
ATOM     32  C   UNL A   1      36.092  29.462  28.788  1.00  0.00     0.010 A 
ATOM     33  C   UNL A   1      37.014  30.496  28.994  1.00  0.00    -0.014 A 
BRANCH  33  34
ATOM     34  C   UNL A   1      38.238  30.202  29.776  1.00  0.00     0.031 A 
ATOM     35  C   UNL A   1      39.264  29.250  29.244  1.00  0.00     0.074 A 
ATOM     36  C   UNL A   1      38.344  30.712  31.018  1.00  0.00     0.049 A 
ATOM     37  N   UNL A   1      40.331  28.771  29.832  1.00  0.00    -0.248 NA
ATOM     38  C   UNL A   1      39.058  28.753  27.874  1.00  0.00     0.031 C 
ATOM     39  C   UNL A   1      37.377  31.619  31.638  1.00  0.00     0.029 A 
ATOM     40  N   UNL A   1      39.293  30.524  31.989  1.00  0.00    -0.354 N 
ATOM     41  C   UNL A   1      40.920  27.919  28.908  1.00  0.00     0.074 A 
ATOM     42  C   UNL A   1      40.074  27.912  27.734  1.00  0.00     0.031 C 
ATOM     43  C   UNL A   1      37.787  31.919  32.880  1.00  0.00     0.029 A 
ATOM     44  C   UNL A   1      39.023  31.193  33.157  1.00  0.00     0.049 A 
ATOM     45  H   UNL A   1      40.093  29.964  31.861  1.00  0.00     0.167 HD
ATOM     46  C   UNL A   1      42.073  27.220  29.033  1.00  0.00     0.037 A 
ATOM     47  C   UNL A   1      39.690  31.208  34.326  1.00  0.00     0.037 A 
ATOM     48  C   UNL A   1      42.896  27.235  30.214  1.00  0.00     0.049 A 
ATOM     49  C   UNL A   1      40.948  30.394  34.450  1.00  0.00     0.074 A 
ATOM     50  C   UNL A   1      44.098  26.587  30.436  1.00  0.00     0.029 A 
ATOM     51  N   UNL A   1      42.594  27.932  31.375  1.00  0.00    -0.354 N 
ATOM     52  N   UNL A   1      41.524  29.631  33.554  1.00  0.00    -0.248 NA
ATOM     53  C   UNL A   1      41.646  30.440  35.741  1.00  0.00     0.031 C 
ATOM     54  C   UNL A   1      44.502  26.858  31.747  1.00  0.00     0.029 A 
ATOM     55  C   UNL A   1      43.578  27.715  32.325  1.00  0.00     0.049 A 
ATOM     56  H   UNL A   1      41.799  28.498  31.504  1.00  0.00     0.167 HD
ATOM     57  C   UNL A   1      42.665  29.126  34.159  1.00  0.00     0.074 A 
ATOM     58  C   UNL A   1      42.702  29.674  35.500  1.00  0.00     0.031 C 
ATOM     59  C   UNL A   1      43.596  28.284  33.649  1.00  0.00     0.037 A 
BRANCH  46  60
ATOM     60  C   UNL A   1      42.521  26.391  27.865  1.00  0.00     0.064 A 
ATOM     61  C   UNL A   1      42.031  25.091  27.664  1.00  0.00     0.173 A 
ATOM     62  C   UNL A   1      43.394  26.918  26.902  1.00  0.00     0.173 A 
ATOM     63  F   UNL A   1      41.201  24.537  28.559  1.00  0.00    -0.203 F 
ATOM     64  C   UNL A   1      42.407  24.347  26.549  1.00  0.00     0.198 A 
ATOM     65  C   UNL A   1      43.750  26.180  25.775  1.00  0.00     0.198 A 
ATOM     66  F   UNL A   1      43.888  28.157  27.043  1.00  0.00    -0.203 F 
ATOM     67  F   UNL A   1      41.948  23.097  26.393  1.00  0.00    -0.200 F 
ATOM     68  C   UNL A   1      43.259  24.895  25.601  1.00  0.00     0.200 A 
ATOM     69  F   UNL A   1      44.563  26.715  24.853  1.00  0.00    -0.200 F 
ATOM     70  F   UNL A   1      43.608  24.183  24.520  1.00  0.00    -0.200 F 
ENDBRANCH  46  60
BRANCH  47  71
ATOM     71  C   UNL A   1      39.197  32.058  35.440  1.00  0.00     0.064 A 
ATOM     72  C   UNL A   1      38.401  31.510  36.455  1.00  0.00     0.173 A 
ATOM     73  C   UNL A   1      39.554  33.410  35.549  1.00  0.00     0.173 A 
ATOM     74  F   UNL A   1      38.019  30.227  36.385  1.00  0.00    -0.203 F 
ATOM     75  C   UNL A   1      37.979  32.283  37.535  1.00  0.00     0.198 A 
ATOM     76  C   UNL A   1      39.154  34.175  36.642  1.00  0.00     0.198 A 
ATOM     77  F   UNL A   1      40.321  33.980  34.608  1.00  0.00    -0.203 F 
ATOM     78  F   UNL A   1      37.201  31.739  38.480  1.00  0.00    -0.200 F 
ATOM     79  C   UNL A   1      38.364  33.611  37.634  1.00  0.00     0.200 A 
ATOM     80  F   UNL A   1      39.541  35.454  36.743  1.00  0.00    -0.200 F 
ATOM     81  F   UNL A   1      37.975  34.347  38.683  1.00  0.00    -0.200 F 
ENDBRANCH  47  71
BRANCH  59  82
ATOM     82  C   UNL A   1      44.753  27.919  34.529  1.00  0.00     0.064 A 
ATOM     83  C   UNL A   1      45.897  28.723  34.599  1.00  0.00     0.173 A 
ATOM     84  C   UNL A   1      44.671  26.807  35.380  1.00  0.00     0.173 A 
ATOM     85  F   UNL A   1      46.024  29.789  33.795  1.00  0.00    -0.203 F 
ATOM     86  C   UNL A   1      46.922  28.427  35.493  1.00  0.00     0.198 A 
ATOM     87  C   UNL A   1      45.686  26.527  36.289  1.00  0.00     0.198 A 
ATOM     88  F   UNL A   1      43.590  26.011  35.351  1.00  0.00    -0.203 F 
ATOM     89  F   UNL A   1      48.018  29.197  35.532  1.00  0.00    -0.200 F 
ATOM     90  C   UNL A   1      46.810  27.337  36.344  1.00  0.00     0.200 A 
ATOM     91  F   UNL A   1      45.569  25.484  37.121  1.00  0.00    -0.200 F 
ATOM     92  F   UNL A   1      47.788  27.067  37.220  1.00  0.00    -0.200 F 
ENDBRANCH  59  82
ENDBRANCH  33  34
ENDBRANCH  26  28
ENDBRANCH  25  26
ENDBRANCH   1  25
TORSDOF 12
ENDMDL
