MODEL 1
REMARK VINA RESULT:     -11.5      0.000      0.000
REMARK SMILES C[C@](Nc1ncc([N+](=O)[O-])cc1Br)(C(=O)OCCOC(=O)c1ccc(-c2c3nc(c(-c4c(F)c(F)c(F)c(F)c4F)c4ccc([nH]4)c(-c4c(F)c(F)c(F)c(F)c4F)c4nc(c(-c5c(F)c(F)c(F)c(F)c5F)c5ccc2[nH]5)C=C4)C=C3)cc1)C1CC1
REMARK SMILES IDX 17 1 16 2 14 3 15 4 2 5 1 6 85 7 86 8 87 9 3 10 4 12 5 13
REMARK SMILES IDX 12 14 6 15 11 16 13 17 7 18 8 19 9 20 10 21 18 22 19 23
REMARK SMILES IDX 20 24 21 25 22 26 23 27 84 28 24 29 83 30 25 31 26 32 27 33
REMARK SMILES IDX 77 34 28 35 82 36 76 37 78 38 29 39 81 40 75 41 74 42 30 44
REMARK SMILES IDX 62 45 42 46 61 47 43 48 46 49 60 50 79 51 44 52 45 53 59 55
REMARK SMILES IDX 80 56 47 57 31 58 32 59 40 60 33 61 34 62 38 63 41 64 35 65
REMARK SMILES IDX 36 66 39 67 37 68 63 69 64 70 72 71 65 72 66 73 70 74 73 75
REMARK SMILES IDX 67 76 68 77 71 78 69 79 48 80 49 81 57 82 50 83 51 84 55 85
REMARK SMILES IDX 58 86 52 87 53 88 56 89 54 90
REMARK H PARENT 3 11 78 43 46 54
REMARK Flexibility Score: inf
ROOT
ATOM      1  C   UNL A   1      31.723  28.720  27.296  1.00  0.00     0.274 C 
ENDROOT
BRANCH   1   2
ATOM      2  O   UNL A   1      32.350  27.566  26.696  1.00  0.00    -0.460 OA
BRANCH   2   3
ATOM      3  C   UNL A   1      31.516  26.520  26.406  1.00  0.00     0.331 C 
ATOM      4  O   UNL A   1      30.449  26.309  26.979  1.00  0.00    -0.249 OA
BRANCH   3   5
ATOM      5  C   UNL A   1      32.115  25.552  25.318  1.00  0.00     0.137 C 
ATOM      6  C   UNL A   1      33.632  25.683  25.585  1.00  0.00     0.047 C 
BRANCH   5   7
ATOM      7  C   UNL A   1      31.564  24.144  25.576  1.00  0.00     0.026 C 
ATOM      8  C   UNL A   1      31.310  23.181  24.425  1.00  0.00     0.007 C 
ATOM      9  C   UNL A   1      32.360  22.854  25.429  1.00  0.00     0.007 C 
ENDBRANCH   5   7
BRANCH   5  10
ATOM     10  N   UNL A   1      31.752  26.015  23.978  1.00  0.00    -0.354 N 
ATOM     11  H   UNL A   1      32.098  25.419  23.276  1.00  0.00     0.163 HD
BRANCH  10  12
ATOM     12  C   UNL A   1      31.059  27.058  23.464  1.00  0.00     0.141 A 
ATOM     13  N   UNL A   1      29.731  26.769  23.490  1.00  0.00    -0.231 NA
ATOM     14  C   UNL A   1      31.498  28.293  22.959  1.00  0.00     0.067 A 
ATOM     15  C   UNL A   1      28.830  27.692  23.078  1.00  0.00     0.199 A 
ATOM     16  C   UNL A   1      30.551  29.243  22.548  1.00  0.00     0.106 A 
ATOM     17  Br  UNL A   1      33.300  28.845  22.694  1.00  0.00    -0.047 Br
ATOM     18  C   UNL A   1      29.198  28.937  22.622  1.00  0.00     0.288 A 
BRANCH  18  19
ATOM     19  N   UNL A   1      28.185  29.901  22.230  1.00  0.00     0.064 N 
ATOM     20  O   UNL A   1      28.179  30.284  21.053  1.00  0.00    -0.258 OA
ATOM     21  O   UNL A   1      27.384  30.274  23.098  1.00  0.00    -0.258 OA
ENDBRANCH  18  19
ENDBRANCH  10  12
ENDBRANCH   5  10
ENDBRANCH   3   5
ENDBRANCH   2   3
ENDBRANCH   1   2
BRANCH   1  22
ATOM     22  C   UNL A   1      31.673  29.895  26.324  1.00  0.00     0.275 C 
BRANCH  22  23
ATOM     23  O   UNL A   1      32.997  30.428  26.164  1.00  0.00    -0.458 OA
BRANCH  23  24
ATOM     24  C   UNL A   1      33.376  31.359  27.067  1.00  0.00     0.338 C 
ATOM     25  O   UNL A   1      32.729  32.321  27.446  1.00  0.00    -0.246 OA
BRANCH  24  26
ATOM     26  C   UNL A   1      34.724  31.037  27.588  1.00  0.00     0.060 A 
ATOM     27  C   UNL A   1      35.093  29.717  27.842  1.00  0.00     0.016 A 
ATOM     28  C   UNL A   1      35.588  32.072  27.948  1.00  0.00     0.016 A 
ATOM     29  C   UNL A   1      36.257  29.436  28.553  1.00  0.00     0.010 A 
ATOM     30  C   UNL A   1      36.809  31.780  28.571  1.00  0.00     0.010 A 
ATOM     31  C   UNL A   1      37.138  30.460  28.925  1.00  0.00    -0.014 A 
BRANCH  31  32
ATOM     32  C   UNL A   1      38.349  30.155  29.741  1.00  0.00     0.031 A 
ATOM     33  C   UNL A   1      39.480  29.352  29.149  1.00  0.00     0.074 A 
ATOM     34  C   UNL A   1      38.475  30.630  30.998  1.00  0.00     0.049 A 
ATOM     35  N   UNL A   1      40.504  28.798  29.748  1.00  0.00    -0.248 NA
ATOM     36  C   UNL A   1      39.449  29.131  27.695  1.00  0.00     0.031 C 
ATOM     37  C   UNL A   1      37.500  31.471  31.692  1.00  0.00     0.029 A 
ATOM     38  N   UNL A   1      39.494  30.489  31.908  1.00  0.00    -0.354 N 
ATOM     39  C   UNL A   1      41.185  28.094  28.763  1.00  0.00     0.074 A 
ATOM     40  C   UNL A   1      40.476  28.311  27.521  1.00  0.00     0.031 C 
ATOM     41  C   UNL A   1      37.996  31.831  32.885  1.00  0.00     0.029 A 
ATOM     42  C   UNL A   1      39.275  31.159  33.088  1.00  0.00     0.049 A 
ATOM     43  H   UNL A   1      40.305  29.959  31.734  1.00  0.00     0.167 HD
ATOM     44  C   UNL A   1      42.293  27.325  28.891  1.00  0.00     0.037 A 
ATOM     45  C   UNL A   1      39.997  31.199  34.224  1.00  0.00     0.037 A 
ATOM     46  C   UNL A   1      43.048  27.181  30.109  1.00  0.00     0.049 A 
ATOM     47  C   UNL A   1      41.240  30.364  34.333  1.00  0.00     0.074 A 
ATOM     48  C   UNL A   1      44.174  26.411  30.345  1.00  0.00     0.029 A 
ATOM     49  N   UNL A   1      42.775  27.859  31.286  1.00  0.00    -0.354 N 
ATOM     50  N   UNL A   1      41.793  29.585  33.437  1.00  0.00    -0.248 NA
ATOM     51  C   UNL A   1      41.935  30.381  35.628  1.00  0.00     0.031 C 
ATOM     52  C   UNL A   1      44.576  26.616  31.669  1.00  0.00     0.029 A 
ATOM     53  C   UNL A   1      43.717  27.533  32.248  1.00  0.00     0.049 A 
ATOM     54  H   UNL A   1      42.023  28.481  31.419  1.00  0.00     0.167 HD
ATOM     55  C   UNL A   1      42.887  29.005  34.061  1.00  0.00     0.074 A 
ATOM     56  C   UNL A   1      42.946  29.554  35.401  1.00  0.00     0.031 C 
ATOM     57  C   UNL A   1      43.751  28.081  33.578  1.00  0.00     0.037 A 
BRANCH  44  58
ATOM     58  C   UNL A   1      42.743  26.541  27.694  1.00  0.00     0.064 A 
ATOM     59  C   UNL A   1      43.688  27.041  26.790  1.00  0.00     0.173 A 
ATOM     60  C   UNL A   1      42.254  25.241  27.487  1.00  0.00     0.173 A 
ATOM     61  F   UNL A   1      44.172  28.283  26.937  1.00  0.00    -0.203 F 
ATOM     62  C   UNL A   1      44.124  26.269  25.715  1.00  0.00     0.198 A 
ATOM     63  C   UNL A   1      42.708  24.465  26.424  1.00  0.00     0.198 A 
ATOM     64  F   UNL A   1      41.349  24.717  28.327  1.00  0.00    -0.203 F 
ATOM     65  F   UNL A   1      45.010  26.776  24.845  1.00  0.00    -0.200 F 
ATOM     66  C   UNL A   1      43.640  24.982  25.537  1.00  0.00     0.200 A 
ATOM     67  F   UNL A   1      42.246  23.218  26.261  1.00  0.00    -0.200 F 
ATOM     68  F   UNL A   1      44.072  24.237  24.509  1.00  0.00    -0.200 F 
ENDBRANCH  44  58
BRANCH  45  69
ATOM     69  C   UNL A   1      39.527  32.018  35.370  1.00  0.00     0.064 A 
ATOM     70  C   UNL A   1      38.615  31.501  36.298  1.00  0.00     0.173 A 
ATOM     71  C   UNL A   1      39.990  33.327  35.568  1.00  0.00     0.173 A 
ATOM     72  F   UNL A   1      38.121  30.264  36.133  1.00  0.00    -0.203 F 
ATOM     73  C   UNL A   1      38.181  32.262  37.381  1.00  0.00     0.198 A 
ATOM     74  C   UNL A   1      39.579  34.077  36.667  1.00  0.00     0.198 A 
ATOM     75  F   UNL A   1      40.862  33.869  34.705  1.00  0.00    -0.203 F 
ATOM     76  F   UNL A   1      37.281  31.757  38.235  1.00  0.00    -0.200 F 
ATOM     77  C   UNL A   1      38.671  33.546  37.570  1.00  0.00     0.200 A 
ATOM     78  F   UNL A   1      40.066  35.311  36.853  1.00  0.00    -0.200 F 
ATOM     79  F   UNL A   1      38.264  34.274  38.619  1.00  0.00    -0.200 F 
ENDBRANCH  45  69
BRANCH  57  80
ATOM     80  C   UNL A   1      44.822  27.605  34.509  1.00  0.00     0.064 A 
ATOM     81  C   UNL A   1      44.625  26.480  35.322  1.00  0.00     0.173 A 
ATOM     82  C   UNL A   1      46.055  28.266  34.579  1.00  0.00     0.173 A 
ATOM     83  F   UNL A   1      43.455  25.827  35.300  1.00  0.00    -0.203 F 
ATOM     84  C   UNL A   1      45.622  26.047  36.193  1.00  0.00     0.198 A 
ATOM     85  C   UNL A   1      47.056  27.819  35.437  1.00  0.00     0.198 A 
ATOM     86  F   UNL A   1      46.289  29.346  33.817  1.00  0.00    -0.203 F 
ATOM     87  F   UNL A   1      45.398  24.994  36.993  1.00  0.00    -0.200 F 
ATOM     88  C   UNL A   1      46.836  26.715  36.248  1.00  0.00     0.200 A 
ATOM     89  F   UNL A   1      48.231  28.462  35.488  1.00  0.00    -0.200 F 
ATOM     90  F   UNL A   1      47.791  26.300  37.091  1.00  0.00    -0.200 F 
ENDBRANCH  57  80
ENDBRANCH  31  32
ENDBRANCH  24  26
ENDBRANCH  23  24
ENDBRANCH  22  23
ENDBRANCH   1  22
TORSDOF 15
ENDMDL
MODEL 2
REMARK VINA RESULT:     -11.4      5.134     10.125
REMARK SMILES C[C@](Nc1ncc([N+](=O)[O-])cc1Br)(C(=O)OCCOC(=O)c1ccc(-c2c3nc(c(-c4c(F)c(F)c(F)c(F)c4F)c4ccc([nH]4)c(-c4c(F)c(F)c(F)c(F)c4F)c4nc(c(-c5c(F)c(F)c(F)c(F)c5F)c5ccc2[nH]5)C=C4)C=C3)cc1)C1CC1
REMARK SMILES IDX 17 1 16 2 14 3 15 4 2 5 1 6 85 7 86 8 87 9 3 10 4 12 5 13
REMARK SMILES IDX 12 14 6 15 11 16 13 17 7 18 8 19 9 20 10 21 18 22 19 23
REMARK SMILES IDX 20 24 21 25 22 26 23 27 84 28 24 29 83 30 25 31 26 32 27 33
REMARK SMILES IDX 77 34 28 35 82 36 76 37 78 38 29 39 81 40 75 41 74 42 30 44
REMARK SMILES IDX 62 45 42 46 61 47 43 48 46 49 60 50 79 51 44 52 45 53 59 55
REMARK SMILES IDX 80 56 47 57 31 58 32 59 40 60 33 61 34 62 38 63 41 64 35 65
REMARK SMILES IDX 36 66 39 67 37 68 63 69 64 70 72 71 65 72 66 73 70 74 73 75
REMARK SMILES IDX 67 76 68 77 71 78 69 79 48 80 49 81 57 82 50 83 51 84 55 85
REMARK SMILES IDX 58 86 52 87 53 88 56 89 54 90
REMARK H PARENT 3 11 78 43 46 54
REMARK Flexibility Score: inf
ROOT
ATOM      1  C   UNL A   1      35.660  20.735  25.368  1.00  0.00     0.274 C 
ENDROOT
BRANCH   1   2
ATOM      2  O   UNL A   1      35.229  21.913  26.082  1.00  0.00    -0.460 OA
BRANCH   2   3
ATOM      3  C   UNL A   1      34.207  22.617  25.504  1.00  0.00     0.331 C 
ATOM      4  O   UNL A   1      34.340  23.341  24.519  1.00  0.00    -0.249 OA
BRANCH   3   5
ATOM      5  C   UNL A   1      32.853  22.479  26.295  1.00  0.00     0.137 C 
ATOM      6  C   UNL A   1      33.354  22.354  27.752  1.00  0.00     0.047 C 
BRANCH   5   7
ATOM      7  C   UNL A   1      32.018  23.739  26.037  1.00  0.00     0.026 C 
ATOM      8  C   UNL A   1      30.867  23.725  25.041  1.00  0.00     0.007 C 
ATOM      9  C   UNL A   1      30.577  23.940  26.486  1.00  0.00     0.007 C 
ENDBRANCH   5   7
BRANCH   5  10
ATOM     10  N   UNL A   1      32.135  21.281  25.858  1.00  0.00    -0.354 N 
ATOM     11  H   UNL A   1      31.189  21.300  26.125  1.00  0.00     0.163 HD
BRANCH  10  12
ATOM     12  C   UNL A   1      32.448  20.153  25.177  1.00  0.00     0.141 A 
ATOM     13  N   UNL A   1      32.792  19.179  26.060  1.00  0.00    -0.231 NA
ATOM     14  C   UNL A   1      32.455  19.885  23.798  1.00  0.00     0.067 A 
ATOM     15  C   UNL A   1      33.089  17.935  25.613  1.00  0.00     0.199 A 
ATOM     16  C   UNL A   1      32.753  18.588  23.352  1.00  0.00     0.106 A 
ATOM     17  Br  UNL A   1      32.155  21.128  22.390  1.00  0.00    -0.047 Br
ATOM     18  C   UNL A   1      33.063  17.601  24.278  1.00  0.00     0.288 A 
BRANCH  18  19
ATOM     19  N   UNL A   1      33.353  16.240  23.860  1.00  0.00     0.064 N 
ATOM     20  O   UNL A   1      32.902  15.317  24.549  1.00  0.00    -0.258 OA
ATOM     21  O   UNL A   1      34.028  16.090  22.832  1.00  0.00    -0.258 OA
ENDBRANCH  18  19
ENDBRANCH  10  12
ENDBRANCH   5  10
ENDBRANCH   3   5
ENDBRANCH   2   3
ENDBRANCH   1   2
BRANCH   1  22
ATOM     22  C   UNL A   1      37.084  20.891  24.843  1.00  0.00     0.275 C 
BRANCH  22  23
ATOM     23  O   UNL A   1      37.718  21.985  25.525  1.00  0.00    -0.458 OA
BRANCH  23  24
ATOM     24  C   UNL A   1      38.894  21.707  26.131  1.00  0.00     0.338 C 
ATOM     25  O   UNL A   1      39.450  20.623  26.190  1.00  0.00    -0.246 OA
BRANCH  24  26
ATOM     26  C   UNL A   1      39.465  22.942  26.713  1.00  0.00     0.060 A 
ATOM     27  C   UNL A   1      38.996  24.196  26.327  1.00  0.00     0.016 A 
ATOM     28  C   UNL A   1      40.570  22.855  27.562  1.00  0.00     0.016 A 
ATOM     29  C   UNL A   1      39.689  25.349  26.686  1.00  0.00     0.010 A 
ATOM     30  C   UNL A   1      41.204  24.023  28.006  1.00  0.00     0.010 A 
ATOM     31  C   UNL A   1      40.801  25.284  27.535  1.00  0.00    -0.014 A 
BRANCH  31  32
ATOM     32  C   UNL A   1      41.575  26.517  27.863  1.00  0.00     0.031 A 
ATOM     33  C   UNL A   1      40.969  27.581  28.742  1.00  0.00     0.074 A 
ATOM     34  C   UNL A   1      42.839  26.680  27.420  1.00  0.00     0.049 A 
ATOM     35  N   UNL A   1      41.378  28.806  28.963  1.00  0.00    -0.248 NA
ATOM     36  C   UNL A   1      39.733  27.228  29.460  1.00  0.00     0.031 C 
ATOM     37  C   UNL A   1      43.589  25.718  26.611  1.00  0.00     0.029 A 
ATOM     38  N   UNL A   1      43.728  27.710  27.611  1.00  0.00    -0.354 N 
ATOM     39  C   UNL A   1      40.409  29.392  29.767  1.00  0.00     0.074 A 
ATOM     40  C   UNL A   1      39.403  28.383  30.021  1.00  0.00     0.031 C 
ATOM     41  C   UNL A   1      44.840  26.166  26.438  1.00  0.00     0.029 A 
ATOM     42  C   UNL A   1      44.953  27.496  27.027  1.00  0.00     0.049 A 
ATOM     43  H   UNL A   1      43.509  28.525  28.118  1.00  0.00     0.167 HD
ATOM     44  C   UNL A   1      40.359  30.662  30.236  1.00  0.00     0.037 A 
ATOM     45  C   UNL A   1      46.035  28.292  26.936  1.00  0.00     0.037 A 
ATOM     46  C   UNL A   1      41.403  31.637  30.058  1.00  0.00     0.049 A 
ATOM     47  C   UNL A   1      45.969  29.685  27.493  1.00  0.00     0.074 A 
ATOM     48  C   UNL A   1      41.438  32.956  30.479  1.00  0.00     0.029 A 
ATOM     49  N   UNL A   1      42.616  31.384  29.438  1.00  0.00    -0.354 N 
ATOM     50  N   UNL A   1      44.987  30.277  28.125  1.00  0.00    -0.248 NA
ATOM     51  C   UNL A   1      47.150  30.536  27.285  1.00  0.00     0.031 C 
ATOM     52  C   UNL A   1      42.671  33.503  30.105  1.00  0.00     0.029 A 
ATOM     53  C   UNL A   1      43.411  32.518  29.475  1.00  0.00     0.049 A 
ATOM     54  H   UNL A   1      42.875  30.525  29.032  1.00  0.00     0.167 HD
ATOM     55  C   UNL A   1      45.419  31.571  28.373  1.00  0.00     0.074 A 
ATOM     56  C   UNL A   1      46.771  31.668  27.862  1.00  0.00     0.031 C 
ATOM     57  C   UNL A   1      44.748  32.596  28.950  1.00  0.00     0.037 A 
BRANCH  44  58
ATOM     58  C   UNL A   1      39.117  31.092  30.959  1.00  0.00     0.064 A 
ATOM     59  C   UNL A   1      38.010  31.621  30.285  1.00  0.00     0.173 A 
ATOM     60  C   UNL A   1      39.021  30.913  32.349  1.00  0.00     0.173 A 
ATOM     61  F   UNL A   1      38.060  31.826  28.960  1.00  0.00    -0.203 F 
ATOM     62  C   UNL A   1      36.851  31.965  30.978  1.00  0.00     0.198 A 
ATOM     63  C   UNL A   1      37.854  31.237  33.034  1.00  0.00     0.198 A 
ATOM     64  F   UNL A   1      40.053  30.407  33.039  1.00  0.00    -0.203 F 
ATOM     65  F   UNL A   1      35.811  32.496  30.318  1.00  0.00    -0.200 F 
ATOM     66  C   UNL A   1      36.771  31.766  32.348  1.00  0.00     0.200 A 
ATOM     67  F   UNL A   1      37.776  31.034  34.357  1.00  0.00    -0.200 F 
ATOM     68  F   UNL A   1      35.649  32.086  33.010  1.00  0.00    -0.200 F 
ENDBRANCH  44  58
BRANCH  45  69
ATOM     69  C   UNL A   1      47.254  27.807  26.240  1.00  0.00     0.064 A 
ATOM     70  C   UNL A   1      48.302  27.214  26.955  1.00  0.00     0.173 A 
ATOM     71  C   UNL A   1      47.388  27.913  24.848  1.00  0.00     0.173 A 
ATOM     72  F   UNL A   1      48.231  27.119  28.292  1.00  0.00    -0.203 F 
ATOM     73  C   UNL A   1      49.442  26.747  26.305  1.00  0.00     0.198 A 
ATOM     74  C   UNL A   1      48.515  27.418  24.195  1.00  0.00     0.198 A 
ATOM     75  F   UNL A   1      46.413  28.475  24.119  1.00  0.00    -0.203 F 
ATOM     76  F   UNL A   1      50.446  26.216  27.015  1.00  0.00    -0.200 F 
ATOM     77  C   UNL A   1      49.542  26.840  24.924  1.00  0.00     0.200 A 
ATOM     78  F   UNL A   1      48.601  27.497  22.861  1.00  0.00    -0.200 F 
ATOM     79  F   UNL A   1      50.633  26.378  24.297  1.00  0.00    -0.200 F 
ENDBRANCH  45  69
BRANCH  57  80
ATOM     80  C   UNL A   1      45.467  33.906  29.046  1.00  0.00     0.064 A 
ATOM     81  C   UNL A   1      46.266  34.211  30.158  1.00  0.00     0.173 A 
ATOM     82  C   UNL A   1      45.371  34.853  28.019  1.00  0.00     0.173 A 
ATOM     83  F   UNL A   1      46.374  33.340  31.172  1.00  0.00    -0.203 F 
ATOM     84  C   UNL A   1      46.926  35.434  30.247  1.00  0.00     0.198 A 
ATOM     85  C   UNL A   1      46.047  36.067  28.103  1.00  0.00     0.198 A 
ATOM     86  F   UNL A   1      44.620  34.603  26.935  1.00  0.00    -0.203 F 
ATOM     87  F   UNL A   1      47.651  35.723  31.336  1.00  0.00    -0.200 F 
ATOM     88  C   UNL A   1      46.818  36.359  29.218  1.00  0.00     0.200 A 
ATOM     89  F   UNL A   1      45.946  36.960  27.108  1.00  0.00    -0.200 F 
ATOM     90  F   UNL A   1      47.450  37.537  29.309  1.00  0.00    -0.200 F 
ENDBRANCH  57  80
ENDBRANCH  31  32
ENDBRANCH  24  26
ENDBRANCH  23  24
ENDBRANCH  22  23
ENDBRANCH   1  22
TORSDOF 15
ENDMDL
MODEL 3
REMARK VINA RESULT:     -11.4      4.708      9.843
REMARK SMILES C[C@](Nc1ncc([N+](=O)[O-])cc1Br)(C(=O)OCCOC(=O)c1ccc(-c2c3nc(c(-c4c(F)c(F)c(F)c(F)c4F)c4ccc([nH]4)c(-c4c(F)c(F)c(F)c(F)c4F)c4nc(c(-c5c(F)c(F)c(F)c(F)c5F)c5ccc2[nH]5)C=C4)C=C3)cc1)C1CC1
REMARK SMILES IDX 17 1 16 2 14 3 15 4 2 5 1 6 85 7 86 8 87 9 3 10 4 12 5 13
REMARK SMILES IDX 12 14 6 15 11 16 13 17 7 18 8 19 9 20 10 21 18 22 19 23
REMARK SMILES IDX 20 24 21 25 22 26 23 27 84 28 24 29 83 30 25 31 26 32 27 33
REMARK SMILES IDX 77 34 28 35 82 36 76 37 78 38 29 39 81 40 75 41 74 42 30 44
REMARK SMILES IDX 62 45 42 46 61 47 43 48 46 49 60 50 79 51 44 52 45 53 59 55
REMARK SMILES IDX 80 56 47 57 31 58 32 59 40 60 33 61 34 62 38 63 41 64 35 65
REMARK SMILES IDX 36 66 39 67 37 68 63 69 64 70 72 71 65 72 66 73 70 74 73 75
REMARK SMILES IDX 67 76 68 77 71 78 69 79 48 80 49 81 57 82 50 83 51 84 55 85
REMARK SMILES IDX 58 86 52 87 53 88 56 89 54 90
REMARK H PARENT 3 11 78 43 46 54
REMARK Flexibility Score: inf
ROOT
ATOM      1  C   UNL A   1      36.646  22.798  23.469  1.00  0.00     0.274 C 
ENDROOT
BRANCH   1   2
ATOM      2  O   UNL A   1      35.798  23.887  23.894  1.00  0.00    -0.460 OA
BRANCH   2   3
ATOM      3  C   UNL A   1      34.569  23.952  23.296  1.00  0.00     0.331 C 
ATOM      4  O   UNL A   1      34.351  23.623  22.132  1.00  0.00    -0.249 OA
BRANCH   3   5
ATOM      5  C   UNL A   1      33.473  24.586  24.231  1.00  0.00     0.137 C 
ATOM      6  C   UNL A   1      34.342  25.280  25.305  1.00  0.00     0.047 C 
BRANCH   5   7
ATOM      7  C   UNL A   1      32.636  25.561  23.393  1.00  0.00     0.026 C 
ATOM      8  C   UNL A   1      31.333  25.116  22.745  1.00  0.00     0.007 C 
ATOM      9  C   UNL A   1      31.297  26.150  23.816  1.00  0.00     0.007 C 
ENDBRANCH   5   7
BRANCH   5  10
ATOM     10  N   UNL A   1      32.630  23.535  24.803  1.00  0.00    -0.354 N 
ATOM     11  H   UNL A   1      31.768  23.886  25.121  1.00  0.00     0.163 HD
BRANCH  10  12
ATOM     12  C   UNL A   1      32.740  22.201  25.003  1.00  0.00     0.141 A 
ATOM     13  N   UNL A   1      32.260  21.545  23.913  1.00  0.00    -0.231 NA
ATOM     14  C   UNL A   1      33.248  21.474  26.092  1.00  0.00     0.067 A 
ATOM     15  C   UNL A   1      32.321  20.193  23.857  1.00  0.00     0.199 A 
ATOM     16  C   UNL A   1      33.316  20.075  26.013  1.00  0.00     0.106 A 
ATOM     17  Br  UNL A   1      33.829  22.175  27.763  1.00  0.00    -0.047 Br
ATOM     18  C   UNL A   1      32.854  19.431  24.871  1.00  0.00     0.288 A 
BRANCH  18  19
ATOM     19  N   UNL A   1      32.929  17.987  24.739  1.00  0.00     0.064 N 
ATOM     20  O   UNL A   1      33.887  17.514  24.115  1.00  0.00    -0.258 OA
ATOM     21  O   UNL A   1      32.032  17.317  25.269  1.00  0.00    -0.258 OA
ENDBRANCH  18  19
ENDBRANCH  10  12
ENDBRANCH   5  10
ENDBRANCH   3   5
ENDBRANCH   2   3
ENDBRANCH   1   2
BRANCH   1  22
ATOM     22  C   UNL A   1      36.442  21.561  24.339  1.00  0.00     0.275 C 
BRANCH  22  23
ATOM     23  O   UNL A   1      36.956  21.822  25.654  1.00  0.00    -0.458 OA
BRANCH  23  24
ATOM     24  C   UNL A   1      38.274  21.579  25.836  1.00  0.00     0.338 C 
ATOM     25  O   UNL A   1      38.889  20.581  25.502  1.00  0.00    -0.246 OA
BRANCH  24  26
ATOM     26  C   UNL A   1      38.914  22.741  26.493  1.00  0.00     0.060 A 
ATOM     27  C   UNL A   1      38.407  24.027  26.320  1.00  0.00     0.016 A 
ATOM     28  C   UNL A   1      40.111  22.564  27.189  1.00  0.00     0.016 A 
ATOM     29  C   UNL A   1      39.141  25.136  26.732  1.00  0.00     0.010 A 
ATOM     30  C   UNL A   1      40.797  23.676  27.694  1.00  0.00     0.010 A 
ATOM     31  C   UNL A   1      40.345  24.981  27.431  1.00  0.00    -0.014 A 
BRANCH  31  32
ATOM     32  C   UNL A   1      41.157  26.174  27.812  1.00  0.00     0.031 A 
ATOM     33  C   UNL A   1      40.581  27.220  28.733  1.00  0.00     0.074 A 
ATOM     34  C   UNL A   1      42.428  26.314  27.381  1.00  0.00     0.049 A 
ATOM     35  N   UNL A   1      41.028  28.420  29.006  1.00  0.00    -0.248 NA
ATOM     36  C   UNL A   1      39.330  26.877  29.430  1.00  0.00     0.031 C 
ATOM     37  C   UNL A   1      43.150  25.362  26.537  1.00  0.00     0.029 A 
ATOM     38  N   UNL A   1      43.348  27.306  27.619  1.00  0.00    -0.354 N 
ATOM     39  C   UNL A   1      40.073  29.003  29.829  1.00  0.00     0.074 A 
ATOM     40  C   UNL A   1      39.034  28.017  30.037  1.00  0.00     0.031 C 
ATOM     41  C   UNL A   1      44.417  25.777  26.387  1.00  0.00     0.029 A 
ATOM     42  C   UNL A   1      44.569  27.076  27.032  1.00  0.00     0.049 A 
ATOM     43  H   UNL A   1      43.152  28.106  28.158  1.00  0.00     0.167 HD
ATOM     44  C   UNL A   1      40.062  30.254  30.351  1.00  0.00     0.037 A 
ATOM     45  C   UNL A   1      45.676  27.841  26.978  1.00  0.00     0.037 A 
ATOM     46  C   UNL A   1      41.137  31.202  30.218  1.00  0.00     0.049 A 
ATOM     47  C   UNL A   1      45.652  29.211  27.592  1.00  0.00     0.074 A 
ATOM     48  C   UNL A   1      41.213  32.500  30.693  1.00  0.00     0.029 A 
ATOM     49  N   UNL A   1      42.345  30.935  29.593  1.00  0.00    -0.354 N 
ATOM     50  N   UNL A   1      44.686  29.807  28.244  1.00  0.00    -0.248 NA
ATOM     51  C   UNL A   1      46.861  30.031  27.424  1.00  0.00     0.031 C 
ATOM     52  C   UNL A   1      42.464  33.022  30.347  1.00  0.00     0.029 A 
ATOM     53  C   UNL A   1      43.176  32.040  29.680  1.00  0.00     0.049 A 
ATOM     54  H   UNL A   1      42.579  30.086  29.152  1.00  0.00     0.167 HD
ATOM     55  C   UNL A   1      45.158  31.075  28.547  1.00  0.00     0.074 A 
ATOM     56  C   UNL A   1      46.515  31.150  28.046  1.00  0.00     0.031 C 
ATOM     57  C   UNL A   1      44.517  32.097  29.164  1.00  0.00     0.037 A 
BRANCH  44  58
ATOM     58  C   UNL A   1      38.831  30.693  31.087  1.00  0.00     0.064 A 
ATOM     59  C   UNL A   1      38.738  30.636  32.483  1.00  0.00     0.173 A 
ATOM     60  C   UNL A   1      37.748  31.234  30.375  1.00  0.00     0.173 A 
ATOM     61  F   UNL A   1      39.740  30.113  33.205  1.00  0.00    -0.203 F 
ATOM     62  C   UNL A   1      37.601  31.099  33.142  1.00  0.00     0.198 A 
ATOM     63  C   UNL A   1      36.623  31.715  31.038  1.00  0.00     0.198 A 
ATOM     64  F   UNL A   1      37.790  31.313  29.037  1.00  0.00    -0.203 F 
ATOM     65  F   UNL A   1      37.521  31.011  34.477  1.00  0.00    -0.200 F 
ATOM     66  C   UNL A   1      36.549  31.644  32.421  1.00  0.00     0.200 A 
ATOM     67  F   UNL A   1      35.612  32.251  30.339  1.00  0.00    -0.200 F 
ATOM     68  F   UNL A   1      35.462  32.101  33.059  1.00  0.00    -0.200 F 
ENDBRANCH  44  58
BRANCH  45  69
ATOM     69  C   UNL A   1      46.882  27.346  26.267  1.00  0.00     0.064 A 
ATOM     70  C   UNL A   1      47.062  27.590  24.900  1.00  0.00     0.173 A 
ATOM     71  C   UNL A   1      47.884  26.632  26.942  1.00  0.00     0.173 A 
ATOM     72  F   UNL A   1      46.116  28.242  24.206  1.00  0.00    -0.203 F 
ATOM     73  C   UNL A   1      48.197  27.138  24.232  1.00  0.00     0.198 A 
ATOM     74  C   UNL A   1      49.033  26.206  26.280  1.00  0.00     0.198 A 
ATOM     75  F   UNL A   1      47.757  26.370  28.251  1.00  0.00    -0.203 F 
ATOM     76  F   UNL A   1      48.330  27.354  22.916  1.00  0.00    -0.200 F 
ATOM     77  C   UNL A   1      49.187  26.455  24.925  1.00  0.00     0.200 A 
ATOM     78  F   UNL A   1      49.992  25.560  26.956  1.00  0.00    -0.200 F 
ATOM     79  F   UNL A   1      50.286  26.031  24.285  1.00  0.00    -0.200 F 
ENDBRANCH  45  69
BRANCH  57  80
ATOM     80  C   UNL A   1      45.278  33.377  29.317  1.00  0.00     0.064 A 
ATOM     81  C   UNL A   1      45.202  34.384  28.344  1.00  0.00     0.173 A 
ATOM     82  C   UNL A   1      46.073  33.607  30.447  1.00  0.00     0.173 A 
ATOM     83  F   UNL A   1      44.466  34.200  27.238  1.00  0.00    -0.203 F 
ATOM     84  C   UNL A   1      45.919  35.569  28.487  1.00  0.00     0.198 A 
ATOM     85  C   UNL A   1      46.773  34.801  30.596  1.00  0.00     0.198 A 
ATOM     86  F   UNL A   1      46.173  32.673  31.406  1.00  0.00    -0.203 F 
ATOM     87  F   UNL A   1      45.866  36.501  27.525  1.00  0.00    -0.200 F 
ATOM     88  C   UNL A   1      46.700  35.777  29.614  1.00  0.00     0.200 A 
ATOM     89  F   UNL A   1      47.527  35.004  31.686  1.00  0.00    -0.200 F 
ATOM     90  F   UNL A   1      47.393  36.917  29.746  1.00  0.00    -0.200 F 
ENDBRANCH  57  80
ENDBRANCH  31  32
ENDBRANCH  24  26
ENDBRANCH  23  24
ENDBRANCH  22  23
ENDBRANCH   1  22
TORSDOF 15
ENDMDL
