MODEL 1
REMARK VINA RESULT:     -12.6      0.000      0.000
REMARK SMILES CC[C@]1(C(=O)OCCOC(=O)c2ccc(-c3c4nc(c(-c5c(F)c(F)c(F)c(F)c5F)c5ccc([nH]5)c(-c5c(F)c(F)c(F)c(F)c5F)c5nc(c(-c6c(F)c(F)c(F)c(F)c6F)c6ccc3[nH]6)C=C5)C=C4)cc2)CCCN(C(=O)c2csc(C)c2-c2ccccc2)C1
REMARK SMILES IDX 7 1 6 2 4 3 5 4 3 5 75 6 93 7 76 8 78 9 77 10 2 11 1 12
REMARK SMILES IDX 79 13 80 14 81 15 82 16 86 17 83 18 84 19 85 20 87 21 88 22
REMARK SMILES IDX 92 23 89 24 91 25 90 26 8 27 9 28 10 29 11 30 12 31 13 32
REMARK SMILES IDX 74 33 14 34 73 35 15 36 16 37 17 38 67 39 18 40 72 41 66 42
REMARK SMILES IDX 68 43 19 44 71 45 65 46 64 47 20 49 52 50 32 51 51 52 33 53
REMARK SMILES IDX 36 54 50 55 69 56 34 57 35 58 49 60 70 61 37 62 21 63 22 64
REMARK SMILES IDX 30 65 23 66 24 67 28 68 31 69 25 70 26 71 29 72 27 73 53 74
REMARK SMILES IDX 54 75 62 76 55 77 56 78 60 79 63 80 57 81 58 82 61 83 59 84
REMARK SMILES IDX 38 85 39 86 47 87 40 88 41 89 45 90 48 91 42 92 43 93 46 94
REMARK SMILES IDX 44 95
REMARK H PARENT 68 48 36 59
REMARK Flexibility Score: inf
ROOT
ATOM      1  C   UNL A   1      31.256  28.994  24.748  1.00  0.00     0.274 C 
ENDROOT
BRANCH   1   2
ATOM      2  O   UNL A   1      31.055  27.652  25.244  1.00  0.00    -0.462 OA
BRANCH   2   3
ATOM      3  C   UNL A   1      31.330  26.673  24.342  1.00  0.00     0.313 C 
ATOM      4  O   UNL A   1      31.095  26.767  23.142  1.00  0.00    -0.252 OA
BRANCH   3   5
ATOM      5  C   UNL A   1      31.844  25.379  24.974  1.00  0.00     0.085 C 
ATOM      6  C   UNL A   1      31.368  25.097  26.413  1.00  0.00     0.022 C 
ATOM      7  C   UNL A   1      31.205  24.295  24.080  1.00  0.00     0.138 C 
ATOM      8  C   UNL A   1      31.785  23.691  26.864  1.00  0.00     0.023 C 
ATOM      9  N   UNL A   1      31.622  22.954  24.474  1.00  0.00    -0.337 N 
ATOM     10  C   UNL A   1      31.376  22.592  25.874  1.00  0.00     0.120 C 
BRANCH   5  11
ATOM     11  C   UNL A   1      33.401  25.347  24.852  1.00  0.00     0.017 C 
ATOM     12  C   UNL A   1      34.137  26.342  25.746  1.00  0.00     0.005 C 
ENDBRANCH   5  11
BRANCH   9  13
ATOM     13  C   UNL A   1      32.173  22.149  23.470  1.00  0.00     0.255 C 
ATOM     14  O   UNL A   1      32.204  22.518  22.298  1.00  0.00    -0.269 OA
BRANCH  13  15
ATOM     15  C   UNL A   1      32.749  20.858  23.825  1.00  0.00     0.058 A 
ATOM     16  C   UNL A   1      32.152  19.641  23.561  1.00  0.00     0.079 A 
ATOM     17  C   UNL A   1      34.082  20.681  24.357  1.00  0.00     0.008 A 
ATOM     18  S   UNL A   1      33.130  18.318  24.009  1.00  0.00    -0.148 S 
ATOM     19  C   UNL A   1      34.412  19.343  24.508  1.00  0.00     0.010 A 
ATOM     20  C   UNL A   1      35.675  18.715  25.002  1.00  0.00     0.057 C 
BRANCH  17  21
ATOM     21  C   UNL A   1      35.013  21.755  24.701  1.00  0.00    -0.016 A 
ATOM     22  C   UNL A   1      35.136  22.188  26.027  1.00  0.00     0.009 A 
ATOM     23  C   UNL A   1      35.817  22.330  23.711  1.00  0.00     0.009 A 
ATOM     24  C   UNL A   1      36.045  23.197  26.354  1.00  0.00     0.001 A 
ATOM     25  C   UNL A   1      36.730  23.334  24.042  1.00  0.00     0.001 A 
ATOM     26  C   UNL A   1      36.841  23.769  25.363  1.00  0.00     0.000 A 
ENDBRANCH  17  21
ENDBRANCH  13  15
ENDBRANCH   9  13
ENDBRANCH   3   5
ENDBRANCH   2   3
ENDBRANCH   1   2
BRANCH   1  27
ATOM     27  C   UNL A   1      32.522  29.631  25.314  1.00  0.00     0.275 C 
BRANCH  27  28
ATOM     28  O   UNL A   1      32.347  29.951  26.706  1.00  0.00    -0.458 OA
BRANCH  28  29
ATOM     29  C   UNL A   1      32.968  31.072  27.127  1.00  0.00     0.338 C 
ATOM     30  O   UNL A   1      32.466  32.182  27.251  1.00  0.00    -0.246 OA
BRANCH  29  31
ATOM     31  C   UNL A   1      34.384  30.814  27.470  1.00  0.00     0.060 A 
ATOM     32  C   UNL A   1      34.901  29.521  27.508  1.00  0.00     0.016 A 
ATOM     33  C   UNL A   1      35.159  31.878  27.936  1.00  0.00     0.016 A 
ATOM     34  C   UNL A   1      36.114  29.271  28.158  1.00  0.00     0.010 A 
ATOM     35  C   UNL A   1      36.419  31.636  28.494  1.00  0.00     0.010 A 
ATOM     36  C   UNL A   1      36.879  30.321  28.684  1.00  0.00    -0.014 A 
BRANCH  36  37
ATOM     37  C   UNL A   1      38.079  30.065  29.537  1.00  0.00     0.031 A 
ATOM     38  C   UNL A   1      39.232  29.262  28.982  1.00  0.00     0.074 A 
ATOM     39  C   UNL A   1      38.183  30.557  30.787  1.00  0.00     0.049 A 
ATOM     40  N   UNL A   1      40.235  28.699  29.610  1.00  0.00    -0.248 NA
ATOM     41  C   UNL A   1      39.246  29.045  27.525  1.00  0.00     0.031 C 
ATOM     42  C   UNL A   1      37.200  31.406  31.456  1.00  0.00     0.029 A 
ATOM     43  N   UNL A   1      39.186  30.415  31.717  1.00  0.00    -0.354 N 
ATOM     44  C   UNL A   1      40.935  27.983  28.644  1.00  0.00     0.074 A 
ATOM     45  C   UNL A   1      40.263  28.207  27.383  1.00  0.00     0.031 C 
ATOM     46  C   UNL A   1      37.671  31.757  32.663  1.00  0.00     0.029 A 
ATOM     47  C   UNL A   1      38.945  31.083  32.892  1.00  0.00     0.049 A 
ATOM     48  H   UNL A   1      40.000  29.886  31.555  1.00  0.00     0.167 HD
ATOM     49  C   UNL A   1      42.027  27.198  28.802  1.00  0.00     0.037 A 
ATOM     50  C   UNL A   1      39.648  31.120  34.040  1.00  0.00     0.037 A 
ATOM     51  C   UNL A   1      42.760  27.057  30.032  1.00  0.00     0.049 A 
ATOM     52  C   UNL A   1      40.896  30.293  34.177  1.00  0.00     0.074 A 
ATOM     53  C   UNL A   1      43.868  26.270  30.298  1.00  0.00     0.029 A 
ATOM     54  N   UNL A   1      42.483  27.759  31.194  1.00  0.00    -0.354 N 
ATOM     55  N   UNL A   1      41.462  29.497  33.304  1.00  0.00    -0.248 NA
ATOM     56  C   UNL A   1      41.584  30.344  35.476  1.00  0.00     0.031 C 
ATOM     57  C   UNL A   1      44.261  26.498  31.622  1.00  0.00     0.029 A 
ATOM     58  C   UNL A   1      43.411  27.442  32.172  1.00  0.00     0.049 A 
ATOM     59  H   UNL A   1      41.736  28.391  31.307  1.00  0.00     0.167 HD
ATOM     60  C   UNL A   1      42.561  28.945  33.947  1.00  0.00     0.074 A 
ATOM     61  C   UNL A   1      42.605  29.523  35.274  1.00  0.00     0.031 C 
ATOM     62  C   UNL A   1      43.441  28.024  33.486  1.00  0.00     0.037 A 
BRANCH  49  63
ATOM     63  C   UNL A   1      42.479  26.392  27.621  1.00  0.00     0.064 A 
ATOM     64  C   UNL A   1      43.485  26.837  26.754  1.00  0.00     0.173 A 
ATOM     65  C   UNL A   1      41.915  25.128  27.382  1.00  0.00     0.173 A 
ATOM     66  F   UNL A   1      44.042  28.044  26.931  1.00  0.00    -0.203 F 
ATOM     67  C   UNL A   1      43.900  26.053  25.679  1.00  0.00     0.198 A 
ATOM     68  C   UNL A   1      42.348  24.338  26.321  1.00  0.00     0.198 A 
ATOM     69  F   UNL A   1      40.951  24.655  28.186  1.00  0.00    -0.203 F 
ATOM     70  F   UNL A   1      44.839  26.513  24.841  1.00  0.00    -0.200 F 
ATOM     71  C   UNL A   1      43.336  24.803  25.468  1.00  0.00     0.200 A 
ATOM     72  F   UNL A   1      41.809  23.126  26.125  1.00  0.00    -0.200 F 
ATOM     73  F   UNL A   1      43.743  24.048  24.437  1.00  0.00    -0.200 F 
ENDBRANCH  49  63
BRANCH  50  74
ATOM     74  C   UNL A   1      39.166  31.950  35.172  1.00  0.00     0.064 A 
ATOM     75  C   UNL A   1      39.432  33.326  35.215  1.00  0.00     0.173 A 
ATOM     76  C   UNL A   1      38.425  31.391  36.223  1.00  0.00     0.173 A 
ATOM     77  F   UNL A   1      40.163  33.897  34.246  1.00  0.00    -0.203 F 
ATOM     78  C   UNL A   1      38.977  34.111  36.272  1.00  0.00     0.198 A 
ATOM     79  C   UNL A   1      37.949  32.183  37.265  1.00  0.00     0.198 A 
ATOM     80  F   UNL A   1      38.149  30.079  36.226  1.00  0.00    -0.203 F 
ATOM     81  F   UNL A   1      39.274  35.417  36.308  1.00  0.00    -0.200 F 
ATOM     82  C   UNL A   1      38.229  33.541  37.291  1.00  0.00     0.200 A 
ATOM     83  F   UNL A   1      37.217  31.630  38.242  1.00  0.00    -0.200 F 
ATOM     84  F   UNL A   1      37.783  34.299  38.301  1.00  0.00    -0.200 F 
ENDBRANCH  50  74
BRANCH  62  85
ATOM     85  C   UNL A   1      44.527  27.593  34.423  1.00  0.00     0.064 A 
ATOM     86  C   UNL A   1      45.749  28.280  34.483  1.00  0.00     0.173 A 
ATOM     87  C   UNL A   1      44.340  26.498  35.277  1.00  0.00     0.173 A 
ATOM     88  F   UNL A   1      45.976  29.325  33.673  1.00  0.00    -0.203 F 
ATOM     89  C   UNL A   1      46.756  27.869  35.353  1.00  0.00     0.198 A 
ATOM     90  C   UNL A   1      45.343  26.101  36.157  1.00  0.00     0.198 A 
ATOM     91  F   UNL A   1      43.188  25.813  35.256  1.00  0.00    -0.203 F 
ATOM     92  F   UNL A   1      47.930  28.514  35.368  1.00  0.00    -0.200 F 
ATOM     93  C   UNL A   1      46.551  26.782  36.190  1.00  0.00     0.200 A 
ATOM     94  F   UNL A   1      45.144  25.053  36.969  1.00  0.00    -0.200 F 
ATOM     95  F   UNL A   1      47.523  26.384  37.022  1.00  0.00    -0.200 F 
ENDBRANCH  62  85
ENDBRANCH  36  37
ENDBRANCH  29  31
ENDBRANCH  28  29
ENDBRANCH  27  28
ENDBRANCH   1  27
TORSDOF 15
ENDMDL
MODEL 2
REMARK VINA RESULT:     -12.3      4.196      9.566
REMARK SMILES CC[C@]1(C(=O)OCCOC(=O)c2ccc(-c3c4nc(c(-c5c(F)c(F)c(F)c(F)c5F)c5ccc([nH]5)c(-c5c(F)c(F)c(F)c(F)c5F)c5nc(c(-c6c(F)c(F)c(F)c(F)c6F)c6ccc3[nH]6)C=C5)C=C4)cc2)CCCN(C(=O)c2csc(C)c2-c2ccccc2)C1
REMARK SMILES IDX 7 1 6 2 4 3 5 4 3 5 75 6 93 7 76 8 78 9 77 10 2 11 1 12
REMARK SMILES IDX 79 13 80 14 81 15 82 16 86 17 83 18 84 19 85 20 87 21 88 22
REMARK SMILES IDX 92 23 89 24 91 25 90 26 8 27 9 28 10 29 11 30 12 31 13 32
REMARK SMILES IDX 74 33 14 34 73 35 15 36 16 37 17 38 67 39 18 40 72 41 66 42
REMARK SMILES IDX 68 43 19 44 71 45 65 46 64 47 20 49 52 50 32 51 51 52 33 53
REMARK SMILES IDX 36 54 50 55 69 56 34 57 35 58 49 60 70 61 37 62 21 63 22 64
REMARK SMILES IDX 30 65 23 66 24 67 28 68 31 69 25 70 26 71 29 72 27 73 53 74
REMARK SMILES IDX 54 75 62 76 55 77 56 78 60 79 63 80 57 81 58 82 61 83 59 84
REMARK SMILES IDX 38 85 39 86 47 87 40 88 41 89 45 90 48 91 42 92 43 93 46 94
REMARK SMILES IDX 44 95
REMARK H PARENT 68 48 36 59
REMARK Flexibility Score: inf
ROOT
ATOM      1  C   UNL A   1      35.238  20.693  25.384  1.00  0.00     0.274 C 
ENDROOT
BRANCH   1   2
ATOM      2  O   UNL A   1      34.676  21.695  24.509  1.00  0.00    -0.462 OA
BRANCH   2   3
ATOM      3  C   UNL A   1      33.564  22.305  24.996  1.00  0.00     0.313 C 
ATOM      4  O   UNL A   1      32.819  21.799  25.830  1.00  0.00    -0.252 OA
BRANCH   3   5
ATOM      5  C   UNL A   1      33.240  23.636  24.316  1.00  0.00     0.085 C 
ATOM      6  C   UNL A   1      33.696  23.769  22.849  1.00  0.00     0.022 C 
ATOM      7  C   UNL A   1      31.698  23.635  24.297  1.00  0.00     0.138 C 
ATOM      8  C   UNL A   1      33.150  25.057  22.219  1.00  0.00     0.023 C 
ATOM      9  N   UNL A   1      31.162  24.870  23.734  1.00  0.00    -0.337 N 
ATOM     10  C   UNL A   1      31.634  25.218  22.390  1.00  0.00     0.120 C 
BRANCH   5  11
ATOM     11  C   UNL A   1      33.782  24.798  25.208  1.00  0.00     0.017 C 
ATOM     12  C   UNL A   1      35.299  24.827  25.376  1.00  0.00     0.005 C 
ENDBRANCH   5  11
BRANCH   9  13
ATOM     13  C   UNL A   1      30.234  25.565  24.518  1.00  0.00     0.255 C 
ATOM     14  O   UNL A   1      29.863  25.132  25.607  1.00  0.00    -0.269 OA
BRANCH  13  15
ATOM     15  C   UNL A   1      29.718  26.846  24.049  1.00  0.00     0.058 A 
ATOM     16  C   UNL A   1      28.477  27.019  23.470  1.00  0.00     0.079 A 
ATOM     17  C   UNL A   1      30.375  28.116  24.267  1.00  0.00     0.008 A 
ATOM     18  S   UNL A   1      28.134  28.653  23.126  1.00  0.00    -0.148 S 
ATOM     19  C   UNL A   1      29.616  29.181  23.807  1.00  0.00     0.010 A 
ATOM     20  C   UNL A   1      29.900  30.648  23.844  1.00  0.00     0.057 C 
BRANCH  17  21
ATOM     21  C   UNL A   1      31.677  28.305  24.903  1.00  0.00    -0.016 A 
ATOM     22  C   UNL A   1      31.778  28.413  26.295  1.00  0.00     0.009 A 
ATOM     23  C   UNL A   1      32.839  28.341  24.123  1.00  0.00     0.009 A 
ATOM     24  C   UNL A   1      33.028  28.569  26.899  1.00  0.00     0.001 A 
ATOM     25  C   UNL A   1      34.089  28.491  24.731  1.00  0.00     0.001 A 
ATOM     26  C   UNL A   1      34.182  28.607  26.117  1.00  0.00     0.000 A 
ENDBRANCH  17  21
ENDBRANCH  13  15
ENDBRANCH   9  13
ENDBRANCH   3   5
ENDBRANCH   2   3
ENDBRANCH   1   2
BRANCH   1  27
ATOM     27  C   UNL A   1      36.671  20.334  24.999  1.00  0.00     0.275 C 
BRANCH  27  28
ATOM     28  O   UNL A   1      37.528  21.483  25.118  1.00  0.00    -0.458 OA
BRANCH  28  29
ATOM     29  C   UNL A   1      38.697  21.272  25.760  1.00  0.00     0.338 C 
ATOM     30  O   UNL A   1      39.358  20.242  25.751  1.00  0.00    -0.246 OA
BRANCH  29  31
ATOM     31  C   UNL A   1      39.141  22.478  26.492  1.00  0.00     0.060 A 
ATOM     32  C   UNL A   1      38.569  23.727  26.256  1.00  0.00     0.016 A 
ATOM     33  C   UNL A   1      40.276  22.384  27.301  1.00  0.00     0.016 A 
ATOM     34  C   UNL A   1      39.220  24.888  26.687  1.00  0.00     0.010 A 
ATOM     35  C   UNL A   1      40.867  23.542  27.817  1.00  0.00     0.010 A 
ATOM     36  C   UNL A   1      40.393  24.814  27.452  1.00  0.00    -0.014 A 
BRANCH  36  37
ATOM     37  C   UNL A   1      41.201  26.031  27.766  1.00  0.00     0.031 A 
ATOM     38  C   UNL A   1      40.614  27.109  28.647  1.00  0.00     0.074 A 
ATOM     39  C   UNL A   1      42.459  26.189  27.311  1.00  0.00     0.049 A 
ATOM     40  N   UNL A   1      41.013  28.343  28.833  1.00  0.00    -0.248 NA
ATOM     41  C   UNL A   1      39.402  26.756  29.406  1.00  0.00     0.031 C 
ATOM     42  C   UNL A   1      43.205  25.223  26.508  1.00  0.00     0.029 A 
ATOM     43  N   UNL A   1      43.340  27.232  27.477  1.00  0.00    -0.354 N 
ATOM     44  C   UNL A   1      40.050  28.937  29.642  1.00  0.00     0.074 A 
ATOM     45  C   UNL A   1      39.064  27.922  29.940  1.00  0.00     0.031 C 
ATOM     46  C   UNL A   1      44.446  25.690  26.299  1.00  0.00     0.029 A 
ATOM     47  C   UNL A   1      44.555  27.028  26.873  1.00  0.00     0.049 A 
ATOM     48  H   UNL A   1      43.120  28.048  27.983  1.00  0.00     0.167 HD
ATOM     49  C   UNL A   1      39.988  30.218  30.081  1.00  0.00     0.037 A 
ATOM     50  C   UNL A   1      45.624  27.838  26.757  1.00  0.00     0.037 A 
ATOM     51  C   UNL A   1      41.019  31.200  29.876  1.00  0.00     0.049 A 
ATOM     52  C   UNL A   1      45.564  29.236  27.307  1.00  0.00     0.074 A 
ATOM     53  C   UNL A   1      41.041  32.530  30.265  1.00  0.00     0.029 A 
ATOM     54  N   UNL A   1      42.235  30.944  29.264  1.00  0.00    -0.354 N 
ATOM     55  N   UNL A   1      44.585  29.836  27.936  1.00  0.00    -0.248 NA
ATOM     56  C   UNL A   1      46.750  30.080  27.099  1.00  0.00     0.031 C 
ATOM     57  C   UNL A   1      42.273  33.077  29.888  1.00  0.00     0.029 A 
ATOM     58  C   UNL A   1      43.024  32.082  29.285  1.00  0.00     0.049 A 
ATOM     59  H   UNL A   1      42.500  30.080  28.873  1.00  0.00     0.167 HD
ATOM     60  C   UNL A   1      45.027  31.127  28.188  1.00  0.00     0.074 A 
ATOM     61  C   UNL A   1      46.379  31.214  27.676  1.00  0.00     0.031 C 
ATOM     62  C   UNL A   1      44.365  32.154  28.771  1.00  0.00     0.037 A 
BRANCH  49  63
ATOM     63  C   UNL A   1      38.742  30.647  30.796  1.00  0.00     0.064 A 
ATOM     64  C   UNL A   1      38.649  30.657  32.193  1.00  0.00     0.173 A 
ATOM     65  C   UNL A   1      37.634  31.095  30.058  1.00  0.00     0.173 A 
ATOM     66  F   UNL A   1      39.674  30.222  32.941  1.00  0.00    -0.203 F 
ATOM     67  C   UNL A   1      37.485  31.085  32.828  1.00  0.00     0.198 A 
ATOM     68  C   UNL A   1      36.481  31.544  30.697  1.00  0.00     0.198 A 
ATOM     69  F   UNL A   1      37.675  31.109  28.718  1.00  0.00    -0.203 F 
ATOM     70  F   UNL A   1      37.403  31.052  34.166  1.00  0.00    -0.200 F 
ATOM     71  C   UNL A   1      36.406  31.534  32.080  1.00  0.00     0.200 A 
ATOM     72  F   UNL A   1      35.444  31.987  29.972  1.00  0.00    -0.200 F 
ATOM     73  F   UNL A   1      35.290  31.953  32.695  1.00  0.00    -0.200 F 
ENDBRANCH  49  63
BRANCH  50  74
ATOM     74  C   UNL A   1      46.840  27.355  26.055  1.00  0.00     0.064 A 
ATOM     75  C   UNL A   1      47.847  26.675  26.754  1.00  0.00     0.173 A 
ATOM     76  C   UNL A   1      47.015  27.554  24.678  1.00  0.00     0.173 A 
ATOM     77  F   UNL A   1      47.734  26.489  28.077  1.00  0.00    -0.203 F 
ATOM     78  C   UNL A   1      48.988  26.215  26.101  1.00  0.00     0.198 A 
ATOM     79  C   UNL A   1      48.144  27.070  24.022  1.00  0.00     0.198 A 
ATOM     80  F   UNL A   1      46.081  28.202  23.969  1.00  0.00    -0.203 F 
ATOM     81  F   UNL A   1      49.952  25.598  26.797  1.00  0.00    -0.200 F 
ATOM     82  C   UNL A   1      49.131  26.405  24.734  1.00  0.00     0.200 A 
ATOM     83  F   UNL A   1      48.275  27.246  22.700  1.00  0.00    -0.200 F 
ATOM     84  F   UNL A   1      50.224  25.953  24.105  1.00  0.00    -0.200 F 
ENDBRANCH  50  74
BRANCH  62  85
ATOM     85  C   UNL A   1      45.097  33.455  28.891  1.00  0.00     0.064 A 
ATOM     86  C   UNL A   1      44.975  34.449  27.909  1.00  0.00     0.173 A 
ATOM     87  C   UNL A   1      45.913  33.717  30.000  1.00  0.00     0.173 A 
ATOM     88  F   UNL A   1      44.216  34.236  26.824  1.00  0.00    -0.203 F 
ATOM     89  C   UNL A   1      45.663  35.654  28.025  1.00  0.00     0.198 A 
ATOM     90  C   UNL A   1      46.586  34.929  30.120  1.00  0.00     0.198 A 
ATOM     91  F   UNL A   1      46.058  32.796  30.964  1.00  0.00    -0.203 F 
ATOM     92  F   UNL A   1      45.564  36.576  27.058  1.00  0.00    -0.200 F 
ATOM     93  C   UNL A   1      46.466  35.893  29.131  1.00  0.00     0.200 A 
ATOM     94  F   UNL A   1      47.360  35.161  31.191  1.00  0.00    -0.200 F 
ATOM     95  F   UNL A   1      47.133  37.051  29.237  1.00  0.00    -0.200 F 
ENDBRANCH  62  85
ENDBRANCH  36  37
ENDBRANCH  29  31
ENDBRANCH  28  29
ENDBRANCH  27  28
ENDBRANCH   1  27
TORSDOF 15
ENDMDL
MODEL 3
REMARK VINA RESULT:     -12.1      1.191      2.265
REMARK SMILES CC[C@]1(C(=O)OCCOC(=O)c2ccc(-c3c4nc(c(-c5c(F)c(F)c(F)c(F)c5F)c5ccc([nH]5)c(-c5c(F)c(F)c(F)c(F)c5F)c5nc(c(-c6c(F)c(F)c(F)c(F)c6F)c6ccc3[nH]6)C=C5)C=C4)cc2)CCCN(C(=O)c2csc(C)c2-c2ccccc2)C1
REMARK SMILES IDX 7 1 6 2 4 3 5 4 3 5 75 6 93 7 76 8 78 9 77 10 2 11 1 12
REMARK SMILES IDX 79 13 80 14 81 15 82 16 86 17 83 18 84 19 85 20 87 21 88 22
REMARK SMILES IDX 92 23 89 24 91 25 90 26 8 27 9 28 10 29 11 30 12 31 13 32
REMARK SMILES IDX 74 33 14 34 73 35 15 36 16 37 17 38 67 39 18 40 72 41 66 42
REMARK SMILES IDX 68 43 19 44 71 45 65 46 64 47 20 49 52 50 32 51 51 52 33 53
REMARK SMILES IDX 36 54 50 55 69 56 34 57 35 58 49 60 70 61 37 62 21 63 22 64
REMARK SMILES IDX 30 65 23 66 24 67 28 68 31 69 25 70 26 71 29 72 27 73 53 74
REMARK SMILES IDX 54 75 62 76 55 77 56 78 60 79 63 80 57 81 58 82 61 83 59 84
REMARK SMILES IDX 38 85 39 86 47 87 40 88 41 89 45 90 48 91 42 92 43 93 46 94
REMARK SMILES IDX 44 95
REMARK H PARENT 68 48 36 59
REMARK Flexibility Score: inf
ROOT
ATOM      1  C   UNL A   1      31.490  29.879  25.056  1.00  0.00     0.274 C 
ENDROOT
BRANCH   1   2
ATOM      2  O   UNL A   1      31.844  28.594  25.612  1.00  0.00    -0.462 OA
BRANCH   2   3
ATOM      3  C   UNL A   1      32.848  27.955  24.956  1.00  0.00     0.313 C 
ATOM      4  O   UNL A   1      34.032  28.257  25.065  1.00  0.00    -0.252 OA
BRANCH   3   5
ATOM      5  C   UNL A   1      32.362  26.902  23.959  1.00  0.00     0.085 C 
ATOM      6  C   UNL A   1      31.724  27.445  22.665  1.00  0.00     0.022 C 
ATOM      7  C   UNL A   1      33.675  26.207  23.543  1.00  0.00     0.138 C 
ATOM      8  C   UNL A   1      31.457  26.310  21.667  1.00  0.00     0.023 C 
ATOM      9  N   UNL A   1      33.434  25.102  22.621  1.00  0.00    -0.337 N 
ATOM     10  C   UNL A   1      32.688  25.434  21.404  1.00  0.00     0.120 C 
BRANCH   5  11
ATOM     11  C   UNL A   1      31.422  25.903  24.707  1.00  0.00     0.017 C 
ATOM     12  C   UNL A   1      31.807  25.619  26.156  1.00  0.00     0.005 C 
ENDBRANCH   5  11
BRANCH   9  13
ATOM     13  C   UNL A   1      33.970  23.859  22.980  1.00  0.00     0.255 C 
ATOM     14  O   UNL A   1      34.944  23.388  22.397  1.00  0.00    -0.269 OA
BRANCH  13  15
ATOM     15  C   UNL A   1      33.379  23.120  24.090  1.00  0.00     0.058 A 
ATOM     16  C   UNL A   1      32.058  22.721  24.143  1.00  0.00     0.079 A 
ATOM     17  C   UNL A   1      34.133  22.580  25.200  1.00  0.00     0.008 A 
ATOM     18  S   UNL A   1      31.709  21.787  25.525  1.00  0.00    -0.148 S 
ATOM     19  C   UNL A   1      33.338  21.835  26.057  1.00  0.00     0.010 A 
ATOM     20  C   UNL A   1      33.703  21.095  27.304  1.00  0.00     0.057 C 
BRANCH  17  21
ATOM     21  C   UNL A   1      35.565  22.762  25.428  1.00  0.00    -0.016 A 
ATOM     22  C   UNL A   1      36.050  23.961  25.964  1.00  0.00     0.009 A 
ATOM     23  C   UNL A   1      36.458  21.721  25.148  1.00  0.00     0.009 A 
ATOM     24  C   UNL A   1      37.417  24.121  26.203  1.00  0.00     0.001 A 
ATOM     25  C   UNL A   1      37.824  21.882  25.394  1.00  0.00     0.001 A 
ATOM     26  C   UNL A   1      38.302  23.082  25.919  1.00  0.00     0.000 A 
ENDBRANCH  17  21
ENDBRANCH  13  15
ENDBRANCH   9  13
ENDBRANCH   3   5
ENDBRANCH   2   3
ENDBRANCH   1   2
BRANCH   1  27
ATOM     27  C   UNL A   1      31.500  30.983  26.110  1.00  0.00     0.275 C 
BRANCH  27  28
ATOM     28  O   UNL A   1      32.495  30.713  27.114  1.00  0.00    -0.458 OA
BRANCH  28  29
ATOM     29  C   UNL A   1      33.293  31.753  27.435  1.00  0.00     0.338 C 
ATOM     30  O   UNL A   1      32.969  32.933  27.488  1.00  0.00    -0.246 OA
BRANCH  29  31
ATOM     31  C   UNL A   1      34.666  31.306  27.758  1.00  0.00     0.060 A 
ATOM     32  C   UNL A   1      34.959  29.964  27.995  1.00  0.00     0.016 A 
ATOM     33  C   UNL A   1      35.639  32.276  28.005  1.00  0.00     0.016 A 
ATOM     34  C   UNL A   1      36.154  29.611  28.629  1.00  0.00     0.010 A 
ATOM     35  C   UNL A   1      36.876  31.906  28.544  1.00  0.00     0.010 A 
ATOM     36  C   UNL A   1      37.120  30.579  28.936  1.00  0.00    -0.014 A 
BRANCH  36  37
ATOM     37  C   UNL A   1      38.316  30.254  29.772  1.00  0.00     0.031 A 
ATOM     38  C   UNL A   1      39.418  29.396  29.196  1.00  0.00     0.074 A 
ATOM     39  C   UNL A   1      38.462  30.730  31.024  1.00  0.00     0.049 A 
ATOM     40  N   UNL A   1      40.398  28.777  29.806  1.00  0.00    -0.248 NA
ATOM     41  C   UNL A   1      39.402  29.190  27.737  1.00  0.00     0.031 C 
ATOM     42  C   UNL A   1      37.534  31.625  31.712  1.00  0.00     0.029 A 
ATOM     43  N   UNL A   1      39.469  30.530  31.939  1.00  0.00    -0.354 N 
ATOM     44  C   UNL A   1      41.047  28.032  28.826  1.00  0.00     0.074 A 
ATOM     45  C   UNL A   1      40.372  28.301  27.575  1.00  0.00     0.031 C 
ATOM     46  C   UNL A   1      38.038  31.941  32.915  1.00  0.00     0.029 A 
ATOM     47  C   UNL A   1      39.279  31.200  33.121  1.00  0.00     0.049 A 
ATOM     48  H   UNL A   1      40.252  29.960  31.762  1.00  0.00     0.167 HD
ATOM     49  C   UNL A   1      42.099  27.190  28.964  1.00  0.00     0.037 A 
ATOM     50  C   UNL A   1      39.998  31.192  34.260  1.00  0.00     0.037 A 
ATOM     51  C   UNL A   1      42.839  27.002  30.183  1.00  0.00     0.049 A 
ATOM     52  C   UNL A   1      41.202  30.299  34.375  1.00  0.00     0.074 A 
ATOM     53  C   UNL A   1      43.909  26.156  30.428  1.00  0.00     0.029 A 
ATOM     54  N   UNL A   1      42.615  27.709  31.353  1.00  0.00    -0.354 N 
ATOM     55  N   UNL A   1      41.714  29.482  33.488  1.00  0.00    -0.248 NA
ATOM     56  C   UNL A   1      41.909  30.304  35.664  1.00  0.00     0.031 C 
ATOM     57  C   UNL A   1      44.330  26.353  31.748  1.00  0.00     0.029 A 
ATOM     58  C   UNL A   1      43.537  27.337  32.316  1.00  0.00     0.049 A 
ATOM     59  H   UNL A   1      41.903  28.378  31.481  1.00  0.00     0.167 HD
ATOM     60  C   UNL A   1      42.791  28.868  34.112  1.00  0.00     0.074 A 
ATOM     61  C   UNL A   1      42.883  29.433  35.443  1.00  0.00     0.031 C 
ATOM     62  C   UNL A   1      43.616  27.906  33.634  1.00  0.00     0.037 A 
BRANCH  49  63
ATOM     63  C   UNL A   1      42.492  26.370  27.771  1.00  0.00     0.064 A 
ATOM     64  C   UNL A   1      41.852  25.165  27.451  1.00  0.00     0.173 A 
ATOM     65  C   UNL A   1      43.504  26.828  26.912  1.00  0.00     0.173 A 
ATOM     66  F   UNL A   1      40.891  24.678  28.249  1.00  0.00    -0.203 F 
ATOM     67  C   UNL A   1      42.224  24.439  26.321  1.00  0.00     0.198 A 
ATOM     68  C   UNL A   1      43.856  26.111  25.772  1.00  0.00     0.198 A 
ATOM     69  F   UNL A   1      44.143  27.978  27.174  1.00  0.00    -0.203 F 
ATOM     70  F   UNL A   1      41.625  23.271  26.051  1.00  0.00    -0.200 F 
ATOM     71  C   UNL A   1      43.220  24.915  25.480  1.00  0.00     0.200 A 
ATOM     72  F   UNL A   1      44.812  26.579  24.957  1.00  0.00    -0.200 F 
ATOM     73  F   UNL A   1      43.569  24.218  24.390  1.00  0.00    -0.200 F 
ENDBRANCH  49  63
BRANCH  50  74
ATOM     74  C   UNL A   1      39.575  32.038  35.404  1.00  0.00     0.064 A 
ATOM     75  C   UNL A   1      40.090  33.331  35.568  1.00  0.00     0.173 A 
ATOM     76  C   UNL A   1      38.644  31.577  36.346  1.00  0.00     0.173 A 
ATOM     77  F   UNL A   1      41.005  33.800  34.706  1.00  0.00    -0.203 F 
ATOM     78  C   UNL A   1      39.693  34.131  36.636  1.00  0.00     0.198 A 
ATOM     79  C   UNL A   1      38.228  32.389  37.399  1.00  0.00     0.198 A 
ATOM     80  F   UNL A   1      38.127  30.346  36.233  1.00  0.00    -0.203 F 
ATOM     81  F   UNL A   1      40.226  35.351  36.790  1.00  0.00    -0.200 F 
ATOM     82  C   UNL A   1      38.756  33.663  37.545  1.00  0.00     0.200 A 
ATOM     83  F   UNL A   1      37.315  31.937  38.269  1.00  0.00    -0.200 F 
ATOM     84  F   UNL A   1      38.366  34.438  38.567  1.00  0.00    -0.200 F 
ENDBRANCH  50  74
BRANCH  62  85
ATOM     85  C   UNL A   1      44.690  27.412  34.553  1.00  0.00     0.064 A 
ATOM     86  C   UNL A   1      44.475  26.310  35.393  1.00  0.00     0.173 A 
ATOM     87  C   UNL A   1      45.946  28.032  34.582  1.00  0.00     0.173 A 
ATOM     88  F   UNL A   1      43.283  25.695  35.409  1.00  0.00    -0.203 F 
ATOM     89  C   UNL A   1      45.477  25.860  36.250  1.00  0.00     0.198 A 
ATOM     90  C   UNL A   1      46.951  27.569  35.427  1.00  0.00     0.198 A 
ATOM     91  F   UNL A   1      46.197  29.088  33.794  1.00  0.00    -0.203 F 
ATOM     92  F   UNL A   1      45.240  24.831  37.073  1.00  0.00    -0.200 F 
ATOM     93  C   UNL A   1      46.714  26.489  36.263  1.00  0.00     0.200 A 
ATOM     94  F   UNL A   1      48.147  28.174  35.438  1.00  0.00    -0.200 F 
ATOM     95  F   UNL A   1      47.675  26.058  37.092  1.00  0.00    -0.200 F 
ENDBRANCH  62  85
ENDBRANCH  36  37
ENDBRANCH  29  31
ENDBRANCH  28  29
ENDBRANCH  27  28
ENDBRANCH   1  27
TORSDOF 15
ENDMDL
