MODEL 1
REMARK VINA RESULT:      -9.9      0.000      0.000
REMARK SMILES CC[C@@H](C)SCc1cc(F)cc(/C=C/C(=O)OCCOC(=O)c2ccc(-c3c4nc(c(-c5c(F)c(F)c(F)c(F)c5F)c5ccc([nH]5)c(-c5c(F)c(F)c(F)c(F)c5F)c5nc(c(-c6c(F)c(F)c(F)c(F)c6F)c6ccc3[nH]6)C=C5)C=C4)cc2)c1
REMARK SMILES IDX 17 1 15 2 16 3 14 4 13 5 12 6 7 7 8 8 86 9 9 10 10 11 11 12
REMARK SMILES IDX 6 13 5 14 3 15 4 16 2 17 1 18 18 19 19 20 20 21 21 22 22 23
REMARK SMILES IDX 23 24 24 25 85 26 25 27 84 28 26 29 27 30 28 31 78 32 29 33
REMARK SMILES IDX 83 34 77 35 79 36 30 37 82 38 76 39 75 40 31 42 63 43 43 44
REMARK SMILES IDX 62 45 44 46 47 47 61 48 80 49 45 50 46 51 60 53 81 54 48 55
REMARK SMILES IDX 32 56 33 57 41 58 34 59 35 60 39 61 42 62 36 63 37 64 40 65
REMARK SMILES IDX 38 66 64 67 65 68 73 69 66 70 67 71 71 72 74 73 68 74 69 75
REMARK SMILES IDX 72 76 70 77 49 78 50 79 58 80 51 81 52 82 56 83 59 84 53 85
REMARK SMILES IDX 54 86 57 87 55 88
REMARK H PARENT 79 41 47 52
REMARK Flexibility Score: inf
ROOT
ATOM      1  O   UNL A   1      32.442  34.930  29.887  1.00  0.00    -0.459 OA
ENDROOT
BRANCH   1   2
ATOM      2  C   UNL A   1      32.784  35.794  30.869  1.00  0.00     0.330 C 
ATOM      3  O   UNL A   1      32.158  36.785  31.216  1.00  0.00    -0.247 OA
BRANCH   2   4
ATOM      4  C   UNL A   1      34.024  35.399  31.565  1.00  0.00     0.094 C 
ATOM      5  C   UNL A   1      34.088  34.779  32.753  1.00  0.00     0.016 C 
BRANCH   5   6
ATOM      6  C   UNL A   1      35.381  34.497  33.386  1.00  0.00    -0.022 A 
ATOM      7  C   UNL A   1      37.819  34.486  33.246  1.00  0.00    -0.035 A 
ATOM      8  C   UNL A   1      37.883  34.141  34.603  1.00  0.00     0.043 A 
ATOM      9  C   UNL A   1      36.558  34.618  32.636  1.00  0.00     0.013 A 
ATOM     10  C   UNL A   1      36.712  33.968  35.329  1.00  0.00     0.124 A 
ATOM     11  F   UNL A   1      36.781  33.651  36.628  1.00  0.00    -0.207 F 
ATOM     12  C   UNL A   1      35.467  34.149  34.738  1.00  0.00     0.047 A 
BRANCH   7  13
ATOM     13  C   UNL A   1      39.079  34.757  32.466  1.00  0.00     0.105 C 
BRANCH  13  14
ATOM     14  S   UNL A   1      38.901  34.536  30.662  1.00  0.00    -0.154 SA
BRANCH  14  15
ATOM     15  C   UNL A   1      40.609  34.134  30.087  1.00  0.00     0.043 C 
ATOM     16  C   UNL A   1      41.540  33.766  31.241  1.00  0.00     0.019 C 
BRANCH  15  17
ATOM     17  C   UNL A   1      41.177  35.194  29.132  1.00  0.00     0.011 C 
ATOM     18  C   UNL A   1      42.701  35.243  29.123  1.00  0.00     0.005 C 
ENDBRANCH  15  17
ENDBRANCH  14  15
ENDBRANCH  13  14
ENDBRANCH   7  13
ENDBRANCH   5   6
ENDBRANCH   2   4
ENDBRANCH   1   2
BRANCH   1  19
ATOM     19  C   UNL A   1      33.356  34.848  28.779  1.00  0.00     0.275 C 
BRANCH  19  20
ATOM     20  C   UNL A   1      33.077  33.608  27.926  1.00  0.00     0.275 C 
BRANCH  20  21
ATOM     21  O   UNL A   1      34.289  32.927  27.550  1.00  0.00    -0.458 OA
BRANCH  21  22
ATOM     22  C   UNL A   1      34.240  31.576  27.640  1.00  0.00     0.338 C 
ATOM     23  O   UNL A   1      33.317  30.848  27.316  1.00  0.00    -0.246 OA
BRANCH  22  24
ATOM     24  C   UNL A   1      35.538  31.051  28.104  1.00  0.00     0.060 A 
ATOM     25  C   UNL A   1      35.580  29.739  28.586  1.00  0.00     0.016 A 
ATOM     26  C   UNL A   1      36.678  31.858  28.145  1.00  0.00     0.016 A 
ATOM     27  C   UNL A   1      36.761  29.230  29.121  1.00  0.00     0.010 A 
ATOM     28  C   UNL A   1      37.863  31.346  28.686  1.00  0.00     0.010 A 
ATOM     29  C   UNL A   1      37.907  30.034  29.190  1.00  0.00    -0.014 A 
BRANCH  29  30
ATOM     30  C   UNL A   1      39.137  29.510  29.833  1.00  0.00     0.031 A 
ATOM     31  C   UNL A   1      39.588  30.060  31.156  1.00  0.00     0.074 A 
ATOM     32  C   UNL A   1      39.829  28.517  29.245  1.00  0.00     0.049 A 
ATOM     33  N   UNL A   1      40.645  29.750  31.864  1.00  0.00    -0.248 NA
ATOM     34  C   UNL A   1      38.737  31.094  31.763  1.00  0.00     0.031 C 
ATOM     35  C   UNL A   1      39.472  27.878  27.981  1.00  0.00     0.029 A 
ATOM     36  N   UNL A   1      40.976  27.871  29.638  1.00  0.00    -0.354 N 
ATOM     37  C   UNL A   1      40.589  30.550  32.996  1.00  0.00     0.074 A 
ATOM     38  C   UNL A   1      39.408  31.380  32.871  1.00  0.00     0.031 C 
ATOM     39  C   UNL A   1      40.376  26.925  27.704  1.00  0.00     0.029 A 
ATOM     40  C   UNL A   1      41.394  26.910  28.753  1.00  0.00     0.049 A 
ATOM     41  H   UNL A   1      41.452  28.078  30.474  1.00  0.00     0.167 HD
ATOM     42  C   UNL A   1      41.440  30.582  34.049  1.00  0.00     0.037 A 
ATOM     43  C   UNL A   1      42.483  26.117  28.777  1.00  0.00     0.037 A 
ATOM     44  C   UNL A   1      42.608  29.750  34.178  1.00  0.00     0.049 A 
ATOM     45  C   UNL A   1      43.446  26.214  29.929  1.00  0.00     0.074 A 
ATOM     46  C   UNL A   1      43.522  29.704  35.217  1.00  0.00     0.029 A 
ATOM     47  N   UNL A   1      43.024  28.820  33.238  1.00  0.00    -0.354 N 
ATOM     48  N   UNL A   1      43.383  26.972  30.996  1.00  0.00    -0.248 NA
ATOM     49  C   UNL A   1      44.634  25.350  29.877  1.00  0.00     0.031 C 
ATOM     50  C   UNL A   1      44.513  28.775  34.887  1.00  0.00     0.029 A 
ATOM     51  C   UNL A   1      44.193  28.210  33.663  1.00  0.00     0.049 A 
ATOM     52  H   UNL A   1      42.558  28.622  32.394  1.00  0.00     0.167 HD
ATOM     53  C   UNL A   1      44.508  26.667  31.748  1.00  0.00     0.074 A 
ATOM     54  C   UNL A   1      45.232  25.643  31.025  1.00  0.00     0.031 C 
ATOM     55  C   UNL A   1      44.905  27.193  32.933  1.00  0.00     0.037 A 
BRANCH  42  56
ATOM     56  C   UNL A   1      41.153  31.557  35.151  1.00  0.00     0.064 A 
ATOM     57  C   UNL A   1      40.116  31.313  36.063  1.00  0.00     0.173 A 
ATOM     58  C   UNL A   1      41.855  32.766  35.261  1.00  0.00     0.173 A 
ATOM     59  F   UNL A   1      39.412  30.172  35.995  1.00  0.00    -0.203 F 
ATOM     60  C   UNL A   1      39.783  32.250  37.037  1.00  0.00     0.198 A 
ATOM     61  C   UNL A   1      41.533  33.691  36.250  1.00  0.00     0.198 A 
ATOM     62  F   UNL A   1      42.862  33.040  34.418  1.00  0.00    -0.203 F 
ATOM     63  F   UNL A   1      38.768  32.006  37.878  1.00  0.00    -0.200 F 
ATOM     64  C   UNL A   1      40.493  33.437  37.131  1.00  0.00     0.200 A 
ATOM     65  F   UNL A   1      42.232  34.830  36.354  1.00  0.00    -0.200 F 
ATOM     66  F   UNL A   1      40.174  34.336  38.072  1.00  0.00    -0.200 F 
ENDBRANCH  42  56
BRANCH  43  67
ATOM     67  C   UNL A   1      42.716  25.158  27.666  1.00  0.00     0.064 A 
ATOM     68  C   UNL A   1      42.126  23.887  27.669  1.00  0.00     0.173 A 
ATOM     69  C   UNL A   1      43.549  25.492  26.591  1.00  0.00     0.173 A 
ATOM     70  F   UNL A   1      41.318  23.523  28.675  1.00  0.00    -0.203 F 
ATOM     71  C   UNL A   1      42.378  22.975  26.646  1.00  0.00     0.198 A 
ATOM     72  C   UNL A   1      43.781  24.588  25.556  1.00  0.00     0.198 A 
ATOM     73  F   UNL A   1      44.114  26.706  26.533  1.00  0.00    -0.203 F 
ATOM     74  F   UNL A   1      41.825  21.755  26.687  1.00  0.00    -0.200 F 
ATOM     75  C   UNL A   1      43.202  23.328  25.589  1.00  0.00     0.200 A 
ATOM     76  F   UNL A   1      44.558  24.941  24.522  1.00  0.00    -0.200 F 
ATOM     77  F   UNL A   1      43.436  22.455  24.599  1.00  0.00    -0.200 F 
ENDBRANCH  43  67
BRANCH  55  78
ATOM     78  C   UNL A   1      46.173  26.666  33.536  1.00  0.00     0.064 A 
ATOM     79  C   UNL A   1      46.142  25.584  34.429  1.00  0.00     0.173 A 
ATOM     80  C   UNL A   1      47.410  27.279  33.287  1.00  0.00     0.173 A 
ATOM     81  F   UNL A   1      44.983  24.969  34.706  1.00  0.00    -0.203 F 
ATOM     82  C   UNL A   1      47.302  25.145  35.063  1.00  0.00     0.198 A 
ATOM     83  C   UNL A   1      48.571  26.821  33.905  1.00  0.00     0.198 A 
ATOM     84  F   UNL A   1      47.492  28.308  32.432  1.00  0.00    -0.203 F 
ATOM     85  F   UNL A   1      47.244  24.129  35.935  1.00  0.00    -0.200 F 
ATOM     86  C   UNL A   1      48.515  25.761  34.797  1.00  0.00     0.200 A 
ATOM     87  F   UNL A   1      49.746  27.404  33.631  1.00  0.00    -0.200 F 
ATOM     88  F   UNL A   1      49.632  25.332  35.401  1.00  0.00    -0.200 F 
ENDBRANCH  55  78
ENDBRANCH  29  30
ENDBRANCH  22  24
ENDBRANCH  21  22
ENDBRANCH  20  21
ENDBRANCH  19  20
ENDBRANCH   1  19
TORSDOF 16
ENDMDL
MODEL 2
REMARK VINA RESULT:      -9.9      6.783     12.693
REMARK SMILES CC[C@@H](C)SCc1cc(F)cc(/C=C/C(=O)OCCOC(=O)c2ccc(-c3c4nc(c(-c5c(F)c(F)c(F)c(F)c5F)c5ccc([nH]5)c(-c5c(F)c(F)c(F)c(F)c5F)c5nc(c(-c6c(F)c(F)c(F)c(F)c6F)c6ccc3[nH]6)C=C5)C=C4)cc2)c1
REMARK SMILES IDX 17 1 15 2 16 3 14 4 13 5 12 6 7 7 8 8 86 9 9 10 10 11 11 12
REMARK SMILES IDX 6 13 5 14 3 15 4 16 2 17 1 18 18 19 19 20 20 21 21 22 22 23
REMARK SMILES IDX 23 24 24 25 85 26 25 27 84 28 26 29 27 30 28 31 78 32 29 33
REMARK SMILES IDX 83 34 77 35 79 36 30 37 82 38 76 39 75 40 31 42 63 43 43 44
REMARK SMILES IDX 62 45 44 46 47 47 61 48 80 49 45 50 46 51 60 53 81 54 48 55
REMARK SMILES IDX 32 56 33 57 41 58 34 59 35 60 39 61 42 62 36 63 37 64 40 65
REMARK SMILES IDX 38 66 64 67 65 68 73 69 66 70 67 71 71 72 74 73 68 74 69 75
REMARK SMILES IDX 72 76 70 77 49 78 50 79 58 80 51 81 52 82 56 83 59 84 53 85
REMARK SMILES IDX 54 86 57 87 55 88
REMARK H PARENT 79 41 47 52
REMARK Flexibility Score: inf
ROOT
ATOM      1  O   UNL A   1      40.737  19.863  26.129  1.00  0.00    -0.459 OA
ENDROOT
BRANCH   1   2
ATOM      2  C   UNL A   1      40.641  21.211  26.116  1.00  0.00     0.330 C 
ATOM      3  O   UNL A   1      41.570  22.006  26.105  1.00  0.00    -0.247 OA
BRANCH   2   4
ATOM      4  C   UNL A   1      39.242  21.680  26.066  1.00  0.00     0.094 C 
ATOM      5  C   UNL A   1      38.245  21.087  25.390  1.00  0.00     0.016 C 
BRANCH   5   6
ATOM      6  C   UNL A   1      36.905  21.683  25.352  1.00  0.00    -0.022 A 
ATOM      7  C   UNL A   1      34.483  21.393  25.467  1.00  0.00    -0.035 A 
ATOM      8  C   UNL A   1      34.329  22.786  25.460  1.00  0.00     0.043 A 
ATOM      9  C   UNL A   1      35.778  20.851  25.367  1.00  0.00     0.013 A 
ATOM     10  C   UNL A   1      35.447  23.606  25.389  1.00  0.00     0.124 A 
ATOM     11  F   UNL A   1      35.292  24.936  25.395  1.00  0.00    -0.207 F 
ATOM     12  C   UNL A   1      36.729  23.070  25.342  1.00  0.00     0.047 A 
BRANCH   7  13
ATOM     13  C   UNL A   1      33.287  20.492  25.626  1.00  0.00     0.105 C 
BRANCH  13  14
ATOM     14  S   UNL A   1      32.575  19.914  24.047  1.00  0.00    -0.154 SA
BRANCH  14  15
ATOM     15  C   UNL A   1      32.537  18.075  24.217  1.00  0.00     0.043 C 
ATOM     16  C   UNL A   1      32.592  17.624  25.675  1.00  0.00     0.019 C 
BRANCH  15  17
ATOM     17  C   UNL A   1      33.553  17.375  23.302  1.00  0.00     0.011 C 
ATOM     18  C   UNL A   1      34.787  16.873  24.043  1.00  0.00     0.005 C 
ENDBRANCH  15  17
ENDBRANCH  14  15
ENDBRANCH  13  14
ENDBRANCH   7  13
ENDBRANCH   5   6
ENDBRANCH   2   4
ENDBRANCH   1   2
BRANCH   1  19
ATOM     19  C   UNL A   1      41.890  19.324  26.801  1.00  0.00     0.275 C 
BRANCH  19  20
ATOM     20  C   UNL A   1      42.788  18.558  25.825  1.00  0.00     0.275 C 
BRANCH  20  21
ATOM     21  O   UNL A   1      43.098  19.335  24.653  1.00  0.00    -0.458 OA
BRANCH  21  22
ATOM     22  C   UNL A   1      44.416  19.578  24.458  1.00  0.00     0.338 C 
ATOM     23  O   UNL A   1      45.244  18.820  23.979  1.00  0.00    -0.246 OA
BRANCH  22  24
ATOM     24  C   UNL A   1      44.733  20.973  24.815  1.00  0.00     0.060 A 
ATOM     25  C   UNL A   1      45.238  21.224  26.094  1.00  0.00     0.016 A 
ATOM     26  C   UNL A   1      44.462  22.029  23.941  1.00  0.00     0.016 A 
ATOM     27  C   UNL A   1      45.465  22.535  26.510  1.00  0.00     0.010 A 
ATOM     28  C   UNL A   1      44.688  23.345  24.361  1.00  0.00     0.010 A 
ATOM     29  C   UNL A   1      45.177  23.605  25.653  1.00  0.00    -0.014 A 
BRANCH  29  30
ATOM     30  C   UNL A   1      45.347  24.999  26.133  1.00  0.00     0.031 A 
ATOM     31  C   UNL A   1      46.687  25.669  26.041  1.00  0.00     0.074 A 
ATOM     32  C   UNL A   1      44.289  25.673  26.621  1.00  0.00     0.049 A 
ATOM     33  N   UNL A   1      47.042  26.869  26.427  1.00  0.00    -0.248 NA
ATOM     34  C   UNL A   1      47.774  24.886  25.433  1.00  0.00     0.031 C 
ATOM     35  C   UNL A   1      42.932  25.143  26.728  1.00  0.00     0.029 A 
ATOM     36  N   UNL A   1      44.193  26.951  27.113  1.00  0.00    -0.354 N 
ATOM     37  C   UNL A   1      48.388  26.985  26.113  1.00  0.00     0.074 A 
ATOM     38  C   UNL A   1      48.796  25.725  25.527  1.00  0.00     0.031 C 
ATOM     39  C   UNL A   1      42.133  26.091  27.245  1.00  0.00     0.029 A 
ATOM     40  C   UNL A   1      42.930  27.281  27.539  1.00  0.00     0.049 A 
ATOM     41  H   UNL A   1      44.955  27.571  27.158  1.00  0.00     0.167 HD
ATOM     42  C   UNL A   1      49.206  28.050  26.288  1.00  0.00     0.037 A 
ATOM     43  C   UNL A   1      42.471  28.409  28.113  1.00  0.00     0.037 A 
ATOM     44  C   UNL A   1      48.797  29.306  26.860  1.00  0.00     0.049 A 
ATOM     45  C   UNL A   1      43.414  29.557  28.352  1.00  0.00     0.074 A 
ATOM     46  C   UNL A   1      49.554  30.447  27.064  1.00  0.00     0.029 A 
ATOM     47  N   UNL A   1      47.520  29.586  27.322  1.00  0.00    -0.354 N 
ATOM     48  N   UNL A   1      44.685  29.658  28.050  1.00  0.00    -0.248 NA
ATOM     49  C   UNL A   1      42.860  30.746  29.018  1.00  0.00     0.031 C 
ATOM     50  C   UNL A   1      48.746  31.404  27.686  1.00  0.00     0.029 A 
ATOM     51  C   UNL A   1      47.473  30.875  27.829  1.00  0.00     0.049 A 
ATOM     52  H   UNL A   1      46.759  28.963  27.293  1.00  0.00     0.167 HD
ATOM     53  C   UNL A   1      45.079  30.920  28.470  1.00  0.00     0.074 A 
ATOM     54  C   UNL A   1      43.910  31.558  29.037  1.00  0.00     0.031 C 
ATOM     55  C   UNL A   1      46.303  31.497  28.393  1.00  0.00     0.037 A 
BRANCH  42  56
ATOM     56  C   UNL A   1      50.637  27.910  25.866  1.00  0.00     0.064 A 
ATOM     57  C   UNL A   1      51.637  27.656  26.817  1.00  0.00     0.173 A 
ATOM     58  C   UNL A   1      51.030  28.100  24.532  1.00  0.00     0.173 A 
ATOM     59  F   UNL A   1      51.312  27.473  28.106  1.00  0.00    -0.203 F 
ATOM     60  C   UNL A   1      52.979  27.610  26.450  1.00  0.00     0.198 A 
ATOM     61  C   UNL A   1      52.371  28.032  24.166  1.00  0.00     0.198 A 
ATOM     62  F   UNL A   1      50.109  28.335  23.586  1.00  0.00    -0.203 F 
ATOM     63  F   UNL A   1      53.918  27.395  27.381  1.00  0.00    -0.200 F 
ATOM     64  C   UNL A   1      53.345  27.795  25.126  1.00  0.00     0.200 A 
ATOM     65  F   UNL A   1      52.723  28.191  22.883  1.00  0.00    -0.200 F 
ATOM     66  F   UNL A   1      54.637  27.746  24.773  1.00  0.00    -0.200 F 
ENDBRANCH  42  56
BRANCH  43  67
ATOM     67  C   UNL A   1      41.040  28.503  28.502  1.00  0.00     0.064 A 
ATOM     68  C   UNL A   1      40.075  28.983  27.607  1.00  0.00     0.173 A 
ATOM     69  C   UNL A   1      40.617  28.132  29.785  1.00  0.00     0.173 A 
ATOM     70  F   UNL A   1      40.430  29.348  26.366  1.00  0.00    -0.203 F 
ATOM     71  C   UNL A   1      38.741  29.108  27.987  1.00  0.00     0.198 A 
ATOM     72  C   UNL A   1      39.278  28.235  30.157  1.00  0.00     0.198 A 
ATOM     73  F   UNL A   1      41.501  27.644  30.667  1.00  0.00    -0.203 F 
ATOM     74  F   UNL A   1      37.842  29.598  27.121  1.00  0.00    -0.200 F 
ATOM     75  C   UNL A   1      38.343  28.731  29.260  1.00  0.00     0.200 A 
ATOM     76  F   UNL A   1      38.892  27.845  31.379  1.00  0.00    -0.200 F 
ATOM     77  F   UNL A   1      37.057  28.840  29.623  1.00  0.00    -0.200 F 
ENDBRANCH  43  67
BRANCH  55  78
ATOM     78  C   UNL A   1      46.448  32.893  28.923  1.00  0.00     0.064 A 
ATOM     79  C   UNL A   1      46.258  33.998  28.079  1.00  0.00     0.173 A 
ATOM     80  C   UNL A   1      46.847  33.135  30.245  1.00  0.00     0.173 A 
ATOM     81  F   UNL A   1      45.884  33.819  26.804  1.00  0.00    -0.203 F 
ATOM     82  C   UNL A   1      46.476  35.295  28.537  1.00  0.00     0.198 A 
ATOM     83  C   UNL A   1      47.041  34.434  30.706  1.00  0.00     0.198 A 
ATOM     84  F   UNL A   1      47.029  32.112  31.092  1.00  0.00    -0.203 F 
ATOM     85  F   UNL A   1      46.318  36.334  27.706  1.00  0.00    -0.200 F 
ATOM     86  C   UNL A   1      46.864  35.512  29.851  1.00  0.00     0.200 A 
ATOM     87  F   UNL A   1      47.395  34.644  31.982  1.00  0.00    -0.200 F 
ATOM     88  F   UNL A   1      47.065  36.761  30.293  1.00  0.00    -0.200 F 
ENDBRANCH  55  78
ENDBRANCH  29  30
ENDBRANCH  22  24
ENDBRANCH  21  22
ENDBRANCH  20  21
ENDBRANCH  19  20
ENDBRANCH   1  19
TORSDOF 16
ENDMDL
MODEL 3
REMARK VINA RESULT:      -9.8      3.835     10.049
REMARK SMILES CC[C@@H](C)SCc1cc(F)cc(/C=C/C(=O)OCCOC(=O)c2ccc(-c3c4nc(c(-c5c(F)c(F)c(F)c(F)c5F)c5ccc([nH]5)c(-c5c(F)c(F)c(F)c(F)c5F)c5nc(c(-c6c(F)c(F)c(F)c(F)c6F)c6ccc3[nH]6)C=C5)C=C4)cc2)c1
REMARK SMILES IDX 17 1 15 2 16 3 14 4 13 5 12 6 7 7 8 8 86 9 9 10 10 11 11 12
REMARK SMILES IDX 6 13 5 14 3 15 4 16 2 17 1 18 18 19 19 20 20 21 21 22 22 23
REMARK SMILES IDX 23 24 24 25 85 26 25 27 84 28 26 29 27 30 28 31 78 32 29 33
REMARK SMILES IDX 83 34 77 35 79 36 30 37 82 38 76 39 75 40 31 42 63 43 43 44
REMARK SMILES IDX 62 45 44 46 47 47 61 48 80 49 45 50 46 51 60 53 81 54 48 55
REMARK SMILES IDX 32 56 33 57 41 58 34 59 35 60 39 61 42 62 36 63 37 64 40 65
REMARK SMILES IDX 38 66 64 67 65 68 73 69 66 70 67 71 71 72 74 73 68 74 69 75
REMARK SMILES IDX 72 76 70 77 49 78 50 79 58 80 51 81 52 82 56 83 59 84 53 85
REMARK SMILES IDX 54 86 57 87 55 88
REMARK H PARENT 79 41 47 52
REMARK Flexibility Score: inf
ROOT
ATOM      1  O   UNL A   1      32.509  27.492  25.099  1.00  0.00    -0.459 OA
ENDROOT
BRANCH   1   2
ATOM      2  C   UNL A   1      32.265  26.623  26.106  1.00  0.00     0.330 C 
ATOM      3  O   UNL A   1      31.359  26.695  26.924  1.00  0.00    -0.247 OA
BRANCH   2   4
ATOM      4  C   UNL A   1      33.204  25.485  26.113  1.00  0.00     0.094 C 
ATOM      5  C   UNL A   1      34.458  25.505  25.636  1.00  0.00     0.016 C 
BRANCH   5   6
ATOM      6  C   UNL A   1      35.280  24.290  25.631  1.00  0.00    -0.022 A 
ATOM      7  C   UNL A   1      35.464  21.892  25.207  1.00  0.00    -0.035 A 
ATOM      8  C   UNL A   1      36.845  21.971  25.437  1.00  0.00     0.043 A 
ATOM      9  C   UNL A   1      34.684  23.053  25.351  1.00  0.00     0.013 A 
ATOM     10  C   UNL A   1      37.423  23.188  25.769  1.00  0.00     0.124 A 
ATOM     11  F   UNL A   1      38.745  23.258  25.975  1.00  0.00    -0.207 F 
ATOM     12  C   UNL A   1      36.658  24.345  25.861  1.00  0.00     0.047 A 
BRANCH   7  13
ATOM     13  C   UNL A   1      34.835  20.596  24.768  1.00  0.00     0.105 C 
BRANCH  13  14
ATOM     14  S   UNL A   1      33.323  20.152  25.690  1.00  0.00    -0.154 SA
BRANCH  14  15
ATOM     15  C   UNL A   1      31.956  20.899  24.699  1.00  0.00     0.043 C 
ATOM     16  C   UNL A   1      32.325  21.058  23.224  1.00  0.00     0.019 C 
BRANCH  15  17
ATOM     17  C   UNL A   1      31.381  22.169  25.345  1.00  0.00     0.011 C 
ATOM     18  C   UNL A   1      31.065  23.268  24.338  1.00  0.00     0.005 C 
ENDBRANCH  15  17
ENDBRANCH  14  15
ENDBRANCH  13  14
ENDBRANCH   7  13
ENDBRANCH   5   6
ENDBRANCH   2   4
ENDBRANCH   1   2
BRANCH   1  19
ATOM     19  C   UNL A   1      31.410  28.341  24.725  1.00  0.00     0.275 C 
BRANCH  19  20
ATOM     20  C   UNL A   1      31.573  29.745  25.312  1.00  0.00     0.275 C 
BRANCH  20  21
ATOM     21  O   UNL A   1      32.944  30.035  25.648  1.00  0.00    -0.458 OA
BRANCH  21  22
ATOM     22  C   UNL A   1      33.113  30.901  26.675  1.00  0.00     0.338 C 
ATOM     23  O   UNL A   1      32.310  31.723  27.087  1.00  0.00    -0.246 OA
BRANCH  22  24
ATOM     24  C   UNL A   1      34.406  30.655  27.338  1.00  0.00     0.060 A 
ATOM     25  C   UNL A   1      34.747  29.333  27.642  1.00  0.00     0.016 A 
ATOM     26  C   UNL A   1      35.236  31.708  27.733  1.00  0.00     0.016 A 
ATOM     27  C   UNL A   1      35.914  29.058  28.351  1.00  0.00     0.010 A 
ATOM     28  C   UNL A   1      36.407  31.430  28.447  1.00  0.00     0.010 A 
ATOM     29  C   UNL A   1      36.745  30.105  28.772  1.00  0.00    -0.014 A 
BRANCH  29  30
ATOM     30  C   UNL A   1      37.944  29.809  29.594  1.00  0.00     0.031 A 
ATOM     31  C   UNL A   1      39.014  28.898  29.064  1.00  0.00     0.074 A 
ATOM     32  C   UNL A   1      38.087  30.384  30.802  1.00  0.00     0.049 A 
ATOM     33  N   UNL A   1      40.121  28.499  29.638  1.00  0.00    -0.248 NA
ATOM     34  C   UNL A   1      38.812  28.366  27.708  1.00  0.00     0.031 C 
ATOM     35  C   UNL A   1      37.136  31.312  31.409  1.00  0.00     0.029 A 
ATOM     36  N   UNL A   1      39.091  30.273  31.732  1.00  0.00    -0.354 N 
ATOM     37  C   UNL A   1      40.746  27.669  28.718  1.00  0.00     0.074 A 
ATOM     38  C   UNL A   1      39.884  27.600  27.556  1.00  0.00     0.031 C 
ATOM     39  C   UNL A   1      37.604  31.695  32.608  1.00  0.00     0.029 A 
ATOM     40  C   UNL A   1      38.870  31.011  32.868  1.00  0.00     0.049 A 
ATOM     41  H   UNL A   1      39.892  29.717  31.598  1.00  0.00     0.167 HD
ATOM     42  C   UNL A   1      41.936  27.032  28.830  1.00  0.00     0.037 A 
ATOM     43  C   UNL A   1      39.599  31.115  33.996  1.00  0.00     0.037 A 
ATOM     44  C   UNL A   1      42.798  27.111  29.980  1.00  0.00     0.049 A 
ATOM     45  C   UNL A   1      40.888  30.349  34.119  1.00  0.00     0.074 A 
ATOM     46  C   UNL A   1      44.030  26.510  30.177  1.00  0.00     0.029 A 
ATOM     47  N   UNL A   1      42.517  27.833  31.130  1.00  0.00    -0.354 N 
ATOM     48  N   UNL A   1      41.472  29.569  33.243  1.00  0.00    -0.248 NA
ATOM     49  C   UNL A   1      41.617  30.474  35.390  1.00  0.00     0.031 C 
ATOM     50  C   UNL A   1      44.476  26.835  31.461  1.00  0.00     0.029 A 
ATOM     51  C   UNL A   1      43.543  27.675  32.048  1.00  0.00     0.049 A 
ATOM     52  H   UNL A   1      41.710  28.377  31.274  1.00  0.00     0.167 HD
ATOM     53  C   UNL A   1      42.640  29.124  33.846  1.00  0.00     0.074 A 
ATOM     54  C   UNL A   1      42.693  29.731  35.159  1.00  0.00     0.031 C 
ATOM     55  C   UNL A   1      43.583  28.284  33.353  1.00  0.00     0.037 A 
BRANCH  42  56
ATOM     56  C   UNL A   1      42.383  26.180  27.681  1.00  0.00     0.064 A 
ATOM     57  C   UNL A   1      41.926  24.860  27.555  1.00  0.00     0.173 A 
ATOM     58  C   UNL A   1      43.321  26.644  26.746  1.00  0.00     0.173 A 
ATOM     59  F   UNL A   1      41.033  24.369  28.428  1.00  0.00    -0.203 F 
ATOM     60  C   UNL A   1      42.401  24.031  26.543  1.00  0.00     0.198 A 
ATOM     61  C   UNL A   1      43.777  25.818  25.722  1.00  0.00     0.198 A 
ATOM     62  F   UNL A   1      43.781  27.902  26.819  1.00  0.00    -0.203 F 
ATOM     63  F   UNL A   1      41.971  22.764  26.461  1.00  0.00    -0.200 F 
ATOM     64  C   UNL A   1      43.324  24.511  25.626  1.00  0.00     0.200 A 
ATOM     65  F   UNL A   1      44.654  26.288  24.825  1.00  0.00    -0.200 F 
ATOM     66  F   UNL A   1      43.776  23.713  24.649  1.00  0.00    -0.200 F 
ENDBRANCH  42  56
BRANCH  43  67
ATOM     67  C   UNL A   1      39.118  31.983  35.102  1.00  0.00     0.064 A 
ATOM     68  C   UNL A   1      39.368  33.362  35.103  1.00  0.00     0.173 A 
ATOM     69  C   UNL A   1      38.416  31.444  36.187  1.00  0.00     0.173 A 
ATOM     70  F   UNL A   1      40.034  33.926  34.084  1.00  0.00    -0.203 F 
ATOM     71  C   UNL A   1      38.952  34.167  36.160  1.00  0.00     0.198 A 
ATOM     72  C   UNL A   1      37.978  32.254  37.232  1.00  0.00     0.198 A 
ATOM     73  F   UNL A   1      38.131  30.134  36.216  1.00  0.00    -0.203 F 
ATOM     74  F   UNL A   1      39.229  35.479  36.151  1.00  0.00    -0.200 F 
ATOM     75  C   UNL A   1      38.254  33.613  37.222  1.00  0.00     0.200 A 
ATOM     76  F   UNL A   1      37.281  31.720  38.245  1.00  0.00    -0.200 F 
ATOM     77  F   UNL A   1      37.842  34.390  38.234  1.00  0.00    -0.200 F 
ENDBRANCH  43  67
BRANCH  55  78
ATOM     78  C   UNL A   1      44.763  27.976  34.226  1.00  0.00     0.064 A 
ATOM     79  C   UNL A   1      44.728  26.891  35.115  1.00  0.00     0.173 A 
ATOM     80  C   UNL A   1      45.899  28.798  34.235  1.00  0.00     0.173 A 
ATOM     81  F   UNL A   1      43.661  26.079  35.149  1.00  0.00    -0.203 F 
ATOM     82  C   UNL A   1      45.783  26.649  35.991  1.00  0.00     0.198 A 
ATOM     83  C   UNL A   1      46.962  28.538  35.096  1.00  0.00     0.198 A 
ATOM     84  F   UNL A   1      45.984  29.840  33.395  1.00  0.00    -0.203 F 
ATOM     85  F   UNL A   1      45.715  25.624  36.853  1.00  0.00    -0.200 F 
ATOM     86  C   UNL A   1      46.899  27.470  35.979  1.00  0.00     0.200 A 
ATOM     87  F   UNL A   1      48.050  29.321  35.069  1.00  0.00    -0.200 F 
ATOM     88  F   UNL A   1      47.917  27.231  36.818  1.00  0.00    -0.200 F 
ENDBRANCH  55  78
ENDBRANCH  29  30
ENDBRANCH  22  24
ENDBRANCH  21  22
ENDBRANCH  20  21
ENDBRANCH  19  20
ENDBRANCH   1  19
TORSDOF 16
ENDMDL
