MODEL 1
REMARK VINA RESULT:     -11.2      0.000      0.000
REMARK SMILES Cc1noc(C)c1[C@@H](C)NC(=O)N[C@H](CO)C(=O)OCCOC(=O)c1ccc(-c2c3nc(c(-c4c(F)c(F)c(F)c(F)c4F)c4ccc([nH]4)c(-c4c(F)c(F)c(F)c(F)c4F)c4nc(c(-c5c(F)c(F)c(F)c(F)c5F)c5ccc2[nH]5)C=C4)C=C3)cc1
REMARK SMILES IDX 20 1 19 2 17 3 18 4 14 5 13 6 10 7 11 8 12 10 8 12 9 13 7 14
REMARK SMILES IDX 1 15 2 16 3 17 4 18 5 19 6 20 15 21 16 22 21 24 22 25 23 26
REMARK SMILES IDX 24 27 25 28 26 29 87 30 27 31 86 32 28 33 29 34 30 35 80 36
REMARK SMILES IDX 31 37 85 38 79 39 81 40 32 41 84 42 78 43 77 44 33 46 65 47
REMARK SMILES IDX 45 48 64 49 46 50 49 51 63 52 82 53 47 54 48 55 62 57 83 58
REMARK SMILES IDX 50 59 34 60 35 61 43 62 36 63 37 64 41 65 44 66 38 67 39 68
REMARK SMILES IDX 42 69 40 70 66 71 67 72 75 73 68 74 69 75 73 76 76 77 70 78
REMARK SMILES IDX 71 79 74 80 72 81 51 82 52 83 60 84 53 85 54 86 58 87 61 88
REMARK SMILES IDX 55 89 56 90 59 91 57 92
REMARK H PARENT 10 9 13 11 16 23 81 45 49 56
REMARK Flexibility Score: inf
ROOT
ATOM      1  C   UNL A   1      31.480  28.799  24.398  1.00  0.00     0.274 C 
ENDROOT
BRANCH   1   2
ATOM      2  O   UNL A   1      31.759  27.394  24.227  1.00  0.00    -0.460 OA
BRANCH   2   3
ATOM      3  C   UNL A   1      30.911  26.532  24.846  1.00  0.00     0.331 C 
ATOM      4  O   UNL A   1      29.696  26.527  24.683  1.00  0.00    -0.250 OA
BRANCH   3   5
ATOM      5  C   UNL A   1      31.620  25.501  25.730  1.00  0.00     0.219 C 
BRANCH   5   6
ATOM      6  N   UNL A   1      30.730  24.607  26.484  1.00  0.00    -0.323 N 
ATOM      7  N   UNL A   1      31.231  22.304  26.223  1.00  0.00    -0.331 N 
ATOM      8  C   UNL A   1      30.583  23.324  26.762  1.00  0.00     0.316 C 
ATOM      9  H   UNL A   1      31.125  21.485  26.759  1.00  0.00     0.165 HD
ATOM     10  O   UNL A   1      29.744  23.051  27.625  1.00  0.00    -0.249 OA
ATOM     11  H   UNL A   1      30.019  25.130  26.920  1.00  0.00     0.166 HD
BRANCH   7  12
ATOM     12  C   UNL A   1      32.056  22.072  25.051  1.00  0.00     0.116 C 
ATOM     13  C   UNL A   1      32.147  20.568  24.790  1.00  0.00     0.036 C 
BRANCH  12  14
ATOM     14  C   UNL A   1      33.422  22.675  25.229  1.00  0.00     0.040 A 
ATOM     15  C   UNL A   1      34.107  22.194  27.735  1.00  0.00     0.071 C 
ATOM     16  C   UNL A   1      34.278  22.756  26.373  1.00  0.00     0.086 A 
ATOM     17  N   UNL A   1      35.408  23.417  26.097  1.00  0.00    -0.085 NA
ATOM     18  O   UNL A   1      35.363  23.700  24.754  1.00  0.00    -0.361 OA
ATOM     19  C   UNL A   1      34.213  23.215  24.225  1.00  0.00     0.139 A 
ATOM     20  C   UNL A   1      34.107  23.329  22.758  1.00  0.00     0.091 C 
ENDBRANCH  12  14
ENDBRANCH   7  12
ENDBRANCH   5   6
BRANCH   5  21
ATOM     21  C   UNL A   1      32.834  26.022  26.500  1.00  0.00     0.193 C 
BRANCH  21  22
ATOM     22  O   UNL A   1      33.945  26.232  25.627  1.00  0.00    -0.394 OA
ATOM     23  H   UNL A   1      34.288  27.132  25.752  1.00  0.00     0.210 HD
ENDBRANCH  21  22
ENDBRANCH   5  21
ENDBRANCH   3   5
ENDBRANCH   2   3
ENDBRANCH   1   2
BRANCH   1  24
ATOM     24  C   UNL A   1      31.873  29.352  25.774  1.00  0.00     0.275 C 
BRANCH  24  25
ATOM     25  O   UNL A   1      33.130  30.053  25.780  1.00  0.00    -0.458 OA
BRANCH  25  26
ATOM     26  C   UNL A   1      33.277  30.969  26.762  1.00  0.00     0.338 C 
ATOM     27  O   UNL A   1      32.466  31.803  27.128  1.00  0.00    -0.246 OA
BRANCH  26  28
ATOM     28  C   UNL A   1      34.544  30.760  27.468  1.00  0.00     0.060 A 
ATOM     29  C   UNL A   1      34.773  29.501  28.029  1.00  0.00     0.016 A 
ATOM     30  C   UNL A   1      35.444  31.804  27.663  1.00  0.00     0.016 A 
ATOM     31  C   UNL A   1      35.898  29.273  28.803  1.00  0.00     0.010 A 
ATOM     32  C   UNL A   1      36.591  31.571  28.421  1.00  0.00     0.010 A 
ATOM     33  C   UNL A   1      36.820  30.305  28.991  1.00  0.00    -0.014 A 
BRANCH  33  34
ATOM     34  C   UNL A   1      38.057  30.040  29.745  1.00  0.00     0.031 A 
ATOM     35  C   UNL A   1      39.099  29.134  29.177  1.00  0.00     0.074 A 
ATOM     36  C   UNL A   1      38.204  30.620  30.949  1.00  0.00     0.049 A 
ATOM     37  N   UNL A   1      40.172  28.654  29.746  1.00  0.00    -0.248 NA
ATOM     38  C   UNL A   1      38.907  28.704  27.784  1.00  0.00     0.031 C 
ATOM     39  C   UNL A   1      37.254  31.560  31.550  1.00  0.00     0.029 A 
ATOM     40  N   UNL A   1      39.191  30.495  31.888  1.00  0.00    -0.354 N 
ATOM     41  C   UNL A   1      40.770  27.842  28.794  1.00  0.00     0.074 A 
ATOM     42  C   UNL A   1      39.940  27.892  27.609  1.00  0.00     0.031 C 
ATOM     43  C   UNL A   1      37.697  31.914  32.764  1.00  0.00     0.029 A 
ATOM     44  C   UNL A   1      38.928  31.183  33.045  1.00  0.00     0.049 A 
ATOM     45  H   UNL A   1      40.008  29.963  31.748  1.00  0.00     0.167 HD
ATOM     46  C   UNL A   1      41.907  27.117  28.917  1.00  0.00     0.037 A 
ATOM     47  C   UNL A   1      39.587  31.185  34.217  1.00  0.00     0.037 A 
ATOM     48  C   UNL A   1      42.709  27.092  30.112  1.00  0.00     0.049 A 
ATOM     49  C   UNL A   1      40.824  30.341  34.339  1.00  0.00     0.074 A 
ATOM     50  C   UNL A   1      43.874  26.389  30.361  1.00  0.00     0.029 A 
ATOM     51  N   UNL A   1      42.421  27.811  31.266  1.00  0.00    -0.354 N 
ATOM     52  N   UNL A   1      41.374  29.555  33.446  1.00  0.00    -0.248 NA
ATOM     53  C   UNL A   1      41.526  30.378  35.627  1.00  0.00     0.031 C 
ATOM     54  C   UNL A   1      44.272  26.656  31.676  1.00  0.00     0.029 A 
ATOM     55  C   UNL A   1      43.380  27.560  32.233  1.00  0.00     0.049 A 
ATOM     56  H   UNL A   1      41.649  28.411  31.379  1.00  0.00     0.167 HD
ATOM     57  C   UNL A   1      42.501  29.020  34.051  1.00  0.00     0.074 A 
ATOM     58  C   UNL A   1      42.557  29.579  35.388  1.00  0.00     0.031 C 
ATOM     59  C   UNL A   1      43.408  28.147  33.549  1.00  0.00     0.037 A 
BRANCH  46  60
ATOM     60  C   UNL A   1      42.318  26.267  27.751  1.00  0.00     0.064 A 
ATOM     61  C   UNL A   1      41.757  25.002  27.524  1.00  0.00     0.173 A 
ATOM     62  C   UNL A   1      43.277  26.734  26.839  1.00  0.00     0.173 A 
ATOM     63  F   UNL A   1      40.850  24.503  28.377  1.00  0.00    -0.203 F 
ATOM     64  C   UNL A   1      42.157  24.226  26.438  1.00  0.00     0.198 A 
ATOM     65  C   UNL A   1      43.657  25.966  25.741  1.00  0.00     0.198 A 
ATOM     66  F   UNL A   1      43.846  27.936  27.011  1.00  0.00    -0.203 F 
ATOM     67  F   UNL A   1      41.639  23.003  26.263  1.00  0.00    -0.200 F 
ATOM     68  C   UNL A   1      43.102  24.711  25.545  1.00  0.00     0.200 A 
ATOM     69  F   UNL A   1      44.565  26.439  24.876  1.00  0.00    -0.200 F 
ATOM     70  F   UNL A   1      43.484  23.964  24.500  1.00  0.00    -0.200 F 
ENDBRANCH  46  60
BRANCH  47  71
ATOM     71  C   UNL A   1      39.073  31.995  35.348  1.00  0.00     0.064 A 
ATOM     72  C   UNL A   1      38.309  31.411  36.365  1.00  0.00     0.173 A 
ATOM     73  C   UNL A   1      39.374  33.362  35.460  1.00  0.00     0.173 A 
ATOM     74  F   UNL A   1      37.982  30.113  36.294  1.00  0.00    -0.203 F 
ATOM     75  C   UNL A   1      37.859  32.162  37.450  1.00  0.00     0.198 A 
ATOM     76  C   UNL A   1      38.946  34.106  36.557  1.00  0.00     0.198 A 
ATOM     77  F   UNL A   1      40.109  33.968  34.516  1.00  0.00    -0.203 F 
ATOM     78  F   UNL A   1      37.108  31.584  38.397  1.00  0.00    -0.200 F 
ATOM     79  C   UNL A   1      38.186  33.507  37.548  1.00  0.00     0.200 A 
ATOM     80  F   UNL A   1      39.280  35.400  36.658  1.00  0.00    -0.200 F 
ATOM     81  F   UNL A   1      37.767  34.224  38.600  1.00  0.00    -0.200 F 
ENDBRANCH  47  71
BRANCH  59  82
ATOM     82  C   UNL A   1      44.556  27.782  34.438  1.00  0.00     0.064 A 
ATOM     83  C   UNL A   1      44.500  26.671  35.289  1.00  0.00     0.173 A 
ATOM     84  C   UNL A   1      45.743  28.529  34.397  1.00  0.00     0.173 A 
ATOM     85  F   UNL A   1      43.378  25.939  35.370  1.00  0.00    -0.203 F 
ATOM     86  C   UNL A   1      45.589  26.328  36.083  1.00  0.00     0.198 A 
ATOM     87  C   UNL A   1      46.837  28.170  35.176  1.00  0.00     0.198 A 
ATOM     88  F   UNL A   1      45.842  29.598  33.593  1.00  0.00    -0.203 F 
ATOM     89  F   UNL A   1      45.504  25.283  36.918  1.00  0.00    -0.200 F 
ATOM     90  C   UNL A   1      46.759  27.072  36.021  1.00  0.00     0.200 A 
ATOM     91  F   UNL A   1      47.970  28.883  35.109  1.00  0.00    -0.200 F 
ATOM     92  F   UNL A   1      47.809  26.735  36.782  1.00  0.00    -0.200 F 
ENDBRANCH  59  82
ENDBRANCH  33  34
ENDBRANCH  26  28
ENDBRANCH  25  26
ENDBRANCH  24  25
ENDBRANCH   1  24
TORSDOF 16
ENDMDL
MODEL 2
REMARK VINA RESULT:     -11.2      4.415      9.949
REMARK SMILES Cc1noc(C)c1[C@@H](C)NC(=O)N[C@H](CO)C(=O)OCCOC(=O)c1ccc(-c2c3nc(c(-c4c(F)c(F)c(F)c(F)c4F)c4ccc([nH]4)c(-c4c(F)c(F)c(F)c(F)c4F)c4nc(c(-c5c(F)c(F)c(F)c(F)c5F)c5ccc2[nH]5)C=C4)C=C3)cc1
REMARK SMILES IDX 20 1 19 2 17 3 18 4 14 5 13 6 10 7 11 8 12 10 8 12 9 13 7 14
REMARK SMILES IDX 1 15 2 16 3 17 4 18 5 19 6 20 15 21 16 22 21 24 22 25 23 26
REMARK SMILES IDX 24 27 25 28 26 29 87 30 27 31 86 32 28 33 29 34 30 35 80 36
REMARK SMILES IDX 31 37 85 38 79 39 81 40 32 41 84 42 78 43 77 44 33 46 65 47
REMARK SMILES IDX 45 48 64 49 46 50 49 51 63 52 82 53 47 54 48 55 62 57 83 58
REMARK SMILES IDX 50 59 34 60 35 61 43 62 36 63 37 64 41 65 44 66 38 67 39 68
REMARK SMILES IDX 42 69 40 70 66 71 67 72 75 73 68 74 69 75 73 76 76 77 70 78
REMARK SMILES IDX 71 79 74 80 72 81 51 82 52 83 60 84 53 85 54 86 58 87 61 88
REMARK SMILES IDX 55 89 56 90 59 91 57 92
REMARK H PARENT 10 9 13 11 16 23 81 45 49 56
REMARK Flexibility Score: inf
ROOT
ATOM      1  C   UNL A   1      33.511  33.779  28.026  1.00  0.00     0.274 C 
ENDROOT
BRANCH   1   2
ATOM      2  O   UNL A   1      34.149  34.750  28.881  1.00  0.00    -0.460 OA
BRANCH   2   3
ATOM      3  C   UNL A   1      33.325  35.620  29.522  1.00  0.00     0.331 C 
ATOM      4  O   UNL A   1      32.383  36.196  28.988  1.00  0.00    -0.250 OA
BRANCH   3   5
ATOM      5  C   UNL A   1      33.634  35.773  31.015  1.00  0.00     0.219 C 
BRANCH   5   6
ATOM      6  N   UNL A   1      33.517  34.541  31.807  1.00  0.00    -0.323 N 
ATOM      7  N   UNL A   1      35.584  33.447  32.200  1.00  0.00    -0.331 N 
ATOM      8  C   UNL A   1      34.282  33.616  32.360  1.00  0.00     0.316 C 
ATOM      9  H   UNL A   1      35.960  32.858  32.895  1.00  0.00     0.165 HD
ATOM     10  O   UNL A   1      33.710  32.822  33.114  1.00  0.00    -0.249 OA
ATOM     11  H   UNL A   1      32.568  34.340  31.980  1.00  0.00     0.166 HD
BRANCH   7  12
ATOM     12  C   UNL A   1      36.606  33.897  31.272  1.00  0.00     0.116 C 
ATOM     13  C   UNL A   1      36.775  32.855  30.167  1.00  0.00     0.036 C 
BRANCH  12  14
ATOM     14  C   UNL A   1      37.906  34.147  31.986  1.00  0.00     0.040 A 
ATOM     15  C   UNL A   1      37.580  33.210  34.435  1.00  0.00     0.071 C 
ATOM     16  C   UNL A   1      38.309  33.886  33.334  1.00  0.00     0.086 A 
ATOM     17  N   UNL A   1      39.559  34.302  33.564  1.00  0.00    -0.085 NA
ATOM     18  O   UNL A   1      40.035  34.756  32.357  1.00  0.00    -0.361 OA
ATOM     19  C   UNL A   1      39.077  34.616  31.409  1.00  0.00     0.139 A 
ATOM     20  C   UNL A   1      39.510  34.936  30.035  1.00  0.00     0.091 C 
ENDBRANCH  12  14
ENDBRANCH   7  12
ENDBRANCH   5   6
BRANCH   5  21
ATOM     21  C   UNL A   1      33.074  37.033  31.674  1.00  0.00     0.193 C 
BRANCH  21  22
ATOM     22  O   UNL A   1      33.195  38.164  30.809  1.00  0.00    -0.394 OA
ATOM     23  H   UNL A   1      33.569  38.910  31.304  1.00  0.00     0.210 HD
ENDBRANCH  21  22
ENDBRANCH   5  21
ENDBRANCH   3   5
ENDBRANCH   2   3
ENDBRANCH   1   2
BRANCH   1  24
ATOM     24  C   UNL A   1      33.775  32.322  28.428  1.00  0.00     0.275 C 
BRANCH  24  25
ATOM     25  O   UNL A   1      34.519  31.576  27.447  1.00  0.00    -0.458 OA
BRANCH  25  26
ATOM     26  C   UNL A   1      34.614  30.249  27.681  1.00  0.00     0.338 C 
ATOM     27  O   UNL A   1      33.791  29.387  27.425  1.00  0.00    -0.246 OA
BRANCH  26  28
ATOM     28  C   UNL A   1      35.948  29.916  28.192  1.00  0.00     0.060 A 
ATOM     29  C   UNL A   1      37.029  30.053  27.318  1.00  0.00     0.016 A 
ATOM     30  C   UNL A   1      36.121  29.387  29.468  1.00  0.00     0.016 A 
ATOM     31  C   UNL A   1      38.297  29.649  27.704  1.00  0.00     0.010 A 
ATOM     32  C   UNL A   1      37.401  29.004  29.869  1.00  0.00     0.010 A 
ATOM     33  C   UNL A   1      38.489  29.135  28.988  1.00  0.00    -0.014 A 
BRANCH  33  34
ATOM     34  C   UNL A   1      39.850  28.782  29.427  1.00  0.00     0.031 A 
ATOM     35  C   UNL A   1      40.621  29.720  30.297  1.00  0.00     0.074 A 
ATOM     36  C   UNL A   1      40.371  27.615  29.010  1.00  0.00     0.049 A 
ATOM     37  N   UNL A   1      41.875  29.667  30.658  1.00  0.00    -0.248 NA
ATOM     38  C   UNL A   1      39.885  30.876  30.832  1.00  0.00     0.031 C 
ATOM     39  C   UNL A   1      39.662  26.621  28.201  1.00  0.00     0.029 A 
ATOM     40  N   UNL A   1      41.615  27.075  29.191  1.00  0.00    -0.354 N 
ATOM     41  C   UNL A   1      42.090  30.795  31.436  1.00  0.00     0.074 A 
ATOM     42  C   UNL A   1      40.837  31.517  31.496  1.00  0.00     0.031 C 
ATOM     43  C   UNL A   1      40.488  25.599  27.941  1.00  0.00     0.029 A 
ATOM     44  C   UNL A   1      41.795  25.894  28.517  1.00  0.00     0.049 A 
ATOM     45  H   UNL A   1      42.311  27.492  29.748  1.00  0.00     0.167 HD
ATOM     46  C   UNL A   1      43.241  31.185  32.033  1.00  0.00     0.037 A 
ATOM     47  C   UNL A   1      42.907  25.157  28.348  1.00  0.00     0.037 A 
ATOM     48  C   UNL A   1      44.471  30.441  31.952  1.00  0.00     0.049 A 
ATOM     49  C   UNL A   1      44.180  25.634  28.987  1.00  0.00     0.074 A 
ATOM     50  C   UNL A   1      45.703  30.739  32.504  1.00  0.00     0.029 A 
ATOM     51  N   UNL A   1      44.618  29.239  31.269  1.00  0.00    -0.354 N 
ATOM     52  N   UNL A   1      44.387  26.713  29.703  1.00  0.00    -0.248 NA
ATOM     53  C   UNL A   1      45.370  24.798  28.795  1.00  0.00     0.031 C 
ATOM     54  C   UNL A   1      46.604  29.736  32.127  1.00  0.00     0.029 A 
ATOM     55  C   UNL A   1      45.923  28.789  31.376  1.00  0.00     0.049 A 
ATOM     56  H   UNL A   1      43.899  28.775  30.781  1.00  0.00     0.167 HD
ATOM     57  C   UNL A   1      45.724  26.679  30.068  1.00  0.00     0.074 A 
ATOM     58  C   UNL A   1      46.276  25.465  29.498  1.00  0.00     0.031 C 
ATOM     59  C   UNL A   1      46.432  27.568  30.806  1.00  0.00     0.037 A 
BRANCH  46  60
ATOM     60  C   UNL A   1      43.230  32.486  32.779  1.00  0.00     0.064 A 
ATOM     61  C   UNL A   1      42.993  32.544  34.161  1.00  0.00     0.173 A 
ATOM     62  C   UNL A   1      43.477  33.691  32.105  1.00  0.00     0.173 A 
ATOM     63  F   UNL A   1      42.734  31.422  34.848  1.00  0.00    -0.203 F 
ATOM     64  C   UNL A   1      42.983  33.763  34.835  1.00  0.00     0.198 A 
ATOM     65  C   UNL A   1      43.489  34.906  32.786  1.00  0.00     0.198 A 
ATOM     66  F   UNL A   1      43.708  33.692  30.783  1.00  0.00    -0.203 F 
ATOM     67  F   UNL A   1      42.712  33.800  36.146  1.00  0.00    -0.200 F 
ATOM     68  C   UNL A   1      43.236  34.942  34.148  1.00  0.00     0.200 A 
ATOM     69  F   UNL A   1      43.741  36.042  32.121  1.00  0.00    -0.200 F 
ATOM     70  F   UNL A   1      43.227  36.113  34.798  1.00  0.00    -0.200 F 
ENDBRANCH  46  60
BRANCH  47  71
ATOM     71  C   UNL A   1      42.852  23.921  27.531  1.00  0.00     0.064 A 
ATOM     72  C   UNL A   1      43.178  23.941  26.169  1.00  0.00     0.173 A 
ATOM     73  C   UNL A   1      42.518  22.683  28.105  1.00  0.00     0.173 A 
ATOM     74  F   UNL A   1      43.488  25.101  25.573  1.00  0.00    -0.203 F 
ATOM     75  C   UNL A   1      43.167  22.772  25.409  1.00  0.00     0.198 A 
ATOM     76  C   UNL A   1      42.532  21.512  27.350  1.00  0.00     0.198 A 
ATOM     77  F   UNL A   1      42.205  22.609  29.407  1.00  0.00    -0.203 F 
ATOM     78  F   UNL A   1      43.458  22.824  24.102  1.00  0.00    -0.200 F 
ATOM     79  C   UNL A   1      42.852  21.559  26.003  1.00  0.00     0.200 A 
ATOM     80  F   UNL A   1      42.246  20.339  27.932  1.00  0.00    -0.200 F 
ATOM     81  F   UNL A   1      42.858  20.434  25.274  1.00  0.00    -0.200 F 
ENDBRANCH  47  71
BRANCH  59  82
ATOM     82  C   UNL A   1      47.866  27.232  31.071  1.00  0.00     0.064 A 
ATOM     83  C   UNL A   1      48.895  27.709  30.248  1.00  0.00     0.173 A 
ATOM     84  C   UNL A   1      48.214  26.465  32.193  1.00  0.00     0.173 A 
ATOM     85  F   UNL A   1      48.605  28.433  29.156  1.00  0.00    -0.203 F 
ATOM     86  C   UNL A   1      50.225  27.415  30.530  1.00  0.00     0.198 A 
ATOM     87  C   UNL A   1      49.546  26.192  32.483  1.00  0.00     0.198 A 
ATOM     88  F   UNL A   1      47.261  25.992  33.010  1.00  0.00    -0.203 F 
ATOM     89  F   UNL A   1      51.193  27.849  29.711  1.00  0.00    -0.200 F 
ATOM     90  C   UNL A   1      50.550  26.663  31.650  1.00  0.00     0.200 A 
ATOM     91  F   UNL A   1      49.860  25.473  33.571  1.00  0.00    -0.200 F 
ATOM     92  F   UNL A   1      51.833  26.386  31.923  1.00  0.00    -0.200 F 
ENDBRANCH  59  82
ENDBRANCH  33  34
ENDBRANCH  26  28
ENDBRANCH  25  26
ENDBRANCH  24  25
ENDBRANCH   1  24
TORSDOF 16
ENDMDL
MODEL 3
REMARK VINA RESULT:     -11.1      1.185      2.821
REMARK SMILES Cc1noc(C)c1[C@@H](C)NC(=O)N[C@H](CO)C(=O)OCCOC(=O)c1ccc(-c2c3nc(c(-c4c(F)c(F)c(F)c(F)c4F)c4ccc([nH]4)c(-c4c(F)c(F)c(F)c(F)c4F)c4nc(c(-c5c(F)c(F)c(F)c(F)c5F)c5ccc2[nH]5)C=C4)C=C3)cc1
REMARK SMILES IDX 20 1 19 2 17 3 18 4 14 5 13 6 10 7 11 8 12 10 8 12 9 13 7 14
REMARK SMILES IDX 1 15 2 16 3 17 4 18 5 19 6 20 15 21 16 22 21 24 22 25 23 26
REMARK SMILES IDX 24 27 25 28 26 29 87 30 27 31 86 32 28 33 29 34 30 35 80 36
REMARK SMILES IDX 31 37 85 38 79 39 81 40 32 41 84 42 78 43 77 44 33 46 65 47
REMARK SMILES IDX 45 48 64 49 46 50 49 51 63 52 82 53 47 54 48 55 62 57 83 58
REMARK SMILES IDX 50 59 34 60 35 61 43 62 36 63 37 64 41 65 44 66 38 67 39 68
REMARK SMILES IDX 42 69 40 70 66 71 67 72 75 73 68 74 69 75 73 76 76 77 70 78
REMARK SMILES IDX 71 79 74 80 72 81 51 82 52 83 60 84 53 85 54 86 58 87 61 88
REMARK SMILES IDX 55 89 56 90 59 91 57 92
REMARK H PARENT 10 9 13 11 16 23 81 45 49 56
REMARK Flexibility Score: inf
ROOT
ATOM      1  C   UNL A   1      31.230  29.430  24.879  1.00  0.00     0.274 C 
ENDROOT
BRANCH   1   2
ATOM      2  O   UNL A   1      31.863  28.183  24.529  1.00  0.00    -0.460 OA
BRANCH   2   3
ATOM      3  C   UNL A   1      31.684  27.755  23.252  1.00  0.00     0.331 C 
ATOM      4  O   UNL A   1      30.586  27.586  22.731  1.00  0.00    -0.250 OA
BRANCH   3   5
ATOM      5  C   UNL A   1      32.992  27.563  22.479  1.00  0.00     0.219 C 
BRANCH   5   6
ATOM      6  N   UNL A   1      33.219  26.207  21.962  1.00  0.00    -0.323 N 
ATOM      7  N   UNL A   1      33.125  24.515  23.620  1.00  0.00    -0.331 N 
ATOM      8  C   UNL A   1      33.213  24.952  22.375  1.00  0.00     0.316 C 
ATOM      9  H   UNL A   1      32.896  23.557  23.652  1.00  0.00     0.165 HD
ATOM     10  O   UNL A   1      33.300  24.092  21.493  1.00  0.00    -0.249 OA
ATOM     11  H   UNL A   1      33.447  26.245  21.005  1.00  0.00     0.166 HD
BRANCH   7  12
ATOM     12  C   UNL A   1      33.276  25.071  24.953  1.00  0.00     0.116 C 
ATOM     13  C   UNL A   1      34.740  24.964  25.379  1.00  0.00     0.036 C 
BRANCH  12  14
ATOM     14  C   UNL A   1      32.374  24.372  25.932  1.00  0.00     0.040 A 
ATOM     15  C   UNL A   1      30.026  25.569  25.736  1.00  0.00     0.071 C 
ATOM     16  C   UNL A   1      31.006  24.602  26.288  1.00  0.00     0.086 A 
ATOM     17  N   UNL A   1      30.597  23.757  27.240  1.00  0.00    -0.085 NA
ATOM     18  O   UNL A   1      31.646  22.899  27.463  1.00  0.00    -0.361 OA
ATOM     19  C   UNL A   1      32.681  23.226  26.651  1.00  0.00     0.139 A 
ATOM     20  C   UNL A   1      33.822  22.292  26.691  1.00  0.00     0.091 C 
ENDBRANCH  12  14
ENDBRANCH   7  12
ENDBRANCH   5   6
BRANCH   5  21
ATOM     21  C   UNL A   1      34.217  28.250  23.084  1.00  0.00     0.193 C 
BRANCH  21  22
ATOM     22  O   UNL A   1      33.976  29.643  23.291  1.00  0.00    -0.394 OA
ATOM     23  H   UNL A   1      33.430  29.762  24.085  1.00  0.00     0.210 HD
ENDBRANCH  21  22
ENDBRANCH   5  21
ENDBRANCH   3   5
ENDBRANCH   2   3
ENDBRANCH   1   2
BRANCH   1  24
ATOM     24  C   UNL A   1      31.691  30.010  26.223  1.00  0.00     0.275 C 
BRANCH  24  25
ATOM     25  O   UNL A   1      33.100  30.296  26.279  1.00  0.00    -0.458 OA
BRANCH  25  26
ATOM     26  C   UNL A   1      33.447  31.350  27.050  1.00  0.00     0.338 C 
ATOM     27  O   UNL A   1      32.790  32.351  27.280  1.00  0.00    -0.246 OA
BRANCH  26  28
ATOM     28  C   UNL A   1      34.722  31.090  27.724  1.00  0.00     0.060 A 
ATOM     29  C   UNL A   1      34.927  29.814  28.254  1.00  0.00     0.016 A 
ATOM     30  C   UNL A   1      35.655  32.105  27.921  1.00  0.00     0.016 A 
ATOM     31  C   UNL A   1      36.062  29.539  28.999  1.00  0.00     0.010 A 
ATOM     32  C   UNL A   1      36.811  31.824  28.648  1.00  0.00     0.010 A 
ATOM     33  C   UNL A   1      37.016  30.541  29.187  1.00  0.00    -0.014 A 
BRANCH  33  34
ATOM     34  C   UNL A   1      38.261  30.226  29.909  1.00  0.00     0.031 A 
ATOM     35  C   UNL A   1      39.256  29.289  29.308  1.00  0.00     0.074 A 
ATOM     36  C   UNL A   1      38.457  30.789  31.114  1.00  0.00     0.049 A 
ATOM     37  N   UNL A   1      40.326  28.767  29.846  1.00  0.00    -0.248 NA
ATOM     38  C   UNL A   1      39.016  28.880  27.916  1.00  0.00     0.031 C 
ATOM     39  C   UNL A   1      37.555  31.755  31.746  1.00  0.00     0.029 A 
ATOM     40  N   UNL A   1      39.461  30.620  32.028  1.00  0.00    -0.354 N 
ATOM     41  C   UNL A   1      40.872  27.944  28.872  1.00  0.00     0.074 A 
ATOM     42  C   UNL A   1      40.016  28.034  27.708  1.00  0.00     0.031 C 
ATOM     43  C   UNL A   1      38.040  32.081  32.952  1.00  0.00     0.029 A 
ATOM     44  C   UNL A   1      39.250  31.306  33.197  1.00  0.00     0.049 A 
ATOM     45  H   UNL A   1      40.255  30.061  31.863  1.00  0.00     0.167 HD
ATOM     46  C   UNL A   1      41.986  27.179  28.961  1.00  0.00     0.037 A 
ATOM     47  C   UNL A   1      39.937  31.274  34.352  1.00  0.00     0.037 A 
ATOM     48  C   UNL A   1      42.815  27.114  30.136  1.00  0.00     0.049 A 
ATOM     49  C   UNL A   1      41.146  30.386  34.437  1.00  0.00     0.074 A 
ATOM     50  C   UNL A   1      43.960  26.369  30.351  1.00  0.00     0.029 A 
ATOM     51  N   UNL A   1      42.580  27.832  31.303  1.00  0.00    -0.354 N 
ATOM     52  N   UNL A   1      41.647  29.590  33.524  1.00  0.00    -0.248 NA
ATOM     53  C   UNL A   1      41.880  30.386  35.707  1.00  0.00     0.031 C 
ATOM     54  C   UNL A   1      44.398  26.610  31.658  1.00  0.00     0.029 A 
ATOM     55  C   UNL A   1      43.552  27.538  32.244  1.00  0.00     0.049 A 
ATOM     56  H   UNL A   1      41.832  28.458  31.441  1.00  0.00     0.167 HD
ATOM     57  C   UNL A   1      42.769  29.010  34.096  1.00  0.00     0.074 A 
ATOM     58  C   UNL A   1      42.876  29.554  35.436  1.00  0.00     0.031 C 
ATOM     59  C   UNL A   1      43.632  28.111  33.564  1.00  0.00     0.037 A 
BRANCH  46  60
ATOM     60  C   UNL A   1      42.339  26.327  27.779  1.00  0.00     0.064 A 
ATOM     61  C   UNL A   1      43.272  26.744  26.818  1.00  0.00     0.173 A 
ATOM     62  C   UNL A   1      41.747  25.066  27.614  1.00  0.00     0.173 A 
ATOM     63  F   UNL A   1      43.853  27.949  26.921  1.00  0.00    -0.203 F 
ATOM     64  C   UNL A   1      43.582  25.938  25.724  1.00  0.00     0.198 A 
ATOM     65  C   UNL A   1      42.077  24.253  26.532  1.00  0.00     0.198 A 
ATOM     66  F   UNL A   1      40.846  24.619  28.503  1.00  0.00    -0.203 F 
ATOM     67  F   UNL A   1      44.444  26.375  24.796  1.00  0.00    -0.200 F 
ATOM     68  C   UNL A   1      42.989  24.693  25.585  1.00  0.00     0.200 A 
ATOM     69  F   UNL A   1      41.507  23.046  26.403  1.00  0.00    -0.200 F 
ATOM     70  F   UNL A   1      43.290  23.919  24.533  1.00  0.00    -0.200 F 
ENDBRANCH  46  60
BRANCH  47  71
ATOM     71  C   UNL A   1      39.479  32.090  35.502  1.00  0.00     0.064 A 
ATOM     72  C   UNL A   1      39.913  33.411  35.668  1.00  0.00     0.173 A 
ATOM     73  C   UNL A   1      38.559  31.582  36.435  1.00  0.00     0.173 A 
ATOM     74  F   UNL A   1      40.802  33.935  34.812  1.00  0.00    -0.203 F 
ATOM     75  C   UNL A   1      39.450  34.193  36.725  1.00  0.00     0.198 A 
ATOM     76  C   UNL A   1      38.078  32.373  37.476  1.00  0.00     0.198 A 
ATOM     77  F   UNL A   1      38.107  30.326  36.316  1.00  0.00    -0.203 F 
ATOM     78  F   UNL A   1      39.902  35.446  36.875  1.00  0.00    -0.200 F 
ATOM     79  C   UNL A   1      38.527  33.676  37.622  1.00  0.00     0.200 A 
ATOM     80  F   UNL A   1      37.173  31.876  38.329  1.00  0.00    -0.200 F 
ATOM     81  F   UNL A   1      38.072  34.435  38.628  1.00  0.00    -0.200 F 
ENDBRANCH  47  71
BRANCH  59  82
ATOM     82  C   UNL A   1      44.788  27.698  34.422  1.00  0.00     0.064 A 
ATOM     83  C   UNL A   1      45.988  28.422  34.432  1.00  0.00     0.173 A 
ATOM     84  C   UNL A   1      44.671  26.593  35.278  1.00  0.00     0.173 A 
ATOM     85  F   UNL A   1      46.148  29.475  33.616  1.00  0.00    -0.203 F 
ATOM     86  C   UNL A   1      47.039  28.042  35.259  1.00  0.00     0.198 A 
ATOM     87  C   UNL A   1      45.715  26.231  36.120  1.00  0.00     0.198 A 
ATOM     88  F   UNL A   1      43.538  25.875  35.303  1.00  0.00    -0.203 F 
ATOM     89  F   UNL A   1      48.193  28.724  35.230  1.00  0.00    -0.200 F 
ATOM     90  C   UNL A   1      46.901  26.953  36.109  1.00  0.00     0.200 A 
ATOM     91  F   UNL A   1      45.577  25.184  36.946  1.00  0.00    -0.200 F 
ATOM     92  F   UNL A   1      47.912  26.594  36.910  1.00  0.00    -0.200 F 
ENDBRANCH  59  82
ENDBRANCH  33  34
ENDBRANCH  26  28
ENDBRANCH  25  26
ENDBRANCH  24  25
ENDBRANCH   1  24
TORSDOF 16
ENDMDL
