MODEL 1
REMARK VINA RESULT:     -12.1      0.000      0.000
REMARK SMILES CCc1nc2sc(C(=O)NCC(=O)OCCOC(=O)c3ccc(-c4c5nc(c(-c6c(F)c(F)c(F)c(F)c6F)c6ccc([nH]6)c(-c6c(F)c(F)c(F)c(F)c6F)c6nc(c(-c7c(F)c(F)c(F)c(F)c7F)c7ccc4[nH]7)C=C6)C=C5)cc3)c(N)c2c(C(F)(F)F)c1C
REMARK SMILES IDX 15 1 14 2 12 3 13 4 11 5 10 6 8 7 9 8 7 10 3 11 4 12 91 13
REMARK SMILES IDX 5 14 86 15 92 16 6 17 85 18 83 19 2 20 1 21 87 22 88 23
REMARK SMILES IDX 89 24 90 25 84 26 16 29 17 30 18 31 19 32 20 33 21 34 82 35
REMARK SMILES IDX 22 36 81 37 23 38 24 39 25 40 75 41 26 42 80 43 74 44 76 45
REMARK SMILES IDX 27 46 79 47 73 48 72 49 28 51 60 52 40 53 59 54 41 55 44 56
REMARK SMILES IDX 58 57 77 58 42 59 43 60 57 62 78 63 45 64 29 65 30 66 38 67
REMARK SMILES IDX 31 68 32 69 36 70 39 71 33 72 34 73 37 74 35 75 61 76 62 77
REMARK SMILES IDX 70 78 63 79 64 80 68 81 71 82 65 83 66 84 69 85 67 86 46 87
REMARK SMILES IDX 47 88 55 89 48 90 49 91 53 92 56 93 50 94 51 95 54 96 52 97
REMARK H PARENT 10 9 84 27 84 28 76 50 44 61
REMARK Flexibility Score: inf
ROOT
ATOM      1  C   UNL A   1      41.842  19.558  26.534  1.00  0.00     0.274 C 
ENDROOT
BRANCH   1   2
ATOM      2  O   UNL A   1      41.317  20.816  26.071  1.00  0.00    -0.461 OA
BRANCH   2   3
ATOM      3  C   UNL A   1      40.421  21.442  26.889  1.00  0.00     0.325 C 
ATOM      4  O   UNL A   1      40.614  21.690  28.077  1.00  0.00    -0.250 OA
BRANCH   3   5
ATOM      5  C   UNL A   1      39.163  21.903  26.144  1.00  0.00     0.239 C 
BRANCH   5   6
ATOM      6  N   UNL A   1      38.360  20.856  25.556  1.00  0.00    -0.340 N 
ATOM      7  C   UNL A   1      37.045  20.810  25.185  1.00  0.00     0.264 C 
ATOM      8  O   UNL A   1      36.737  19.757  24.613  1.00  0.00    -0.268 OA
ATOM      9  H   UNL A   1      38.852  20.018  25.391  1.00  0.00     0.164 HD
BRANCH   7  10
ATOM     10  C   UNL A   1      36.075  21.880  25.444  1.00  0.00     0.118 A 
ATOM     11  C   UNL A   1      33.723  25.979  25.465  1.00  0.00     0.045 A 
ATOM     12  N   UNL A   1      34.927  25.488  25.117  1.00  0.00    -0.242 NA
ATOM     13  C   UNL A   1      32.726  25.219  26.101  1.00  0.00    -0.017 A 
ATOM     14  C   UNL A   1      35.122  24.183  25.348  1.00  0.00     0.127 A 
ATOM     15  C   UNL A   1      32.947  23.827  26.299  1.00  0.00     0.073 A 
ATOM     16  C   UNL A   1      31.431  25.844  26.555  1.00  0.00     0.047 C 
ATOM     17  S   UNL A   1      36.594  23.461  24.944  1.00  0.00    -0.108 S 
ATOM     18  C   UNL A   1      34.216  23.304  25.902  1.00  0.00     0.048 A 
ATOM     19  C   UNL A   1      34.790  21.982  25.961  1.00  0.00     0.066 A 
BRANCH  11  20
ATOM     20  C   UNL A   1      33.537  27.454  25.167  1.00  0.00     0.053 C 
ATOM     21  C   UNL A   1      34.130  28.384  26.223  1.00  0.00     0.011 C 
ENDBRANCH  11  20
BRANCH  15  22
ATOM     22  C   UNL A   1      31.911  22.902  26.902  1.00  0.00     0.417 C 
ATOM     23  F   UNL A   1      31.559  21.891  26.049  1.00  0.00    -0.166 F 
ATOM     24  F   UNL A   1      32.361  22.285  28.034  1.00  0.00    -0.166 F 
ATOM     25  F   UNL A   1      30.730  23.475  27.255  1.00  0.00    -0.166 F 
ENDBRANCH  15  22
BRANCH  19  26
ATOM     26  N   UNL A   1      34.052  20.974  26.467  1.00  0.00    -0.397 N 
ATOM     27  H   UNL A   1      34.300  20.566  27.328  1.00  0.00     0.156 HD
ATOM     28  H   UNL A   1      33.264  20.646  25.976  1.00  0.00     0.156 HD
ENDBRANCH  19  26
ENDBRANCH   7  10
ENDBRANCH   5   6
ENDBRANCH   3   5
ENDBRANCH   2   3
ENDBRANCH   1   2
BRANCH   1  29
ATOM     29  C   UNL A   1      43.005  19.085  25.663  1.00  0.00     0.275 C 
BRANCH  29  30
ATOM     30  O   UNL A   1      44.124  19.967  25.767  1.00  0.00    -0.458 OA
BRANCH  30  31
ATOM     31  C   UNL A   1      44.508  20.516  24.594  1.00  0.00     0.338 C 
ATOM     32  O   UNL A   1      44.733  19.942  23.543  1.00  0.00    -0.246 OA
BRANCH  31  33
ATOM     33  C   UNL A   1      44.716  21.954  24.748  1.00  0.00     0.060 A 
ATOM     34  C   UNL A   1      45.674  22.351  25.686  1.00  0.00     0.016 A 
ATOM     35  C   UNL A   1      43.768  22.840  24.225  1.00  0.00     0.016 A 
ATOM     36  C   UNL A   1      45.538  23.587  26.270  1.00  0.00     0.010 A 
ATOM     37  C   UNL A   1      43.628  24.073  24.817  1.00  0.00     0.010 A 
ATOM     38  C   UNL A   1      44.453  24.385  25.895  1.00  0.00    -0.014 A 
BRANCH  38  39
ATOM     39  C   UNL A   1      44.194  25.557  26.701  1.00  0.00     0.031 A 
ATOM     40  C   UNL A   1      45.177  26.646  26.539  1.00  0.00     0.074 A 
ATOM     41  C   UNL A   1      43.109  25.650  27.489  1.00  0.00     0.049 A 
ATOM     42  N   UNL A   1      45.955  27.155  27.434  1.00  0.00    -0.248 NA
ATOM     43  C   UNL A   1      45.391  27.158  25.180  1.00  0.00     0.031 C 
ATOM     44  C   UNL A   1      41.936  24.773  27.535  1.00  0.00     0.029 A 
ATOM     45  N   UNL A   1      42.794  26.639  28.365  1.00  0.00    -0.354 N 
ATOM     46  C   UNL A   1      46.655  28.166  26.789  1.00  0.00     0.074 A 
ATOM     47  C   UNL A   1      46.369  28.038  25.383  1.00  0.00     0.031 C 
ATOM     48  C   UNL A   1      40.952  25.389  28.228  1.00  0.00     0.029 A 
ATOM     49  C   UNL A   1      41.472  26.630  28.778  1.00  0.00     0.049 A 
ATOM     50  H   UNL A   1      43.448  27.305  28.679  1.00  0.00     0.167 HD
ATOM     51  C   UNL A   1      47.250  29.171  27.485  1.00  0.00     0.037 A 
ATOM     52  C   UNL A   1      40.847  27.626  29.450  1.00  0.00     0.037 A 
ATOM     53  C   UNL A   1      47.483  28.803  28.855  1.00  0.00     0.049 A 
ATOM     54  C   UNL A   1      41.897  28.463  30.087  1.00  0.00     0.074 A 
ATOM     55  C   UNL A   1      48.231  27.824  29.481  1.00  0.00     0.029 A 
ATOM     56  N   UNL A   1      46.634  29.289  29.816  1.00  0.00    -0.354 N 
ATOM     57  N   UNL A   1      42.648  28.071  31.078  1.00  0.00    -0.248 NA
ATOM     58  C   UNL A   1      42.389  29.618  29.350  1.00  0.00     0.031 C 
ATOM     59  C   UNL A   1      47.479  27.457  30.635  1.00  0.00     0.029 A 
ATOM     60  C   UNL A   1      46.331  28.249  30.657  1.00  0.00     0.049 A 
ATOM     61  H   UNL A   1      46.302  30.213  29.890  1.00  0.00     0.167 HD
ATOM     62  C   UNL A   1      43.885  28.651  30.834  1.00  0.00     0.074 A 
ATOM     63  C   UNL A   1      43.635  29.677  29.828  1.00  0.00     0.031 C 
ATOM     64  C   UNL A   1      45.035  28.058  31.264  1.00  0.00     0.037 A 
BRANCH  51  65
ATOM     65  C   UNL A   1      47.296  30.597  27.003  1.00  0.00     0.064 A 
ATOM     66  C   UNL A   1      48.515  31.298  27.047  1.00  0.00     0.173 A 
ATOM     67  C   UNL A   1      46.143  31.385  26.786  1.00  0.00     0.173 A 
ATOM     68  F   UNL A   1      49.668  30.651  27.273  1.00  0.00    -0.203 F 
ATOM     69  C   UNL A   1      48.566  32.691  26.952  1.00  0.00     0.198 A 
ATOM     70  C   UNL A   1      46.205  32.767  26.635  1.00  0.00     0.198 A 
ATOM     71  F   UNL A   1      44.908  30.870  26.825  1.00  0.00    -0.203 F 
ATOM     72  F   UNL A   1      49.732  33.326  27.127  1.00  0.00    -0.200 F 
ATOM     73  C   UNL A   1      47.410  33.424  26.751  1.00  0.00     0.200 A 
ATOM     74  F   UNL A   1      45.071  33.461  26.460  1.00  0.00    -0.200 F 
ATOM     75  F   UNL A   1      47.449  34.762  26.722  1.00  0.00    -0.200 F 
ENDBRANCH  51  65
BRANCH  52  76
ATOM     76  C   UNL A   1      39.446  28.082  29.308  1.00  0.00     0.064 A 
ATOM     77  C   UNL A   1      38.612  28.192  30.432  1.00  0.00     0.173 A 
ATOM     78  C   UNL A   1      38.984  28.688  28.123  1.00  0.00     0.173 A 
ATOM     79  F   UNL A   1      38.997  27.680  31.610  1.00  0.00    -0.203 F 
ATOM     80  C   UNL A   1      37.406  28.898  30.382  1.00  0.00     0.198 A 
ATOM     81  C   UNL A   1      37.774  29.381  28.072  1.00  0.00     0.198 A 
ATOM     82  F   UNL A   1      39.739  28.707  27.015  1.00  0.00    -0.203 F 
ATOM     83  F   UNL A   1      36.673  29.044  31.495  1.00  0.00    -0.200 F 
ATOM     84  C   UNL A   1      36.994  29.501  29.206  1.00  0.00     0.200 A 
ATOM     85  F   UNL A   1      37.404  29.987  26.936  1.00  0.00    -0.200 F 
ATOM     86  F   UNL A   1      35.872  30.232  29.175  1.00  0.00    -0.200 F 
ENDBRANCH  52  76
BRANCH  64  87
ATOM     87  C   UNL A   1      44.911  26.929  32.247  1.00  0.00     0.064 A 
ATOM     88  C   UNL A   1      44.722  25.587  31.873  1.00  0.00     0.173 A 
ATOM     89  C   UNL A   1      45.139  27.196  33.603  1.00  0.00     0.173 A 
ATOM     90  F   UNL A   1      44.599  25.242  30.585  1.00  0.00    -0.203 F 
ATOM     91  C   UNL A   1      44.718  24.567  32.823  1.00  0.00     0.198 A 
ATOM     92  C   UNL A   1      45.173  26.171  34.544  1.00  0.00     0.198 A 
ATOM     93  F   UNL A   1      45.384  28.452  34.008  1.00  0.00    -0.203 F 
ATOM     94  F   UNL A   1      44.525  23.295  32.443  1.00  0.00    -0.200 F 
ATOM     95  C   UNL A   1      44.952  24.859  34.156  1.00  0.00     0.200 A 
ATOM     96  F   UNL A   1      45.449  26.452  35.826  1.00  0.00    -0.200 F 
ATOM     97  F   UNL A   1      44.994  23.874  35.063  1.00  0.00    -0.200 F 
ENDBRANCH  64  87
ENDBRANCH  38  39
ENDBRANCH  31  33
ENDBRANCH  30  31
ENDBRANCH  29  30
ENDBRANCH   1  29
TORSDOF 16
ENDMDL
MODEL 2
REMARK VINA RESULT:     -12.1      3.739      8.592
REMARK SMILES CCc1nc2sc(C(=O)NCC(=O)OCCOC(=O)c3ccc(-c4c5nc(c(-c6c(F)c(F)c(F)c(F)c6F)c6ccc([nH]6)c(-c6c(F)c(F)c(F)c(F)c6F)c6nc(c(-c7c(F)c(F)c(F)c(F)c7F)c7ccc4[nH]7)C=C6)C=C5)cc3)c(N)c2c(C(F)(F)F)c1C
REMARK SMILES IDX 15 1 14 2 12 3 13 4 11 5 10 6 8 7 9 8 7 10 3 11 4 12 91 13
REMARK SMILES IDX 5 14 86 15 92 16 6 17 85 18 83 19 2 20 1 21 87 22 88 23
REMARK SMILES IDX 89 24 90 25 84 26 16 29 17 30 18 31 19 32 20 33 21 34 82 35
REMARK SMILES IDX 22 36 81 37 23 38 24 39 25 40 75 41 26 42 80 43 74 44 76 45
REMARK SMILES IDX 27 46 79 47 73 48 72 49 28 51 60 52 40 53 59 54 41 55 44 56
REMARK SMILES IDX 58 57 77 58 42 59 43 60 57 62 78 63 45 64 29 65 30 66 38 67
REMARK SMILES IDX 31 68 32 69 36 70 39 71 33 72 34 73 37 74 35 75 61 76 62 77
REMARK SMILES IDX 70 78 63 79 64 80 68 81 71 82 65 83 66 84 69 85 67 86 46 87
REMARK SMILES IDX 47 88 55 89 48 90 49 91 53 92 56 93 50 94 51 95 54 96 52 97
REMARK H PARENT 10 9 84 27 84 28 76 50 44 61
REMARK Flexibility Score: inf
ROOT
ATOM      1  C   UNL A   1      32.351  29.655  27.177  1.00  0.00     0.274 C 
ENDROOT
BRANCH   1   2
ATOM      2  O   UNL A   1      32.611  28.718  26.115  1.00  0.00    -0.461 OA
BRANCH   2   3
ATOM      3  C   UNL A   1      31.663  28.626  25.136  1.00  0.00     0.325 C 
ATOM      4  O   UNL A   1      31.056  29.583  24.660  1.00  0.00    -0.250 OA
BRANCH   3   5
ATOM      5  C   UNL A   1      31.496  27.197  24.608  1.00  0.00     0.239 C 
BRANCH   5   6
ATOM      6  N   UNL A   1      30.678  26.320  25.413  1.00  0.00    -0.340 N 
ATOM      7  C   UNL A   1      30.928  25.102  25.982  1.00  0.00     0.264 C 
ATOM      8  O   UNL A   1      30.001  24.700  26.697  1.00  0.00    -0.268 OA
ATOM      9  H   UNL A   1      29.770  26.663  25.583  1.00  0.00     0.164 HD
BRANCH   7  10
ATOM     10  C   UNL A   1      32.154  24.326  25.768  1.00  0.00     0.118 A 
ATOM     11  C   UNL A   1      36.638  22.836  25.691  1.00  0.00     0.045 A 
ATOM     12  N   UNL A   1      35.935  23.965  25.895  1.00  0.00    -0.242 NA
ATOM     13  C   UNL A   1      36.057  21.616  25.302  1.00  0.00    -0.017 A 
ATOM     14  C   UNL A   1      34.605  23.863  25.773  1.00  0.00     0.127 A 
ATOM     15  C   UNL A   1      34.639  21.529  25.216  1.00  0.00     0.073 A 
ATOM     16  C   UNL A   1      36.903  20.406  24.993  1.00  0.00     0.047 C 
ATOM     17  S   UNL A   1      33.625  25.217  26.014  1.00  0.00    -0.108 S 
ATOM     18  C   UNL A   1      33.895  22.723  25.462  1.00  0.00     0.048 A 
ATOM     19  C   UNL A   1      32.482  23.014  25.451  1.00  0.00     0.066 A 
BRANCH  11  20
ATOM     20  C   UNL A   1      38.137  22.991  25.859  1.00  0.00     0.053 C 
ATOM     21  C   UNL A   1      38.551  24.209  26.682  1.00  0.00     0.011 C 
ENDBRANCH  11  20
BRANCH  15  22
ATOM     22  C   UNL A   1      33.908  20.246  24.883  1.00  0.00     0.417 C 
ATOM     23  F   UNL A   1      34.765  19.211  24.627  1.00  0.00    -0.166 F 
ATOM     24  F   UNL A   1      33.114  19.819  25.909  1.00  0.00    -0.166 F 
ATOM     25  F   UNL A   1      33.091  20.286  23.796  1.00  0.00    -0.166 F 
ENDBRANCH  15  22
BRANCH  19  26
ATOM     26  N   UNL A   1      31.615  22.020  25.175  1.00  0.00    -0.397 N 
ATOM     27  H   UNL A   1      30.924  21.773  25.830  1.00  0.00     0.156 HD
ATOM     28  H   UNL A   1      31.672  21.541  24.316  1.00  0.00     0.156 HD
ENDBRANCH  19  26
ENDBRANCH   7  10
ENDBRANCH   5   6
ENDBRANCH   3   5
ENDBRANCH   2   3
ENDBRANCH   1   2
BRANCH   1  29
ATOM     29  C   UNL A   1      33.379  30.786  27.185  1.00  0.00     0.275 C 
BRANCH  29  30
ATOM     30  O   UNL A   1      34.605  30.369  27.786  1.00  0.00    -0.458 OA
BRANCH  30  31
ATOM     31  C   UNL A   1      35.407  31.385  28.173  1.00  0.00     0.338 C 
ATOM     32  O   UNL A   1      35.351  32.551  27.822  1.00  0.00    -0.246 OA
BRANCH  31  33
ATOM     33  C   UNL A   1      36.465  30.893  29.052  1.00  0.00     0.060 A 
ATOM     34  C   UNL A   1      37.670  31.602  29.039  1.00  0.00     0.016 A 
ATOM     35  C   UNL A   1      36.358  29.608  29.595  1.00  0.00     0.016 A 
ATOM     36  C   UNL A   1      38.823  30.930  29.367  1.00  0.00     0.010 A 
ATOM     37  C   UNL A   1      37.514  28.934  29.914  1.00  0.00     0.010 A 
ATOM     38  C   UNL A   1      38.732  29.576  29.701  1.00  0.00    -0.014 A 
BRANCH  38  39
ATOM     39  C   UNL A   1      39.973  28.839  29.792  1.00  0.00     0.031 A 
ATOM     40  C   UNL A   1      40.518  28.717  31.157  1.00  0.00     0.074 A 
ATOM     41  C   UNL A   1      40.542  28.273  28.713  1.00  0.00     0.049 A 
ATOM     42  N   UNL A   1      41.646  29.157  31.606  1.00  0.00    -0.248 NA
ATOM     43  C   UNL A   1      39.645  28.119  32.175  1.00  0.00     0.031 C 
ATOM     44  C   UNL A   1      39.977  28.090  27.373  1.00  0.00     0.029 A 
ATOM     45  N   UNL A   1      41.744  27.644  28.635  1.00  0.00    -0.354 N 
ATOM     46  C   UNL A   1      41.700  28.755  32.935  1.00  0.00     0.074 A 
ATOM     47  C   UNL A   1      40.397  28.241  33.268  1.00  0.00     0.031 C 
ATOM     48  C   UNL A   1      40.743  27.209  26.690  1.00  0.00     0.029 A 
ATOM     49  C   UNL A   1      41.908  26.878  27.493  1.00  0.00     0.049 A 
ATOM     50  H   UNL A   1      42.436  27.724  29.330  1.00  0.00     0.167 HD
ATOM     51  C   UNL A   1      42.882  28.677  33.603  1.00  0.00     0.037 A 
ATOM     52  C   UNL A   1      42.896  25.976  27.282  1.00  0.00     0.037 A 
ATOM     53  C   UNL A   1      43.898  29.483  32.981  1.00  0.00     0.049 A 
ATOM     54  C   UNL A   1      44.005  26.301  28.216  1.00  0.00     0.074 A 
ATOM     55  C   UNL A   1      44.043  30.833  32.728  1.00  0.00     0.029 A 
ATOM     56  N   UNL A   1      44.845  28.859  32.209  1.00  0.00    -0.354 N 
ATOM     57  N   UNL A   1      44.758  27.362  28.122  1.00  0.00    -0.248 NA
ATOM     58  C   UNL A   1      44.026  25.636  29.511  1.00  0.00     0.031 C 
ATOM     59  C   UNL A   1      44.739  30.910  31.486  1.00  0.00     0.029 A 
ATOM     60  C   UNL A   1      44.998  29.604  31.069  1.00  0.00     0.049 A 
ATOM     61  H   UNL A   1      45.326  28.029  32.432  1.00  0.00     0.167 HD
ATOM     62  C   UNL A   1      45.012  27.732  29.434  1.00  0.00     0.074 A 
ATOM     63  C   UNL A   1      44.635  26.575  30.238  1.00  0.00     0.031 C 
ATOM     64  C   UNL A   1      45.240  29.036  29.764  1.00  0.00     0.037 A 
BRANCH  51  65
ATOM     65  C   UNL A   1      43.194  27.601  34.608  1.00  0.00     0.064 A 
ATOM     66  C   UNL A   1      43.466  27.963  35.941  1.00  0.00     0.173 A 
ATOM     67  C   UNL A   1      43.528  26.275  34.254  1.00  0.00     0.173 A 
ATOM     68  F   UNL A   1      43.211  29.206  36.377  1.00  0.00    -0.203 F 
ATOM     69  C   UNL A   1      44.091  27.085  36.828  1.00  0.00     0.198 A 
ATOM     70  C   UNL A   1      44.099  25.384  35.159  1.00  0.00     0.198 A 
ATOM     71  F   UNL A   1      43.424  25.823  32.998  1.00  0.00    -0.203 F 
ATOM     72  F   UNL A   1      44.446  27.513  38.047  1.00  0.00    -0.200 F 
ATOM     73  C   UNL A   1      44.411  25.798  36.435  1.00  0.00     0.200 A 
ATOM     74  F   UNL A   1      44.419  24.148  34.751  1.00  0.00    -0.200 F 
ATOM     75  F   UNL A   1      45.066  24.975  37.264  1.00  0.00    -0.200 F 
ENDBRANCH  51  65
BRANCH  52  76
ATOM     76  C   UNL A   1      42.811  24.679  26.572  1.00  0.00     0.064 A 
ATOM     77  C   UNL A   1      43.561  24.450  25.409  1.00  0.00     0.173 A 
ATOM     78  C   UNL A   1      42.219  23.549  27.171  1.00  0.00     0.173 A 
ATOM     79  F   UNL A   1      44.191  25.466  24.802  1.00  0.00    -0.203 F 
ATOM     80  C   UNL A   1      43.741  23.162  24.895  1.00  0.00     0.198 A 
ATOM     81  C   UNL A   1      42.389  22.266  26.649  1.00  0.00     0.198 A 
ATOM     82  F   UNL A   1      41.548  23.649  28.326  1.00  0.00    -0.203 F 
ATOM     83  F   UNL A   1      44.526  22.975  23.825  1.00  0.00    -0.200 F 
ATOM     84  C   UNL A   1      43.164  22.070  25.522  1.00  0.00     0.200 A 
ATOM     85  F   UNL A   1      41.853  21.215  27.285  1.00  0.00    -0.200 F 
ATOM     86  F   UNL A   1      43.390  20.830  25.069  1.00  0.00    -0.200 F 
ENDBRANCH  52  76
BRANCH  64  87
ATOM     87  C   UNL A   1      45.494  30.004  28.644  1.00  0.00     0.064 A 
ATOM     88  C   UNL A   1      44.473  30.659  27.934  1.00  0.00     0.173 A 
ATOM     89  C   UNL A   1      46.814  30.390  28.382  1.00  0.00     0.173 A 
ATOM     90  F   UNL A   1      43.184  30.417  28.201  1.00  0.00    -0.203 F 
ATOM     91  C   UNL A   1      44.768  31.625  26.974  1.00  0.00     0.198 A 
ATOM     92  C   UNL A   1      47.104  31.382  27.450  1.00  0.00     0.198 A 
ATOM     93  F   UNL A   1      47.826  29.839  29.072  1.00  0.00    -0.203 F 
ATOM     94  F   UNL A   1      43.777  32.230  26.302  1.00  0.00    -0.200 F 
ATOM     95  C   UNL A   1      46.083  31.992  26.739  1.00  0.00     0.200 A 
ATOM     96  F   UNL A   1      48.374  31.770  27.261  1.00  0.00    -0.200 F 
ATOM     97  F   UNL A   1      46.364  32.954  25.850  1.00  0.00    -0.200 F 
ENDBRANCH  64  87
ENDBRANCH  38  39
ENDBRANCH  31  33
ENDBRANCH  30  31
ENDBRANCH  29  30
ENDBRANCH   1  29
TORSDOF 16
ENDMDL
MODEL 3
REMARK VINA RESULT:     -12.1      3.263      4.766
REMARK SMILES CCc1nc2sc(C(=O)NCC(=O)OCCOC(=O)c3ccc(-c4c5nc(c(-c6c(F)c(F)c(F)c(F)c6F)c6ccc([nH]6)c(-c6c(F)c(F)c(F)c(F)c6F)c6nc(c(-c7c(F)c(F)c(F)c(F)c7F)c7ccc4[nH]7)C=C6)C=C5)cc3)c(N)c2c(C(F)(F)F)c1C
REMARK SMILES IDX 15 1 14 2 12 3 13 4 11 5 10 6 8 7 9 8 7 10 3 11 4 12 91 13
REMARK SMILES IDX 5 14 86 15 92 16 6 17 85 18 83 19 2 20 1 21 87 22 88 23
REMARK SMILES IDX 89 24 90 25 84 26 16 29 17 30 18 31 19 32 20 33 21 34 82 35
REMARK SMILES IDX 22 36 81 37 23 38 24 39 25 40 75 41 26 42 80 43 74 44 76 45
REMARK SMILES IDX 27 46 79 47 73 48 72 49 28 51 60 52 40 53 59 54 41 55 44 56
REMARK SMILES IDX 58 57 77 58 42 59 43 60 57 62 78 63 45 64 29 65 30 66 38 67
REMARK SMILES IDX 31 68 32 69 36 70 39 71 33 72 34 73 37 74 35 75 61 76 62 77
REMARK SMILES IDX 70 78 63 79 64 80 68 81 71 82 65 83 66 84 69 85 67 86 46 87
REMARK SMILES IDX 47 88 55 89 48 90 49 91 53 92 56 93 50 94 51 95 54 96 52 97
REMARK H PARENT 10 9 84 27 84 28 76 50 44 61
REMARK Flexibility Score: inf
ROOT
ATOM      1  C   UNL A   1      37.742  21.568  24.870  1.00  0.00     0.274 C 
ENDROOT
BRANCH   1   2
ATOM      2  O   UNL A   1      37.321  22.930  24.675  1.00  0.00    -0.461 OA
BRANCH   2   3
ATOM      3  C   UNL A   1      36.203  23.122  23.915  1.00  0.00     0.325 C 
ATOM      4  O   UNL A   1      36.171  23.048  22.688  1.00  0.00    -0.250 OA
BRANCH   3   5
ATOM      5  C   UNL A   1      34.944  23.344  24.761  1.00  0.00     0.239 C 
BRANCH   5   6
ATOM      6  N   UNL A   1      33.739  22.716  24.273  1.00  0.00    -0.340 N 
ATOM      7  C   UNL A   1      32.554  23.233  23.826  1.00  0.00     0.264 C 
ATOM      8  O   UNL A   1      31.782  22.371  23.387  1.00  0.00    -0.268 OA
ATOM      9  H   UNL A   1      33.776  21.732  24.260  1.00  0.00     0.164 HD
BRANCH   7  10
ATOM     10  C   UNL A   1      32.205  24.657  23.869  1.00  0.00     0.118 A 
ATOM     11  C   UNL A   1      30.479  28.948  22.895  1.00  0.00     0.045 A 
ATOM     12  N   UNL A   1      30.707  27.770  22.285  1.00  0.00    -0.242 NA
ATOM     13  C   UNL A   1      30.860  29.225  24.220  1.00  0.00    -0.017 A 
ATOM     14  C   UNL A   1      31.272  26.815  23.035  1.00  0.00     0.127 A 
ATOM     15  C   UNL A   1      31.424  28.179  25.004  1.00  0.00     0.073 A 
ATOM     16  C   UNL A   1      30.667  30.593  24.823  1.00  0.00     0.047 C 
ATOM     17  S   UNL A   1      31.596  25.296  22.372  1.00  0.00    -0.108 S 
ATOM     18  C   UNL A   1      31.637  26.922  24.360  1.00  0.00     0.048 A 
ATOM     19  C   UNL A   1      32.186  25.669  24.820  1.00  0.00     0.066 A 
BRANCH  11  20
ATOM     20  C   UNL A   1      29.822  29.994  22.016  1.00  0.00     0.053 C 
ATOM     21  C   UNL A   1      28.298  29.915  21.987  1.00  0.00     0.011 C 
ENDBRANCH  11  20
BRANCH  15  22
ATOM     22  C   UNL A   1      31.795  28.346  26.462  1.00  0.00     0.417 C 
ATOM     23  F   UNL A   1      31.551  29.613  26.918  1.00  0.00    -0.166 F 
ATOM     24  F   UNL A   1      31.079  27.519  27.280  1.00  0.00    -0.166 F 
ATOM     25  F   UNL A   1      33.098  28.116  26.779  1.00  0.00    -0.166 F 
ENDBRANCH  15  22
BRANCH  19  26
ATOM     26  N   UNL A   1      32.597  25.569  26.099  1.00  0.00    -0.397 N 
ATOM     27  H   UNL A   1      33.436  25.100  26.312  1.00  0.00     0.156 HD
ATOM     28  H   UNL A   1      32.057  25.964  26.822  1.00  0.00     0.156 HD
ENDBRANCH  19  26
ENDBRANCH   7  10
ENDBRANCH   5   6
ENDBRANCH   3   5
ENDBRANCH   2   3
ENDBRANCH   1   2
BRANCH   1  29
ATOM     29  C   UNL A   1      38.895  21.479  25.868  1.00  0.00     0.275 C 
BRANCH  29  30
ATOM     30  O   UNL A   1      39.035  22.690  26.610  1.00  0.00    -0.458 OA
BRANCH  30  31
ATOM     31  C   UNL A   1      40.212  22.809  27.263  1.00  0.00     0.338 C 
ATOM     32  O   UNL A   1      40.794  21.954  27.907  1.00  0.00    -0.246 OA
BRANCH  31  33
ATOM     33  C   UNL A   1      40.707  24.181  27.176  1.00  0.00     0.060 A 
ATOM     34  C   UNL A   1      41.706  24.545  28.084  1.00  0.00     0.016 A 
ATOM     35  C   UNL A   1      39.971  25.127  26.454  1.00  0.00     0.016 A 
ATOM     36  C   UNL A   1      41.814  25.868  28.436  1.00  0.00     0.010 A 
ATOM     37  C   UNL A   1      40.073  26.450  26.814  1.00  0.00     0.010 A 
ATOM     38  C   UNL A   1      40.923  26.783  27.867  1.00  0.00    -0.014 A 
BRANCH  38  39
ATOM     39  C   UNL A   1      40.892  28.110  28.441  1.00  0.00     0.031 A 
ATOM     40  C   UNL A   1      42.022  28.975  28.053  1.00  0.00     0.074 A 
ATOM     41  C   UNL A   1      39.878  28.521  29.222  1.00  0.00     0.049 A 
ATOM     42  N   UNL A   1      42.917  29.506  28.817  1.00  0.00    -0.248 NA
ATOM     43  C   UNL A   1      42.241  29.186  26.617  1.00  0.00     0.031 C 
ATOM     44  C   UNL A   1      38.587  27.870  29.460  1.00  0.00     0.029 A 
ATOM     45  N   UNL A   1      39.768  29.693  29.901  1.00  0.00    -0.354 N 
ATOM     46  C   UNL A   1      43.730  30.255  27.976  1.00  0.00     0.074 A 
ATOM     47  C   UNL A   1      43.354  29.918  26.627  1.00  0.00     0.031 C 
ATOM     48  C   UNL A   1      37.749  28.755  30.046  1.00  0.00     0.029 A 
ATOM     49  C   UNL A   1      38.484  29.974  30.338  1.00  0.00     0.049 A 
ATOM     50  H   UNL A   1      40.533  30.289  30.068  1.00  0.00     0.167 HD
ATOM     51  C   UNL A   1      44.510  31.259  28.454  1.00  0.00     0.037 A 
ATOM     52  C   UNL A   1      38.058  31.165  30.823  1.00  0.00     0.037 A 
ATOM     53  C   UNL A   1      44.756  31.116  29.864  1.00  0.00     0.049 A 
ATOM     54  C   UNL A   1      39.257  31.923  31.265  1.00  0.00     0.074 A 
ATOM     55  C   UNL A   1      45.374  30.161  30.647  1.00  0.00     0.029 A 
ATOM     56  N   UNL A   1      44.044  31.903  30.734  1.00  0.00    -0.354 N 
ATOM     57  N   UNL A   1      39.991  31.603  32.294  1.00  0.00    -0.248 NA
ATOM     58  C   UNL A   1      39.884  32.827  30.311  1.00  0.00     0.031 C 
ATOM     59  C   UNL A   1      44.636  30.140  31.867  1.00  0.00     0.029 A 
ATOM     60  C   UNL A   1      43.629  31.099  31.764  1.00  0.00     0.049 A 
ATOM     61  H   UNL A   1      43.865  32.867  30.638  1.00  0.00     0.167 HD
ATOM     62  C   UNL A   1      41.287  31.919  31.917  1.00  0.00     0.074 A 
ATOM     63  C   UNL A   1      41.147  32.769  30.740  1.00  0.00     0.031 C 
ATOM     64  C   UNL A   1      42.353  31.236  32.425  1.00  0.00     0.037 A 
BRANCH  51  65
ATOM     65  C   UNL A   1      44.752  32.545  27.709  1.00  0.00     0.064 A 
ATOM     66  C   UNL A   1      45.969  32.726  27.027  1.00  0.00     0.173 A 
ATOM     67  C   UNL A   1      43.971  33.709  27.888  1.00  0.00     0.173 A 
ATOM     68  F   UNL A   1      46.800  31.692  26.825  1.00  0.00    -0.203 F 
ATOM     69  C   UNL A   1      46.403  33.990  26.620  1.00  0.00     0.198 A 
ATOM     70  C   UNL A   1      44.381  34.958  27.429  1.00  0.00     0.198 A 
ATOM     71  F   UNL A   1      42.843  33.709  28.608  1.00  0.00    -0.203 F 
ATOM     72  F   UNL A   1      47.624  34.134  26.089  1.00  0.00    -0.200 F 
ATOM     73  C   UNL A   1      45.610  35.105  26.825  1.00  0.00     0.200 A 
ATOM     74  F   UNL A   1      43.606  36.029  27.656  1.00  0.00    -0.200 F 
ATOM     75  F   UNL A   1      46.051  36.325  26.492  1.00  0.00    -0.200 F 
ENDBRANCH  51  65
BRANCH  52  76
ATOM     76  C   UNL A   1      36.740  31.810  30.629  1.00  0.00     0.064 A 
ATOM     77  C   UNL A   1      35.884  32.031  31.719  1.00  0.00     0.173 A 
ATOM     78  C   UNL A   1      36.413  32.475  29.430  1.00  0.00     0.173 A 
ATOM     79  F   UNL A   1      36.148  31.468  32.907  1.00  0.00    -0.203 F 
ATOM     80  C   UNL A   1      34.789  32.895  31.627  1.00  0.00     0.198 A 
ATOM     81  C   UNL A   1      35.313  33.327  29.336  1.00  0.00     0.198 A 
ATOM     82  F   UNL A   1      37.208  32.393  28.354  1.00  0.00    -0.203 F 
ATOM     83  F   UNL A   1      34.038  33.138  32.711  1.00  0.00    -0.200 F 
ATOM     84  C   UNL A   1      34.511  33.551  30.439  1.00  0.00     0.200 A 
ATOM     85  F   UNL A   1      35.075  33.981  28.191  1.00  0.00    -0.200 F 
ATOM     86  F   UNL A   1      33.502  34.430  30.369  1.00  0.00    -0.200 F 
ENDBRANCH  52  76
BRANCH  64  87
ATOM     87  C   UNL A   1      42.107  30.343  33.607  1.00  0.00     0.064 A 
ATOM     88  C   UNL A   1      41.744  28.989  33.499  1.00  0.00     0.173 A 
ATOM     89  C   UNL A   1      42.393  30.835  34.887  1.00  0.00     0.173 A 
ATOM     90  F   UNL A   1      41.553  28.421  32.302  1.00  0.00    -0.203 F 
ATOM     91  C   UNL A   1      41.629  28.180  34.628  1.00  0.00     0.198 A 
ATOM     92  C   UNL A   1      42.316  30.014  36.009  1.00  0.00     0.198 A 
ATOM     93  F   UNL A   1      42.802  32.104  35.044  1.00  0.00    -0.203 F 
ATOM     94  F   UNL A   1      41.272  26.894  34.501  1.00  0.00    -0.200 F 
ATOM     95  C   UNL A   1      41.924  28.691  35.882  1.00  0.00     0.200 A 
ATOM     96  F   UNL A   1      42.650  30.499  37.214  1.00  0.00    -0.200 F 
ATOM     97  F   UNL A   1      41.860  27.902  36.962  1.00  0.00    -0.200 F 
ENDBRANCH  64  87
ENDBRANCH  38  39
ENDBRANCH  31  33
ENDBRANCH  30  31
ENDBRANCH  29  30
ENDBRANCH   1  29
TORSDOF 16
ENDMDL
