MODEL 1
REMARK VINA RESULT:     -11.1      0.000      0.000
REMARK SMILES C[C@@H]([NH+]1CCC(CCC(=O)OCCOC(=O)c2ccc(-c3c4nc(c(-c5c(F)c(F)c(F)c(F)c5F)c5ccc([nH]5)c(-c5c(F)c(F)c(F)c(F)c5F)c5nc(c(-c6c(F)c(F)c(F)c(F)c6F)c6ccc3[nH]6)C=C5)C=C4)cc2)CC1)C1(C)CC1
REMARK SMILES IDX 12 1 11 2 9 3 10 4 8 5 7 6 6 7 3 8 4 9 81 10 5 12 80 13 2 14
REMARK SMILES IDX 1 15 82 16 83 17 84 18 85 19 13 20 14 21 15 22 16 23 17 24
REMARK SMILES IDX 18 25 79 26 19 27 78 28 20 29 21 30 22 31 72 32 23 33 77 34
REMARK SMILES IDX 71 35 73 36 24 37 76 38 70 39 69 40 25 42 57 43 37 44 56 45
REMARK SMILES IDX 38 46 41 47 55 48 74 49 39 50 40 51 54 53 75 54 42 55 26 56
REMARK SMILES IDX 27 57 35 58 28 59 29 60 33 61 36 62 30 63 31 64 34 65 32 66
REMARK SMILES IDX 58 67 59 68 67 69 60 70 61 71 65 72 68 73 62 74 63 75 66 76
REMARK SMILES IDX 64 77 43 78 44 79 52 80 45 81 46 82 50 83 53 84 47 85 48 86
REMARK SMILES IDX 51 87 49 88
REMARK H PARENT 3 11 73 41 41 52
REMARK Flexibility Score: inf
ROOT
ATOM      1  C   UNL A   1      35.515  20.712  25.331  1.00  0.00     0.274 C 
ENDROOT
BRANCH   1   2
ATOM      2  O   UNL A   1      35.410  21.554  26.494  1.00  0.00    -0.462 OA
BRANCH   2   3
ATOM      3  C   UNL A   1      34.244  22.212  26.697  1.00  0.00     0.305 C 
ATOM      4  O   UNL A   1      33.503  22.038  27.657  1.00  0.00    -0.252 OA
BRANCH   3   5
ATOM      5  C   UNL A   1      33.902  23.161  25.563  1.00  0.00     0.123 C 
BRANCH   5   6
ATOM      6  C   UNL A   1      34.922  24.269  25.261  1.00  0.00     0.016 C 
BRANCH   6   7
ATOM      7  C   UNL A   1      34.320  25.665  25.051  1.00  0.00     0.001 C 
ATOM      8  N   UNL A   1      32.208  27.624  24.489  1.00  0.00    -0.332 N 
ATOM      9  C   UNL A   1      33.229  27.283  23.487  1.00  0.00     0.262 C 
ATOM     10  C   UNL A   1      32.705  27.412  25.857  1.00  0.00     0.262 C 
ATOM     11  H   UNL A   1      31.427  26.976  24.392  1.00  0.00     0.348 HD
ATOM     12  C   UNL A   1      33.759  25.862  23.641  1.00  0.00     0.065 C 
ATOM     13  C   UNL A   1      33.212  25.976  26.059  1.00  0.00     0.065 C 
BRANCH   8  14
ATOM     14  C   UNL A   1      31.619  28.966  24.236  1.00  0.00     0.186 C 
ATOM     15  C   UNL A   1      31.565  29.876  25.478  1.00  0.00     0.076 C 
BRANCH  14  16
ATOM     16  C   UNL A   1      30.288  28.862  23.456  1.00  0.00     0.019 C 
ATOM     17  C   UNL A   1      29.603  27.514  23.582  1.00  0.00     0.018 C 
ATOM     18  C   UNL A   1      29.410  30.094  23.284  1.00  0.00     0.013 C 
ATOM     19  C   UNL A   1      30.128  29.529  22.096  1.00  0.00     0.013 C 
ENDBRANCH  14  16
ENDBRANCH   8  14
ENDBRANCH   6   7
ENDBRANCH   5   6
ENDBRANCH   3   5
ENDBRANCH   2   3
ENDBRANCH   1   2
BRANCH   1  20
ATOM     20  C   UNL A   1      36.978  20.419  24.994  1.00  0.00     0.275 C 
BRANCH  20  21
ATOM     21  O   UNL A   1      37.805  21.561  25.282  1.00  0.00    -0.458 OA
BRANCH  21  22
ATOM     22  C   UNL A   1      38.953  21.284  25.942  1.00  0.00     0.338 C 
ATOM     23  O   UNL A   1      39.573  20.235  25.943  1.00  0.00    -0.246 OA
BRANCH  22  24
ATOM     24  C   UNL A   1      39.469  22.513  26.563  1.00  0.00     0.060 A 
ATOM     25  C   UNL A   1      38.934  23.729  26.132  1.00  0.00     0.016 A 
ATOM     26  C   UNL A   1      40.511  22.485  27.492  1.00  0.00     0.016 A 
ATOM     27  C   UNL A   1      39.440  24.929  26.616  1.00  0.00     0.010 A 
ATOM     28  C   UNL A   1      41.030  23.693  27.971  1.00  0.00     0.010 A 
ATOM     29  C   UNL A   1      40.510  24.919  27.519  1.00  0.00    -0.014 A 
BRANCH  29  30
ATOM     30  C   UNL A   1      41.146  26.207  27.880  1.00  0.00     0.031 A 
ATOM     31  C   UNL A   1      42.560  26.469  27.452  1.00  0.00     0.074 A 
ATOM     32  C   UNL A   1      40.439  27.158  28.516  1.00  0.00     0.049 A 
ATOM     33  N   UNL A   1      43.312  27.518  27.664  1.00  0.00    -0.248 NA
ATOM     34  C   UNL A   1      43.216  25.405  26.676  1.00  0.00     0.031 C 
ATOM     35  C   UNL A   1      39.043  27.035  28.930  1.00  0.00     0.029 A 
ATOM     36  N   UNL A   1      40.801  28.420  28.913  1.00  0.00    -0.354 N 
ATOM     37  C   UNL A   1      44.532  27.236  27.064  1.00  0.00     0.074 A 
ATOM     38  C   UNL A   1      44.428  25.909  26.494  1.00  0.00     0.031 C 
ATOM     39  C   UNL A   1      38.662  28.181  29.521  1.00  0.00     0.029 A 
ATOM     40  C   UNL A   1      39.797  29.101  29.553  1.00  0.00     0.049 A 
ATOM     41  H   UNL A   1      41.695  28.800  28.754  1.00  0.00     0.167 HD
ATOM     42  C   UNL A   1      45.636  28.016  26.990  1.00  0.00     0.037 A 
ATOM     43  C   UNL A   1      39.802  30.326  30.113  1.00  0.00     0.037 A 
ATOM     44  C   UNL A   1      45.730  29.342  27.545  1.00  0.00     0.049 A 
ATOM     45  C   UNL A   1      41.055  31.157  30.051  1.00  0.00     0.074 A 
ATOM     46  C   UNL A   1      46.806  30.211  27.529  1.00  0.00     0.029 A 
ATOM     47  N   UNL A   1      44.701  29.989  28.214  1.00  0.00    -0.354 N 
ATOM     48  N   UNL A   1      42.209  30.879  29.494  1.00  0.00    -0.248 NA
ATOM     49  C   UNL A   1      41.005  32.477  30.696  1.00  0.00     0.031 C 
ATOM     50  C   UNL A   1      46.439  31.373  28.219  1.00  0.00     0.029 A 
ATOM     51  C   UNL A   1      45.122  31.244  28.626  1.00  0.00     0.049 A 
ATOM     52  H   UNL A   1      43.805  29.614  28.372  1.00  0.00     0.167 HD
ATOM     53  C   UNL A   1      43.013  31.990  29.703  1.00  0.00     0.074 A 
ATOM     54  C   UNL A   1      42.209  32.957  30.421  1.00  0.00     0.031 C 
ATOM     55  C   UNL A   1      44.304  32.193  29.337  1.00  0.00     0.037 A 
BRANCH  42  56
ATOM     56  C   UNL A   1      46.840  27.439  26.310  1.00  0.00     0.064 A 
ATOM     57  C   UNL A   1      47.833  26.751  27.025  1.00  0.00     0.173 A 
ATOM     58  C   UNL A   1      46.996  27.563  24.921  1.00  0.00     0.173 A 
ATOM     59  F   UNL A   1      47.739  26.622  28.356  1.00  0.00    -0.203 F 
ATOM     60  C   UNL A   1      48.950  26.232  26.375  1.00  0.00     0.198 A 
ATOM     61  C   UNL A   1      48.101  27.019  24.273  1.00  0.00     0.198 A 
ATOM     62  F   UNL A   1      46.074  28.210  24.193  1.00  0.00    -0.203 F 
ATOM     63  F   UNL A   1      49.909  25.620  27.083  1.00  0.00    -0.200 F 
ATOM     64  C   UNL A   1      49.081  26.362  25.001  1.00  0.00     0.200 A 
ATOM     65  F   UNL A   1      48.222  27.139  22.943  1.00  0.00    -0.200 F 
ATOM     66  F   UNL A   1      50.156  25.859  24.377  1.00  0.00    -0.200 F 
ENDBRANCH  42  56
BRANCH  43  67
ATOM     67  C   UNL A   1      38.582  30.837  30.788  1.00  0.00     0.064 A 
ATOM     68  C   UNL A   1      37.545  31.431  30.058  1.00  0.00     0.173 A 
ATOM     69  C   UNL A   1      38.438  30.758  32.181  1.00  0.00     0.173 A 
ATOM     70  F   UNL A   1      37.648  31.554  28.726  1.00  0.00    -0.203 F 
ATOM     71  C   UNL A   1      36.416  31.941  30.696  1.00  0.00     0.198 A 
ATOM     72  C   UNL A   1      37.298  31.245  32.816  1.00  0.00     0.198 A 
ATOM     73  F   UNL A   1      39.406  30.204  32.926  1.00  0.00    -0.203 F 
ATOM     74  F   UNL A   1      35.458  32.545  29.978  1.00  0.00    -0.200 F 
ATOM     75  C   UNL A   1      36.291  31.843  32.074  1.00  0.00     0.200 A 
ATOM     76  F   UNL A   1      37.177  31.141  34.147  1.00  0.00    -0.200 F 
ATOM     77  F   UNL A   1      35.205  32.334  32.687  1.00  0.00    -0.200 F 
ENDBRANCH  43  67
BRANCH  55  78
ATOM     78  C   UNL A   1      44.910  33.520  29.685  1.00  0.00     0.064 A 
ATOM     79  C   UNL A   1      45.603  33.720  30.886  1.00  0.00     0.173 A 
ATOM     80  C   UNL A   1      44.811  34.600  28.794  1.00  0.00     0.173 A 
ATOM     81  F   UNL A   1      45.711  32.721  31.777  1.00  0.00    -0.203 F 
ATOM     82  C   UNL A   1      46.149  34.961  31.200  1.00  0.00     0.198 A 
ATOM     83  C   UNL A   1      45.381  35.833  29.099  1.00  0.00     0.198 A 
ATOM     84  F   UNL A   1      44.164  34.459  27.628  1.00  0.00    -0.203 F 
ATOM     85  F   UNL A   1      46.762  35.144  32.378  1.00  0.00    -0.200 F 
ATOM     86  C   UNL A   1      46.042  36.015  30.305  1.00  0.00     0.200 A 
ATOM     87  F   UNL A   1      45.286  36.847  28.228  1.00  0.00    -0.200 F 
ATOM     88  F   UNL A   1      46.566  37.210  30.609  1.00  0.00    -0.200 F 
ENDBRANCH  55  78
ENDBRANCH  29  30
ENDBRANCH  22  24
ENDBRANCH  21  22
ENDBRANCH  20  21
ENDBRANCH   1  20
TORSDOF 15
ENDMDL
MODEL 2
REMARK VINA RESULT:     -11.1      4.592      9.987
REMARK SMILES C[C@@H]([NH+]1CCC(CCC(=O)OCCOC(=O)c2ccc(-c3c4nc(c(-c5c(F)c(F)c(F)c(F)c5F)c5ccc([nH]5)c(-c5c(F)c(F)c(F)c(F)c5F)c5nc(c(-c6c(F)c(F)c(F)c(F)c6F)c6ccc3[nH]6)C=C5)C=C4)cc2)CC1)C1(C)CC1
REMARK SMILES IDX 12 1 11 2 9 3 10 4 8 5 7 6 6 7 3 8 4 9 81 10 5 12 80 13 2 14
REMARK SMILES IDX 1 15 82 16 83 17 84 18 85 19 13 20 14 21 15 22 16 23 17 24
REMARK SMILES IDX 18 25 79 26 19 27 78 28 20 29 21 30 22 31 72 32 23 33 77 34
REMARK SMILES IDX 71 35 73 36 24 37 76 38 70 39 69 40 25 42 57 43 37 44 56 45
REMARK SMILES IDX 38 46 41 47 55 48 74 49 39 50 40 51 54 53 75 54 42 55 26 56
REMARK SMILES IDX 27 57 35 58 28 59 29 60 33 61 36 62 30 63 31 64 34 65 32 66
REMARK SMILES IDX 58 67 59 68 67 69 60 70 61 71 65 72 68 73 62 74 63 75 66 76
REMARK SMILES IDX 64 77 43 78 44 79 52 80 45 81 46 82 50 83 53 84 47 85 48 86
REMARK SMILES IDX 51 87 49 88
REMARK H PARENT 3 11 73 41 41 52
REMARK Flexibility Score: inf
ROOT
ATOM      1  C   UNL A   1      30.911  31.544  25.656  1.00  0.00     0.274 C 
ENDROOT
BRANCH   1   2
ATOM      2  O   UNL A   1      31.601  30.298  25.446  1.00  0.00    -0.462 OA
BRANCH   2   3
ATOM      3  C   UNL A   1      31.039  29.396  24.608  1.00  0.00     0.305 C 
ATOM      4  O   UNL A   1      30.162  29.653  23.793  1.00  0.00    -0.252 OA
BRANCH   3   5
ATOM      5  C   UNL A   1      31.566  27.989  24.823  1.00  0.00     0.123 C 
BRANCH   5   6
ATOM      6  C   UNL A   1      32.093  27.658  26.227  1.00  0.00     0.016 C 
BRANCH   6   7
ATOM      7  C   UNL A   1      32.330  26.166  26.496  1.00  0.00     0.001 C 
ATOM      8  N   UNL A   1      32.666  23.332  25.810  1.00  0.00    -0.332 N 
ATOM      9  C   UNL A   1      31.427  23.835  26.422  1.00  0.00     0.262 C 
ATOM     10  C   UNL A   1      33.820  24.170  26.165  1.00  0.00     0.262 C 
ATOM     11  H   UNL A   1      32.586  23.414  24.797  1.00  0.00     0.348 HD
ATOM     12  C   UNL A   1      31.146  25.293  26.077  1.00  0.00     0.065 C 
ATOM     13  C   UNL A   1      33.586  25.643  25.795  1.00  0.00     0.065 C 
BRANCH   8  14
ATOM     14  C   UNL A   1      32.847  21.876  26.057  1.00  0.00     0.186 C 
ATOM     15  C   UNL A   1      33.875  21.547  27.156  1.00  0.00     0.076 C 
BRANCH  14  16
ATOM     16  C   UNL A   1      33.043  21.097  24.736  1.00  0.00     0.019 C 
ATOM     17  C   UNL A   1      32.988  21.967  23.494  1.00  0.00     0.018 C 
ATOM     18  C   UNL A   1      33.941  19.867  24.706  1.00  0.00     0.013 C 
ATOM     19  C   UNL A   1      32.458  19.702  24.560  1.00  0.00     0.013 C 
ENDBRANCH  14  16
ENDBRANCH   8  14
ENDBRANCH   6   7
ENDBRANCH   5   6
ENDBRANCH   3   5
ENDBRANCH   2   3
ENDBRANCH   1   2
BRANCH   1  20
ATOM     20  C   UNL A   1      31.471  32.285  26.872  1.00  0.00     0.275 C 
BRANCH  20  21
ATOM     21  O   UNL A   1      32.844  31.923  27.101  1.00  0.00    -0.458 OA
BRANCH  21  22
ATOM     22  C   UNL A   1      33.608  32.894  27.652  1.00  0.00     0.338 C 
ATOM     23  O   UNL A   1      33.289  34.047  27.882  1.00  0.00    -0.246 OA
BRANCH  22  24
ATOM     24  C   UNL A   1      34.882  32.317  28.105  1.00  0.00     0.060 A 
ATOM     25  C   UNL A   1      34.873  30.987  28.535  1.00  0.00     0.016 A 
ATOM     26  C   UNL A   1      36.048  33.080  28.184  1.00  0.00     0.016 A 
ATOM     27  C   UNL A   1      36.025  30.412  29.057  1.00  0.00     0.010 A 
ATOM     28  C   UNL A   1      37.206  32.505  28.719  1.00  0.00     0.010 A 
ATOM     29  C   UNL A   1      37.192  31.175  29.177  1.00  0.00    -0.014 A 
BRANCH  29  30
ATOM     30  C   UNL A   1      38.348  30.595  29.898  1.00  0.00     0.031 A 
ATOM     31  C   UNL A   1      38.576  30.967  31.333  1.00  0.00     0.074 A 
ATOM     32  C   UNL A   1      39.138  29.689  29.295  1.00  0.00     0.049 A 
ATOM     33  N   UNL A   1      39.525  30.587  32.151  1.00  0.00    -0.248 NA
ATOM     34  C   UNL A   1      37.600  31.892  31.932  1.00  0.00     0.031 C 
ATOM     35  C   UNL A   1      38.978  29.210  27.923  1.00  0.00     0.029 A 
ATOM     36  N   UNL A   1      40.226  29.001  29.769  1.00  0.00    -0.354 N 
ATOM     37  C   UNL A   1      39.271  31.235  33.351  1.00  0.00     0.074 A 
ATOM     38  C   UNL A   1      38.090  32.049  33.153  1.00  0.00     0.031 C 
ATOM     39  C   UNL A   1      39.933  28.301  27.665  1.00  0.00     0.029 A 
ATOM     40  C   UNL A   1      40.787  28.159  28.843  1.00  0.00     0.049 A 
ATOM     41  H   UNL A   1      40.572  29.103  30.685  1.00  0.00     0.167 HD
ATOM     42  C   UNL A   1      39.958  31.154  34.515  1.00  0.00     0.037 A 
ATOM     43  C   UNL A   1      41.877  27.373  28.935  1.00  0.00     0.037 A 
ATOM     44  C   UNL A   1      41.124  30.332  34.712  1.00  0.00     0.049 A 
ATOM     45  C   UNL A   1      42.645  27.331  30.228  1.00  0.00     0.074 A 
ATOM     46  C   UNL A   1      41.895  30.185  35.851  1.00  0.00     0.029 A 
ATOM     47  N   UNL A   1      41.682  29.513  33.742  1.00  0.00    -0.354 N 
ATOM     48  N   UNL A   1      42.408  27.958  31.356  1.00  0.00    -0.248 NA
ATOM     49  C   UNL A   1      43.836  26.469  30.262  1.00  0.00     0.031 C 
ATOM     50  C   UNL A   1      42.941  29.302  35.559  1.00  0.00     0.029 A 
ATOM     51  C   UNL A   1      42.796  28.867  34.252  1.00  0.00     0.049 A 
ATOM     52  H   UNL A   1      41.338  29.407  32.826  1.00  0.00     0.167 HD
ATOM     53  C   UNL A   1      43.402  27.553  32.235  1.00  0.00     0.074 A 
ATOM     54  C   UNL A   1      44.236  26.611  31.517  1.00  0.00     0.031 C 
ATOM     55  C   UNL A   1      43.610  27.930  33.522  1.00  0.00     0.037 A 
BRANCH  42  56
ATOM     56  C   UNL A   1      39.481  32.003  35.655  1.00  0.00     0.064 A 
ATOM     57  C   UNL A   1      39.973  33.300  35.865  1.00  0.00     0.173 A 
ATOM     58  C   UNL A   1      38.507  31.517  36.539  1.00  0.00     0.173 A 
ATOM     59  F   UNL A   1      40.918  33.803  35.058  1.00  0.00    -0.203 F 
ATOM     60  C   UNL A   1      39.524  34.069  36.937  1.00  0.00     0.198 A 
ATOM     61  C   UNL A   1      38.042  32.298  37.593  1.00  0.00     0.198 A 
ATOM     62  F   UNL A   1      38.004  30.284  36.380  1.00  0.00    -0.203 F 
ATOM     63  F   UNL A   1      40.042  35.287  37.147  1.00  0.00    -0.200 F 
ATOM     64  C   UNL A   1      38.557  33.570  37.796  1.00  0.00     0.200 A 
ATOM     65  F   UNL A   1      37.102  31.818  38.419  1.00  0.00    -0.200 F 
ATOM     66  F   UNL A   1      38.125  34.312  38.825  1.00  0.00    -0.200 F 
ENDBRANCH  42  56
BRANCH  43  67
ATOM     67  C   UNL A   1      42.311  26.567  27.766  1.00  0.00     0.064 A 
ATOM     68  C   UNL A   1      41.783  25.291  27.529  1.00  0.00     0.173 A 
ATOM     69  C   UNL A   1      43.277  27.050  26.871  1.00  0.00     0.173 A 
ATOM     70  F   UNL A   1      40.877  24.775  28.372  1.00  0.00    -0.203 F 
ATOM     71  C   UNL A   1      42.216  24.522  26.451  1.00  0.00     0.198 A 
ATOM     72  C   UNL A   1      43.690  26.292  25.779  1.00  0.00     0.198 A 
ATOM     73  F   UNL A   1      43.817  28.264  27.057  1.00  0.00    -0.203 F 
ATOM     74  F   UNL A   1      41.728  23.286  26.273  1.00  0.00    -0.200 F 
ATOM     75  C   UNL A   1      43.165  25.025  25.573  1.00  0.00     0.200 A 
ATOM     76  F   UNL A   1      44.601  26.785  24.928  1.00  0.00    -0.200 F 
ATOM     77  F   UNL A   1      43.581  24.285  24.537  1.00  0.00    -0.200 F 
ENDBRANCH  43  67
BRANCH  55  78
ATOM     78  C   UNL A   1      44.768  27.299  34.237  1.00  0.00     0.064 A 
ATOM     79  C   UNL A   1      44.642  26.068  34.897  1.00  0.00     0.173 A 
ATOM     80  C   UNL A   1      46.024  27.925  34.245  1.00  0.00     0.173 A 
ATOM     81  F   UNL A   1      43.457  25.439  34.930  1.00  0.00    -0.203 F 
ATOM     82  C   UNL A   1      45.722  25.501  35.567  1.00  0.00     0.198 A 
ATOM     83  C   UNL A   1      47.110  27.342  34.893  1.00  0.00     0.198 A 
ATOM     84  F   UNL A   1      46.199  29.099  33.623  1.00  0.00    -0.203 F 
ATOM     85  F   UNL A   1      45.565  24.351  36.236  1.00  0.00    -0.200 F 
ATOM     86  C   UNL A   1      46.955  26.135  35.560  1.00  0.00     0.200 A 
ATOM     87  F   UNL A   1      48.304  27.950  34.877  1.00  0.00    -0.200 F 
ATOM     88  F   UNL A   1      47.994  25.589  36.207  1.00  0.00    -0.200 F 
ENDBRANCH  55  78
ENDBRANCH  29  30
ENDBRANCH  22  24
ENDBRANCH  21  22
ENDBRANCH  20  21
ENDBRANCH   1  20
TORSDOF 15
ENDMDL
MODEL 3
REMARK VINA RESULT:     -11.0      3.347      5.208
REMARK SMILES C[C@@H]([NH+]1CCC(CCC(=O)OCCOC(=O)c2ccc(-c3c4nc(c(-c5c(F)c(F)c(F)c(F)c5F)c5ccc([nH]5)c(-c5c(F)c(F)c(F)c(F)c5F)c5nc(c(-c6c(F)c(F)c(F)c(F)c6F)c6ccc3[nH]6)C=C5)C=C4)cc2)CC1)C1(C)CC1
REMARK SMILES IDX 12 1 11 2 9 3 10 4 8 5 7 6 6 7 3 8 4 9 81 10 5 12 80 13 2 14
REMARK SMILES IDX 1 15 82 16 83 17 84 18 85 19 13 20 14 21 15 22 16 23 17 24
REMARK SMILES IDX 18 25 79 26 19 27 78 28 20 29 21 30 22 31 72 32 23 33 77 34
REMARK SMILES IDX 71 35 73 36 24 37 76 38 70 39 69 40 25 42 57 43 37 44 56 45
REMARK SMILES IDX 38 46 41 47 55 48 74 49 39 50 40 51 54 53 75 54 42 55 26 56
REMARK SMILES IDX 27 57 35 58 28 59 29 60 33 61 36 62 30 63 31 64 34 65 32 66
REMARK SMILES IDX 58 67 59 68 67 69 60 70 61 71 65 72 68 73 62 74 63 75 66 76
REMARK SMILES IDX 64 77 43 78 44 79 52 80 45 81 46 82 50 83 53 84 47 85 48 86
REMARK SMILES IDX 51 87 49 88
REMARK H PARENT 3 11 73 41 41 52
REMARK Flexibility Score: inf
ROOT
ATOM      1  C   UNL A   1      41.554  19.359  26.393  1.00  0.00     0.274 C 
ENDROOT
BRANCH   1   2
ATOM      2  O   UNL A   1      41.770  20.072  27.625  1.00  0.00    -0.462 OA
BRANCH   2   3
ATOM      3  C   UNL A   1      41.980  21.407  27.555  1.00  0.00     0.305 C 
ATOM      4  O   UNL A   1      42.649  22.051  28.354  1.00  0.00    -0.252 OA
BRANCH   3   5
ATOM      5  C   UNL A   1      41.239  22.058  26.402  1.00  0.00     0.123 C 
BRANCH   5   6
ATOM      6  C   UNL A   1      40.042  22.949  26.767  1.00  0.00     0.016 C 
BRANCH   6   7
ATOM      7  C   UNL A   1      38.828  22.817  25.838  1.00  0.00     0.001 C 
ATOM      8  N   UNL A   1      36.040  22.235  25.126  1.00  0.00    -0.332 N 
ATOM      9  C   UNL A   1      37.133  21.316  24.774  1.00  0.00     0.262 C 
ATOM     10  C   UNL A   1      36.520  23.619  25.251  1.00  0.00     0.262 C 
ATOM     11  H   UNL A   1      35.697  21.993  26.055  1.00  0.00     0.348 HD
ATOM     12  C   UNL A   1      38.301  21.383  25.752  1.00  0.00     0.065 C 
ATOM     13  C   UNL A   1      37.674  23.729  26.261  1.00  0.00     0.065 C 
BRANCH   8  14
ATOM     14  C   UNL A   1      34.865  22.055  24.232  1.00  0.00     0.186 C 
ATOM     15  C   UNL A   1      34.397  23.350  23.539  1.00  0.00     0.076 C 
BRANCH  14  16
ATOM     16  C   UNL A   1      33.741  21.254  24.927  1.00  0.00     0.019 C 
ATOM     17  C   UNL A   1      33.639  21.504  26.420  1.00  0.00     0.018 C 
ATOM     18  C   UNL A   1      32.461  20.927  24.170  1.00  0.00     0.013 C 
ATOM     19  C   UNL A   1      33.424  19.827  24.501  1.00  0.00     0.013 C 
ENDBRANCH  14  16
ENDBRANCH   8  14
ENDBRANCH   6   7
ENDBRANCH   5   6
ENDBRANCH   3   5
ENDBRANCH   2   3
ENDBRANCH   1   2
BRANCH   1  20
ATOM     20  C   UNL A   1      42.863  18.770  25.862  1.00  0.00     0.275 C 
BRANCH  20  21
ATOM     21  O   UNL A   1      43.241  19.404  24.626  1.00  0.00    -0.458 OA
BRANCH  21  22
ATOM     22  C   UNL A   1      44.572  19.580  24.459  1.00  0.00     0.338 C 
ATOM     23  O   UNL A   1      45.373  18.786  23.998  1.00  0.00    -0.246 OA
BRANCH  22  24
ATOM     24  C   UNL A   1      44.924  20.973  24.770  1.00  0.00     0.060 A 
ATOM     25  C   UNL A   1      45.419  21.245  26.048  1.00  0.00     0.016 A 
ATOM     26  C   UNL A   1      44.704  22.008  23.859  1.00  0.00     0.016 A 
ATOM     27  C   UNL A   1      45.687  22.553  26.432  1.00  0.00     0.010 A 
ATOM     28  C   UNL A   1      44.963  23.327  24.249  1.00  0.00     0.010 A 
ATOM     29  C   UNL A   1      45.436  23.605  25.544  1.00  0.00    -0.014 A 
BRANCH  29  30
ATOM     30  C   UNL A   1      45.559  24.996  26.037  1.00  0.00     0.031 A 
ATOM     31  C   UNL A   1      46.874  25.706  25.902  1.00  0.00     0.074 A 
ATOM     32  C   UNL A   1      44.485  25.638  26.529  1.00  0.00     0.049 A 
ATOM     33  N   UNL A   1      47.207  26.917  26.270  1.00  0.00    -0.248 NA
ATOM     34  C   UNL A   1      47.962  24.951  25.261  1.00  0.00     0.031 C 
ATOM     35  C   UNL A   1      43.146  25.066  26.656  1.00  0.00     0.029 A 
ATOM     36  N   UNL A   1      44.353  26.919  27.003  1.00  0.00    -0.354 N 
ATOM     37  C   UNL A   1      48.542  27.064  25.922  1.00  0.00     0.074 A 
ATOM     38  C   UNL A   1      48.967  25.813  25.329  1.00  0.00     0.031 C 
ATOM     39  C   UNL A   1      42.323  25.996  27.171  1.00  0.00     0.029 A 
ATOM     40  C   UNL A   1      43.087  27.214  27.438  1.00  0.00     0.049 A 
ATOM     41  H   UNL A   1      45.097  27.563  27.030  1.00  0.00     0.167 HD
ATOM     42  C   UNL A   1      49.340  28.147  26.077  1.00  0.00     0.037 A 
ATOM     43  C   UNL A   1      42.604  28.338  28.000  1.00  0.00     0.037 A 
ATOM     44  C   UNL A   1      48.910  29.394  26.653  1.00  0.00     0.049 A 
ATOM     45  C   UNL A   1      43.522  29.514  28.197  1.00  0.00     0.074 A 
ATOM     46  C   UNL A   1      49.643  30.549  26.860  1.00  0.00     0.029 A 
ATOM     47  N   UNL A   1      47.625  29.648  27.110  1.00  0.00    -0.354 N 
ATOM     48  N   UNL A   1      44.788  29.641  27.878  1.00  0.00    -0.248 NA
ATOM     49  C   UNL A   1      42.942  30.706  28.832  1.00  0.00     0.031 C 
ATOM     50  C   UNL A   1      48.809  31.491  27.475  1.00  0.00     0.029 A 
ATOM     51  C   UNL A   1      47.547  30.938  27.611  1.00  0.00     0.049 A 
ATOM     52  H   UNL A   1      46.879  29.007  27.083  1.00  0.00     0.167 HD
ATOM     53  C   UNL A   1      45.150  30.927  28.254  1.00  0.00     0.074 A 
ATOM     54  C   UNL A   1      43.964  31.549  28.807  1.00  0.00     0.031 C 
ATOM     55  C   UNL A   1      46.357  31.539  28.154  1.00  0.00     0.037 A 
BRANCH  42  56
ATOM     56  C   UNL A   1      50.769  28.014  25.644  1.00  0.00     0.064 A 
ATOM     57  C   UNL A   1      51.798  27.757  26.563  1.00  0.00     0.173 A 
ATOM     58  C   UNL A   1      51.111  28.131  24.289  1.00  0.00     0.173 A 
ATOM     59  F   UNL A   1      51.524  27.656  27.872  1.00  0.00    -0.203 F 
ATOM     60  C   UNL A   1      53.121  27.649  26.142  1.00  0.00     0.198 A 
ATOM     61  C   UNL A   1      52.431  27.996  23.869  1.00  0.00     0.198 A 
ATOM     62  F   UNL A   1      50.164  28.375  23.371  1.00  0.00    -0.203 F 
ATOM     63  F   UNL A   1      54.094  27.450  27.042  1.00  0.00    -0.200 F 
ATOM     64  C   UNL A   1      53.436  27.763  24.796  1.00  0.00     0.200 A 
ATOM     65  F   UNL A   1      52.733  28.098  22.567  1.00  0.00    -0.200 F 
ATOM     66  F   UNL A   1      54.710  27.656  24.392  1.00  0.00    -0.200 F 
ENDBRANCH  42  56
BRANCH  43  67
ATOM     67  C   UNL A   1      41.182  28.404  28.425  1.00  0.00     0.064 A 
ATOM     68  C   UNL A   1      40.192  28.900  27.567  1.00  0.00     0.173 A 
ATOM     69  C   UNL A   1      40.788  27.988  29.705  1.00  0.00     0.173 A 
ATOM     70  F   UNL A   1      40.524  29.334  26.342  1.00  0.00    -0.203 F 
ATOM     71  C   UNL A   1      38.864  28.993  27.978  1.00  0.00     0.198 A 
ATOM     72  C   UNL A   1      39.457  28.057  30.106  1.00  0.00     0.198 A 
ATOM     73  F   UNL A   1      41.699  27.511  30.566  1.00  0.00    -0.203 F 
ATOM     74  F   UNL A   1      37.944  29.513  27.153  1.00  0.00    -0.200 F 
ATOM     75  C   UNL A   1      38.496  28.566  29.245  1.00  0.00     0.200 A 
ATOM     76  F   UNL A   1      39.104  27.636  31.329  1.00  0.00    -0.200 F 
ATOM     77  F   UNL A   1      37.219  28.656  29.641  1.00  0.00    -0.200 F 
ENDBRANCH  43  67
BRANCH  55  78
ATOM     78  C   UNL A   1      46.441  32.960  28.629  1.00  0.00     0.064 A 
ATOM     79  C   UNL A   1      46.214  34.038  27.763  1.00  0.00     0.173 A 
ATOM     80  C   UNL A   1      46.733  33.243  29.972  1.00  0.00     0.173 A 
ATOM     81  F   UNL A   1      45.946  33.818  26.467  1.00  0.00    -0.203 F 
ATOM     82  C   UNL A   1      46.308  35.351  28.215  1.00  0.00     0.198 A 
ATOM     83  C   UNL A   1      46.800  34.557  30.427  1.00  0.00     0.198 A 
ATOM     84  F   UNL A   1      46.952  32.246  30.842  1.00  0.00    -0.203 F 
ATOM     85  F   UNL A   1      46.139  36.367  27.359  1.00  0.00    -0.200 F 
ATOM     86  C   UNL A   1      46.596  35.609  29.547  1.00  0.00     0.200 A 
ATOM     87  F   UNL A   1      47.068  34.805  31.717  1.00  0.00    -0.200 F 
ATOM     88  F   UNL A   1      46.688  36.874  29.981  1.00  0.00    -0.200 F 
ENDBRANCH  55  78
ENDBRANCH  29  30
ENDBRANCH  22  24
ENDBRANCH  21  22
ENDBRANCH  20  21
ENDBRANCH   1  20
TORSDOF 15
ENDMDL
