MODEL 1
REMARK VINA RESULT:     -12.5      0.000      0.000
REMARK SMILES C/C(=N\NC(N)=O)c1nnn(-c2ccc(C(=O)OCCOC(=O)c3ccc(-c4c5nc(c(-c6c(F)c(F)c(F)c(F)c6F)c6ccc([nH]6)c(-c6c(F)c(F)c(F)c(F)c6F)c6nc(c(-c7c(F)c(F)c(F)c(F)c7F)c7ccc4[nH]7)C=C6)C=C5)cc3)cc2)c1C
REMARK SMILES IDX 19 1 18 2 16 3 17 4 15 5 12 6 13 7 88 8 14 9 87 10 11 11
REMARK SMILES IDX 8 12 9 13 89 14 10 15 90 16 2 17 1 18 3 19 4 20 5 21 6 23
REMARK SMILES IDX 7 24 20 27 21 28 22 29 23 30 24 31 25 32 86 33 26 34 85 35
REMARK SMILES IDX 27 36 28 37 29 38 79 39 30 40 84 41 78 42 80 43 31 44 83 45
REMARK SMILES IDX 77 46 76 47 32 49 64 50 44 51 63 52 45 53 48 54 62 55 81 56
REMARK SMILES IDX 46 57 47 58 61 60 82 61 49 62 33 63 34 64 42 65 35 66 36 67
REMARK SMILES IDX 40 68 43 69 37 70 38 71 41 72 39 73 65 74 66 75 74 76 67 77
REMARK SMILES IDX 68 78 72 79 75 80 69 81 70 82 73 83 71 84 50 85 51 86 59 87
REMARK SMILES IDX 52 88 53 89 57 90 60 91 54 92 55 93 58 94 56 95
REMARK H PARENT 4 22 6 25 6 26 80 48 48 59
REMARK Flexibility Score: inf
ROOT
ATOM      1  C   UNL A   1      43.017  18.520  26.273  1.00  0.00     0.275 C 
ENDROOT
BRANCH   1   2
ATOM      2  O   UNL A   1      41.846  19.200  25.797  1.00  0.00    -0.458 OA
BRANCH   2   3
ATOM      3  C   UNL A   1      41.549  20.377  26.400  1.00  0.00     0.338 C 
ATOM      4  O   UNL A   1      42.317  21.075  27.048  1.00  0.00    -0.246 OA
BRANCH   3   5
ATOM      5  C   UNL A   1      40.145  20.762  26.111  1.00  0.00     0.060 A 
ATOM      6  C   UNL A   1      37.620  21.533  25.260  1.00  0.00     0.067 A 
ATOM      7  C   UNL A   1      38.020  20.208  25.067  1.00  0.00     0.029 A 
ATOM      8  C   UNL A   1      38.404  22.425  25.999  1.00  0.00     0.029 A 
ATOM      9  C   UNL A   1      39.302  19.833  25.477  1.00  0.00     0.018 A 
ATOM     10  C   UNL A   1      39.666  22.037  26.431  1.00  0.00     0.018 A 
BRANCH   6  11
ATOM     11  N   UNL A   1      36.528  22.039  24.531  1.00  0.00    -0.217 N 
ATOM     12  C   UNL A   1      34.551  22.737  23.949  1.00  0.00     0.132 A 
ATOM     13  N   UNL A   1      35.462  23.161  23.015  1.00  0.00    -0.128 NA
ATOM     14  C   UNL A   1      35.207  22.046  24.949  1.00  0.00     0.071 A 
ATOM     15  N   UNL A   1      36.673  22.809  23.432  1.00  0.00    -0.061 NA
ATOM     16  C   UNL A   1      34.733  21.558  26.268  1.00  0.00     0.069 C 
BRANCH  12  17
ATOM     17  C   UNL A   1      33.157  23.144  23.944  1.00  0.00     0.087 C 
ATOM     18  C   UNL A   1      32.271  22.475  22.923  1.00  0.00     0.071 C 
ATOM     19  N   UNL A   1      32.830  24.030  24.838  1.00  0.00    -0.174 NA
BRANCH  19  20
ATOM     20  N   UNL A   1      31.575  24.565  24.903  1.00  0.00    -0.229 N 
ATOM     21  C   UNL A   1      30.770  24.628  26.021  1.00  0.00     0.332 C 
ATOM     22  H   UNL A   1      31.209  24.943  24.070  1.00  0.00     0.195 HD
ATOM     23  N   UNL A   1      29.558  25.194  25.756  1.00  0.00    -0.350 N 
ATOM     24  O   UNL A   1      31.039  24.255  27.154  1.00  0.00    -0.247 OA
ATOM     25  H   UNL A   1      29.343  25.493  24.843  1.00  0.00     0.161 HD
ATOM     26  H   UNL A   1      28.898  25.303  26.478  1.00  0.00     0.161 HD
ENDBRANCH  19  20
ENDBRANCH  12  17
ENDBRANCH   6  11
ENDBRANCH   3   5
ENDBRANCH   2   3
ENDBRANCH   1   2
BRANCH   1  27
ATOM     27  C   UNL A   1      44.109  18.506  25.212  1.00  0.00     0.275 C 
BRANCH  27  28
ATOM     28  O   UNL A   1      44.900  19.693  25.252  1.00  0.00    -0.458 OA
BRANCH  28  29
ATOM     29  C   UNL A   1      44.673  20.562  24.243  1.00  0.00     0.338 C 
ATOM     30  O   UNL A   1      44.569  20.316  23.053  1.00  0.00    -0.246 OA
BRANCH  29  31
ATOM     31  C   UNL A   1      44.789  21.928  24.752  1.00  0.00     0.060 A 
ATOM     32  C   UNL A   1      45.660  22.156  25.822  1.00  0.00     0.016 A 
ATOM     33  C   UNL A   1      43.838  22.878  24.354  1.00  0.00     0.016 A 
ATOM     34  C   UNL A   1      45.483  23.292  26.584  1.00  0.00     0.010 A 
ATOM     35  C   UNL A   1      43.654  24.002  25.122  1.00  0.00     0.010 A 
ATOM     36  C   UNL A   1      44.438  24.166  26.263  1.00  0.00    -0.014 A 
BRANCH  36  37
ATOM     37  C   UNL A   1      44.248  25.342  27.088  1.00  0.00     0.031 A 
ATOM     38  C   UNL A   1      45.280  26.387  26.877  1.00  0.00     0.074 A 
ATOM     39  C   UNL A   1      43.141  25.512  27.838  1.00  0.00     0.049 A 
ATOM     40  N   UNL A   1      46.041  26.950  27.756  1.00  0.00    -0.248 NA
ATOM     41  C   UNL A   1      45.584  26.773  25.487  1.00  0.00     0.031 C 
ATOM     42  C   UNL A   1      41.936  24.680  27.867  1.00  0.00     0.029 A 
ATOM     43  N   UNL A   1      42.812  26.554  28.649  1.00  0.00    -0.354 N 
ATOM     44  C   UNL A   1      46.807  27.879  27.056  1.00  0.00     0.074 A 
ATOM     45  C   UNL A   1      46.593  27.623  25.657  1.00  0.00     0.031 C 
ATOM     46  C   UNL A   1      40.936  25.368  28.463  1.00  0.00     0.029 A 
ATOM     47  C   UNL A   1      41.461  26.631  28.955  1.00  0.00     0.049 A 
ATOM     48  H   UNL A   1      43.475  27.197  28.988  1.00  0.00     0.167 HD
ATOM     49  C   UNL A   1      47.378  28.937  27.688  1.00  0.00     0.037 A 
ATOM     50  C   UNL A   1      40.818  27.700  29.489  1.00  0.00     0.037 A 
ATOM     51  C   UNL A   1      47.532  28.679  29.096  1.00  0.00     0.049 A 
ATOM     52  C   UNL A   1      41.849  28.594  30.077  1.00  0.00     0.074 A 
ATOM     53  C   UNL A   1      48.209  27.724  29.831  1.00  0.00     0.029 A 
ATOM     54  N   UNL A   1      46.640  29.252  29.967  1.00  0.00    -0.354 N 
ATOM     55  N   UNL A   1      42.546  28.307  31.141  1.00  0.00    -0.248 NA
ATOM     56  C   UNL A   1      42.415  29.624  29.219  1.00  0.00     0.031 C 
ATOM     57  C   UNL A   1      47.361  27.440  30.940  1.00  0.00     0.029 A 
ATOM     58  C   UNL A   1      46.249  28.278  30.848  1.00  0.00     0.049 A 
ATOM     59  H   UNL A   1      46.337  30.189  29.960  1.00  0.00     0.167 HD
ATOM     60  C   UNL A   1      43.819  28.784  30.864  1.00  0.00     0.074 A 
ATOM     61  C   UNL A   1      43.656  29.666  29.712  1.00  0.00     0.031 C 
ATOM     62  C   UNL A   1      44.923  28.197  31.410  1.00  0.00     0.037 A 
BRANCH  49  63
ATOM     63  C   UNL A   1      47.438  30.326  27.100  1.00  0.00     0.064 A 
ATOM     64  C   UNL A   1      48.655  31.034  27.145  1.00  0.00     0.173 A 
ATOM     65  C   UNL A   1      46.298  31.100  26.784  1.00  0.00     0.173 A 
ATOM     66  F   UNL A   1      49.801  30.404  27.445  1.00  0.00    -0.203 F 
ATOM     67  C   UNL A   1      48.709  32.421  26.988  1.00  0.00     0.198 A 
ATOM     68  C   UNL A   1      46.364  32.476  26.574  1.00  0.00     0.198 A 
ATOM     69  F   UNL A   1      45.061  30.590  26.778  1.00  0.00    -0.203 F 
ATOM     70  F   UNL A   1      49.868  33.065  27.180  1.00  0.00    -0.200 F 
ATOM     71  C   UNL A   1      47.563  33.141  26.712  1.00  0.00     0.200 A 
ATOM     72  F   UNL A   1      45.238  33.158  26.323  1.00  0.00    -0.200 F 
ATOM     73  F   UNL A   1      47.600  34.477  26.631  1.00  0.00    -0.200 F 
ENDBRANCH  49  63
BRANCH  50  74
ATOM     74  C   UNL A   1      39.429  28.157  29.247  1.00  0.00     0.064 A 
ATOM     75  C   UNL A   1      38.516  28.283  30.308  1.00  0.00     0.173 A 
ATOM     76  C   UNL A   1      39.048  28.740  28.022  1.00  0.00     0.173 A 
ATOM     77  F   UNL A   1      38.819  27.797  31.519  1.00  0.00    -0.203 F 
ATOM     78  C   UNL A   1      37.308  28.974  30.159  1.00  0.00     0.198 A 
ATOM     79  C   UNL A   1      37.838  29.420  27.873  1.00  0.00     0.198 A 
ATOM     80  F   UNL A   1      39.881  28.750  26.973  1.00  0.00    -0.203 F 
ATOM     81  F   UNL A   1      36.494  29.131  31.213  1.00  0.00    -0.200 F 
ATOM     82  C   UNL A   1      36.975  29.551  28.944  1.00  0.00     0.200 A 
ATOM     83  F   UNL A   1      37.544  30.002  26.702  1.00  0.00    -0.200 F 
ATOM     84  F   UNL A   1      35.848  30.265  28.818  1.00  0.00    -0.200 F 
ENDBRANCH  50  74
BRANCH  62  85
ATOM     85  C   UNL A   1      44.716  27.210  32.523  1.00  0.00     0.064 A 
ATOM     86  C   UNL A   1      44.456  25.843  32.327  1.00  0.00     0.173 A 
ATOM     87  C   UNL A   1      44.930  27.643  33.838  1.00  0.00     0.173 A 
ATOM     88  F   UNL A   1      44.345  25.329  31.096  1.00  0.00    -0.203 F 
ATOM     89  C   UNL A   1      44.363  24.964  33.405  1.00  0.00     0.198 A 
ATOM     90  C   UNL A   1      44.876  26.756  34.909  1.00  0.00     0.198 A 
ATOM     91  F   UNL A   1      45.238  28.927  34.082  1.00  0.00    -0.203 F 
ATOM     92  F   UNL A   1      44.095  23.666  33.194  1.00  0.00    -0.200 F 
ATOM     93  C   UNL A   1      44.581  25.420  34.694  1.00  0.00     0.200 A 
ATOM     94  F   UNL A   1      45.139  27.193  36.149  1.00  0.00    -0.200 F 
ATOM     95  F   UNL A   1      44.531  24.568  35.727  1.00  0.00    -0.200 F 
ENDBRANCH  62  85
ENDBRANCH  36  37
ENDBRANCH  29  31
ENDBRANCH  28  29
ENDBRANCH  27  28
ENDBRANCH   1  27
TORSDOF 14
ENDMDL
MODEL 2
REMARK VINA RESULT:     -12.5      0.205      1.128
REMARK SMILES C/C(=N\NC(N)=O)c1nnn(-c2ccc(C(=O)OCCOC(=O)c3ccc(-c4c5nc(c(-c6c(F)c(F)c(F)c(F)c6F)c6ccc([nH]6)c(-c6c(F)c(F)c(F)c(F)c6F)c6nc(c(-c7c(F)c(F)c(F)c(F)c7F)c7ccc4[nH]7)C=C6)C=C5)cc3)cc2)c1C
REMARK SMILES IDX 19 1 18 2 16 3 17 4 15 5 12 6 13 7 88 8 14 9 87 10 11 11
REMARK SMILES IDX 8 12 9 13 89 14 10 15 90 16 2 17 1 18 3 19 4 20 5 21 6 23
REMARK SMILES IDX 7 24 20 27 21 28 22 29 23 30 24 31 25 32 86 33 26 34 85 35
REMARK SMILES IDX 27 36 28 37 29 38 79 39 30 40 84 41 78 42 80 43 31 44 83 45
REMARK SMILES IDX 77 46 76 47 32 49 64 50 44 51 63 52 45 53 48 54 62 55 81 56
REMARK SMILES IDX 46 57 47 58 61 60 82 61 49 62 33 63 34 64 42 65 35 66 36 67
REMARK SMILES IDX 40 68 43 69 37 70 38 71 41 72 39 73 65 74 66 75 74 76 67 77
REMARK SMILES IDX 68 78 72 79 75 80 69 81 70 82 73 83 71 84 50 85 51 86 59 87
REMARK SMILES IDX 52 88 53 89 57 90 60 91 54 92 55 93 58 94 56 95
REMARK H PARENT 4 22 6 25 6 26 80 48 48 59
REMARK Flexibility Score: inf
ROOT
ATOM      1  C   UNL A   1      42.901  18.495  26.091  1.00  0.00     0.275 C 
ENDROOT
BRANCH   1   2
ATOM      2  O   UNL A   1      41.898  19.376  25.565  1.00  0.00    -0.458 OA
BRANCH   2   3
ATOM      3  C   UNL A   1      41.531  20.411  26.360  1.00  0.00     0.338 C 
ATOM      4  O   UNL A   1      42.247  21.005  27.155  1.00  0.00    -0.246 OA
BRANCH   3   5
ATOM      5  C   UNL A   1      40.123  20.792  26.090  1.00  0.00     0.060 A 
ATOM      6  C   UNL A   1      37.586  21.563  25.274  1.00  0.00     0.067 A 
ATOM      7  C   UNL A   1      37.992  20.243  25.056  1.00  0.00     0.029 A 
ATOM      8  C   UNL A   1      38.372  22.447  26.020  1.00  0.00     0.029 A 
ATOM      9  C   UNL A   1      39.279  19.870  25.448  1.00  0.00     0.018 A 
ATOM     10  C   UNL A   1      39.639  22.059  26.435  1.00  0.00     0.018 A 
BRANCH   6  11
ATOM     11  N   UNL A   1      36.484  22.074  24.563  1.00  0.00    -0.217 N 
ATOM     12  C   UNL A   1      34.501  22.779  24.012  1.00  0.00     0.132 A 
ATOM     13  N   UNL A   1      35.399  23.204  23.068  1.00  0.00    -0.128 NA
ATOM     14  C   UNL A   1      35.169  22.083  25.000  1.00  0.00     0.071 A 
ATOM     15  N   UNL A   1      36.615  22.848  23.465  1.00  0.00    -0.061 NA
ATOM     16  C   UNL A   1      34.714  21.590  26.324  1.00  0.00     0.069 C 
BRANCH  12  17
ATOM     17  C   UNL A   1      33.108  23.189  24.030  1.00  0.00     0.087 C 
ATOM     18  C   UNL A   1      32.168  22.393  23.158  1.00  0.00     0.071 C 
ATOM     19  N   UNL A   1      32.829  24.189  24.813  1.00  0.00    -0.174 NA
BRANCH  19  20
ATOM     20  N   UNL A   1      31.578  24.735  24.874  1.00  0.00    -0.229 N 
ATOM     21  C   UNL A   1      30.740  24.738  25.969  1.00  0.00     0.332 C 
ATOM     22  H   UNL A   1      31.242  25.168  24.056  1.00  0.00     0.195 HD
ATOM     23  N   UNL A   1      29.543  25.334  25.705  1.00  0.00    -0.350 N 
ATOM     24  O   UNL A   1      30.971  24.292  27.084  1.00  0.00    -0.247 OA
ATOM     25  H   UNL A   1      29.359  25.693  24.806  1.00  0.00     0.161 HD
ATOM     26  H   UNL A   1      28.863  25.407  26.412  1.00  0.00     0.161 HD
ENDBRANCH  19  20
ENDBRANCH  12  17
ENDBRANCH   6  11
ENDBRANCH   3   5
ENDBRANCH   2   3
ENDBRANCH   1   2
BRANCH   1  27
ATOM     27  C   UNL A   1      44.152  18.513  25.225  1.00  0.00     0.275 C 
BRANCH  27  28
ATOM     28  O   UNL A   1      44.849  19.754  25.327  1.00  0.00    -0.458 OA
BRANCH  28  29
ATOM     29  C   UNL A   1      44.666  20.597  24.287  1.00  0.00     0.338 C 
ATOM     30  O   UNL A   1      44.621  20.322  23.100  1.00  0.00    -0.246 OA
BRANCH  29  31
ATOM     31  C   UNL A   1      44.746  21.976  24.768  1.00  0.00     0.060 A 
ATOM     32  C   UNL A   1      45.689  22.269  25.758  1.00  0.00     0.016 A 
ATOM     33  C   UNL A   1      43.714  22.865  24.440  1.00  0.00     0.016 A 
ATOM     34  C   UNL A   1      45.514  23.406  26.518  1.00  0.00     0.010 A 
ATOM     35  C   UNL A   1      43.532  23.990  25.206  1.00  0.00     0.010 A 
ATOM     36  C   UNL A   1      44.398  24.216  26.276  1.00  0.00    -0.014 A 
BRANCH  36  37
ATOM     37  C   UNL A   1      44.212  25.393  27.100  1.00  0.00     0.031 A 
ATOM     38  C   UNL A   1      45.241  26.440  26.879  1.00  0.00     0.074 A 
ATOM     39  C   UNL A   1      43.110  25.564  27.857  1.00  0.00     0.049 A 
ATOM     40  N   UNL A   1      46.006  27.006  27.750  1.00  0.00    -0.248 NA
ATOM     41  C   UNL A   1      45.533  26.823  25.485  1.00  0.00     0.031 C 
ATOM     42  C   UNL A   1      41.907  24.729  27.897  1.00  0.00     0.029 A 
ATOM     43  N   UNL A   1      42.785  26.606  28.668  1.00  0.00    -0.354 N 
ATOM     44  C   UNL A   1      46.766  27.935  27.042  1.00  0.00     0.074 A 
ATOM     45  C   UNL A   1      46.542  27.676  25.646  1.00  0.00     0.031 C 
ATOM     46  C   UNL A   1      40.909  25.416  28.499  1.00  0.00     0.029 A 
ATOM     47  C   UNL A   1      41.436  26.682  28.984  1.00  0.00     0.049 A 
ATOM     48  H   UNL A   1      43.450  27.251  29.001  1.00  0.00     0.167 HD
ATOM     49  C   UNL A   1      47.340  28.996  27.668  1.00  0.00     0.037 A 
ATOM     50  C   UNL A   1      40.796  27.751  29.520  1.00  0.00     0.037 A 
ATOM     51  C   UNL A   1      47.505  28.742  29.075  1.00  0.00     0.049 A 
ATOM     52  C   UNL A   1      41.828  28.648  30.098  1.00  0.00     0.074 A 
ATOM     53  C   UNL A   1      48.188  27.790  29.807  1.00  0.00     0.029 A 
ATOM     54  N   UNL A   1      46.617  29.315  29.951  1.00  0.00    -0.354 N 
ATOM     55  N   UNL A   1      42.534  28.365  31.158  1.00  0.00    -0.248 NA
ATOM     56  C   UNL A   1      42.387  29.677  29.233  1.00  0.00     0.031 C 
ATOM     57  C   UNL A   1      47.349  27.507  30.923  1.00  0.00     0.029 A 
ATOM     58  C   UNL A   1      46.235  28.342  30.837  1.00  0.00     0.049 A 
ATOM     59  H   UNL A   1      46.313  30.251  29.945  1.00  0.00     0.167 HD
ATOM     60  C   UNL A   1      43.804  28.844  30.870  1.00  0.00     0.074 A 
ATOM     61  C   UNL A   1      43.631  29.723  29.717  1.00  0.00     0.031 C 
ATOM     62  C   UNL A   1      44.913  28.260  31.410  1.00  0.00     0.037 A 
BRANCH  49  63
ATOM     63  C   UNL A   1      47.393  30.384  27.076  1.00  0.00     0.064 A 
ATOM     64  C   UNL A   1      48.604  31.099  27.125  1.00  0.00     0.173 A 
ATOM     65  C   UNL A   1      46.248  31.149  26.753  1.00  0.00     0.173 A 
ATOM     66  F   UNL A   1      49.753  30.478  27.431  1.00  0.00    -0.203 F 
ATOM     67  C   UNL A   1      48.650  32.487  26.964  1.00  0.00     0.198 A 
ATOM     68  C   UNL A   1      46.306  32.524  26.539  1.00  0.00     0.198 A 
ATOM     69  F   UNL A   1      45.015  30.630  26.743  1.00  0.00    -0.203 F 
ATOM     70  F   UNL A   1      49.803  33.139  27.159  1.00  0.00    -0.200 F 
ATOM     71  C   UNL A   1      47.499  33.198  26.681  1.00  0.00     0.200 A 
ATOM     72  F   UNL A   1      45.176  33.198  26.282  1.00  0.00    -0.200 F 
ATOM     73  F   UNL A   1      47.528  34.534  26.596  1.00  0.00    -0.200 F 
ENDBRANCH  49  63
BRANCH  50  74
ATOM     74  C   UNL A   1      39.403  28.205  29.287  1.00  0.00     0.064 A 
ATOM     75  C   UNL A   1      38.499  28.335  30.354  1.00  0.00     0.173 A 
ATOM     76  C   UNL A   1      39.011  28.781  28.062  1.00  0.00     0.173 A 
ATOM     77  F   UNL A   1      38.813  27.856  31.566  1.00  0.00    -0.203 F 
ATOM     78  C   UNL A   1      37.289  29.024  30.212  1.00  0.00     0.198 A 
ATOM     79  C   UNL A   1      37.799  29.458  27.919  1.00  0.00     0.198 A 
ATOM     80  F   UNL A   1      39.835  28.786  27.006  1.00  0.00    -0.203 F 
ATOM     81  F   UNL A   1      36.484  29.186  31.272  1.00  0.00    -0.200 F 
ATOM     82  C   UNL A   1      36.945  29.593  28.997  1.00  0.00     0.200 A 
ATOM     83  F   UNL A   1      37.495  30.034  26.747  1.00  0.00    -0.200 F 
ATOM     84  F   UNL A   1      35.816  30.305  28.876  1.00  0.00    -0.200 F 
ENDBRANCH  50  74
BRANCH  62  85
ATOM     85  C   UNL A   1      44.716  27.275  32.526  1.00  0.00     0.064 A 
ATOM     86  C   UNL A   1      44.580  27.633  33.879  1.00  0.00     0.173 A 
ATOM     87  C   UNL A   1      44.516  25.929  32.193  1.00  0.00     0.173 A 
ATOM     88  F   UNL A   1      44.650  28.912  34.267  1.00  0.00    -0.203 F 
ATOM     89  C   UNL A   1      44.310  26.675  34.855  1.00  0.00     0.198 A 
ATOM     90  C   UNL A   1      44.206  24.982  33.163  1.00  0.00     0.198 A 
ATOM     91  F   UNL A   1      44.577  25.538  30.910  1.00  0.00    -0.203 F 
ATOM     92  F   UNL A   1      44.204  27.038  36.143  1.00  0.00    -0.200 F 
ATOM     93  C   UNL A   1      44.116  25.352  34.495  1.00  0.00     0.200 A 
ATOM     94  F   UNL A   1      43.968  23.713  32.803  1.00  0.00    -0.200 F 
ATOM     95  F   UNL A   1      43.816  24.438  35.428  1.00  0.00    -0.200 F 
ENDBRANCH  62  85
ENDBRANCH  36  37
ENDBRANCH  29  31
ENDBRANCH  28  29
ENDBRANCH  27  28
ENDBRANCH   1  27
TORSDOF 14
ENDMDL
MODEL 3
REMARK VINA RESULT:     -12.1      3.117      4.452
REMARK SMILES C/C(=N\NC(N)=O)c1nnn(-c2ccc(C(=O)OCCOC(=O)c3ccc(-c4c5nc(c(-c6c(F)c(F)c(F)c(F)c6F)c6ccc([nH]6)c(-c6c(F)c(F)c(F)c(F)c6F)c6nc(c(-c7c(F)c(F)c(F)c(F)c7F)c7ccc4[nH]7)C=C6)C=C5)cc3)cc2)c1C
REMARK SMILES IDX 19 1 18 2 16 3 17 4 15 5 12 6 13 7 88 8 14 9 87 10 11 11
REMARK SMILES IDX 8 12 9 13 89 14 10 15 90 16 2 17 1 18 3 19 4 20 5 21 6 23
REMARK SMILES IDX 7 24 20 27 21 28 22 29 23 30 24 31 25 32 86 33 26 34 85 35
REMARK SMILES IDX 27 36 28 37 29 38 79 39 30 40 84 41 78 42 80 43 31 44 83 45
REMARK SMILES IDX 77 46 76 47 32 49 64 50 44 51 63 52 45 53 48 54 62 55 81 56
REMARK SMILES IDX 46 57 47 58 61 60 82 61 49 62 33 63 34 64 42 65 35 66 36 67
REMARK SMILES IDX 40 68 43 69 37 70 38 71 41 72 39 73 65 74 66 75 74 76 67 77
REMARK SMILES IDX 68 78 72 79 75 80 69 81 70 82 73 83 71 84 50 85 51 86 59 87
REMARK SMILES IDX 52 88 53 89 57 90 60 91 54 92 55 93 58 94 56 95
REMARK H PARENT 4 22 6 25 6 26 80 48 48 59
REMARK Flexibility Score: inf
ROOT
ATOM      1  C   UNL A   1      38.385  22.008  26.039  1.00  0.00     0.275 C 
ENDROOT
BRANCH   1   2
ATOM      2  O   UNL A   1      37.655  21.692  24.844  1.00  0.00    -0.458 OA
BRANCH   2   3
ATOM      3  C   UNL A   1      36.326  21.472  24.994  1.00  0.00     0.338 C 
ATOM      4  O   UNL A   1      35.796  20.419  25.323  1.00  0.00    -0.246 OA
BRANCH   3   5
ATOM      5  C   UNL A   1      35.570  22.729  24.768  1.00  0.00     0.060 A 
ATOM      6  C   UNL A   1      33.884  24.893  24.354  1.00  0.00     0.067 A 
ATOM      7  C   UNL A   1      34.109  24.455  25.662  1.00  0.00     0.029 A 
ATOM      8  C   UNL A   1      34.603  24.359  23.279  1.00  0.00     0.029 A 
ATOM      9  C   UNL A   1      34.939  23.350  25.860  1.00  0.00     0.018 A 
ATOM     10  C   UNL A   1      35.452  23.280  23.487  1.00  0.00     0.018 A 
BRANCH   6  11
ATOM     11  N   UNL A   1      32.780  25.723  24.082  1.00  0.00    -0.217 N 
ATOM     12  C   UNL A   1      31.519  27.440  23.640  1.00  0.00     0.132 A 
ATOM     13  N   UNL A   1      30.812  26.294  23.380  1.00  0.00    -0.128 NA
ATOM     14  C   UNL A   1      32.793  27.108  24.057  1.00  0.00     0.071 A 
ATOM     15  N   UNL A   1      31.623  25.258  23.564  1.00  0.00    -0.061 NA
ATOM     16  C   UNL A   1      33.998  27.947  24.271  1.00  0.00     0.069 C 
BRANCH  12  17
ATOM     17  C   UNL A   1      31.027  28.769  23.323  1.00  0.00     0.087 C 
ATOM     18  C   UNL A   1      30.816  29.698  24.492  1.00  0.00     0.071 C 
ATOM     19  N   UNL A   1      30.843  29.010  22.058  1.00  0.00    -0.174 NA
BRANCH  19  20
ATOM     20  N   UNL A   1      30.311  30.188  21.615  1.00  0.00    -0.229 N 
ATOM     21  C   UNL A   1      28.972  30.465  21.440  1.00  0.00     0.332 C 
ATOM     22  H   UNL A   1      30.946  30.908  21.398  1.00  0.00     0.195 HD
ATOM     23  N   UNL A   1      28.761  31.721  20.953  1.00  0.00    -0.350 N 
ATOM     24  O   UNL A   1      28.022  29.732  21.681  1.00  0.00    -0.247 OA
ATOM     25  H   UNL A   1      29.526  32.309  20.760  1.00  0.00     0.161 HD
ATOM     26  H   UNL A   1      27.843  32.040  20.796  1.00  0.00     0.161 HD
ENDBRANCH  19  20
ENDBRANCH  12  17
ENDBRANCH   6  11
ENDBRANCH   3   5
ENDBRANCH   2   3
ENDBRANCH   1   2
BRANCH   1  27
ATOM     27  C   UNL A   1      39.676  21.206  26.118  1.00  0.00     0.275 C 
BRANCH  27  28
ATOM     28  O   UNL A   1      40.682  21.895  26.859  1.00  0.00    -0.458 OA
BRANCH  28  29
ATOM     29  C   UNL A   1      41.705  22.375  26.119  1.00  0.00     0.338 C 
ATOM     30  O   UNL A   1      42.449  21.754  25.378  1.00  0.00    -0.246 OA
BRANCH  29  31
ATOM     31  C   UNL A   1      41.961  23.764  26.499  1.00  0.00     0.060 A 
ATOM     32  C   UNL A   1      42.874  24.003  27.530  1.00  0.00     0.016 A 
ATOM     33  C   UNL A   1      41.096  24.762  26.027  1.00  0.00     0.016 A 
ATOM     34  C   UNL A   1      42.823  25.214  28.187  1.00  0.00     0.010 A 
ATOM     35  C   UNL A   1      41.037  25.963  26.691  1.00  0.00     0.010 A 
ATOM     36  C   UNL A   1      41.858  26.153  27.801  1.00  0.00    -0.014 A 
BRANCH  36  37
ATOM     37  C   UNL A   1      41.799  27.411  28.518  1.00  0.00     0.031 A 
ATOM     38  C   UNL A   1      42.927  28.324  28.206  1.00  0.00     0.074 A 
ATOM     39  C   UNL A   1      40.726  27.759  29.255  1.00  0.00     0.049 A 
ATOM     40  N   UNL A   1      43.753  28.883  29.025  1.00  0.00    -0.248 NA
ATOM     41  C   UNL A   1      43.246  28.550  26.785  1.00  0.00     0.031 C 
ATOM     42  C   UNL A   1      39.445  27.058  29.368  1.00  0.00     0.029 A 
ATOM     43  N   UNL A   1      40.515  28.897  29.970  1.00  0.00    -0.354 N 
ATOM     44  C   UNL A   1      44.598  29.664  28.239  1.00  0.00     0.074 A 
ATOM     45  C   UNL A   1      44.338  29.307  26.871  1.00  0.00     0.031 C 
ATOM     46  C   UNL A   1      38.527  27.894  29.904  1.00  0.00     0.029 A 
ATOM     47  C   UNL A   1      39.183  29.137  30.276  1.00  0.00     0.049 A 
ATOM     48  H   UNL A   1      41.244  29.498  30.246  1.00  0.00     0.167 HD
ATOM     49  C   UNL A   1      45.281  30.712  28.769  1.00  0.00     0.037 A 
ATOM     50  C   UNL A   1      38.659  30.309  30.714  1.00  0.00     0.037 A 
ATOM     51  C   UNL A   1      45.430  30.567  30.194  1.00  0.00     0.049 A 
ATOM     52  C   UNL A   1      39.782  31.143  31.213  1.00  0.00     0.074 A 
ATOM     53  C   UNL A   1      46.019  29.619  31.008  1.00  0.00     0.029 A 
ATOM     54  N   UNL A   1      44.612  31.303  31.014  1.00  0.00    -0.354 N 
ATOM     55  N   UNL A   1      40.463  30.885  32.294  1.00  0.00    -0.248 NA
ATOM     56  C   UNL A   1      40.436  32.030  30.261  1.00  0.00     0.031 C 
ATOM     57  C   UNL A   1      45.164  29.523  32.144  1.00  0.00     0.029 A 
ATOM     58  C   UNL A   1      44.140  30.456  31.982  1.00  0.00     0.049 A 
ATOM     59  H   UNL A   1      44.405  32.262  30.924  1.00  0.00     0.167 HD
ATOM     60  C   UNL A   1      41.773  31.205  31.967  1.00  0.00     0.074 A 
ATOM     61  C   UNL A   1      41.681  31.991  30.740  1.00  0.00     0.031 C 
ATOM     62  C   UNL A   1      42.821  30.560  32.558  1.00  0.00     0.037 A 
BRANCH  49  63
ATOM     63  C   UNL A   1      45.471  32.029  28.057  1.00  0.00     0.064 A 
ATOM     64  C   UNL A   1      44.334  32.748  27.640  1.00  0.00     0.173 A 
ATOM     65  C   UNL A   1      46.697  32.455  27.496  1.00  0.00     0.173 A 
ATOM     66  F   UNL A   1      43.115  32.425  28.099  1.00  0.00    -0.203 F 
ATOM     67  C   UNL A   1      44.407  33.744  26.663  1.00  0.00     0.198 A 
ATOM     68  C   UNL A   1      46.772  33.486  26.562  1.00  0.00     0.198 A 
ATOM     69  F   UNL A   1      47.853  31.826  27.732  1.00  0.00    -0.203 F 
ATOM     70  F   UNL A   1      43.280  34.300  26.198  1.00  0.00    -0.200 F 
ATOM     71  C   UNL A   1      45.625  34.106  26.119  1.00  0.00     0.200 A 
ATOM     72  F   UNL A   1      47.962  33.810  26.035  1.00  0.00    -0.200 F 
ATOM     73  F   UNL A   1      45.690  35.009  25.133  1.00  0.00    -0.200 F 
ENDBRANCH  49  63
BRANCH  50  74
ATOM     74  C   UNL A   1      37.318  30.881  30.441  1.00  0.00     0.064 A 
ATOM     75  C   UNL A   1      36.496  31.326  31.489  1.00  0.00     0.173 A 
ATOM     76  C   UNL A   1      36.928  31.254  29.139  1.00  0.00     0.173 A 
ATOM     77  F   UNL A   1      36.819  31.055  32.761  1.00  0.00    -0.203 F 
ATOM     78  C   UNL A   1      35.369  32.121  31.251  1.00  0.00     0.198 A 
ATOM     79  C   UNL A   1      35.798  32.037  28.903  1.00  0.00     0.198 A 
ATOM     80  F   UNL A   1      37.688  30.952  28.077  1.00  0.00    -0.203 F 
ATOM     81  F   UNL A   1      34.648  32.583  32.283  1.00  0.00    -0.200 F 
ATOM     82  C   UNL A   1      35.027  32.484  29.959  1.00  0.00     0.200 A 
ATOM     83  F   UNL A   1      35.498  32.409  27.650  1.00  0.00    -0.200 F 
ATOM     84  F   UNL A   1      33.983  33.295  29.735  1.00  0.00    -0.200 F 
ENDBRANCH  50  74
BRANCH  62  85
ATOM     85  C   UNL A   1      42.533  29.703  33.757  1.00  0.00     0.064 A 
ATOM     86  C   UNL A   1      42.051  28.385  33.688  1.00  0.00     0.173 A 
ATOM     87  C   UNL A   1      42.895  30.191  35.020  1.00  0.00     0.173 A 
ATOM     88  F   UNL A   1      41.784  27.807  32.510  1.00  0.00    -0.203 F 
ATOM     89  C   UNL A   1      41.891  27.613  34.837  1.00  0.00     0.198 A 
ATOM     90  C   UNL A   1      42.772  29.405  36.161  1.00  0.00     0.198 A 
ATOM     91  F   UNL A   1      43.415  31.423  35.141  1.00  0.00    -0.203 F 
ATOM     92  F   UNL A   1      41.410  26.363  34.747  1.00  0.00    -0.200 F 
ATOM     93  C   UNL A   1      42.258  28.122  36.072  1.00  0.00     0.200 A 
ATOM     94  F   UNL A   1      43.177  29.884  37.346  1.00  0.00    -0.200 F 
ATOM     95  F   UNL A   1      42.141  27.366  37.173  1.00  0.00    -0.200 F 
ENDBRANCH  62  85
ENDBRANCH  36  37
ENDBRANCH  29  31
ENDBRANCH  28  29
ENDBRANCH  27  28
ENDBRANCH   1  27
TORSDOF 14
ENDMDL
