MODEL 1
REMARK VINA RESULT:     -12.6      0.000      0.000
REMARK SMILES Cc1cc(NCc2ccc(C(=O)OCCOC(=O)c3ccc(-c4c5nc(c(-c6c(F)c(F)c(F)c(F)c6F)c6ccc([nH]6)c(-c6c(F)c(F)c(F)c(F)c6F)c6nc(c(-c7c(F)c(F)c(F)c(F)c7F)c7ccc4[nH]7)C=C6)C=C5)cc3)o2)ccc1F
REMARK SMILES IDX 14 1 13 2 11 3 12 4 10 5 7 6 8 7 82 8 9 9 6 10 5 11 4 13
REMARK SMILES IDX 1 14 2 15 3 16 85 17 84 18 86 19 83 20 15 21 16 22 17 23
REMARK SMILES IDX 18 24 19 25 20 26 81 27 21 28 80 29 22 30 23 31 24 32 74 33
REMARK SMILES IDX 25 34 79 35 73 36 75 37 26 38 78 39 72 40 71 41 27 43 59 44
REMARK SMILES IDX 39 45 58 46 40 47 43 48 57 49 76 50 41 51 42 52 56 54 77 55
REMARK SMILES IDX 44 56 28 57 29 58 37 59 30 60 31 61 35 62 38 63 32 64 33 65
REMARK SMILES IDX 36 66 34 67 60 68 61 69 69 70 62 71 63 72 67 73 70 74 64 75
REMARK SMILES IDX 65 76 68 77 66 78 45 79 46 80 54 81 47 82 48 83 52 84 55 85
REMARK SMILES IDX 49 86 50 87 53 88 51 89
REMARK H PARENT 5 12 75 42 43 53
REMARK Flexibility Score: inf
ROOT
ATOM      1  C   UNL A   1      33.638  31.744  27.640  1.00  0.00     0.275 C 
ENDROOT
BRANCH   1   2
ATOM      2  O   UNL A   1      33.851  33.087  28.133  1.00  0.00    -0.456 OA
BRANCH   2   3
ATOM      3  C   UNL A   1      32.810  33.978  27.996  1.00  0.00     0.374 C 
ATOM      4  O   UNL A   1      31.865  33.810  27.236  1.00  0.00    -0.242 OA
BRANCH   3   5
ATOM      5  C   UNL A   1      32.958  35.060  28.960  1.00  0.00     0.211 A 
ATOM      6  C   UNL A   1      33.138  35.906  31.006  1.00  0.00     0.124 A 
ATOM      7  C   UNL A   1      33.436  36.927  30.129  1.00  0.00     0.048 A 
ATOM      8  O   UNL A   1      32.803  34.779  30.302  1.00  0.00    -0.452 OA
ATOM      9  C   UNL A   1      33.336  36.383  28.824  1.00  0.00     0.058 A 
BRANCH   6  10
ATOM     10  C   UNL A   1      33.097  35.821  32.502  1.00  0.00     0.188 C 
BRANCH  10  11
ATOM     11  N   UNL A   1      33.208  34.480  33.063  1.00  0.00    -0.378 N 
ATOM     12  H   UNL A   1      32.361  34.042  33.303  1.00  0.00     0.161 HD
BRANCH  11  13
ATOM     13  C   UNL A   1      34.354  33.749  33.299  1.00  0.00     0.035 A 
ATOM     14  C   UNL A   1      37.160  33.741  35.923  1.00  0.00     0.047 C 
ATOM     15  C   UNL A   1      36.329  33.381  34.731  1.00  0.00    -0.013 A 
ATOM     16  C   UNL A   1      35.139  34.066  34.427  1.00  0.00     0.032 A 
ATOM     17  C   UNL A   1      36.741  32.365  33.874  1.00  0.00     0.126 A 
ATOM     18  C   UNL A   1      36.006  32.045  32.741  1.00  0.00     0.041 A 
ATOM     19  F   UNL A   1      37.864  31.680  34.139  1.00  0.00    -0.207 F 
ATOM     20  C   UNL A   1      34.826  32.743  32.452  1.00  0.00     0.029 A 
ENDBRANCH  11  13
ENDBRANCH  10  11
ENDBRANCH   6  10
ENDBRANCH   3   5
ENDBRANCH   2   3
ENDBRANCH   1   2
BRANCH   1  21
ATOM     21  C   UNL A   1      34.864  30.844  27.843  1.00  0.00     0.275 C 
BRANCH  21  22
ATOM     22  O   UNL A   1      35.547  31.086  29.087  1.00  0.00    -0.458 OA
BRANCH  22  23
ATOM     23  C   UNL A   1      36.889  31.031  28.955  1.00  0.00     0.338 C 
ATOM     24  O   UNL A   1      37.640  31.985  28.867  1.00  0.00    -0.246 OA
BRANCH  23  25
ATOM     25  C   UNL A   1      37.398  29.726  28.531  1.00  0.00     0.060 A 
ATOM     26  C   UNL A   1      37.575  28.828  29.599  1.00  0.00     0.016 A 
ATOM     27  C   UNL A   1      38.257  29.749  27.433  1.00  0.00     0.016 A 
ATOM     28  C   UNL A   1      38.785  28.172  29.719  1.00  0.00     0.010 A 
ATOM     29  C   UNL A   1      39.456  29.086  27.551  1.00  0.00     0.010 A 
ATOM     30  C   UNL A   1      39.745  28.382  28.730  1.00  0.00    -0.014 A 
BRANCH  30  31
ATOM     31  C   UNL A   1      41.058  27.781  28.806  1.00  0.00     0.031 A 
ATOM     32  C   UNL A   1      41.144  26.334  28.570  1.00  0.00     0.074 A 
ATOM     33  C   UNL A   1      42.159  28.526  29.035  1.00  0.00     0.049 A 
ATOM     34  N   UNL A   1      42.112  25.588  28.967  1.00  0.00    -0.248 NA
ATOM     35  C   UNL A   1      40.074  25.599  27.906  1.00  0.00     0.031 C 
ATOM     36  C   UNL A   1      43.545  28.116  28.851  1.00  0.00     0.029 A 
ATOM     37  N   UNL A   1      42.246  29.771  29.674  1.00  0.00    -0.354 N 
ATOM     38  C   UNL A   1      41.963  24.370  28.348  1.00  0.00     0.074 A 
ATOM     39  C   UNL A   1      40.628  24.390  27.797  1.00  0.00     0.031 C 
ATOM     40  C   UNL A   1      44.334  28.910  29.590  1.00  0.00     0.029 A 
ATOM     41  C   UNL A   1      43.468  29.748  30.396  1.00  0.00     0.049 A 
ATOM     42  H   UNL A   1      41.594  30.509  29.631  1.00  0.00     0.167 HD
ATOM     43  C   UNL A   1      43.053  23.560  28.237  1.00  0.00     0.037 A 
ATOM     44  C   UNL A   1      43.474  29.794  31.764  1.00  0.00     0.037 A 
ATOM     45  C   UNL A   1      44.198  24.113  28.965  1.00  0.00     0.049 A 
ATOM     46  C   UNL A   1      44.013  28.553  32.438  1.00  0.00     0.074 A 
ATOM     47  C   UNL A   1      45.317  24.848  28.606  1.00  0.00     0.029 A 
ATOM     48  N   UNL A   1      44.099  24.237  30.340  1.00  0.00    -0.354 N 
ATOM     49  N   UNL A   1      44.417  27.491  31.798  1.00  0.00    -0.248 NA
ATOM     50  C   UNL A   1      44.057  28.378  33.889  1.00  0.00     0.031 C 
ATOM     51  C   UNL A   1      45.886  25.406  29.789  1.00  0.00     0.029 A 
ATOM     52  C   UNL A   1      45.122  25.001  30.867  1.00  0.00     0.049 A 
ATOM     53  H   UNL A   1      43.385  23.827  30.879  1.00  0.00     0.167 HD
ATOM     54  C   UNL A   1      44.733  26.507  32.693  1.00  0.00     0.074 A 
ATOM     55  C   UNL A   1      44.495  27.111  33.991  1.00  0.00     0.031 C 
ATOM     56  C   UNL A   1      45.130  25.260  32.300  1.00  0.00     0.037 A 
BRANCH  43  57
ATOM     57  C   UNL A   1      43.142  22.439  27.231  1.00  0.00     0.064 A 
ATOM     58  C   UNL A   1      42.336  21.289  27.366  1.00  0.00     0.173 A 
ATOM     59  C   UNL A   1      44.046  22.399  26.152  1.00  0.00     0.173 A 
ATOM     60  F   UNL A   1      41.356  21.225  28.275  1.00  0.00    -0.203 F 
ATOM     61  C   UNL A   1      42.510  20.153  26.571  1.00  0.00     0.198 A 
ATOM     62  C   UNL A   1      44.265  21.242  25.399  1.00  0.00     0.198 A 
ATOM     63  F   UNL A   1      44.704  23.495  25.754  1.00  0.00    -0.203 F 
ATOM     64  F   UNL A   1      41.717  19.089  26.754  1.00  0.00    -0.200 F 
ATOM     65  C   UNL A   1      43.505  20.113  25.617  1.00  0.00     0.200 A 
ATOM     66  F   UNL A   1      45.222  21.232  24.457  1.00  0.00    -0.200 F 
ATOM     67  F   UNL A   1      43.707  19.006  24.891  1.00  0.00    -0.200 F 
ENDBRANCH  43  57
BRANCH  44  68
ATOM     68  C   UNL A   1      42.380  30.659  32.282  1.00  0.00     0.064 A 
ATOM     69  C   UNL A   1      42.568  32.047  32.142  1.00  0.00     0.173 A 
ATOM     70  C   UNL A   1      41.069  30.166  32.288  1.00  0.00     0.173 A 
ATOM     71  F   UNL A   1      43.808  32.560  32.155  1.00  0.00    -0.203 F 
ATOM     72  C   UNL A   1      41.508  32.869  31.783  1.00  0.00     0.198 A 
ATOM     73  C   UNL A   1      40.007  31.000  31.945  1.00  0.00     0.198 A 
ATOM     74  F   UNL A   1      40.851  28.850  32.421  1.00  0.00    -0.203 F 
ATOM     75  F   UNL A   1      41.738  34.147  31.446  1.00  0.00    -0.200 F 
ATOM     76  C   UNL A   1      40.237  32.337  31.643  1.00  0.00     0.200 A 
ATOM     77  F   UNL A   1      38.786  30.475  31.786  1.00  0.00    -0.200 F 
ATOM     78  F   UNL A   1      39.259  33.114  31.161  1.00  0.00    -0.200 F 
ENDBRANCH  44  68
BRANCH  56  79
ATOM     79  C   UNL A   1      45.534  24.167  33.253  1.00  0.00     0.064 A 
ATOM     80  C   UNL A   1      46.820  24.090  33.812  1.00  0.00     0.173 A 
ATOM     81  C   UNL A   1      44.670  23.090  33.557  1.00  0.00     0.173 A 
ATOM     82  F   UNL A   1      47.763  24.989  33.498  1.00  0.00    -0.203 F 
ATOM     83  C   UNL A   1      47.181  23.064  34.689  1.00  0.00     0.198 A 
ATOM     84  C   UNL A   1      45.053  22.036  34.385  1.00  0.00     0.198 A 
ATOM     85  F   UNL A   1      43.419  23.028  33.085  1.00  0.00    -0.203 F 
ATOM     86  F   UNL A   1      48.396  23.073  35.256  1.00  0.00    -0.200 F 
ATOM     87  C   UNL A   1      46.300  22.036  34.971  1.00  0.00     0.200 A 
ATOM     88  F   UNL A   1      44.199  21.029  34.613  1.00  0.00    -0.200 F 
ATOM     89  F   UNL A   1      46.652  21.047  35.803  1.00  0.00    -0.200 F 
ENDBRANCH  56  79
ENDBRANCH  30  31
ENDBRANCH  23  25
ENDBRANCH  22  23
ENDBRANCH  21  22
ENDBRANCH   1  21
TORSDOF 14
ENDMDL
MODEL 2
REMARK VINA RESULT:     -12.5      2.749      5.428
REMARK SMILES Cc1cc(NCc2ccc(C(=O)OCCOC(=O)c3ccc(-c4c5nc(c(-c6c(F)c(F)c(F)c(F)c6F)c6ccc([nH]6)c(-c6c(F)c(F)c(F)c(F)c6F)c6nc(c(-c7c(F)c(F)c(F)c(F)c7F)c7ccc4[nH]7)C=C6)C=C5)cc3)o2)ccc1F
REMARK SMILES IDX 14 1 13 2 11 3 12 4 10 5 7 6 8 7 82 8 9 9 6 10 5 11 4 13
REMARK SMILES IDX 1 14 2 15 3 16 85 17 84 18 86 19 83 20 15 21 16 22 17 23
REMARK SMILES IDX 18 24 19 25 20 26 81 27 21 28 80 29 22 30 23 31 24 32 74 33
REMARK SMILES IDX 25 34 79 35 73 36 75 37 26 38 78 39 72 40 71 41 27 43 59 44
REMARK SMILES IDX 39 45 58 46 40 47 43 48 57 49 76 50 41 51 42 52 56 54 77 55
REMARK SMILES IDX 44 56 28 57 29 58 37 59 30 60 31 61 35 62 38 63 32 64 33 65
REMARK SMILES IDX 36 66 34 67 60 68 61 69 69 70 62 71 63 72 67 73 70 74 64 75
REMARK SMILES IDX 65 76 68 77 66 78 45 79 46 80 54 81 47 82 48 83 52 84 55 85
REMARK SMILES IDX 49 86 50 87 53 88 51 89
REMARK H PARENT 5 12 75 42 43 53
REMARK Flexibility Score: inf
ROOT
ATOM      1  C   UNL A   1      34.153  37.294  32.896  1.00  0.00     0.275 C 
ENDROOT
BRANCH   1   2
ATOM      2  O   UNL A   1      32.771  37.492  32.521  1.00  0.00    -0.456 OA
BRANCH   2   3
ATOM      3  C   UNL A   1      32.132  36.442  31.899  1.00  0.00     0.374 C 
ATOM      4  O   UNL A   1      31.150  35.874  32.358  1.00  0.00    -0.242 OA
BRANCH   3   5
ATOM      5  C   UNL A   1      32.731  36.207  30.592  1.00  0.00     0.211 A 
ATOM      6  C   UNL A   1      33.126  35.020  28.756  1.00  0.00     0.124 A 
ATOM      7  C   UNL A   1      33.610  36.289  28.518  1.00  0.00     0.048 A 
ATOM      8  O   UNL A   1      32.630  34.951  30.031  1.00  0.00    -0.452 OA
ATOM      9  C   UNL A   1      33.345  37.050  29.684  1.00  0.00     0.058 A 
BRANCH   6  10
ATOM     10  C   UNL A   1      33.069  33.774  27.925  1.00  0.00     0.188 C 
BRANCH  10  11
ATOM     11  N   UNL A   1      34.145  32.816  28.149  1.00  0.00    -0.378 N 
ATOM     12  H   UNL A   1      34.927  33.153  28.643  1.00  0.00     0.161 HD
BRANCH  11  13
ATOM     13  C   UNL A   1      34.204  31.496  27.753  1.00  0.00     0.035 A 
ATOM     14  C   UNL A   1      31.745  28.890  26.367  1.00  0.00     0.047 C 
ATOM     15  C   UNL A   1      33.003  29.534  26.863  1.00  0.00    -0.013 A 
ATOM     16  C   UNL A   1      33.031  30.880  27.271  1.00  0.00     0.032 A 
ATOM     17  C   UNL A   1      34.175  28.792  26.956  1.00  0.00     0.126 A 
ATOM     18  C   UNL A   1      35.342  29.360  27.451  1.00  0.00     0.041 A 
ATOM     19  F   UNL A   1      34.190  27.510  26.564  1.00  0.00    -0.207 F 
ATOM     20  C   UNL A   1      35.349  30.701  27.858  1.00  0.00     0.029 A 
ENDBRANCH  11  13
ENDBRANCH  10  11
ENDBRANCH   6  10
ENDBRANCH   3   5
ENDBRANCH   2   3
ENDBRANCH   1   2
BRANCH   1  21
ATOM     21  C   UNL A   1      34.376  35.963  33.628  1.00  0.00     0.275 C 
BRANCH  21  22
ATOM     22  O   UNL A   1      35.192  35.037  32.887  1.00  0.00    -0.458 OA
BRANCH  22  23
ATOM     23  C   UNL A   1      34.541  33.887  32.610  1.00  0.00     0.338 C 
ATOM     24  O   UNL A   1      33.651  33.390  33.275  1.00  0.00    -0.246 OA
BRANCH  23  25
ATOM     25  C   UNL A   1      35.224  33.029  31.641  1.00  0.00     0.060 A 
ATOM     26  C   UNL A   1      35.412  31.714  32.102  1.00  0.00     0.016 A 
ATOM     27  C   UNL A   1      36.161  33.672  30.832  1.00  0.00     0.016 A 
ATOM     28  C   UNL A   1      36.673  31.157  32.017  1.00  0.00     0.010 A 
ATOM     29  C   UNL A   1      37.413  33.108  30.741  1.00  0.00     0.010 A 
ATOM     30  C   UNL A   1      37.681  31.906  31.411  1.00  0.00    -0.014 A 
BRANCH  30  31
ATOM     31  C   UNL A   1      39.042  31.423  31.330  1.00  0.00     0.031 A 
ATOM     32  C   UNL A   1      39.264  30.171  30.595  1.00  0.00     0.074 A 
ATOM     33  C   UNL A   1      40.066  32.119  31.865  1.00  0.00     0.049 A 
ATOM     34  N   UNL A   1      40.290  29.411  30.745  1.00  0.00    -0.248 NA
ATOM     35  C   UNL A   1      38.277  29.644  29.660  1.00  0.00     0.031 C 
ATOM     36  C   UNL A   1      41.487  31.914  31.615  1.00  0.00     0.029 A 
ATOM     37  N   UNL A   1      40.028  33.052  32.911  1.00  0.00    -0.354 N 
ATOM     38  C   UNL A   1      40.263  28.492  29.724  1.00  0.00     0.074 A 
ATOM     39  C   UNL A   1      38.941  28.604  29.152  1.00  0.00     0.031 C 
ATOM     40  C   UNL A   1      42.187  32.447  32.627  1.00  0.00     0.029 A 
ATOM     41  C   UNL A   1      41.234  32.866  33.636  1.00  0.00     0.049 A 
ATOM     42  H   UNL A   1      39.312  33.701  33.104  1.00  0.00     0.167 HD
ATOM     43  C   UNL A   1      41.424  27.866  29.384  1.00  0.00     0.037 A 
ATOM     44  C   UNL A   1      41.213  32.415  34.928  1.00  0.00     0.037 A 
ATOM     45  C   UNL A   1      42.501  28.207  30.317  1.00  0.00     0.049 A 
ATOM     46  C   UNL A   1      41.852  31.060  35.137  1.00  0.00     0.074 A 
ATOM     47  C   UNL A   1      43.554  29.108  30.300  1.00  0.00     0.029 A 
ATOM     48  N   UNL A   1      42.368  27.817  31.638  1.00  0.00    -0.354 N 
ATOM     49  N   UNL A   1      42.362  30.337  34.180  1.00  0.00    -0.248 NA
ATOM     50  C   UNL A   1      41.886  30.377  36.429  1.00  0.00     0.031 C 
ATOM     51  C   UNL A   1      44.049  29.243  31.631  1.00  0.00     0.029 A 
ATOM     52  C   UNL A   1      43.307  28.417  32.453  1.00  0.00     0.049 A 
ATOM     53  H   UNL A   1      41.685  27.185  31.958  1.00  0.00     0.167 HD
ATOM     54  C   UNL A   1      42.751  29.124  34.676  1.00  0.00     0.074 A 
ATOM     55  C   UNL A   1      42.437  29.197  36.092  1.00  0.00     0.031 C 
ATOM     56  C   UNL A   1      43.267  28.140  33.882  1.00  0.00     0.037 A 
BRANCH  43  57
ATOM     57  C   UNL A   1      41.632  27.195  28.048  1.00  0.00     0.064 A 
ATOM     58  C   UNL A   1      41.739  25.791  27.959  1.00  0.00     0.173 A 
ATOM     59  C   UNL A   1      41.804  27.876  26.827  1.00  0.00     0.173 A 
ATOM     60  F   UNL A   1      41.492  25.003  29.012  1.00  0.00    -0.203 F 
ATOM     61  C   UNL A   1      42.113  25.140  26.781  1.00  0.00     0.198 A 
ATOM     62  C   UNL A   1      42.240  27.233  25.664  1.00  0.00     0.198 A 
ATOM     63  F   UNL A   1      41.501  29.174  26.704  1.00  0.00    -0.203 F 
ATOM     64  F   UNL A   1      42.205  23.804  26.763  1.00  0.00    -0.200 F 
ATOM     65  C   UNL A   1      42.406  25.864  25.644  1.00  0.00     0.200 A 
ATOM     66  F   UNL A   1      42.496  27.953  24.561  1.00  0.00    -0.200 F 
ATOM     67  F   UNL A   1      42.814  25.245  24.529  1.00  0.00    -0.200 F 
ENDBRANCH  43  57
BRANCH  44  68
ATOM     68  C   UNL A   1      40.036  32.945  35.667  1.00  0.00     0.064 A 
ATOM     69  C   UNL A   1      38.997  32.029  35.918  1.00  0.00     0.173 A 
ATOM     70  C   UNL A   1      40.218  34.001  36.569  1.00  0.00     0.173 A 
ATOM     71  F   UNL A   1      38.776  31.016  35.066  1.00  0.00    -0.203 F 
ATOM     72  C   UNL A   1      38.334  32.032  37.138  1.00  0.00     0.198 A 
ATOM     73  C   UNL A   1      39.535  34.010  37.783  1.00  0.00     0.198 A 
ATOM     74  F   UNL A   1      41.196  34.894  36.361  1.00  0.00    -0.203 F 
ATOM     75  F   UNL A   1      37.499  31.028  37.448  1.00  0.00    -0.200 F 
ATOM     76  C   UNL A   1      38.634  32.997  38.086  1.00  0.00     0.200 A 
ATOM     77  F   UNL A   1      39.850  34.928  38.705  1.00  0.00    -0.200 F 
ATOM     78  F   UNL A   1      38.088  32.899  39.304  1.00  0.00    -0.200 F 
ENDBRANCH  44  68
BRANCH  56  79
ATOM     79  C   UNL A   1      43.753  26.811  34.398  1.00  0.00     0.064 A 
ATOM     80  C   UNL A   1      45.112  26.461  34.418  1.00  0.00     0.173 A 
ATOM     81  C   UNL A   1      42.854  25.795  34.795  1.00  0.00     0.173 A 
ATOM     82  F   UNL A   1      46.048  27.299  33.951  1.00  0.00    -0.203 F 
ATOM     83  C   UNL A   1      45.546  25.220  34.894  1.00  0.00     0.198 A 
ATOM     84  C   UNL A   1      43.286  24.537  35.211  1.00  0.00     0.198 A 
ATOM     85  F   UNL A   1      41.529  25.987  34.815  1.00  0.00    -0.203 F 
ATOM     86  F   UNL A   1      46.859  24.959  34.963  1.00  0.00    -0.200 F 
ATOM     87  C   UNL A   1      44.633  24.259  35.285  1.00  0.00     0.200 A 
ATOM     88  F   UNL A   1      42.384  23.605  35.548  1.00  0.00    -0.200 F 
ATOM     89  F   UNL A   1      45.050  23.065  35.728  1.00  0.00    -0.200 F 
ENDBRANCH  56  79
ENDBRANCH  30  31
ENDBRANCH  23  25
ENDBRANCH  22  23
ENDBRANCH  21  22
ENDBRANCH   1  21
TORSDOF 14
ENDMDL
MODEL 3
REMARK VINA RESULT:     -12.4      4.705     12.928
REMARK SMILES Cc1cc(NCc2ccc(C(=O)OCCOC(=O)c3ccc(-c4c5nc(c(-c6c(F)c(F)c(F)c(F)c6F)c6ccc([nH]6)c(-c6c(F)c(F)c(F)c(F)c6F)c6nc(c(-c7c(F)c(F)c(F)c(F)c7F)c7ccc4[nH]7)C=C6)C=C5)cc3)o2)ccc1F
REMARK SMILES IDX 14 1 13 2 11 3 12 4 10 5 7 6 8 7 82 8 9 9 6 10 5 11 4 13
REMARK SMILES IDX 1 14 2 15 3 16 85 17 84 18 86 19 83 20 15 21 16 22 17 23
REMARK SMILES IDX 18 24 19 25 20 26 81 27 21 28 80 29 22 30 23 31 24 32 74 33
REMARK SMILES IDX 25 34 79 35 73 36 75 37 26 38 78 39 72 40 71 41 27 43 59 44
REMARK SMILES IDX 39 45 58 46 40 47 43 48 57 49 76 50 41 51 42 52 56 54 77 55
REMARK SMILES IDX 44 56 28 57 29 58 37 59 30 60 31 61 35 62 38 63 32 64 33 65
REMARK SMILES IDX 36 66 34 67 60 68 61 69 69 70 62 71 63 72 67 73 70 74 64 75
REMARK SMILES IDX 65 76 68 77 66 78 45 79 46 80 54 81 47 82 48 83 52 84 55 85
REMARK SMILES IDX 49 86 50 87 53 88 51 89
REMARK H PARENT 5 12 75 42 43 53
REMARK Flexibility Score: inf
ROOT
ATOM      1  C   UNL A   1      41.507  21.204  27.676  1.00  0.00     0.275 C 
ENDROOT
BRANCH   1   2
ATOM      2  O   UNL A   1      40.781  19.958  27.567  1.00  0.00    -0.456 OA
BRANCH   2   3
ATOM      3  C   UNL A   1      40.799  19.326  26.343  1.00  0.00     0.374 C 
ATOM      4  O   UNL A   1      39.813  19.188  25.632  1.00  0.00    -0.242 OA
BRANCH   3   5
ATOM      5  C   UNL A   1      42.168  18.967  25.996  1.00  0.00     0.211 A 
ATOM      6  C   UNL A   1      44.138  19.296  25.023  1.00  0.00     0.124 A 
ATOM      7  C   UNL A   1      44.289  18.216  25.866  1.00  0.00     0.048 A 
ATOM      8  O   UNL A   1      42.839  19.730  25.064  1.00  0.00    -0.452 OA
ATOM      9  C   UNL A   1      43.037  18.016  26.498  1.00  0.00     0.058 A 
BRANCH   6  10
ATOM     10  C   UNL A   1      45.080  20.020  24.110  1.00  0.00     0.188 C 
BRANCH  10  11
ATOM     11  N   UNL A   1      44.652  21.348  23.686  1.00  0.00    -0.378 N 
ATOM     12  H   UNL A   1      43.975  21.376  22.973  1.00  0.00     0.161 HD
BRANCH  11  13
ATOM     13  C   UNL A   1      45.080  22.572  24.159  1.00  0.00     0.035 A 
ATOM     14  C   UNL A   1      43.427  25.820  25.374  1.00  0.00     0.047 C 
ATOM     15  C   UNL A   1      44.465  24.807  25.003  1.00  0.00    -0.013 A 
ATOM     16  C   UNL A   1      44.114  23.531  24.527  1.00  0.00     0.032 A 
ATOM     17  C   UNL A   1      45.816  25.126  25.098  1.00  0.00     0.126 A 
ATOM     18  C   UNL A   1      46.792  24.214  24.719  1.00  0.00     0.041 A 
ATOM     19  F   UNL A   1      46.190  26.328  25.560  1.00  0.00    -0.207 F 
ATOM     20  C   UNL A   1      46.423  22.950  24.242  1.00  0.00     0.029 A 
ENDBRANCH  11  13
ENDBRANCH  10  11
ENDBRANCH   6  10
ENDBRANCH   3   5
ENDBRANCH   2   3
ENDBRANCH   1   2
BRANCH   1  21
ATOM     21  C   UNL A   1      40.929  22.300  26.770  1.00  0.00     0.275 C 
BRANCH  21  22
ATOM     22  O   UNL A   1      40.102  23.243  27.477  1.00  0.00    -0.458 OA
BRANCH  22  23
ATOM     23  C   UNL A   1      40.739  24.409  27.712  1.00  0.00     0.338 C 
ATOM     24  O   UNL A   1      41.855  24.534  28.182  1.00  0.00    -0.246 OA
BRANCH  23  25
ATOM     25  C   UNL A   1      39.862  25.580  27.729  1.00  0.00     0.060 A 
ATOM     26  C   UNL A   1      40.378  26.668  27.001  1.00  0.00     0.016 A 
ATOM     27  C   UNL A   1      39.122  25.755  28.898  1.00  0.00     0.016 A 
ATOM     28  C   UNL A   1      40.424  27.908  27.609  1.00  0.00     0.010 A 
ATOM     29  C   UNL A   1      39.162  26.994  29.494  1.00  0.00     0.010 A 
ATOM     30  C   UNL A   1      39.889  28.030  28.890  1.00  0.00    -0.014 A 
BRANCH  30  31
ATOM     31  C   UNL A   1      39.947  29.277  29.622  1.00  0.00     0.031 A 
ATOM     32  C   UNL A   1      38.935  30.290  29.295  1.00  0.00     0.074 A 
ATOM     33  C   UNL A   1      40.860  29.478  30.594  1.00  0.00     0.049 A 
ATOM     34  N   UNL A   1      39.057  31.546  29.538  1.00  0.00    -0.248 NA
ATOM     35  C   UNL A   1      37.706  29.947  28.589  1.00  0.00     0.031 C 
ATOM     36  C   UNL A   1      40.854  30.540  31.592  1.00  0.00     0.029 A 
ATOM     37  N   UNL A   1      42.106  28.854  30.756  1.00  0.00    -0.354 N 
ATOM     38  C   UNL A   1      37.826  32.119  29.328  1.00  0.00     0.074 A 
ATOM     39  C   UNL A   1      37.057  31.113  28.632  1.00  0.00     0.031 C 
ATOM     40  C   UNL A   1      42.099  30.697  32.066  1.00  0.00     0.029 A 
ATOM     41  C   UNL A   1      42.972  29.855  31.272  1.00  0.00     0.049 A 
ATOM     42  H   UNL A   1      42.333  27.918  30.554  1.00  0.00     0.167 HD
ATOM     43  C   UNL A   1      37.558  33.317  29.919  1.00  0.00     0.037 A 
ATOM     44  C   UNL A   1      44.039  30.302  30.542  1.00  0.00     0.037 A 
ATOM     45  C   UNL A   1      38.749  33.857  30.580  1.00  0.00     0.049 A 
ATOM     46  C   UNL A   1      43.962  31.755  30.130  1.00  0.00     0.074 A 
ATOM     47  C   UNL A   1      39.214  33.872  31.886  1.00  0.00     0.029 A 
ATOM     48  N   UNL A   1      39.839  34.188  29.795  1.00  0.00    -0.354 N 
ATOM     49  N   UNL A   1      42.957  32.540  30.404  1.00  0.00    -0.248 NA
ATOM     50  C   UNL A   1      44.972  32.413  29.303  1.00  0.00     0.031 C 
ATOM     51  C   UNL A   1      40.597  34.222  31.865  1.00  0.00     0.029 A 
ATOM     52  C   UNL A   1      40.968  34.433  30.551  1.00  0.00     0.049 A 
ATOM     53  H   UNL A   1      39.812  34.244  28.813  1.00  0.00     0.167 HD
ATOM     54  C   UNL A   1      43.140  33.750  29.796  1.00  0.00     0.074 A 
ATOM     55  C   UNL A   1      44.419  33.625  29.121  1.00  0.00     0.031 C 
ATOM     56  C   UNL A   1      42.211  34.750  29.863  1.00  0.00     0.037 A 
BRANCH  43  57
ATOM     57  C   UNL A   1      36.155  33.828  30.135  1.00  0.00     0.064 A 
ATOM     58  C   UNL A   1      35.365  34.240  29.041  1.00  0.00     0.173 A 
ATOM     59  C   UNL A   1      35.551  34.004  31.395  1.00  0.00     0.173 A 
ATOM     60  F   UNL A   1      35.758  34.035  27.778  1.00  0.00    -0.203 F 
ATOM     61  C   UNL A   1      34.138  34.888  29.203  1.00  0.00     0.198 A 
ATOM     62  C   UNL A   1      34.354  34.708  31.562  1.00  0.00     0.198 A 
ATOM     63  F   UNL A   1      36.068  33.451  32.499  1.00  0.00    -0.203 F 
ATOM     64  F   UNL A   1      33.439  35.262  28.124  1.00  0.00    -0.200 F 
ATOM     65  C   UNL A   1      33.653  35.161  30.465  1.00  0.00     0.200 A 
ATOM     66  F   UNL A   1      33.886  34.943  32.798  1.00  0.00    -0.200 F 
ATOM     67  F   UNL A   1      32.502  35.828  30.621  1.00  0.00    -0.200 F 
ENDBRANCH  43  57
BRANCH  44  68
ATOM     68  C   UNL A   1      44.647  29.203  29.744  1.00  0.00     0.064 A 
ATOM     69  C   UNL A   1      44.372  29.213  28.364  1.00  0.00     0.173 A 
ATOM     70  C   UNL A   1      45.856  28.640  30.174  1.00  0.00     0.173 A 
ATOM     71  F   UNL A   1      43.215  29.723  27.915  1.00  0.00    -0.203 F 
ATOM     72  C   UNL A   1      45.364  28.896  27.445  1.00  0.00     0.198 A 
ATOM     73  C   UNL A   1      46.840  28.306  29.246  1.00  0.00     0.198 A 
ATOM     74  F   UNL A   1      46.151  28.611  31.481  1.00  0.00    -0.203 F 
ATOM     75  F   UNL A   1      45.157  29.113  26.137  1.00  0.00    -0.200 F 
ATOM     76  C   UNL A   1      46.610  28.484  27.887  1.00  0.00     0.200 A 
ATOM     77  F   UNL A   1      48.050  27.934  29.680  1.00  0.00    -0.200 F 
ATOM     78  F   UNL A   1      47.592  28.319  26.993  1.00  0.00    -0.200 F 
ENDBRANCH  44  68
BRANCH  56  79
ATOM     79  C   UNL A   1      42.397  36.113  29.249  1.00  0.00     0.064 A 
ATOM     80  C   UNL A   1      41.879  36.450  27.989  1.00  0.00     0.173 A 
ATOM     81  C   UNL A   1      43.199  37.101  29.864  1.00  0.00     0.173 A 
ATOM     82  F   UNL A   1      41.205  35.551  27.257  1.00  0.00    -0.203 F 
ATOM     83  C   UNL A   1      42.067  37.717  27.430  1.00  0.00     0.198 A 
ATOM     84  C   UNL A   1      43.435  38.343  29.277  1.00  0.00     0.198 A 
ATOM     85  F   UNL A   1      43.765  36.911  31.063  1.00  0.00    -0.203 F 
ATOM     86  F   UNL A   1      41.491  38.017  26.257  1.00  0.00    -0.200 F 
ATOM     87  C   UNL A   1      42.848  38.660  28.072  1.00  0.00     0.200 A 
ATOM     88  F   UNL A   1      44.228  39.228  29.897  1.00  0.00    -0.200 F 
ATOM     89  F   UNL A   1      43.038  39.870  27.529  1.00  0.00    -0.200 F 
ENDBRANCH  56  79
ENDBRANCH  30  31
ENDBRANCH  23  25
ENDBRANCH  22  23
ENDBRANCH  21  22
ENDBRANCH   1  21
TORSDOF 14
ENDMDL
