MODEL 1
REMARK VINA RESULT:     -11.9      0.000      0.000
REMARK SMILES CCOc1cc(/C=N/O)cc(Cl)c1OCc1ccc(C(=O)OCCOC(=O)c2ccc(-c3c4nc(c(-c5c(F)c(F)c(F)c(F)c5F)c5ccc([nH]5)c(-c5c(F)c(F)c(F)c(F)c5F)c5nc(c(-c6c(F)c(F)c(F)c(F)c6F)c6ccc3[nH]6)C=C5)C=C4)cc2)cc1
REMARK SMILES IDX 22 1 20 2 21 3 19 4 16 5 17 6 92 7 18 8 91 9 15 10 14 11
REMARK SMILES IDX 13 12 4 13 5 14 6 15 11 16 10 17 12 18 3 19 2 20 1 21 7 22
REMARK SMILES IDX 8 23 9 24 23 26 24 27 25 28 26 29 27 30 28 31 29 32 90 33
REMARK SMILES IDX 30 34 89 35 31 36 32 37 33 38 83 39 34 40 88 41 82 42 84 43
REMARK SMILES IDX 35 44 87 45 81 46 80 47 36 49 68 50 48 51 67 52 49 53 52 54
REMARK SMILES IDX 66 55 85 56 50 57 51 58 65 60 86 61 53 62 37 63 38 64 46 65
REMARK SMILES IDX 39 66 40 67 44 68 47 69 41 70 42 71 45 72 43 73 69 74 70 75
REMARK SMILES IDX 78 76 71 77 72 78 76 79 79 80 73 81 74 82 77 83 75 84 54 85
REMARK SMILES IDX 55 86 63 87 56 88 57 89 61 90 64 91 58 92 59 93 62 94 60 95
REMARK H PARENT 9 25 84 48 52 59
REMARK Flexibility Score: inf
ROOT
ATOM      1  O   UNL A   1      30.136  29.603  23.881  1.00  0.00    -0.458 OA
ENDROOT
BRANCH   1   2
ATOM      2  C   UNL A   1      30.053  28.957  22.691  1.00  0.00     0.338 C 
ATOM      3  O   UNL A   1      29.842  29.455  21.598  1.00  0.00    -0.246 OA
BRANCH   2   4
ATOM      4  C   UNL A   1      30.361  27.520  22.863  1.00  0.00     0.060 A 
ATOM      5  C   UNL A   1      30.930  24.801  23.307  1.00  0.00    -0.011 A 
ATOM      6  C   UNL A   1      30.026  25.485  24.130  1.00  0.00     0.008 A 
ATOM      7  C   UNL A   1      31.582  25.514  22.287  1.00  0.00     0.008 A 
ATOM      8  C   UNL A   1      29.761  26.835  23.922  1.00  0.00     0.016 A 
ATOM      9  C   UNL A   1      31.278  26.860  22.044  1.00  0.00     0.016 A 
BRANCH   5  10
ATOM     10  C   UNL A   1      31.190  23.337  23.608  1.00  0.00     0.265 C 
BRANCH  10  11
ATOM     11  O   UNL A   1      31.906  23.004  24.793  1.00  0.00    -0.483 OA
BRANCH  11  12
ATOM     12  C   UNL A   1      33.241  22.709  24.782  1.00  0.00     0.180 A 
ATOM     13  C   UNL A   1      33.501  21.325  24.829  1.00  0.00     0.163 A 
ATOM     14  C   UNL A   1      34.801  20.830  24.907  1.00  0.00     0.060 A 
ATOM     15  C   UNL A   1      35.869  21.719  24.963  1.00  0.00     0.001 A 
ATOM     16  C   UNL A   1      34.335  23.586  24.738  1.00  0.00     0.087 A 
ATOM     17  C   UNL A   1      35.644  23.091  24.861  1.00  0.00     0.034 A 
ATOM     18  Cl  UNL A   1      34.218  25.285  24.432  1.00  0.00    -0.080 Cl
BRANCH  13  19
ATOM     19  O   UNL A   1      32.463  20.440  24.673  1.00  0.00    -0.490 OA
BRANCH  19  20
ATOM     20  C   UNL A   1      32.488  19.746  23.422  1.00  0.00     0.226 C 
ATOM     21  C   UNL A   1      32.475  18.244  23.651  1.00  0.00     0.049 C 
ENDBRANCH  19  20
ENDBRANCH  13  19
BRANCH  15  22
ATOM     22  C   UNL A   1      37.248  21.218  25.096  1.00  0.00     0.162 C 
ATOM     23  N   UNL A   1      38.126  21.827  25.827  1.00  0.00    -0.097 NA
BRANCH  23  24
ATOM     24  O   UNL A   1      39.337  21.131  25.761  1.00  0.00    -0.411 OA
ATOM     25  H   UNL A   1      39.400  20.346  25.255  1.00  0.00     0.330 HD
ENDBRANCH  23  24
ENDBRANCH  15  22
ENDBRANCH  11  12
ENDBRANCH  10  11
ENDBRANCH   5  10
ENDBRANCH   2   4
ENDBRANCH   1   2
BRANCH   1  26
ATOM     26  C   UNL A   1      31.464  29.698  24.443  1.00  0.00     0.275 C 
BRANCH  26  27
ATOM     27  C   UNL A   1      31.458  30.515  25.736  1.00  0.00     0.275 C 
BRANCH  27  28
ATOM     28  O   UNL A   1      32.685  30.292  26.450  1.00  0.00    -0.458 OA
BRANCH  28  29
ATOM     29  C   UNL A   1      33.209  31.372  27.075  1.00  0.00     0.338 C 
ATOM     30  O   UNL A   1      32.684  32.461  27.225  1.00  0.00    -0.246 OA
BRANCH  29  31
ATOM     31  C   UNL A   1      34.556  31.049  27.593  1.00  0.00     0.060 A 
ATOM     32  C   UNL A   1      34.907  29.727  27.864  1.00  0.00     0.016 A 
ATOM     33  C   UNL A   1      35.438  32.076  27.927  1.00  0.00     0.016 A 
ATOM     34  C   UNL A   1      36.076  29.437  28.569  1.00  0.00     0.010 A 
ATOM     35  C   UNL A   1      36.662  31.773  28.537  1.00  0.00     0.010 A 
ATOM     36  C   UNL A   1      36.976  30.454  28.916  1.00  0.00    -0.014 A 
BRANCH  36  37
ATOM     37  C   UNL A   1      38.195  30.158  29.730  1.00  0.00     0.031 A 
ATOM     38  C   UNL A   1      39.309  29.318  29.150  1.00  0.00     0.074 A 
ATOM     39  C   UNL A   1      38.341  30.651  30.977  1.00  0.00     0.049 A 
ATOM     40  N   UNL A   1      40.354  28.795  29.744  1.00  0.00    -0.248 NA
ATOM     41  C   UNL A   1      39.226  29.008  27.714  1.00  0.00     0.031 C 
ATOM     42  C   UNL A   1      37.381  31.510  31.670  1.00  0.00     0.029 A 
ATOM     43  N   UNL A   1      39.368  30.512  31.881  1.00  0.00    -0.354 N 
ATOM     44  C   UNL A   1      41.001  28.033  28.778  1.00  0.00     0.074 A 
ATOM     45  C   UNL A   1      40.238  28.169  27.555  1.00  0.00     0.031 C 
ATOM     46  C   UNL A   1      37.885  31.867  32.859  1.00  0.00     0.029 A 
ATOM     47  C   UNL A   1      39.165  31.193  33.057  1.00  0.00     0.049 A 
ATOM     48  H   UNL A   1      40.173  29.973  31.704  1.00  0.00     0.167 HD
ATOM     49  C   UNL A   1      42.126  27.288  28.898  1.00  0.00     0.037 A 
ATOM     50  C   UNL A   1      39.904  31.248  34.182  1.00  0.00     0.037 A 
ATOM     51  C   UNL A   1      42.939  27.219  30.084  1.00  0.00     0.049 A 
ATOM     52  C   UNL A   1      41.165  30.437  34.283  1.00  0.00     0.074 A 
ATOM     53  C   UNL A   1      44.106  26.502  30.292  1.00  0.00     0.029 A 
ATOM     54  N   UNL A   1      42.689  27.920  31.254  1.00  0.00    -0.354 N 
ATOM     55  N   UNL A   1      41.718  29.654  33.391  1.00  0.00    -0.248 NA
ATOM     56  C   UNL A   1      41.891  30.499  35.561  1.00  0.00     0.031 C 
ATOM     57  C   UNL A   1      44.551  26.756  31.595  1.00  0.00     0.029 A 
ATOM     58  C   UNL A   1      43.679  27.655  32.186  1.00  0.00     0.049 A 
ATOM     59  H   UNL A   1      41.921  28.518  31.400  1.00  0.00     0.167 HD
ATOM     60  C   UNL A   1      42.850  29.128  33.995  1.00  0.00     0.074 A 
ATOM     61  C   UNL A   1      42.925  29.706  35.321  1.00  0.00     0.031 C 
ATOM     62  C   UNL A   1      43.741  28.234  33.501  1.00  0.00     0.037 A 
BRANCH  49  63
ATOM     63  C   UNL A   1      42.533  26.451  27.720  1.00  0.00     0.064 A 
ATOM     64  C   UNL A   1      43.495  26.885  26.797  1.00  0.00     0.173 A 
ATOM     65  C   UNL A   1      41.974  25.177  27.538  1.00  0.00     0.173 A 
ATOM     66  F   UNL A   1      44.049  28.099  26.919  1.00  0.00    -0.203 F 
ATOM     67  C   UNL A   1      43.865  26.081  25.721  1.00  0.00     0.198 A 
ATOM     68  C   UNL A   1      42.364  24.367  26.476  1.00  0.00     0.198 A 
ATOM     69  F   UNL A   1      41.053  24.713  28.397  1.00  0.00    -0.203 F 
ATOM     70  F   UNL A   1      44.756  26.531  24.826  1.00  0.00    -0.200 F 
ATOM     71  C   UNL A   1      43.305  24.822  25.565  1.00  0.00     0.200 A 
ATOM     72  F   UNL A   1      41.830  23.145  26.334  1.00  0.00    -0.200 F 
ATOM     73  F   UNL A   1      43.667  24.048  24.532  1.00  0.00    -0.200 F 
ENDBRANCH  49  63
BRANCH  50  74
ATOM     74  C   UNL A   1      39.449  32.084  35.323  1.00  0.00     0.064 A 
ATOM     75  C   UNL A   1      39.864  33.417  35.448  1.00  0.00     0.173 A 
ATOM     76  C   UNL A   1      38.587  31.573  36.305  1.00  0.00     0.173 A 
ATOM     77  F   UNL A   1      40.712  33.941  34.551  1.00  0.00    -0.203 F 
ATOM     78  C   UNL A   1      39.438  34.206  36.514  1.00  0.00     0.198 A 
ATOM     79  C   UNL A   1      38.138  32.371  37.354  1.00  0.00     0.198 A 
ATOM     80  F   UNL A   1      38.166  30.302  36.231  1.00  0.00    -0.203 F 
ATOM     81  F   UNL A   1      39.877  35.466  36.630  1.00  0.00    -0.200 F 
ATOM     82  C   UNL A   1      38.567  33.685  37.460  1.00  0.00     0.200 A 
ATOM     83  F   UNL A   1      37.289  31.868  38.259  1.00  0.00    -0.200 F 
ATOM     84  F   UNL A   1      38.149  34.448  38.479  1.00  0.00    -0.200 F 
ENDBRANCH  50  74
BRANCH  62  85
ATOM     85  C   UNL A   1      44.877  27.839  34.395  1.00  0.00     0.064 A 
ATOM     86  C   UNL A   1      46.078  28.562  34.411  1.00  0.00     0.173 A 
ATOM     87  C   UNL A   1      44.758  26.737  35.255  1.00  0.00     0.173 A 
ATOM     88  F   UNL A   1      46.243  29.613  33.593  1.00  0.00    -0.203 F 
ATOM     89  C   UNL A   1      47.130  28.183  35.239  1.00  0.00     0.198 A 
ATOM     90  C   UNL A   1      45.805  26.372  36.097  1.00  0.00     0.198 A 
ATOM     91  F   UNL A   1      43.628  26.015  35.277  1.00  0.00    -0.203 F 
ATOM     92  F   UNL A   1      48.285  28.862  35.208  1.00  0.00    -0.200 F 
ATOM     93  C   UNL A   1      46.991  27.091  36.084  1.00  0.00     0.200 A 
ATOM     94  F   UNL A   1      45.669  25.321  36.917  1.00  0.00    -0.200 F 
ATOM     95  F   UNL A   1      48.007  26.725  36.878  1.00  0.00    -0.200 F 
ENDBRANCH  62  85
ENDBRANCH  36  37
ENDBRANCH  29  31
ENDBRANCH  28  29
ENDBRANCH  27  28
ENDBRANCH  26  27
ENDBRANCH   1  26
TORSDOF 18
ENDMDL
MODEL 2
REMARK VINA RESULT:     -11.9      2.856      8.701
REMARK SMILES CCOc1cc(/C=N/O)cc(Cl)c1OCc1ccc(C(=O)OCCOC(=O)c2ccc(-c3c4nc(c(-c5c(F)c(F)c(F)c(F)c5F)c5ccc([nH]5)c(-c5c(F)c(F)c(F)c(F)c5F)c5nc(c(-c6c(F)c(F)c(F)c(F)c6F)c6ccc3[nH]6)C=C5)C=C4)cc2)cc1
REMARK SMILES IDX 22 1 20 2 21 3 19 4 16 5 17 6 92 7 18 8 91 9 15 10 14 11
REMARK SMILES IDX 13 12 4 13 5 14 6 15 11 16 10 17 12 18 3 19 2 20 1 21 7 22
REMARK SMILES IDX 8 23 9 24 23 26 24 27 25 28 26 29 27 30 28 31 29 32 90 33
REMARK SMILES IDX 30 34 89 35 31 36 32 37 33 38 83 39 34 40 88 41 82 42 84 43
REMARK SMILES IDX 35 44 87 45 81 46 80 47 36 49 68 50 48 51 67 52 49 53 52 54
REMARK SMILES IDX 66 55 85 56 50 57 51 58 65 60 86 61 53 62 37 63 38 64 46 65
REMARK SMILES IDX 39 66 40 67 44 68 47 69 41 70 42 71 45 72 43 73 69 74 70 75
REMARK SMILES IDX 78 76 71 77 72 78 76 79 79 80 73 81 74 82 77 83 75 84 54 85
REMARK SMILES IDX 55 86 63 87 56 88 57 89 61 90 64 91 58 92 59 93 62 94 60 95
REMARK H PARENT 9 25 84 48 52 59
REMARK Flexibility Score: inf
ROOT
ATOM      1  O   UNL A   1      34.030  34.453  28.145  1.00  0.00    -0.458 OA
ENDROOT
BRANCH   1   2
ATOM      2  C   UNL A   1      35.128  33.741  28.497  1.00  0.00     0.338 C 
ATOM      3  O   UNL A   1      36.078  34.132  29.156  1.00  0.00    -0.246 OA
BRANCH   2   4
ATOM      4  C   UNL A   1      34.995  32.336  28.054  1.00  0.00     0.060 A 
ATOM      5  C   UNL A   1      34.632  29.661  27.262  1.00  0.00    -0.011 A 
ATOM      6  C   UNL A   1      33.539  30.534  27.350  1.00  0.00     0.008 A 
ATOM      7  C   UNL A   1      35.903  30.137  27.624  1.00  0.00     0.008 A 
ATOM      8  C   UNL A   1      33.717  31.851  27.762  1.00  0.00     0.016 A 
ATOM      9  C   UNL A   1      36.092  31.476  27.989  1.00  0.00     0.016 A 
BRANCH   5  10
ATOM     10  C   UNL A   1      34.360  28.232  26.830  1.00  0.00     0.265 C 
BRANCH  10  11
ATOM     11  O   UNL A   1      33.017  27.856  26.534  1.00  0.00    -0.483 OA
BRANCH  11  12
ATOM     12  C   UNL A   1      32.615  27.516  25.273  1.00  0.00     0.180 A 
ATOM     13  C   UNL A   1      33.051  26.235  24.881  1.00  0.00     0.163 A 
ATOM     14  C   UNL A   1      32.810  25.743  23.600  1.00  0.00     0.060 A 
ATOM     15  C   UNL A   1      32.144  26.540  22.676  1.00  0.00     0.001 A 
ATOM     16  C   UNL A   1      31.857  28.265  24.359  1.00  0.00     0.087 A 
ATOM     17  C   UNL A   1      31.652  27.788  23.054  1.00  0.00     0.034 A 
ATOM     18  Cl  UNL A   1      31.034  29.737  24.743  1.00  0.00    -0.080 Cl
BRANCH  13  19
ATOM     19  O   UNL A   1      33.619  25.403  25.815  1.00  0.00    -0.490 OA
BRANCH  19  20
ATOM     20  C   UNL A   1      33.037  24.097  25.845  1.00  0.00     0.226 C 
ATOM     21  C   UNL A   1      31.857  24.066  26.802  1.00  0.00     0.049 C 
ENDBRANCH  19  20
ENDBRANCH  13  19
BRANCH  15  22
ATOM     22  C   UNL A   1      31.922  26.059  21.301  1.00  0.00     0.162 C 
ATOM     23  N   UNL A   1      32.907  25.843  20.489  1.00  0.00    -0.097 NA
BRANCH  23  24
ATOM     24  O   UNL A   1      32.399  25.398  19.264  1.00  0.00    -0.411 OA
ATOM     25  H   UNL A   1      31.530  25.054  19.214  1.00  0.00     0.330 HD
ENDBRANCH  23  24
ENDBRANCH  15  22
ENDBRANCH  11  12
ENDBRANCH  10  11
ENDBRANCH   5  10
ENDBRANCH   2   4
ENDBRANCH   1   2
BRANCH   1  26
ATOM     26  C   UNL A   1      34.048  35.848  28.521  1.00  0.00     0.275 C 
BRANCH  26  27
ATOM     27  C   UNL A   1      32.795  36.223  29.314  1.00  0.00     0.275 C 
BRANCH  27  28
ATOM     28  O   UNL A   1      32.549  35.227  30.320  1.00  0.00    -0.458 OA
BRANCH  28  29
ATOM     29  C   UNL A   1      32.647  35.648  31.603  1.00  0.00     0.338 C 
ATOM     30  O   UNL A   1      31.910  36.428  32.180  1.00  0.00    -0.246 OA
BRANCH  29  31
ATOM     31  C   UNL A   1      33.804  35.000  32.257  1.00  0.00     0.060 A 
ATOM     32  C   UNL A   1      35.051  35.622  32.258  1.00  0.00     0.016 A 
ATOM     33  C   UNL A   1      33.680  33.710  32.772  1.00  0.00     0.016 A 
ATOM     34  C   UNL A   1      36.190  34.922  32.659  1.00  0.00     0.010 A 
ATOM     35  C   UNL A   1      34.807  33.048  33.276  1.00  0.00     0.010 A 
ATOM     36  C   UNL A   1      36.089  33.623  33.178  1.00  0.00    -0.014 A 
BRANCH  36  37
ATOM     37  C   UNL A   1      37.311  32.843  33.545  1.00  0.00     0.031 A 
ATOM     38  C   UNL A   1      37.949  33.029  34.902  1.00  0.00     0.074 A 
ATOM     39  C   UNL A   1      37.850  31.945  32.695  1.00  0.00     0.049 A 
ATOM     40  N   UNL A   1      39.105  32.596  35.344  1.00  0.00    -0.248 NA
ATOM     41  C   UNL A   1      37.198  33.825  35.884  1.00  0.00     0.031 C 
ATOM     42  C   UNL A   1      37.335  31.617  31.366  1.00  0.00     0.029 A 
ATOM     43  N   UNL A   1      38.948  31.129  32.832  1.00  0.00    -0.354 N 
ATOM     44  C   UNL A   1      39.251  33.132  36.618  1.00  0.00     0.074 A 
ATOM     45  C   UNL A   1      38.063  33.915  36.884  1.00  0.00     0.031 C 
ATOM     46  C   UNL A   1      38.076  30.633  30.836  1.00  0.00     0.029 A 
ATOM     47  C   UNL A   1      39.174  30.319  31.745  1.00  0.00     0.049 A 
ATOM     48  H   UNL A   1      39.519  31.125  33.634  1.00  0.00     0.167 HD
ATOM     49  C   UNL A   1      40.281  32.988  37.487  1.00  0.00     0.037 A 
ATOM     50  C   UNL A   1      40.167  29.446  31.488  1.00  0.00     0.037 A 
ATOM     51  C   UNL A   1      41.423  32.140  37.268  1.00  0.00     0.049 A 
ATOM     52  C   UNL A   1      41.284  29.279  32.480  1.00  0.00     0.074 A 
ATOM     53  C   UNL A   1      42.508  31.918  38.101  1.00  0.00     0.029 A 
ATOM     54  N   UNL A   1      41.613  31.346  36.148  1.00  0.00    -0.354 N 
ATOM     55  N   UNL A   1      41.451  29.858  33.642  1.00  0.00    -0.248 NA
ATOM     56  C   UNL A   1      42.364  28.352  32.109  1.00  0.00     0.031 C 
ATOM     57  C   UNL A   1      43.364  31.004  37.474  1.00  0.00     0.029 A 
ATOM     58  C   UNL A   1      42.794  30.632  36.267  1.00  0.00     0.049 A 
ATOM     59  H   UNL A   1      40.998  31.296  35.380  1.00  0.00     0.167 HD
ATOM     60  C   UNL A   1      42.651  29.372  34.140  1.00  0.00     0.074 A 
ATOM     61  C   UNL A   1      43.157  28.425  33.168  1.00  0.00     0.031 C 
ATOM     62  C   UNL A   1      43.287  29.695  35.293  1.00  0.00     0.037 A 
BRANCH  49  63
ATOM     63  C   UNL A   1      40.239  33.794  38.753  1.00  0.00     0.064 A 
ATOM     64  C   UNL A   1      39.557  33.351  39.895  1.00  0.00     0.173 A 
ATOM     65  C   UNL A   1      40.928  35.014  38.830  1.00  0.00     0.173 A 
ATOM     66  F   UNL A   1      38.872  32.199  39.868  1.00  0.00    -0.203 F 
ATOM     67  C   UNL A   1      39.547  34.113  41.061  1.00  0.00     0.198 A 
ATOM     68  C   UNL A   1      40.937  35.760  40.005  1.00  0.00     0.198 A 
ATOM     69  F   UNL A   1      41.601  35.479  37.766  1.00  0.00    -0.203 F 
ATOM     70  F   UNL A   1      38.855  33.693  42.129  1.00  0.00    -0.200 F 
ATOM     71  C   UNL A   1      40.242  35.313  41.117  1.00  0.00     0.200 A 
ATOM     72  F   UNL A   1      41.619  36.914  40.060  1.00  0.00    -0.200 F 
ATOM     73  F   UNL A   1      40.236  36.041  42.242  1.00  0.00    -0.200 F 
ENDBRANCH  49  63
BRANCH  50  74
ATOM     74  C   UNL A   1      40.165  28.681  30.215  1.00  0.00     0.064 A 
ATOM     75  C   UNL A   1      40.818  29.176  29.078  1.00  0.00     0.173 A 
ATOM     76  C   UNL A   1      39.519  27.440  30.110  1.00  0.00     0.173 A 
ATOM     77  F   UNL A   1      41.423  30.372  29.120  1.00  0.00    -0.203 F 
ATOM     78  C   UNL A   1      40.822  28.460  27.882  1.00  0.00     0.198 A 
ATOM     79  C   UNL A   1      39.549  26.711  28.923  1.00  0.00     0.198 A 
ATOM     80  F   UNL A   1      38.877  26.927  31.169  1.00  0.00    -0.203 F 
ATOM     81  F   UNL A   1      41.424  28.971  26.800  1.00  0.00    -0.200 F 
ATOM     82  C   UNL A   1      40.196  27.224  27.810  1.00  0.00     0.200 A 
ATOM     83  F   UNL A   1      38.953  25.514  28.860  1.00  0.00    -0.200 F 
ATOM     84  F   UNL A   1      40.210  26.531  26.663  1.00  0.00    -0.200 F 
ENDBRANCH  50  74
BRANCH  62  85
ATOM     85  C   UNL A   1      44.589  29.007  35.569  1.00  0.00     0.064 A 
ATOM     86  C   UNL A   1      45.808  29.555  35.146  1.00  0.00     0.173 A 
ATOM     87  C   UNL A   1      44.620  27.797  36.279  1.00  0.00     0.173 A 
ATOM     88  F   UNL A   1      45.826  30.702  34.449  1.00  0.00    -0.203 F 
ATOM     89  C   UNL A   1      47.011  28.904  35.401  1.00  0.00     0.198 A 
ATOM     90  C   UNL A   1      45.826  27.159  36.550  1.00  0.00     0.198 A 
ATOM     91  F   UNL A   1      43.479  27.234  36.706  1.00  0.00    -0.203 F 
ATOM     92  F   UNL A   1      48.161  29.423  34.949  1.00  0.00    -0.200 F 
ATOM     93  C   UNL A   1      47.020  27.709  36.106  1.00  0.00     0.200 A 
ATOM     94  F   UNL A   1      45.835  26.007  37.236  1.00  0.00    -0.200 F 
ATOM     95  F   UNL A   1      48.179  27.082  36.347  1.00  0.00    -0.200 F 
ENDBRANCH  62  85
ENDBRANCH  36  37
ENDBRANCH  29  31
ENDBRANCH  28  29
ENDBRANCH  27  28
ENDBRANCH  26  27
ENDBRANCH   1  26
TORSDOF 18
ENDMDL
MODEL 3
REMARK VINA RESULT:     -11.8      1.634      2.773
REMARK SMILES CCOc1cc(/C=N/O)cc(Cl)c1OCc1ccc(C(=O)OCCOC(=O)c2ccc(-c3c4nc(c(-c5c(F)c(F)c(F)c(F)c5F)c5ccc([nH]5)c(-c5c(F)c(F)c(F)c(F)c5F)c5nc(c(-c6c(F)c(F)c(F)c(F)c6F)c6ccc3[nH]6)C=C5)C=C4)cc2)cc1
REMARK SMILES IDX 22 1 20 2 21 3 19 4 16 5 17 6 92 7 18 8 91 9 15 10 14 11
REMARK SMILES IDX 13 12 4 13 5 14 6 15 11 16 10 17 12 18 3 19 2 20 1 21 7 22
REMARK SMILES IDX 8 23 9 24 23 26 24 27 25 28 26 29 27 30 28 31 29 32 90 33
REMARK SMILES IDX 30 34 89 35 31 36 32 37 33 38 83 39 34 40 88 41 82 42 84 43
REMARK SMILES IDX 35 44 87 45 81 46 80 47 36 49 68 50 48 51 67 52 49 53 52 54
REMARK SMILES IDX 66 55 85 56 50 57 51 58 65 60 86 61 53 62 37 63 38 64 46 65
REMARK SMILES IDX 39 66 40 67 44 68 47 69 41 70 42 71 45 72 43 73 69 74 70 75
REMARK SMILES IDX 78 76 71 77 72 78 76 79 79 80 73 81 74 82 77 83 75 84 54 85
REMARK SMILES IDX 55 86 63 87 56 88 57 89 61 90 64 91 58 92 59 93 62 94 60 95
REMARK H PARENT 9 25 84 48 52 59
REMARK Flexibility Score: inf
ROOT
ATOM      1  O   UNL A   1      32.554  28.364  24.967  1.00  0.00    -0.458 OA
ENDROOT
BRANCH   1   2
ATOM      2  C   UNL A   1      31.821  28.025  23.877  1.00  0.00     0.338 C 
ATOM      3  O   UNL A   1      31.259  28.783  23.104  1.00  0.00    -0.246 OA
BRANCH   2   4
ATOM      4  C   UNL A   1      31.864  26.562  23.663  1.00  0.00     0.060 A 
ATOM      5  C   UNL A   1      31.837  23.772  23.307  1.00  0.00    -0.011 A 
ATOM      6  C   UNL A   1      30.644  24.505  23.285  1.00  0.00     0.008 A 
ATOM      7  C   UNL A   1      33.040  24.452  23.560  1.00  0.00     0.008 A 
ATOM      8  C   UNL A   1      30.657  25.883  23.481  1.00  0.00     0.016 A 
ATOM      9  C   UNL A   1      33.061  25.845  23.706  1.00  0.00     0.016 A 
BRANCH   5  10
ATOM     10  C   UNL A   1      31.745  22.270  23.110  1.00  0.00     0.265 C 
BRANCH  10  11
ATOM     11  O   UNL A   1      32.855  21.465  23.501  1.00  0.00    -0.483 OA
BRANCH  11  12
ATOM     12  C   UNL A   1      32.715  20.153  23.858  1.00  0.00     0.180 A 
ATOM     13  C   UNL A   1      32.815  19.945  25.248  1.00  0.00     0.163 A 
ATOM     14  C   UNL A   1      32.780  18.666  25.798  1.00  0.00     0.060 A 
ATOM     15  C   UNL A   1      32.668  17.563  24.959  1.00  0.00     0.001 A 
ATOM     16  C   UNL A   1      32.502  19.035  23.036  1.00  0.00     0.087 A 
ATOM     17  C   UNL A   1      32.510  17.742  23.585  1.00  0.00     0.034 A 
ATOM     18  Cl  UNL A   1      32.111  19.117  21.353  1.00  0.00    -0.080 Cl
BRANCH  13  19
ATOM     19  O   UNL A   1      32.825  21.030  26.090  1.00  0.00    -0.490 OA
BRANCH  19  20
ATOM     20  C   UNL A   1      34.131  21.380  26.554  1.00  0.00     0.226 C 
ATOM     21  C   UNL A   1      34.035  22.302  27.759  1.00  0.00     0.049 C 
ENDBRANCH  19  20
ENDBRANCH  13  19
BRANCH  15  22
ATOM     22  C   UNL A   1      32.678  16.199  25.516  1.00  0.00     0.162 C 
ATOM     23  N   UNL A   1      33.180  15.201  24.862  1.00  0.00    -0.097 NA
BRANCH  23  24
ATOM     24  O   UNL A   1      33.050  14.040  25.630  1.00  0.00    -0.411 OA
ATOM     25  H   UNL A   1      33.280  14.050  26.538  1.00  0.00     0.330 HD
ENDBRANCH  23  24
ENDBRANCH  15  22
ENDBRANCH  11  12
ENDBRANCH  10  11
ENDBRANCH   5  10
ENDBRANCH   2   4
ENDBRANCH   1   2
BRANCH   1  26
ATOM     26  C   UNL A   1      31.811  28.487  26.200  1.00  0.00     0.275 C 
BRANCH  26  27
ATOM     27  C   UNL A   1      31.746  29.944  26.661  1.00  0.00     0.275 C 
BRANCH  27  28
ATOM     28  O   UNL A   1      32.945  30.629  26.262  1.00  0.00    -0.458 OA
BRANCH  28  29
ATOM     29  C   UNL A   1      33.394  31.577  27.115  1.00  0.00     0.338 C 
ATOM     30  O   UNL A   1      32.828  32.608  27.435  1.00  0.00    -0.246 OA
BRANCH  29  31
ATOM     31  C   UNL A   1      34.715  31.184  27.654  1.00  0.00     0.060 A 
ATOM     32  C   UNL A   1      34.966  29.859  28.002  1.00  0.00     0.016 A 
ATOM     33  C   UNL A   1      35.672  32.160  27.929  1.00  0.00     0.016 A 
ATOM     34  C   UNL A   1      36.112  29.522  28.725  1.00  0.00     0.010 A 
ATOM     35  C   UNL A   1      36.872  31.802  28.557  1.00  0.00     0.010 A 
ATOM     36  C   UNL A   1      37.088  30.487  29.013  1.00  0.00    -0.014 A 
BRANCH  36  37
ATOM     37  C   UNL A   1      38.283  30.148  29.844  1.00  0.00     0.031 A 
ATOM     38  C   UNL A   1      39.388  29.293  29.270  1.00  0.00     0.074 A 
ATOM     39  C   UNL A   1      38.415  30.615  31.103  1.00  0.00     0.049 A 
ATOM     40  N   UNL A   1      40.409  28.735  29.874  1.00  0.00    -0.248 NA
ATOM     41  C   UNL A   1      39.326  29.011  27.828  1.00  0.00     0.031 C 
ATOM     42  C   UNL A   1      37.462  31.484  31.793  1.00  0.00     0.029 A 
ATOM     43  N   UNL A   1      39.421  30.436  32.024  1.00  0.00    -0.354 N 
ATOM     44  C   UNL A   1      41.057  27.976  28.907  1.00  0.00     0.074 A 
ATOM     45  C   UNL A   1      40.322  28.152  27.673  1.00  0.00     0.031 C 
ATOM     46  C   UNL A   1      37.951  31.807  32.998  1.00  0.00     0.029 A 
ATOM     47  C   UNL A   1      39.211  31.100  33.208  1.00  0.00     0.049 A 
ATOM     48  H   UNL A   1      40.216  29.882  31.852  1.00  0.00     0.167 HD
ATOM     49  C   UNL A   1      42.162  27.202  29.035  1.00  0.00     0.037 A 
ATOM     50  C   UNL A   1      39.928  31.117  34.348  1.00  0.00     0.037 A 
ATOM     51  C   UNL A   1      42.950  27.093  30.235  1.00  0.00     0.049 A 
ATOM     52  C   UNL A   1      41.168  30.275  34.458  1.00  0.00     0.074 A 
ATOM     53  C   UNL A   1      44.096  26.346  30.452  1.00  0.00     0.029 A 
ATOM     54  N   UNL A   1      42.693  27.778  31.412  1.00  0.00    -0.354 N 
ATOM     55  N   UNL A   1      41.720  29.496  33.562  1.00  0.00    -0.248 NA
ATOM     56  C   UNL A   1      41.870  30.297  35.750  1.00  0.00     0.031 C 
ATOM     57  C   UNL A   1      44.521  26.565  31.768  1.00  0.00     0.029 A 
ATOM     58  C   UNL A   1      43.659  27.474  32.358  1.00  0.00     0.049 A 
ATOM     59  H   UNL A   1      41.936  28.392  31.554  1.00  0.00     0.167 HD
ATOM     60  C   UNL A   1      42.828  28.933  34.179  1.00  0.00     0.074 A 
ATOM     61  C   UNL A   1      42.891  29.484  35.516  1.00  0.00     0.031 C 
ATOM     62  C   UNL A   1      43.708  28.027  33.685  1.00  0.00     0.037 A 
BRANCH  49  63
ATOM     63  C   UNL A   1      42.573  26.378  27.849  1.00  0.00     0.064 A 
ATOM     64  C   UNL A   1      42.030  25.110  27.600  1.00  0.00     0.173 A 
ATOM     65  C   UNL A   1      43.501  26.890  26.929  1.00  0.00     0.173 A 
ATOM     66  F   UNL A   1      41.150  24.572  28.456  1.00  0.00    -0.203 F 
ATOM     67  C   UNL A   1      42.419  24.375  26.483  1.00  0.00     0.198 A 
ATOM     68  C   UNL A   1      43.868  26.162  25.800  1.00  0.00     0.198 A 
ATOM     69  F   UNL A   1      44.046  28.101  27.119  1.00  0.00    -0.203 F 
ATOM     70  F   UNL A   1      41.919  23.146  26.284  1.00  0.00    -0.200 F 
ATOM     71  C   UNL A   1      43.332  24.903  25.582  1.00  0.00     0.200 A 
ATOM     72  F   UNL A   1      44.742  26.680  24.925  1.00  0.00    -0.200 F 
ATOM     73  F   UNL A   1      43.700  24.195  24.504  1.00  0.00    -0.200 F 
ENDBRANCH  49  63
BRANCH  50  74
ATOM     74  C   UNL A   1      39.471  31.943  35.495  1.00  0.00     0.064 A 
ATOM     75  C   UNL A   1      39.953  33.245  35.681  1.00  0.00     0.173 A 
ATOM     76  C   UNL A   1      38.540  31.452  36.422  1.00  0.00     0.173 A 
ATOM     77  F   UNL A   1      40.868  33.748  34.838  1.00  0.00    -0.203 F 
ATOM     78  C   UNL A   1      39.524  34.025  36.753  1.00  0.00     0.198 A 
ATOM     79  C   UNL A   1      38.089  32.242  37.477  1.00  0.00     0.198 A 
ATOM     80  F   UNL A   1      38.052  30.210  36.290  1.00  0.00    -0.203 F 
ATOM     81  F   UNL A   1      40.027  35.254  36.928  1.00  0.00    -0.200 F 
ATOM     82  C   UNL A   1      38.586  33.526  37.644  1.00  0.00     0.200 A 
ATOM     83  F   UNL A   1      37.175  31.761  38.329  1.00  0.00    -0.200 F 
ATOM     84  F   UNL A   1      38.165  34.280  38.669  1.00  0.00    -0.200 F 
ENDBRANCH  50  74
BRANCH  62  85
ATOM     85  C   UNL A   1      44.817  27.589  34.593  1.00  0.00     0.064 A 
ATOM     86  C   UNL A   1      44.683  26.463  35.417  1.00  0.00     0.173 A 
ATOM     87  C   UNL A   1      46.030  28.292  34.627  1.00  0.00     0.173 A 
ATOM     88  F   UNL A   1      43.535  25.770  35.431  1.00  0.00    -0.203 F 
ATOM     89  C   UNL A   1      45.717  26.069  36.263  1.00  0.00     0.198 A 
ATOM     90  C   UNL A   1      47.070  27.884  35.458  1.00  0.00     0.198 A 
ATOM     91  F   UNL A   1      46.206  29.375  33.854  1.00  0.00    -0.203 F 
ATOM     92  F   UNL A   1      45.552  25.016  37.074  1.00  0.00    -0.200 F 
ATOM     93  C   UNL A   1      46.910  26.777  36.279  1.00  0.00     0.200 A 
ATOM     94  F   UNL A   1      48.224  28.565  35.470  1.00  0.00    -0.200 F 
ATOM     95  F   UNL A   1      47.902  26.399  37.096  1.00  0.00    -0.200 F 
ENDBRANCH  62  85
ENDBRANCH  36  37
ENDBRANCH  29  31
ENDBRANCH  28  29
ENDBRANCH  27  28
ENDBRANCH  26  27
ENDBRANCH   1  26
TORSDOF 18
ENDMDL
