MODEL 1
REMARK VINA RESULT:     -13.4      0.000      0.000
REMARK SMILES COc1ccccc1[C@@H]1C[N@@H+](Cc2cn3cc(C)ccc3n2)C[C@H]1C(=O)OCCOC(=O)c1ccc(-c2c3nc(c(-c4c(F)c(F)c(F)c(F)c4F)c4ccc([nH]4)c(-c4c(F)c(F)c(F)c(F)c4F)c4nc(c(-c5c(F)c(F)c(F)c(F)c5F)c5ccc2[nH]5)C=C4)C=C3)cc1
REMARK SMILES IDX 28 1 27 2 25 3 26 4 24 5 9 6 10 7 11 8 23 9 8 11 3 12 4 13
REMARK SMILES IDX 5 14 7 15 6 16 2 17 1 18 12 19 13 20 14 21 22 22 15 23 21 24
REMARK SMILES IDX 16 25 20 26 17 27 19 28 18 29 29 30 30 31 31 32 32 33 33 34
REMARK SMILES IDX 34 35 95 36 35 37 94 38 36 39 37 40 38 41 88 42 39 43 93 44
REMARK SMILES IDX 87 45 89 46 40 47 92 48 86 49 85 50 41 52 73 53 53 54 72 55
REMARK SMILES IDX 54 56 57 57 71 58 90 59 55 60 56 61 70 63 91 64 58 65 42 66
REMARK SMILES IDX 43 67 51 68 44 69 45 70 49 71 52 72 46 73 47 74 50 75 48 76
REMARK SMILES IDX 74 77 75 78 83 79 76 80 77 81 81 82 84 83 78 84 79 85 82 86
REMARK SMILES IDX 80 87 59 88 60 89 68 90 61 91 62 92 66 93 69 94 63 95 64 96
REMARK SMILES IDX 67 97 65 98
REMARK H PARENT 11 10 89 51 57 62
REMARK Flexibility Score: inf
ROOT
ATOM      1  C   UNL A   1      37.173  21.736  24.153  1.00  0.00     0.274 C 
ENDROOT
BRANCH   1   2
ATOM      2  O   UNL A   1      36.935  23.141  24.365  1.00  0.00    -0.462 OA
BRANCH   2   3
ATOM      3  C   UNL A   1      35.755  23.654  23.931  1.00  0.00     0.315 C 
ATOM      4  O   UNL A   1      35.381  23.626  22.762  1.00  0.00    -0.252 OA
BRANCH   3   5
ATOM      5  C   UNL A   1      34.969  24.358  25.016  1.00  0.00     0.167 C 
ATOM      6  C   UNL A   1      33.642  25.023  24.639  1.00  0.00     0.098 C 
ATOM      7  C   UNL A   1      32.919  25.052  25.992  1.00  0.00     0.272 C 
ATOM      8  N   UNL A   1      33.292  23.811  26.685  1.00  0.00    -0.329 N 
ATOM      9  C   UNL A   1      34.590  23.382  26.137  1.00  0.00     0.278 C 
ATOM     10  H   UNL A   1      33.381  23.994  27.684  1.00  0.00     0.348 HD
BRANCH   6  11
ATOM     11  C   UNL A   1      33.618  26.384  23.959  1.00  0.00     0.004 A 
ATOM     12  C   UNL A   1      33.493  26.597  22.578  1.00  0.00     0.122 A 
ATOM     13  C   UNL A   1      33.489  27.896  22.046  1.00  0.00     0.047 A 
ATOM     14  C   UNL A   1      33.637  29.003  22.883  1.00  0.00     0.004 A 
ATOM     15  C   UNL A   1      33.815  27.520  24.772  1.00  0.00     0.008 A 
ATOM     16  C   UNL A   1      33.820  28.814  24.247  1.00  0.00     0.001 A 
BRANCH  12  17
ATOM     17  O   UNL A   1      33.584  25.543  21.710  1.00  0.00    -0.496 OA
ATOM     18  C   UNL A   1      32.634  25.598  20.653  1.00  0.00     0.278 C 
ENDBRANCH  12  17
ENDBRANCH   6  11
BRANCH   8  19
ATOM     19  C   UNL A   1      32.254  22.766  26.657  1.00  0.00     0.321 C 
BRANCH  19  20
ATOM     20  C   UNL A   1      32.570  21.599  25.768  1.00  0.00     0.114 A 
ATOM     21  C   UNL A   1      33.362  20.500  26.041  1.00  0.00     0.122 A 
ATOM     22  N   UNL A   1      32.023  21.489  24.505  1.00  0.00    -0.228 NA
ATOM     23  N   UNL A   1      33.230  19.664  24.963  1.00  0.00    -0.306 N 
ATOM     24  C   UNL A   1      32.405  20.313  24.055  1.00  0.00     0.137 A 
ATOM     25  C   UNL A   1      33.773  18.400  24.746  1.00  0.00     0.096 A 
ATOM     26  C   UNL A   1      32.101  19.620  22.851  1.00  0.00     0.048 A 
ATOM     27  C   UNL A   1      33.496  17.744  23.601  1.00  0.00    -0.034 A 
ATOM     28  C   UNL A   1      32.608  18.391  22.635  1.00  0.00     0.009 A 
ATOM     29  C   UNL A   1      34.040  16.390  23.271  1.00  0.00     0.046 C 
ENDBRANCH  19  20
ENDBRANCH   8  19
ENDBRANCH   3   5
ENDBRANCH   2   3
ENDBRANCH   1   2
BRANCH   1  30
ATOM     30  C   UNL A   1      37.975  21.099  25.283  1.00  0.00     0.275 C 
BRANCH  30  31
ATOM     31  O   UNL A   1      38.356  22.050  26.281  1.00  0.00    -0.458 OA
BRANCH  31  32
ATOM     32  C   UNL A   1      39.669  22.005  26.574  1.00  0.00     0.338 C 
ATOM     33  O   UNL A   1      40.361  20.999  26.699  1.00  0.00    -0.246 OA
BRANCH  32  34
ATOM     34  C   UNL A   1      40.170  23.327  26.924  1.00  0.00     0.060 A 
ATOM     35  C   UNL A   1      41.288  23.412  27.753  1.00  0.00     0.016 A 
ATOM     36  C   UNL A   1      39.389  24.448  26.629  1.00  0.00     0.016 A 
ATOM     37  C   UNL A   1      41.565  24.608  28.386  1.00  0.00     0.010 A 
ATOM     38  C   UNL A   1      39.682  25.651  27.241  1.00  0.00     0.010 A 
ATOM     39  C   UNL A   1      40.736  25.714  28.158  1.00  0.00    -0.014 A 
BRANCH  39  40
ATOM     40  C   UNL A   1      41.096  26.978  28.790  1.00  0.00     0.031 A 
ATOM     41  C   UNL A   1      42.307  27.622  28.223  1.00  0.00     0.074 A 
ATOM     42  C   UNL A   1      40.315  27.615  29.685  1.00  0.00     0.049 A 
ATOM     43  N   UNL A   1      43.353  28.044  28.853  1.00  0.00    -0.248 NA
ATOM     44  C   UNL A   1      42.393  27.749  26.757  1.00  0.00     0.031 C 
ATOM     45  C   UNL A   1      38.968  27.222  30.106  1.00  0.00     0.029 A 
ATOM     46  N   UNL A   1      40.500  28.823  30.302  1.00  0.00    -0.354 N 
ATOM     47  C   UNL A   1      44.154  28.648  27.890  1.00  0.00     0.074 A 
ATOM     48  C   UNL A   1      43.582  28.333  26.608  1.00  0.00     0.031 C 
ATOM     49  C   UNL A   1      38.372  28.272  30.706  1.00  0.00     0.029 A 
ATOM     50  C   UNL A   1      39.330  29.360  30.821  1.00  0.00     0.049 A 
ATOM     51  H   UNL A   1      41.376  29.267  30.371  1.00  0.00     0.167 HD
ATOM     52  C   UNL A   1      45.065  29.591  28.237  1.00  0.00     0.037 A 
ATOM     53  C   UNL A   1      39.128  30.626  31.253  1.00  0.00     0.037 A 
ATOM     54  C   UNL A   1      45.383  29.545  29.637  1.00  0.00     0.049 A 
ATOM     55  C   UNL A   1      40.436  31.223  31.603  1.00  0.00     0.074 A 
ATOM     56  C   UNL A   1      46.102  28.727  30.478  1.00  0.00     0.029 A 
ATOM     57  N   UNL A   1      44.612  30.357  30.420  1.00  0.00    -0.354 N 
ATOM     58  N   UNL A   1      41.157  30.856  32.624  1.00  0.00    -0.248 NA
ATOM     59  C   UNL A   1      41.106  32.110  30.657  1.00  0.00     0.031 C 
ATOM     60  C   UNL A   1      45.581  28.947  31.789  1.00  0.00     0.029 A 
ATOM     61  C   UNL A   1      44.560  29.891  31.705  1.00  0.00     0.049 A 
ATOM     62  H   UNL A   1      44.156  31.168  30.102  1.00  0.00     0.167 HD
ATOM     63  C   UNL A   1      42.456  31.088  32.222  1.00  0.00     0.074 A 
ATOM     64  C   UNL A   1      42.353  32.041  31.129  1.00  0.00     0.031 C 
ATOM     65  C   UNL A   1      43.452  30.225  32.572  1.00  0.00     0.037 A 
BRANCH  52  66
ATOM     66  C   UNL A   1      45.282  30.861  27.443  1.00  0.00     0.064 A 
ATOM     67  C   UNL A   1      46.585  31.181  27.012  1.00  0.00     0.173 A 
ATOM     68  C   UNL A   1      44.349  31.921  27.416  1.00  0.00     0.173 A 
ATOM     69  F   UNL A   1      47.555  30.254  27.030  1.00  0.00    -0.203 F 
ATOM     70  C   UNL A   1      46.940  32.484  26.653  1.00  0.00     0.198 A 
ATOM     71  C   UNL A   1      44.696  33.207  27.007  1.00  0.00     0.198 A 
ATOM     72  F   UNL A   1      43.109  31.789  27.903  1.00  0.00    -0.203 F 
ATOM     73  F   UNL A   1      48.219  32.772  26.375  1.00  0.00    -0.200 F 
ATOM     74  C   UNL A   1      45.998  33.496  26.656  1.00  0.00     0.200 A 
ATOM     75  F   UNL A   1      43.776  34.181  27.045  1.00  0.00    -0.200 F 
ATOM     76  F   UNL A   1      46.351  34.757  26.378  1.00  0.00    -0.200 F 
ENDBRANCH  52  66
BRANCH  53  77
ATOM     77  C   UNL A   1      37.876  31.417  31.249  1.00  0.00     0.064 A 
ATOM     78  C   UNL A   1      37.109  31.565  32.417  1.00  0.00     0.173 A 
ATOM     79  C   UNL A   1      37.530  32.248  30.166  1.00  0.00     0.173 A 
ATOM     80  F   UNL A   1      37.397  30.846  33.511  1.00  0.00    -0.203 F 
ATOM     81  C   UNL A   1      36.078  32.504  32.504  1.00  0.00     0.198 A 
ATOM     82  C   UNL A   1      36.488  33.171  30.247  1.00  0.00     0.198 A 
ATOM     83  F   UNL A   1      38.252  32.247  29.036  1.00  0.00    -0.203 F 
ATOM     84  F   UNL A   1      35.417  32.663  33.657  1.00  0.00    -0.200 F 
ATOM     85  C   UNL A   1      35.773  33.311  31.420  1.00  0.00     0.200 A 
ATOM     86  F   UNL A   1      36.222  33.965  29.200  1.00  0.00    -0.200 F 
ATOM     87  F   UNL A   1      34.820  34.247  31.520  1.00  0.00    -0.200 F 
ENDBRANCH  53  77
BRANCH  65  88
ATOM     88  C   UNL A   1      43.260  29.446  33.834  1.00  0.00     0.064 A 
ATOM     89  C   UNL A   1      43.652  29.885  35.109  1.00  0.00     0.173 A 
ATOM     90  C   UNL A   1      42.629  28.197  33.743  1.00  0.00     0.173 A 
ATOM     91  F   UNL A   1      44.172  31.107  35.290  1.00  0.00    -0.203 F 
ATOM     92  C   UNL A   1      43.488  29.073  36.229  1.00  0.00     0.198 A 
ATOM     93  C   UNL A   1      42.427  27.407  34.869  1.00  0.00     0.198 A 
ATOM     94  F   UNL A   1      42.190  27.749  32.556  1.00  0.00    -0.203 F 
ATOM     95  F   UNL A   1      43.914  29.491  37.429  1.00  0.00    -0.200 F 
ATOM     96  C   UNL A   1      42.876  27.835  36.108  1.00  0.00     0.200 A 
ATOM     97  F   UNL A   1      41.795  26.231  34.754  1.00  0.00    -0.200 F 
ATOM     98  F   UNL A   1      42.703  27.061  37.188  1.00  0.00    -0.200 F 
ENDBRANCH  65  88
ENDBRANCH  39  40
ENDBRANCH  32  34
ENDBRANCH  31  32
ENDBRANCH  30  31
ENDBRANCH   1  30
TORSDOF 15
ENDMDL
MODEL 2
REMARK VINA RESULT:     -13.3      1.443      4.239
REMARK SMILES COc1ccccc1[C@@H]1C[N@@H+](Cc2cn3cc(C)ccc3n2)C[C@H]1C(=O)OCCOC(=O)c1ccc(-c2c3nc(c(-c4c(F)c(F)c(F)c(F)c4F)c4ccc([nH]4)c(-c4c(F)c(F)c(F)c(F)c4F)c4nc(c(-c5c(F)c(F)c(F)c(F)c5F)c5ccc2[nH]5)C=C4)C=C3)cc1
REMARK SMILES IDX 28 1 27 2 25 3 26 4 24 5 9 6 10 7 11 8 23 9 8 11 3 12 4 13
REMARK SMILES IDX 5 14 7 15 6 16 2 17 1 18 12 19 13 20 14 21 22 22 15 23 21 24
REMARK SMILES IDX 16 25 20 26 17 27 19 28 18 29 29 30 30 31 31 32 32 33 33 34
REMARK SMILES IDX 34 35 95 36 35 37 94 38 36 39 37 40 38 41 88 42 39 43 93 44
REMARK SMILES IDX 87 45 89 46 40 47 92 48 86 49 85 50 41 52 73 53 53 54 72 55
REMARK SMILES IDX 54 56 57 57 71 58 90 59 55 60 56 61 70 63 91 64 58 65 42 66
REMARK SMILES IDX 43 67 51 68 44 69 45 70 49 71 52 72 46 73 47 74 50 75 48 76
REMARK SMILES IDX 74 77 75 78 83 79 76 80 77 81 81 82 84 83 78 84 79 85 82 86
REMARK SMILES IDX 80 87 59 88 60 89 68 90 61 91 62 92 66 93 69 94 63 95 64 96
REMARK SMILES IDX 67 97 65 98
REMARK H PARENT 11 10 89 51 57 62
REMARK Flexibility Score: inf
ROOT
ATOM      1  C   UNL A   1      36.624  22.570  23.737  1.00  0.00     0.274 C 
ENDROOT
BRANCH   1   2
ATOM      2  O   UNL A   1      36.310  23.762  24.481  1.00  0.00    -0.462 OA
BRANCH   2   3
ATOM      3  C   UNL A   1      35.000  24.071  24.656  1.00  0.00     0.315 C 
ATOM      4  O   UNL A   1      34.544  24.592  25.671  1.00  0.00    -0.252 OA
BRANCH   3   5
ATOM      5  C   UNL A   1      34.118  23.627  23.509  1.00  0.00     0.167 C 
ATOM      6  C   UNL A   1      32.774  22.969  23.835  1.00  0.00     0.098 C 
ATOM      7  C   UNL A   1      31.982  23.234  22.549  1.00  0.00     0.272 C 
ATOM      8  N   UNL A   1      32.395  24.564  22.078  1.00  0.00    -0.329 N 
ATOM      9  C   UNL A   1      33.742  24.816  22.616  1.00  0.00     0.278 C 
ATOM     10  H   UNL A   1      32.421  24.571  21.059  1.00  0.00     0.348 HD
BRANCH   6  11
ATOM     11  C   UNL A   1      32.702  21.507  24.250  1.00  0.00     0.004 A 
ATOM     12  C   UNL A   1      32.824  21.030  25.563  1.00  0.00     0.122 A 
ATOM     13  C   UNL A   1      32.751  19.656  25.841  1.00  0.00     0.047 A 
ATOM     14  C   UNL A   1      32.580  18.733  24.809  1.00  0.00     0.004 A 
ATOM     15  C   UNL A   1      32.579  20.546  23.223  1.00  0.00     0.008 A 
ATOM     16  C   UNL A   1      32.515  19.178  23.494  1.00  0.00     0.001 A 
BRANCH  12  17
ATOM     17  O   UNL A   1      33.225  21.872  26.565  1.00  0.00    -0.496 OA
ATOM     18  C   UNL A   1      34.415  21.447  27.218  1.00  0.00     0.278 C 
ENDBRANCH  12  17
ENDBRANCH   6  11
BRANCH   8  19
ATOM     19  C   UNL A   1      31.425  25.636  22.365  1.00  0.00     0.321 C 
BRANCH  19  20
ATOM     20  C   UNL A   1      31.786  26.507  23.532  1.00  0.00     0.114 A 
ATOM     21  C   UNL A   1      32.478  27.704  23.529  1.00  0.00     0.122 A 
ATOM     22  N   UNL A   1      31.398  26.185  24.817  1.00  0.00    -0.228 NA
ATOM     23  N   UNL A   1      32.438  28.164  24.820  1.00  0.00    -0.306 N 
ATOM     24  C   UNL A   1      31.770  27.202  25.564  1.00  0.00     0.137 A 
ATOM     25  C   UNL A   1      32.935  29.348  25.357  1.00  0.00     0.096 A 
ATOM     26  C   UNL A   1      31.583  27.473  26.947  1.00  0.00     0.048 A 
ATOM     27  C   UNL A   1      32.770  29.604  26.671  1.00  0.00    -0.034 A 
ATOM     28  C   UNL A   1      32.047  28.621  27.477  1.00  0.00     0.009 A 
ATOM     29  C   UNL A   1      33.277  30.841  27.342  1.00  0.00     0.046 C 
ENDBRANCH  19  20
ENDBRANCH   8  19
ENDBRANCH   3   5
ENDBRANCH   2   3
ENDBRANCH   1   2
BRANCH   1  30
ATOM     30  C   UNL A   1      37.398  21.548  24.562  1.00  0.00     0.275 C 
BRANCH  30  31
ATOM     31  O   UNL A   1      37.725  22.040  25.865  1.00  0.00    -0.458 OA
BRANCH  31  32
ATOM     32  C   UNL A   1      39.051  22.081  26.092  1.00  0.00     0.338 C 
ATOM     33  O   UNL A   1      39.880  21.237  25.765  1.00  0.00    -0.246 OA
BRANCH  32  34
ATOM     34  C   UNL A   1      39.395  23.193  26.968  1.00  0.00     0.060 A 
ATOM     35  C   UNL A   1      38.614  24.347  26.908  1.00  0.00     0.016 A 
ATOM     36  C   UNL A   1      40.614  23.167  27.650  1.00  0.00     0.016 A 
ATOM     37  C   UNL A   1      39.110  25.521  27.440  1.00  0.00     0.010 A 
ATOM     38  C   UNL A   1      41.098  24.335  28.207  1.00  0.00     0.010 A 
ATOM     39  C   UNL A   1      40.370  25.519  28.052  1.00  0.00    -0.014 A 
BRANCH  39  40
ATOM     40  C   UNL A   1      40.834  26.761  28.661  1.00  0.00     0.031 A 
ATOM     41  C   UNL A   1      42.100  27.286  28.090  1.00  0.00     0.074 A 
ATOM     42  C   UNL A   1      40.107  27.481  29.538  1.00  0.00     0.049 A 
ATOM     43  N   UNL A   1      43.175  27.628  28.719  1.00  0.00    -0.248 NA
ATOM     44  C   UNL A   1      42.204  27.374  26.623  1.00  0.00     0.031 C 
ATOM     45  C   UNL A   1      38.729  27.215  29.958  1.00  0.00     0.029 A 
ATOM     46  N   UNL A   1      40.393  28.681  30.132  1.00  0.00    -0.354 N 
ATOM     47  C   UNL A   1      44.030  28.141  27.750  1.00  0.00     0.074 A 
ATOM     48  C   UNL A   1      43.440  27.849  26.470  1.00  0.00     0.031 C 
ATOM     49  C   UNL A   1      38.223  28.325  30.532  1.00  0.00     0.029 A 
ATOM     50  C   UNL A   1      39.271  29.328  30.631  1.00  0.00     0.049 A 
ATOM     51  H   UNL A   1      41.304  29.049  30.198  1.00  0.00     0.167 HD
ATOM     52  C   UNL A   1      45.018  29.008  28.083  1.00  0.00     0.037 A 
ATOM     53  C   UNL A   1      39.177  30.615  31.036  1.00  0.00     0.037 A 
ATOM     54  C   UNL A   1      45.324  28.964  29.487  1.00  0.00     0.049 A 
ATOM     55  C   UNL A   1      40.530  31.105  31.383  1.00  0.00     0.074 A 
ATOM     56  C   UNL A   1      45.964  28.105  30.349  1.00  0.00     0.029 A 
ATOM     57  N   UNL A   1      44.622  29.856  30.247  1.00  0.00    -0.354 N 
ATOM     58  N   UNL A   1      41.212  30.697  32.416  1.00  0.00    -0.248 NA
ATOM     59  C   UNL A   1      41.280  31.910  30.424  1.00  0.00     0.031 C 
ATOM     60  C   UNL A   1      45.458  28.396  31.651  1.00  0.00     0.029 A 
ATOM     61  C   UNL A   1      44.522  29.423  31.541  1.00  0.00     0.049 A 
ATOM     62  H   UNL A   1      44.239  30.697  29.909  1.00  0.00     0.167 HD
ATOM     63  C   UNL A   1      42.528  30.808  32.018  1.00  0.00     0.074 A 
ATOM     64  C   UNL A   1      42.513  31.743  30.905  1.00  0.00     0.031 C 
ATOM     65  C   UNL A   1      43.444  29.870  32.393  1.00  0.00     0.037 A 
BRANCH  52  66
ATOM     66  C   UNL A   1      45.349  30.237  27.266  1.00  0.00     0.064 A 
ATOM     67  C   UNL A   1      46.701  30.571  27.051  1.00  0.00     0.173 A 
ATOM     68  C   UNL A   1      44.415  31.267  27.011  1.00  0.00     0.173 A 
ATOM     69  F   UNL A   1      47.669  29.675  27.296  1.00  0.00    -0.203 F 
ATOM     70  C   UNL A   1      47.090  31.861  26.683  1.00  0.00     0.198 A 
ATOM     71  C   UNL A   1      44.805  32.537  26.593  1.00  0.00     0.198 A 
ATOM     72  F   UNL A   1      43.111  31.126  27.279  1.00  0.00    -0.203 F 
ATOM     73  F   UNL A   1      48.392  32.170  26.618  1.00  0.00    -0.200 F 
ATOM     74  C   UNL A   1      46.143  32.844  26.460  1.00  0.00     0.200 A 
ATOM     75  F   UNL A   1      43.874  33.485  26.410  1.00  0.00    -0.200 F 
ATOM     76  F   UNL A   1      46.516  34.098  26.173  1.00  0.00    -0.200 F 
ENDBRANCH  52  66
BRANCH  53  77
ATOM     77  C   UNL A   1      37.998  31.511  31.007  1.00  0.00     0.064 A 
ATOM     78  C   UNL A   1      37.465  31.968  29.790  1.00  0.00     0.173 A 
ATOM     79  C   UNL A   1      37.218  31.744  32.157  1.00  0.00     0.173 A 
ATOM     80  F   UNL A   1      38.119  31.749  28.641  1.00  0.00    -0.203 F 
ATOM     81  C   UNL A   1      36.218  32.594  29.725  1.00  0.00     0.198 A 
ATOM     82  C   UNL A   1      35.983  32.387  32.093  1.00  0.00     0.198 A 
ATOM     83  F   UNL A   1      37.595  31.273  33.354  1.00  0.00    -0.203 F 
ATOM     84  F   UNL A   1      35.713  32.951  28.537  1.00  0.00    -0.200 F 
ATOM     85  C   UNL A   1      35.475  32.798  30.876  1.00  0.00     0.200 A 
ATOM     86  F   UNL A   1      35.261  32.552  33.211  1.00  0.00    -0.200 F 
ATOM     87  F   UNL A   1      34.257  33.350  30.807  1.00  0.00    -0.200 F 
ENDBRANCH  53  77
BRANCH  65  88
ATOM     88  C   UNL A   1      43.178  29.136  33.669  1.00  0.00     0.064 A 
ATOM     89  C   UNL A   1      43.616  29.557  34.936  1.00  0.00     0.173 A 
ATOM     90  C   UNL A   1      42.425  27.956  33.602  1.00  0.00     0.173 A 
ATOM     91  F   UNL A   1      44.257  30.724  35.094  1.00  0.00    -0.203 F 
ATOM     92  C   UNL A   1      43.375  28.785  36.070  1.00  0.00     0.198 A 
ATOM     93  C   UNL A   1      42.148  27.210  34.742  1.00  0.00     0.198 A 
ATOM     94  F   UNL A   1      41.939  27.533  32.424  1.00  0.00    -0.203 F 
ATOM     95  F   UNL A   1      43.844  29.180  37.262  1.00  0.00    -0.200 F 
ATOM     96  C   UNL A   1      42.641  27.613  35.973  1.00  0.00     0.200 A 
ATOM     97  F   UNL A   1      41.400  26.102  34.649  1.00  0.00    -0.200 F 
ATOM     98  F   UNL A   1      42.395  26.880  37.067  1.00  0.00    -0.200 F 
ENDBRANCH  65  88
ENDBRANCH  39  40
ENDBRANCH  32  34
ENDBRANCH  31  32
ENDBRANCH  30  31
ENDBRANCH   1  30
TORSDOF 15
ENDMDL
MODEL 3
REMARK VINA RESULT:     -13.1      3.410      8.838
REMARK SMILES COc1ccccc1[C@@H]1C[N@@H+](Cc2cn3cc(C)ccc3n2)C[C@H]1C(=O)OCCOC(=O)c1ccc(-c2c3nc(c(-c4c(F)c(F)c(F)c(F)c4F)c4ccc([nH]4)c(-c4c(F)c(F)c(F)c(F)c4F)c4nc(c(-c5c(F)c(F)c(F)c(F)c5F)c5ccc2[nH]5)C=C4)C=C3)cc1
REMARK SMILES IDX 28 1 27 2 25 3 26 4 24 5 9 6 10 7 11 8 23 9 8 11 3 12 4 13
REMARK SMILES IDX 5 14 7 15 6 16 2 17 1 18 12 19 13 20 14 21 22 22 15 23 21 24
REMARK SMILES IDX 16 25 20 26 17 27 19 28 18 29 29 30 30 31 31 32 32 33 33 34
REMARK SMILES IDX 34 35 95 36 35 37 94 38 36 39 37 40 38 41 88 42 39 43 93 44
REMARK SMILES IDX 87 45 89 46 40 47 92 48 86 49 85 50 41 52 73 53 53 54 72 55
REMARK SMILES IDX 54 56 57 57 71 58 90 59 55 60 56 61 70 63 91 64 58 65 42 66
REMARK SMILES IDX 43 67 51 68 44 69 45 70 49 71 52 72 46 73 47 74 50 75 48 76
REMARK SMILES IDX 74 77 75 78 83 79 76 80 77 81 81 82 84 83 78 84 79 85 82 86
REMARK SMILES IDX 80 87 59 88 60 89 68 90 61 91 62 92 66 93 69 94 63 95 64 96
REMARK SMILES IDX 67 97 65 98
REMARK H PARENT 11 10 89 51 57 62
REMARK Flexibility Score: inf
ROOT
ATOM      1  C   UNL A   1      32.456  29.403  27.625  1.00  0.00     0.274 C 
ENDROOT
BRANCH   1   2
ATOM      2  O   UNL A   1      33.273  28.296  27.200  1.00  0.00    -0.462 OA
BRANCH   2   3
ATOM      3  C   UNL A   1      32.659  27.264  26.566  1.00  0.00     0.315 C 
ATOM      4  O   UNL A   1      31.523  26.876  26.823  1.00  0.00    -0.252 OA
BRANCH   3   5
ATOM      5  C   UNL A   1      33.546  26.562  25.560  1.00  0.00     0.167 C 
ATOM      6  C   UNL A   1      33.150  25.159  25.093  1.00  0.00     0.098 C 
ATOM      7  C   UNL A   1      33.863  25.073  23.738  1.00  0.00     0.272 C 
ATOM      8  N   UNL A   1      33.789  26.416  23.148  1.00  0.00    -0.329 N 
ATOM      9  C   UNL A   1      33.643  27.371  24.260  1.00  0.00     0.278 C 
ATOM     10  H   UNL A   1      34.648  26.610  22.634  1.00  0.00     0.348 HD
BRANCH   6  11
ATOM     11  C   UNL A   1      33.436  23.940  25.959  1.00  0.00     0.004 A 
ATOM     12  C   UNL A   1      32.524  23.337  26.836  1.00  0.00     0.122 A 
ATOM     13  C   UNL A   1      32.889  22.217  27.599  1.00  0.00     0.047 A 
ATOM     14  C   UNL A   1      34.181  21.696  27.517  1.00  0.00     0.004 A 
ATOM     15  C   UNL A   1      34.748  23.421  25.935  1.00  0.00     0.008 A 
ATOM     16  C   UNL A   1      35.119  22.312  26.698  1.00  0.00     0.001 A 
BRANCH  12  17
ATOM     17  O   UNL A   1      31.335  23.953  27.120  1.00  0.00    -0.496 OA
ATOM     18  C   UNL A   1      30.200  23.132  26.872  1.00  0.00     0.278 C 
ENDBRANCH  12  17
ENDBRANCH   6  11
BRANCH   8  19
ATOM     19  C   UNL A   1      32.766  26.561  22.097  1.00  0.00     0.321 C 
BRANCH  19  20
ATOM     20  C   UNL A   1      31.588  27.405  22.486  1.00  0.00     0.114 A 
ATOM     21  C   UNL A   1      31.505  28.783  22.564  1.00  0.00     0.122 A 
ATOM     22  N   UNL A   1      30.367  26.837  22.793  1.00  0.00    -0.228 NA
ATOM     23  N   UNL A   1      30.193  29.065  22.838  1.00  0.00    -0.306 N 
ATOM     24  C   UNL A   1      29.542  27.847  22.969  1.00  0.00     0.137 A 
ATOM     25  C   UNL A   1      29.558  30.298  22.967  1.00  0.00     0.096 A 
ATOM     26  C   UNL A   1      28.146  27.887  23.235  1.00  0.00     0.048 A 
ATOM     27  C   UNL A   1      28.236  30.341  23.231  1.00  0.00    -0.034 A 
ATOM     28  C   UNL A   1      27.516  29.073  23.349  1.00  0.00     0.009 A 
ATOM     29  C   UNL A   1      27.468  31.613  23.399  1.00  0.00     0.046 C 
ENDBRANCH  19  20
ENDBRANCH   8  19
ENDBRANCH   3   5
ENDBRANCH   2   3
ENDBRANCH   1   2
BRANCH   1  30
ATOM     30  C   UNL A   1      32.932  30.736  27.056  1.00  0.00     0.275 C 
BRANCH  30  31
ATOM     31  O   UNL A   1      34.357  30.850  27.063  1.00  0.00    -0.458 OA
BRANCH  31  32
ATOM     32  C   UNL A   1      34.823  31.529  28.128  1.00  0.00     0.338 C 
ATOM     33  O   UNL A   1      34.414  32.605  28.552  1.00  0.00    -0.246 OA
BRANCH  32  34
ATOM     34  C   UNL A   1      36.041  30.916  28.643  1.00  0.00     0.060 A 
ATOM     35  C   UNL A   1      37.046  31.752  29.130  1.00  0.00     0.016 A 
ATOM     36  C   UNL A   1      36.265  29.557  28.414  1.00  0.00     0.016 A 
ATOM     37  C   UNL A   1      38.322  31.248  29.283  1.00  0.00     0.010 A 
ATOM     38  C   UNL A   1      37.536  29.045  28.593  1.00  0.00     0.010 A 
ATOM     39  C   UNL A   1      38.571  29.904  28.975  1.00  0.00    -0.014 A 
BRANCH  39  40
ATOM     40  C   UNL A   1      39.915  29.387  29.211  1.00  0.00     0.031 A 
ATOM     41  C   UNL A   1      40.280  29.267  30.645  1.00  0.00     0.074 A 
ATOM     42  C   UNL A   1      40.705  28.887  28.240  1.00  0.00     0.049 A 
ATOM     43  N   UNL A   1      41.328  29.733  31.241  1.00  0.00    -0.248 NA
ATOM     44  C   UNL A   1      39.320  28.602  31.543  1.00  0.00     0.031 C 
ATOM     45  C   UNL A   1      40.343  28.689  26.835  1.00  0.00     0.029 A 
ATOM     46  N   UNL A   1      41.947  28.320  28.332  1.00  0.00    -0.354 N 
ATOM     47  C   UNL A   1      41.251  29.272  32.551  1.00  0.00     0.074 A 
ATOM     48  C   UNL A   1      39.945  28.691  32.717  1.00  0.00     0.031 C 
ATOM     49  C   UNL A   1      41.228  27.844  26.269  1.00  0.00     0.029 A 
ATOM     50  C   UNL A   1      42.279  27.545  27.230  1.00  0.00     0.049 A 
ATOM     51  H   UNL A   1      42.547  28.450  29.101  1.00  0.00     0.167 HD
ATOM     52  C   UNL A   1      42.366  29.155  33.314  1.00  0.00     0.037 A 
ATOM     53  C   UNL A   1      43.299  26.663  27.122  1.00  0.00     0.037 A 
ATOM     54  C   UNL A   1      43.457  29.934  32.795  1.00  0.00     0.049 A 
ATOM     55  C   UNL A   1      44.334  27.008  28.123  1.00  0.00     0.074 A 
ATOM     56  C   UNL A   1      43.799  31.265  32.727  1.00  0.00     0.029 A 
ATOM     57  N   UNL A   1      44.275  29.259  31.933  1.00  0.00    -0.354 N 
ATOM     58  N   UNL A   1      45.082  28.074  28.062  1.00  0.00    -0.248 NA
ATOM     59  C   UNL A   1      44.399  26.275  29.383  1.00  0.00     0.031 C 
ATOM     60  C   UNL A   1      44.720  31.384  31.642  1.00  0.00     0.029 A 
ATOM     61  C   UNL A   1      44.909  30.123  31.082  1.00  0.00     0.049 A 
ATOM     62  H   UNL A   1      44.393  28.282  31.926  1.00  0.00     0.167 HD
ATOM     63  C   UNL A   1      45.344  28.378  29.382  1.00  0.00     0.074 A 
ATOM     64  C   UNL A   1      45.096  27.148  30.114  1.00  0.00     0.031 C 
ATOM     65  C   UNL A   1      45.390  29.677  29.795  1.00  0.00     0.037 A 
BRANCH  52  66
ATOM     66  C   UNL A   1      42.632  27.969  34.214  1.00  0.00     0.064 A 
ATOM     67  C   UNL A   1      43.063  26.758  33.637  1.00  0.00     0.173 A 
ATOM     68  C   UNL A   1      42.135  27.878  35.533  1.00  0.00     0.173 A 
ATOM     69  F   UNL A   1      43.521  26.730  32.376  1.00  0.00    -0.203 F 
ATOM     70  C   UNL A   1      42.935  25.539  34.307  1.00  0.00     0.198 A 
ATOM     71  C   UNL A   1      42.058  26.666  36.217  1.00  0.00     0.198 A 
ATOM     72  F   UNL A   1      41.588  28.926  36.161  1.00  0.00    -0.203 F 
ATOM     73  F   UNL A   1      43.235  24.397  33.673  1.00  0.00    -0.200 F 
ATOM     74  C   UNL A   1      42.427  25.493  35.593  1.00  0.00     0.200 A 
ATOM     75  F   UNL A   1      41.537  26.638  37.452  1.00  0.00    -0.200 F 
ATOM     76  F   UNL A   1      42.241  24.320  36.211  1.00  0.00    -0.200 F 
ENDBRANCH  52  66
BRANCH  53  77
ATOM     77  C   UNL A   1      43.380  25.435  26.297  1.00  0.00     0.064 A 
ATOM     78  C   UNL A   1      44.445  25.231  25.405  1.00  0.00     0.173 A 
ATOM     79  C   UNL A   1      42.549  24.324  26.543  1.00  0.00     0.173 A 
ATOM     80  F   UNL A   1      45.311  26.221  25.147  1.00  0.00    -0.203 F 
ATOM     81  C   UNL A   1      44.679  23.986  24.815  1.00  0.00     0.198 A 
ATOM     82  C   UNL A   1      42.772  23.088  25.938  1.00  0.00     0.198 A 
ATOM     83  F   UNL A   1      41.557  24.388  27.443  1.00  0.00    -0.203 F 
ATOM     84  F   UNL A   1      45.746  23.814  24.024  1.00  0.00    -0.200 F 
ATOM     85  C   UNL A   1      43.846  22.914  25.087  1.00  0.00     0.200 A 
ATOM     86  F   UNL A   1      41.974  22.051  26.233  1.00  0.00    -0.200 F 
ATOM     87  F   UNL A   1      44.101  21.708  24.564  1.00  0.00    -0.200 F 
ENDBRANCH  53  77
BRANCH  65  88
ATOM     88  C   UNL A   1      45.772  30.699  28.772  1.00  0.00     0.064 A 
ATOM     89  C   UNL A   1      44.870  31.321  27.891  1.00  0.00     0.173 A 
ATOM     90  C   UNL A   1      47.119  31.078  28.695  1.00  0.00     0.173 A 
ATOM     91  F   UNL A   1      43.554  31.085  27.969  1.00  0.00    -0.203 F 
ATOM     92  C   UNL A   1      45.317  32.223  26.928  1.00  0.00     0.198 A 
ATOM     93  C   UNL A   1      47.556  32.011  27.761  1.00  0.00     0.198 A 
ATOM     94  F   UNL A   1      48.016  30.552  29.545  1.00  0.00    -0.203 F 
ATOM     95  F   UNL A   1      44.448  32.768  26.065  1.00  0.00    -0.200 F 
ATOM     96  C   UNL A   1      46.658  32.567  26.864  1.00  0.00     0.200 A 
ATOM     97  F   UNL A   1      48.845  32.373  27.733  1.00  0.00    -0.200 F 
ATOM     98  F   UNL A   1      47.084  33.447  25.947  1.00  0.00    -0.200 F 
ENDBRANCH  65  88
ENDBRANCH  39  40
ENDBRANCH  32  34
ENDBRANCH  31  32
ENDBRANCH  30  31
ENDBRANCH   1  30
TORSDOF 15
ENDMDL
