MODEL 1
REMARK VINA RESULT:     -14.8      0.000      0.000
REMARK SMILES Cc1ccc(-c2csc(NC(=O)[C@H]3[C@@H](C(=O)OCCOC(=O)c4ccc(-c5c6nc(c(-c7c(F)c(F)c(F)c(F)c7F)c7ccc([nH]7)c(-c7c(F)c(F)c(F)c(F)c7F)c7nc(c(-c8c(F)c(F)c(F)c(F)c8F)c8ccc5[nH]8)C=C7)C=C6)cc4)[C@H]4C=C[C@@H]3C4)c2C(=O)NC2CC2)cc1
REMARK SMILES IDX 18 1 17 2 15 3 16 4 14 5 13 6 89 7 86 8 88 9 90 10 87 11
REMARK SMILES IDX 11 12 10 13 12 15 9 16 6 17 7 18 91 19 8 20 5 21 1 22 2 23
REMARK SMILES IDX 3 24 99 25 4 26 98 27 92 28 93 29 94 30 95 32 96 33 97 34
REMARK SMILES IDX 19 35 20 36 21 37 22 38 23 39 24 40 85 41 25 42 84 43 26 44
REMARK SMILES IDX 27 45 28 46 78 47 29 48 83 49 77 50 79 51 30 52 82 53 76 54
REMARK SMILES IDX 75 55 31 57 63 58 43 59 62 60 44 61 47 62 61 63 80 64 45 65
REMARK SMILES IDX 46 66 60 68 81 69 48 70 32 71 33 72 41 73 34 74 35 75 39 76
REMARK SMILES IDX 42 77 36 78 37 79 40 80 38 81 64 82 65 83 73 84 66 85 67 86
REMARK SMILES IDX 71 87 74 88 68 89 69 90 72 91 70 92 49 93 50 94 58 95 51 96
REMARK SMILES IDX 52 97 56 98 59 99 53 100 54 101 57 102 55 103
REMARK H PARENT 10 14 94 31 79 56 47 67
REMARK Flexibility Score: inf
ROOT
ATOM      1  C   UNL A   1      32.730  30.707  26.483  1.00  0.00     0.274 C 
ENDROOT
BRANCH   1   2
ATOM      2  O   UNL A   1      31.634  29.888  25.996  1.00  0.00    -0.462 OA
BRANCH   2   3
ATOM      3  C   UNL A   1      31.796  29.122  24.890  1.00  0.00     0.310 C 
ATOM      4  O   UNL A   1      32.799  29.186  24.204  1.00  0.00    -0.252 OA
BRANCH   3   5
ATOM      5  C   UNL A   1      30.693  28.089  24.725  1.00  0.00     0.119 C 
ATOM      6  C   UNL A   1      31.011  26.627  25.217  1.00  0.00     0.100 C 
ATOM      7  C   UNL A   1      30.391  25.774  24.087  1.00  0.00     0.025 C 
ATOM      8  C   UNL A   1      29.997  27.852  23.344  1.00  0.00     0.027 C 
ATOM      9  C   UNL A   1      31.136  25.917  22.793  1.00  0.00    -0.027 C 
ATOM     10  C   UNL A   1      29.158  26.620  23.708  1.00  0.00     0.017 C 
ATOM     11  C   UNL A   1      30.842  27.132  22.324  1.00  0.00    -0.027 C 
BRANCH   6  12
ATOM     12  C   UNL A   1      32.430  26.359  25.772  1.00  0.00     0.229 C 
ATOM     13  N   UNL A   1      33.270  25.486  25.136  1.00  0.00    -0.317 N 
ATOM     14  H   UNL A   1      34.033  25.850  24.632  1.00  0.00     0.170 HD
ATOM     15  O   UNL A   1      32.820  26.975  26.769  1.00  0.00    -0.274 OA
BRANCH  13  16
ATOM     16  C   UNL A   1      33.093  24.110  25.171  1.00  0.00     0.108 A 
ATOM     17  C   UNL A   1      32.842  21.881  24.616  1.00  0.00     0.007 A 
ATOM     18  C   UNL A   1      31.892  22.085  25.607  1.00  0.00     0.076 A 
ATOM     19  C   UNL A   1      33.618  23.104  24.346  1.00  0.00     0.082 A 
ATOM     20  S   UNL A   1      32.291  23.446  26.520  1.00  0.00    -0.125 S 
BRANCH  17  21
ATOM     21  C   UNL A   1      32.966  20.480  24.241  1.00  0.00    -0.017 A 
ATOM     22  C   UNL A   1      34.162  16.575  22.965  1.00  0.00     0.044 C 
ATOM     23  C   UNL A   1      33.602  17.846  23.530  1.00  0.00    -0.051 A 
ATOM     24  C   UNL A   1      34.292  18.462  24.570  1.00  0.00     0.004 A 
ATOM     25  C   UNL A   1      32.503  18.503  22.945  1.00  0.00     0.004 A 
ATOM     26  C   UNL A   1      33.957  19.755  24.935  1.00  0.00     0.009 A 
ATOM     27  C   UNL A   1      32.173  19.822  23.304  1.00  0.00     0.009 A 
ENDBRANCH  17  21
BRANCH  19  28
ATOM     28  C   UNL A   1      34.660  23.498  23.376  1.00  0.00     0.255 C 
ATOM     29  O   UNL A   1      34.338  24.199  22.409  1.00  0.00    -0.269 OA
ATOM     30  N   UNL A   1      36.021  23.314  23.464  1.00  0.00    -0.349 N 
ATOM     31  H   UNL A   1      36.473  23.627  22.647  1.00  0.00     0.164 HD
BRANCH  30  32
ATOM     32  C   UNL A   1      36.958  22.800  24.398  1.00  0.00     0.082 C 
ATOM     33  C   UNL A   1      36.631  22.130  25.681  1.00  0.00     0.027 C 
ATOM     34  C   UNL A   1      37.152  21.328  24.511  1.00  0.00     0.027 C 
ENDBRANCH  30  32
ENDBRANCH  19  28
ENDBRANCH  13  16
ENDBRANCH   6  12
ENDBRANCH   3   5
ENDBRANCH   2   3
ENDBRANCH   1   2
BRANCH   1  35
ATOM     35  C   UNL A   1      33.802  30.261  27.529  1.00  0.00     0.275 C 
BRANCH  35  36
ATOM     36  O   UNL A   1      35.254  30.156  27.362  1.00  0.00    -0.458 OA
BRANCH  36  37
ATOM     37  C   UNL A   1      36.240  30.861  27.950  1.00  0.00     0.338 C 
ATOM     38  O   UNL A   1      36.303  32.081  28.020  1.00  0.00    -0.246 OA
BRANCH  37  39
ATOM     39  C   UNL A   1      37.353  30.030  28.350  1.00  0.00     0.060 A 
ATOM     40  C   UNL A   1      37.206  29.175  29.446  1.00  0.00     0.016 A 
ATOM     41  C   UNL A   1      38.479  30.041  27.523  1.00  0.00     0.016 A 
ATOM     42  C   UNL A   1      38.170  28.219  29.644  1.00  0.00     0.010 A 
ATOM     43  C   UNL A   1      39.383  29.031  27.665  1.00  0.00     0.010 A 
ATOM     44  C   UNL A   1      39.217  28.145  28.740  1.00  0.00    -0.014 A 
BRANCH  44  45
ATOM     45  C   UNL A   1      40.423  27.462  29.117  1.00  0.00     0.031 A 
ATOM     46  C   UNL A   1      40.631  26.079  28.692  1.00  0.00     0.074 A 
ATOM     47  C   UNL A   1      41.272  28.412  29.558  1.00  0.00     0.049 A 
ATOM     48  N   UNL A   1      41.546  25.315  29.171  1.00  0.00    -0.248 NA
ATOM     49  C   UNL A   1      39.727  25.358  27.783  1.00  0.00     0.031 C 
ATOM     50  C   UNL A   1      42.694  28.598  29.402  1.00  0.00     0.029 A 
ATOM     51  N   UNL A   1      40.868  29.542  30.290  1.00  0.00    -0.354 N 
ATOM     52  C   UNL A   1      41.666  24.284  28.262  1.00  0.00     0.074 A 
ATOM     53  C   UNL A   1      40.369  24.190  27.645  1.00  0.00     0.031 C 
ATOM     54  C   UNL A   1      43.081  29.606  30.216  1.00  0.00     0.029 A 
ATOM     55  C   UNL A   1      41.945  29.982  31.052  1.00  0.00     0.049 A 
ATOM     56  H   UNL A   1      39.974  29.952  30.267  1.00  0.00     0.167 HD
ATOM     57  C   UNL A   1      42.928  23.887  27.920  1.00  0.00     0.037 A 
ATOM     58  C   UNL A   1      41.835  29.766  32.402  1.00  0.00     0.037 A 
ATOM     59  C   UNL A   1      43.901  24.675  28.693  1.00  0.00     0.049 A 
ATOM     60  C   UNL A   1      42.642  28.557  32.838  1.00  0.00     0.074 A 
ATOM     61  C   UNL A   1      44.670  25.790  28.402  1.00  0.00     0.029 A 
ATOM     62  N   UNL A   1      43.881  24.580  30.069  1.00  0.00    -0.354 N 
ATOM     63  N   UNL A   1      43.175  27.694  32.018  1.00  0.00    -0.248 NA
ATOM     64  C   UNL A   1      42.828  28.186  34.237  1.00  0.00     0.031 C 
ATOM     65  C   UNL A   1      45.077  26.376  29.644  1.00  0.00     0.029 A 
ATOM     66  C   UNL A   1      44.541  25.628  30.677  1.00  0.00     0.049 A 
ATOM     67  H   UNL A   1      43.446  23.847  30.561  1.00  0.00     0.167 HD
ATOM     68  C   UNL A   1      43.790  26.708  32.722  1.00  0.00     0.074 A 
ATOM     69  C   UNL A   1      43.498  27.029  34.111  1.00  0.00     0.031 C 
ATOM     70  C   UNL A   1      44.501  25.704  32.130  1.00  0.00     0.037 A 
BRANCH  57  71
ATOM     71  C   UNL A   1      43.347  23.059  26.721  1.00  0.00     0.064 A 
ATOM     72  C   UNL A   1      43.107  21.664  26.730  1.00  0.00     0.173 A 
ATOM     73  C   UNL A   1      44.002  23.525  25.563  1.00  0.00     0.173 A 
ATOM     74  F   UNL A   1      42.414  21.081  27.718  1.00  0.00    -0.203 F 
ATOM     75  C   UNL A   1      43.556  20.809  25.721  1.00  0.00     0.198 A 
ATOM     76  C   UNL A   1      44.451  22.666  24.551  1.00  0.00     0.198 A 
ATOM     77  F   UNL A   1      44.217  24.822  25.337  1.00  0.00    -0.203 F 
ATOM     78  F   UNL A   1      43.320  19.492  25.816  1.00  0.00    -0.200 F 
ATOM     79  C   UNL A   1      44.241  21.308  24.636  1.00  0.00     0.200 A 
ATOM     80  F   UNL A   1      45.092  23.174  23.487  1.00  0.00    -0.200 F 
ATOM     81  F   UNL A   1      44.678  20.488  23.671  1.00  0.00    -0.200 F 
ENDBRANCH  57  71
BRANCH  58  82
ATOM     82  C   UNL A   1      40.446  30.056  32.910  1.00  0.00     0.064 A 
ATOM     83  C   UNL A   1      40.013  31.399  32.978  1.00  0.00     0.173 A 
ATOM     84  C   UNL A   1      39.455  29.065  32.952  1.00  0.00     0.173 A 
ATOM     85  F   UNL A   1      40.912  32.397  32.978  1.00  0.00    -0.203 F 
ATOM     86  C   UNL A   1      38.661  31.731  32.911  1.00  0.00     0.198 A 
ATOM     87  C   UNL A   1      38.104  29.401  32.921  1.00  0.00     0.198 A 
ATOM     88  F   UNL A   1      39.779  27.765  32.917  1.00  0.00    -0.203 F 
ATOM     89  F   UNL A   1      38.287  33.016  32.833  1.00  0.00    -0.200 F 
ATOM     90  C   UNL A   1      37.713  30.727  32.847  1.00  0.00     0.200 A 
ATOM     91  F   UNL A   1      37.179  28.433  32.877  1.00  0.00    -0.200 F 
ATOM     92  F   UNL A   1      36.423  31.023  32.671  1.00  0.00    -0.200 F 
ENDBRANCH  58  82
BRANCH  70  93
ATOM     93  C   UNL A   1      45.245  24.686  32.934  1.00  0.00     0.064 A 
ATOM     94  C   UNL A   1      44.631  23.496  33.347  1.00  0.00     0.173 A 
ATOM     95  C   UNL A   1      46.548  24.920  33.418  1.00  0.00     0.173 A 
ATOM     96  F   UNL A   1      43.359  23.224  33.018  1.00  0.00    -0.203 F 
ATOM     97  C   UNL A   1      45.311  22.560  34.121  1.00  0.00     0.198 A 
ATOM     98  C   UNL A   1      47.193  24.023  34.259  1.00  0.00     0.198 A 
ATOM     99  F   UNL A   1      47.254  26.005  33.069  1.00  0.00    -0.203 F 
ATOM    100  F   UNL A   1      44.722  21.393  34.415  1.00  0.00    -0.200 F 
ATOM    101  C   UNL A   1      46.585  22.830  34.588  1.00  0.00     0.200 A 
ATOM    102  F   UNL A   1      48.409  24.320  34.735  1.00  0.00    -0.200 F 
ATOM    103  F   UNL A   1      47.228  21.939  35.352  1.00  0.00    -0.200 F 
ENDBRANCH  70  93
ENDBRANCH  44  45
ENDBRANCH  37  39
ENDBRANCH  36  37
ENDBRANCH  35  36
ENDBRANCH   1  35
TORSDOF 16
ENDMDL
MODEL 2
REMARK VINA RESULT:     -14.6      3.666     10.061
REMARK SMILES Cc1ccc(-c2csc(NC(=O)[C@H]3[C@@H](C(=O)OCCOC(=O)c4ccc(-c5c6nc(c(-c7c(F)c(F)c(F)c(F)c7F)c7ccc([nH]7)c(-c7c(F)c(F)c(F)c(F)c7F)c7nc(c(-c8c(F)c(F)c(F)c(F)c8F)c8ccc5[nH]8)C=C7)C=C6)cc4)[C@H]4C=C[C@@H]3C4)c2C(=O)NC2CC2)cc1
REMARK SMILES IDX 18 1 17 2 15 3 16 4 14 5 13 6 89 7 86 8 88 9 90 10 87 11
REMARK SMILES IDX 11 12 10 13 12 15 9 16 6 17 7 18 91 19 8 20 5 21 1 22 2 23
REMARK SMILES IDX 3 24 99 25 4 26 98 27 92 28 93 29 94 30 95 32 96 33 97 34
REMARK SMILES IDX 19 35 20 36 21 37 22 38 23 39 24 40 85 41 25 42 84 43 26 44
REMARK SMILES IDX 27 45 28 46 78 47 29 48 83 49 77 50 79 51 30 52 82 53 76 54
REMARK SMILES IDX 75 55 31 57 63 58 43 59 62 60 44 61 47 62 61 63 80 64 45 65
REMARK SMILES IDX 46 66 60 68 81 69 48 70 32 71 33 72 41 73 34 74 35 75 39 76
REMARK SMILES IDX 42 77 36 78 37 79 40 80 38 81 64 82 65 83 73 84 66 85 67 86
REMARK SMILES IDX 71 87 74 88 68 89 69 90 72 91 70 92 49 93 50 94 58 95 51 96
REMARK SMILES IDX 52 97 56 98 59 99 53 100 54 101 57 102 55 103
REMARK H PARENT 10 14 94 31 79 56 47 67
REMARK Flexibility Score: inf
ROOT
ATOM      1  C   UNL A   1      37.599  21.399  25.569  1.00  0.00     0.274 C 
ENDROOT
BRANCH   1   2
ATOM      2  O   UNL A   1      36.441  21.094  24.746  1.00  0.00    -0.462 OA
BRANCH   2   3
ATOM      3  C   UNL A   1      35.192  21.309  25.223  1.00  0.00     0.310 C 
ATOM      4  O   UNL A   1      34.982  21.533  26.401  1.00  0.00    -0.252 OA
BRANCH   3   5
ATOM      5  C   UNL A   1      34.152  21.410  24.119  1.00  0.00     0.119 C 
ATOM      6  C   UNL A   1      33.767  22.859  23.637  1.00  0.00     0.100 C 
ATOM      7  C   UNL A   1      32.234  22.743  23.485  1.00  0.00     0.025 C 
ATOM      8  C   UNL A   1      32.763  20.698  24.237  1.00  0.00     0.027 C 
ATOM      9  C   UNL A   1      31.542  22.578  24.805  1.00  0.00    -0.027 C 
ATOM     10  C   UNL A   1      32.087  21.288  22.993  1.00  0.00     0.017 C 
ATOM     11  C   UNL A   1      31.807  21.335  25.215  1.00  0.00    -0.027 C 
BRANCH   6  12
ATOM     12  C   UNL A   1      34.438  24.050  24.364  1.00  0.00     0.229 C 
ATOM     13  N   UNL A   1      33.680  24.963  25.044  1.00  0.00    -0.317 N 
ATOM     14  H   UNL A   1      33.694  24.946  26.028  1.00  0.00     0.170 HD
ATOM     15  O   UNL A   1      35.670  24.144  24.367  1.00  0.00    -0.274 OA
BRANCH  13  16
ATOM     16  C   UNL A   1      32.892  25.911  24.407  1.00  0.00     0.108 A 
ATOM     17  C   UNL A   1      31.136  27.228  23.684  1.00  0.00     0.007 A 
ATOM     18  C   UNL A   1      31.844  26.953  22.522  1.00  0.00     0.076 A 
ATOM     19  C   UNL A   1      31.774  26.623  24.867  1.00  0.00     0.082 A 
ATOM     20  S   UNL A   1      33.426  26.506  22.901  1.00  0.00    -0.125 S 
BRANCH  17  21
ATOM     21  C   UNL A   1      30.070  28.196  23.472  1.00  0.00    -0.017 A 
ATOM     22  C   UNL A   1      27.158  31.326  23.649  1.00  0.00     0.044 C 
ATOM     23  C   UNL A   1      28.173  30.255  23.382  1.00  0.00    -0.051 A 
ATOM     24  C   UNL A   1      29.518  30.568  23.552  1.00  0.00     0.004 A 
ATOM     25  C   UNL A   1      27.801  28.924  23.117  1.00  0.00     0.004 A 
ATOM     26  C   UNL A   1      30.455  29.549  23.571  1.00  0.00     0.009 A 
ATOM     27  C   UNL A   1      28.750  27.887  23.152  1.00  0.00     0.009 A 
ENDBRANCH  17  21
BRANCH  19  28
ATOM     28  C   UNL A   1      31.440  26.507  26.300  1.00  0.00     0.255 C 
ATOM     29  O   UNL A   1      30.943  25.451  26.712  1.00  0.00    -0.269 OA
ATOM     30  N   UNL A   1      31.741  27.382  27.320  1.00  0.00    -0.349 N 
ATOM     31  H   UNL A   1      31.348  27.080  28.171  1.00  0.00     0.164 HD
BRANCH  30  32
ATOM     32  C   UNL A   1      32.456  28.595  27.493  1.00  0.00     0.082 C 
ATOM     33  C   UNL A   1      33.225  29.309  26.444  1.00  0.00     0.027 C 
ATOM     34  C   UNL A   1      31.905  29.859  26.931  1.00  0.00     0.027 C 
ENDBRANCH  30  32
ENDBRANCH  19  28
ENDBRANCH  13  16
ENDBRANCH   6  12
ENDBRANCH   3   5
ENDBRANCH   2   3
ENDBRANCH   1   2
BRANCH   1  35
ATOM     35  C   UNL A   1      38.308  22.789  25.660  1.00  0.00     0.275 C 
BRANCH  35  36
ATOM     36  O   UNL A   1      38.586  23.597  26.849  1.00  0.00    -0.458 OA
BRANCH  36  37
ATOM     37  C   UNL A   1      39.760  23.865  27.453  1.00  0.00     0.338 C 
ATOM     38  O   UNL A   1      40.578  23.036  27.826  1.00  0.00    -0.246 OA
BRANCH  37  39
ATOM     39  C   UNL A   1      39.900  25.263  27.797  1.00  0.00     0.060 A 
ATOM     40  C   UNL A   1      40.256  26.177  26.803  1.00  0.00     0.016 A 
ATOM     41  C   UNL A   1      39.540  25.631  29.096  1.00  0.00     0.016 A 
ATOM     42  C   UNL A   1      40.128  27.514  27.089  1.00  0.00     0.010 A 
ATOM     43  C   UNL A   1      39.323  26.954  29.344  1.00  0.00     0.010 A 
ATOM     44  C   UNL A   1      39.639  27.874  28.334  1.00  0.00    -0.014 A 
BRANCH  44  45
ATOM     45  C   UNL A   1      39.867  29.207  28.819  1.00  0.00     0.031 A 
ATOM     46  C   UNL A   1      38.796  30.199  28.731  1.00  0.00     0.074 A 
ATOM     47  C   UNL A   1      40.994  29.153  29.558  1.00  0.00     0.049 A 
ATOM     48  N   UNL A   1      38.974  31.458  28.909  1.00  0.00    -0.248 NA
ATOM     49  C   UNL A   1      37.430  29.889  28.282  1.00  0.00     0.031 C 
ATOM     50  C   UNL A   1      41.379  29.785  30.796  1.00  0.00     0.029 A 
ATOM     51  N   UNL A   1      42.097  28.342  29.241  1.00  0.00    -0.354 N 
ATOM     52  C   UNL A   1      37.714  31.970  29.137  1.00  0.00     0.074 A 
ATOM     53  C   UNL A   1      36.825  31.073  28.446  1.00  0.00     0.031 C 
ATOM     54  C   UNL A   1      42.695  29.549  30.999  1.00  0.00     0.029 A 
ATOM     55  C   UNL A   1      43.236  28.906  29.805  1.00  0.00     0.049 A 
ATOM     56  H   UNL A   1      42.068  27.513  28.710  1.00  0.00     0.167 HD
ATOM     57  C   UNL A   1      37.574  32.874  30.153  1.00  0.00     0.037 A 
ATOM     58  C   UNL A   1      44.112  29.473  28.914  1.00  0.00     0.037 A 
ATOM     59  C   UNL A   1      38.894  33.126  30.752  1.00  0.00     0.049 A 
ATOM     60  C   UNL A   1      43.967  30.984  28.880  1.00  0.00     0.074 A 
ATOM     61  C   UNL A   1      39.534  32.648  31.883  1.00  0.00     0.029 A 
ATOM     62  N   UNL A   1      39.885  33.665  29.958  1.00  0.00    -0.354 N 
ATOM     63  N   UNL A   1      42.988  31.642  29.435  1.00  0.00    -0.248 NA
ATOM     64  C   UNL A   1      44.873  31.853  28.135  1.00  0.00     0.031 C 
ATOM     65  C   UNL A   1      40.937  32.885  31.724  1.00  0.00     0.029 A 
ATOM     66  C   UNL A   1      41.143  33.487  30.496  1.00  0.00     0.049 A 
ATOM     67  H   UNL A   1      39.713  34.125  29.105  1.00  0.00     0.167 HD
ATOM     68  C   UNL A   1      43.124  32.970  29.184  1.00  0.00     0.074 A 
ATOM     69  C   UNL A   1      44.291  33.050  28.318  1.00  0.00     0.031 C 
ATOM     70  C   UNL A   1      42.286  33.915  29.703  1.00  0.00     0.037 A 
BRANCH  57  71
ATOM     71  C   UNL A   1      36.292  33.309  30.839  1.00  0.00     0.064 A 
ATOM     72  C   UNL A   1      35.417  34.193  30.165  1.00  0.00     0.173 A 
ATOM     73  C   UNL A   1      35.865  32.947  32.132  1.00  0.00     0.173 A 
ATOM     74  F   UNL A   1      35.636  34.560  28.894  1.00  0.00    -0.203 F 
ATOM     75  C   UNL A   1      34.274  34.732  30.760  1.00  0.00     0.198 A 
ATOM     76  C   UNL A   1      34.717  33.485  32.727  1.00  0.00     0.198 A 
ATOM     77  F   UNL A   1      36.510  32.042  32.871  1.00  0.00    -0.203 F 
ATOM     78  F   UNL A   1      33.510  35.591  30.069  1.00  0.00    -0.200 F 
ATOM     79  C   UNL A   1      33.929  34.388  32.048  1.00  0.00     0.200 A 
ATOM     80  F   UNL A   1      34.382  33.117  33.974  1.00  0.00    -0.200 F 
ATOM     81  F   UNL A   1      32.836  34.908  32.622  1.00  0.00    -0.200 F 
ENDBRANCH  57  71
BRANCH  58  82
ATOM     82  C   UNL A   1      44.280  28.633  27.675  1.00  0.00     0.064 A 
ATOM     83  C   UNL A   1      45.010  27.426  27.765  1.00  0.00     0.173 A 
ATOM     84  C   UNL A   1      43.447  28.791  26.559  1.00  0.00     0.173 A 
ATOM     85  F   UNL A   1      45.853  27.224  28.790  1.00  0.00    -0.203 F 
ATOM     86  C   UNL A   1      44.781  26.371  26.884  1.00  0.00     0.198 A 
ATOM     87  C   UNL A   1      43.248  27.746  25.660  1.00  0.00     0.198 A 
ATOM     88  F   UNL A   1      42.739  29.914  26.381  1.00  0.00    -0.203 F 
ATOM     89  F   UNL A   1      45.382  25.188  27.080  1.00  0.00    -0.200 F 
ATOM     90  C   UNL A   1      43.871  26.526  25.854  1.00  0.00     0.200 A 
ATOM     91  F   UNL A   1      42.382  27.895  24.648  1.00  0.00    -0.200 F 
ATOM     92  F   UNL A   1      43.556  25.494  25.068  1.00  0.00    -0.200 F 
ENDBRANCH  58  82
BRANCH  70  93
ATOM     93  C   UNL A   1      42.517  35.376  29.487  1.00  0.00     0.064 A 
ATOM     94  C   UNL A   1      42.001  36.035  28.362  1.00  0.00     0.173 A 
ATOM     95  C   UNL A   1      43.357  36.135  30.326  1.00  0.00     0.173 A 
ATOM     96  F   UNL A   1      41.268  35.376  27.452  1.00  0.00    -0.203 F 
ATOM     97  C   UNL A   1      42.239  37.388  28.141  1.00  0.00     0.198 A 
ATOM     98  C   UNL A   1      43.661  37.463  30.057  1.00  0.00     0.198 A 
ATOM     99  F   UNL A   1      43.887  35.630  31.450  1.00  0.00    -0.203 F 
ATOM    100  F   UNL A   1      41.650  38.002  27.106  1.00  0.00    -0.200 F 
ATOM    101  C   UNL A   1      43.080  38.098  28.980  1.00  0.00     0.200 A 
ATOM    102  F   UNL A   1      44.510  38.122  30.857  1.00  0.00    -0.200 F 
ATOM    103  F   UNL A   1      43.327  39.393  28.753  1.00  0.00    -0.200 F 
ENDBRANCH  70  93
ENDBRANCH  44  45
ENDBRANCH  37  39
ENDBRANCH  36  37
ENDBRANCH  35  36
ENDBRANCH   1  35
TORSDOF 16
ENDMDL
MODEL 3
REMARK VINA RESULT:     -13.3      1.943      4.397
REMARK SMILES Cc1ccc(-c2csc(NC(=O)[C@H]3[C@@H](C(=O)OCCOC(=O)c4ccc(-c5c6nc(c(-c7c(F)c(F)c(F)c(F)c7F)c7ccc([nH]7)c(-c7c(F)c(F)c(F)c(F)c7F)c7nc(c(-c8c(F)c(F)c(F)c(F)c8F)c8ccc5[nH]8)C=C7)C=C6)cc4)[C@H]4C=C[C@@H]3C4)c2C(=O)NC2CC2)cc1
REMARK SMILES IDX 18 1 17 2 15 3 16 4 14 5 13 6 89 7 86 8 88 9 90 10 87 11
REMARK SMILES IDX 11 12 10 13 12 15 9 16 6 17 7 18 91 19 8 20 5 21 1 22 2 23
REMARK SMILES IDX 3 24 99 25 4 26 98 27 92 28 93 29 94 30 95 32 96 33 97 34
REMARK SMILES IDX 19 35 20 36 21 37 22 38 23 39 24 40 85 41 25 42 84 43 26 44
REMARK SMILES IDX 27 45 28 46 78 47 29 48 83 49 77 50 79 51 30 52 82 53 76 54
REMARK SMILES IDX 75 55 31 57 63 58 43 59 62 60 44 61 47 62 61 63 80 64 45 65
REMARK SMILES IDX 46 66 60 68 81 69 48 70 32 71 33 72 41 73 34 74 35 75 39 76
REMARK SMILES IDX 42 77 36 78 37 79 40 80 38 81 64 82 65 83 73 84 66 85 67 86
REMARK SMILES IDX 71 87 74 88 68 89 69 90 72 91 70 92 49 93 50 94 58 95 51 96
REMARK SMILES IDX 52 97 56 98 59 99 53 100 54 101 57 102 55 103
REMARK H PARENT 10 14 94 31 79 56 47 67
REMARK Flexibility Score: inf
ROOT
ATOM      1  C   UNL A   1      34.395  26.918  25.887  1.00  0.00     0.274 C 
ENDROOT
BRANCH   1   2
ATOM      2  O   UNL A   1      33.788  25.676  25.440  1.00  0.00    -0.462 OA
BRANCH   2   3
ATOM      3  C   UNL A   1      34.261  24.489  25.888  1.00  0.00     0.310 C 
ATOM      4  O   UNL A   1      34.042  24.093  27.018  1.00  0.00    -0.252 OA
BRANCH   3   5
ATOM      5  C   UNL A   1      34.919  23.668  24.790  1.00  0.00     0.119 C 
ATOM      6  C   UNL A   1      34.457  22.169  24.652  1.00  0.00     0.100 C 
ATOM      7  C   UNL A   1      35.801  21.448  24.401  1.00  0.00     0.025 C 
ATOM      8  C   UNL A   1      36.476  23.569  24.667  1.00  0.00     0.027 C 
ATOM      9  C   UNL A   1      36.691  21.468  25.608  1.00  0.00    -0.027 C 
ATOM     10  C   UNL A   1      36.560  22.501  23.568  1.00  0.00     0.017 C 
ATOM     11  C   UNL A   1      37.142  22.719  25.720  1.00  0.00    -0.027 C 
BRANCH   6  12
ATOM     12  C   UNL A   1      33.418  21.650  25.675  1.00  0.00     0.229 C 
ATOM     13  N   UNL A   1      32.082  21.694  25.389  1.00  0.00    -0.317 N 
ATOM     14  H   UNL A   1      31.617  20.851  25.179  1.00  0.00     0.170 HD
ATOM     15  O   UNL A   1      33.808  21.149  26.735  1.00  0.00    -0.274 OA
BRANCH  13  16
ATOM     16  C   UNL A   1      31.351  22.874  25.382  1.00  0.00     0.108 A 
ATOM     17  C   UNL A   1      30.583  25.016  24.983  1.00  0.00     0.007 A 
ATOM     18  C   UNL A   1      30.409  24.851  26.350  1.00  0.00     0.076 A 
ATOM     19  C   UNL A   1      31.135  23.803  24.354  1.00  0.00     0.082 A 
ATOM     20  S   UNL A   1      30.369  23.209  26.734  1.00  0.00    -0.125 S 
BRANCH  17  21
ATOM     21  C   UNL A   1      29.996  26.255  24.491  1.00  0.00    -0.017 A 
ATOM     22  C   UNL A   1      28.083  29.418  22.338  1.00  0.00     0.044 C 
ATOM     23  C   UNL A   1      28.694  28.410  23.264  1.00  0.00    -0.051 A 
ATOM     24  C   UNL A   1      27.993  27.233  23.510  1.00  0.00     0.004 A 
ATOM     25  C   UNL A   1      30.003  28.551  23.761  1.00  0.00     0.004 A 
ATOM     26  C   UNL A   1      28.633  26.179  24.140  1.00  0.00     0.009 A 
ATOM     27  C   UNL A   1      30.659  27.475  24.386  1.00  0.00     0.009 A 
ENDBRANCH  17  21
BRANCH  19  28
ATOM     28  C   UNL A   1      31.593  23.435  23.000  1.00  0.00     0.255 C 
ATOM     29  O   UNL A   1      31.506  22.253  22.642  1.00  0.00    -0.269 OA
ATOM     30  N   UNL A   1      31.991  24.267  21.977  1.00  0.00    -0.349 N 
ATOM     31  H   UNL A   1      32.298  23.748  21.199  1.00  0.00     0.164 HD
BRANCH  30  32
ATOM     32  C   UNL A   1      32.083  25.661  21.727  1.00  0.00     0.082 C 
ATOM     33  C   UNL A   1      33.270  26.514  21.978  1.00  0.00     0.027 C 
ATOM     34  C   UNL A   1      32.877  26.148  20.565  1.00  0.00     0.027 C 
ENDBRANCH  30  32
ENDBRANCH  19  28
ENDBRANCH  13  16
ENDBRANCH   6  12
ENDBRANCH   3   5
ENDBRANCH   2   3
ENDBRANCH   1   2
BRANCH   1  35
ATOM     35  C   UNL A   1      33.626  28.139  26.491  1.00  0.00     0.275 C 
BRANCH  35  36
ATOM     36  O   UNL A   1      34.041  29.543  26.546  1.00  0.00    -0.458 OA
BRANCH  36  37
ATOM     37  C   UNL A   1      34.546  30.250  27.574  1.00  0.00     0.338 C 
ATOM     38  O   UNL A   1      34.041  31.248  28.072  1.00  0.00    -0.246 OA
BRANCH  37  39
ATOM     39  C   UNL A   1      35.877  29.822  27.942  1.00  0.00     0.060 A 
ATOM     40  C   UNL A   1      36.911  29.936  27.009  1.00  0.00     0.016 A 
ATOM     41  C   UNL A   1      36.071  29.436  29.271  1.00  0.00     0.016 A 
ATOM     42  C   UNL A   1      38.198  29.773  27.459  1.00  0.00     0.010 A 
ATOM     43  C   UNL A   1      37.352  29.370  29.732  1.00  0.00     0.010 A 
ATOM     44  C   UNL A   1      38.395  29.525  28.807  1.00  0.00    -0.014 A 
BRANCH  44  45
ATOM     45  C   UNL A   1      39.641  28.957  29.241  1.00  0.00     0.031 A 
ATOM     46  C   UNL A   1      39.906  27.538  29.010  1.00  0.00     0.074 A 
ATOM     47  C   UNL A   1      40.453  29.997  29.519  1.00  0.00     0.049 A 
ATOM     48  N   UNL A   1      40.867  26.892  29.565  1.00  0.00    -0.248 NA
ATOM     49  C   UNL A   1      39.017  26.656  28.238  1.00  0.00     0.031 C 
ATOM     50  C   UNL A   1      41.861  30.222  29.297  1.00  0.00     0.029 A 
ATOM     51  N   UNL A   1      40.012  31.200  30.096  1.00  0.00    -0.354 N 
ATOM     52  C   UNL A   1      41.016  25.749  28.808  1.00  0.00     0.074 A 
ATOM     53  C   UNL A   1      39.712  25.510  28.248  1.00  0.00     0.031 C 
ATOM     54  C   UNL A   1      42.217  31.352  29.949  1.00  0.00     0.029 A 
ATOM     55  C   UNL A   1      41.082  31.792  30.757  1.00  0.00     0.049 A 
ATOM     56  H   UNL A   1      39.098  31.563  30.041  1.00  0.00     0.167 HD
ATOM     57  C   UNL A   1      42.288  25.364  28.488  1.00  0.00     0.037 A 
ATOM     58  C   UNL A   1      41.014  31.766  32.126  1.00  0.00     0.037 A 
ATOM     59  C   UNL A   1      43.239  26.296  29.113  1.00  0.00     0.049 A 
ATOM     60  C   UNL A   1      41.888  30.668  32.705  1.00  0.00     0.074 A 
ATOM     61  C   UNL A   1      43.946  27.391  28.646  1.00  0.00     0.029 A 
ATOM     62  N   UNL A   1      43.255  26.397  30.489  1.00  0.00    -0.354 N 
ATOM     63  N   UNL A   1      42.443  29.722  31.999  1.00  0.00    -0.248 NA
ATOM     64  C   UNL A   1      42.123  30.508  34.136  1.00  0.00     0.031 C 
ATOM     65  C   UNL A   1      44.353  28.166  29.780  1.00  0.00     0.029 A 
ATOM     66  C   UNL A   1      43.877  27.549  30.924  1.00  0.00     0.049 A 
ATOM     67  H   UNL A   1      42.867  25.722  31.092  1.00  0.00     0.167 HD
ATOM     68  C   UNL A   1      43.121  28.874  32.817  1.00  0.00     0.074 A 
ATOM     69  C   UNL A   1      42.845  29.376  34.155  1.00  0.00     0.031 C 
ATOM     70  C   UNL A   1      43.866  27.829  32.352  1.00  0.00     0.037 A 
BRANCH  57  71
ATOM     71  C   UNL A   1      42.720  24.393  27.406  1.00  0.00     0.064 A 
ATOM     72  C   UNL A   1      42.474  23.010  27.584  1.00  0.00     0.173 A 
ATOM     73  C   UNL A   1      43.391  24.711  26.208  1.00  0.00     0.173 A 
ATOM     74  F   UNL A   1      41.767  22.555  28.627  1.00  0.00    -0.203 F 
ATOM     75  C   UNL A   1      42.933  22.036  26.695  1.00  0.00     0.198 A 
ATOM     76  C   UNL A   1      43.849  23.733  25.316  1.00  0.00     0.198 A 
ATOM     77  F   UNL A   1      43.613  25.970  25.826  1.00  0.00    -0.203 F 
ATOM     78  F   UNL A   1      42.691  20.742  26.948  1.00  0.00    -0.200 F 
ATOM     79  C   UNL A   1      43.634  22.396  25.565  1.00  0.00     0.200 A 
ATOM     80  F   UNL A   1      44.506  24.105  24.206  1.00  0.00    -0.200 F 
ATOM     81  F   UNL A   1      44.080  21.462  24.714  1.00  0.00    -0.200 F 
ENDBRANCH  57  71
BRANCH  58  82
ATOM     82  C   UNL A   1      39.624  32.062  32.629  1.00  0.00     0.064 A 
ATOM     83  C   UNL A   1      39.167  33.400  32.614  1.00  0.00     0.173 A 
ATOM     84  C   UNL A   1      38.653  31.059  32.744  1.00  0.00     0.173 A 
ATOM     85  F   UNL A   1      40.047  34.411  32.542  1.00  0.00    -0.203 F 
ATOM     86  C   UNL A   1      37.808  33.702  32.540  1.00  0.00     0.198 A 
ATOM     87  C   UNL A   1      37.295  31.368  32.705  1.00  0.00     0.198 A 
ATOM     88  F   UNL A   1      39.000  29.766  32.790  1.00  0.00    -0.203 F 
ATOM     89  F   UNL A   1      37.410  34.973  32.384  1.00  0.00    -0.200 F 
ATOM     90  C   UNL A   1      36.879  32.679  32.550  1.00  0.00     0.200 A 
ATOM     91  F   UNL A   1      36.388  30.383  32.733  1.00  0.00    -0.200 F 
ATOM     92  F   UNL A   1      35.582  32.940  32.369  1.00  0.00    -0.200 F 
ENDBRANCH  58  82
BRANCH  70  93
ATOM     93  C   UNL A   1      44.676  26.970  33.269  1.00  0.00     0.064 A 
ATOM     94  C   UNL A   1      46.075  26.945  33.194  1.00  0.00     0.173 A 
ATOM     95  C   UNL A   1      44.080  26.059  34.165  1.00  0.00     0.173 A 
ATOM     96  F   UNL A   1      46.733  27.705  32.306  1.00  0.00    -0.203 F 
ATOM     97  C   UNL A   1      46.831  26.124  34.026  1.00  0.00     0.198 A 
ATOM     98  C   UNL A   1      44.834  25.182  34.933  1.00  0.00     0.198 A 
ATOM     99  F   UNL A   1      42.754  26.008  34.352  1.00  0.00    -0.203 F 
ATOM    100  F   UNL A   1      48.169  26.198  33.988  1.00  0.00    -0.200 F 
ATOM    101  C   UNL A   1      46.211  25.233  34.884  1.00  0.00     0.200 A 
ATOM    102  F   UNL A   1      44.215  24.299  35.727  1.00  0.00    -0.200 F 
ATOM    103  F   UNL A   1      46.940  24.428  35.666  1.00  0.00    -0.200 F 
ENDBRANCH  70  93
ENDBRANCH  44  45
ENDBRANCH  37  39
ENDBRANCH  36  37
ENDBRANCH  35  36
ENDBRANCH   1  35
TORSDOF 16
ENDMDL
