MODEL 1
REMARK VINA RESULT:     -12.9      0.000      0.000
REMARK SMILES O=C(OCCOC(=O)[C@H]1CC2(CC[NH+](C(=O)c3cccc(O)c3)CC2)CN1C(=O)C1CC1)c1ccc(-c2c3nc(c(-c4c(F)c(F)c(F)c(F)c4F)c4ccc([nH]4)c(-c4c(F)c(F)c(F)c(F)c4F)c4nc(c(-c5c(F)c(F)c(F)c(F)c5F)c5ccc2[nH]5)C=C4)C=C3)cc1
REMARK SMILES IDX 5 1 4 2 3 3 2 4 1 5 33 6 34 7 95 8 35 9 94 10 36 11 37 12
REMARK SMILES IDX 38 13 88 14 39 15 93 16 87 17 89 18 40 19 92 20 86 21 85 22
REMARK SMILES IDX 41 24 73 25 53 26 72 27 54 28 57 29 71 30 90 31 55 32 56 33
REMARK SMILES IDX 70 35 91 36 58 37 42 38 43 39 51 40 44 41 45 42 49 43 52 44
REMARK SMILES IDX 46 45 47 46 50 47 48 48 74 49 75 50 83 51 76 52 77 53 81 54
REMARK SMILES IDX 84 55 78 56 79 57 82 58 80 59 59 60 60 61 68 62 61 63 62 64
REMARK SMILES IDX 66 65 69 66 63 67 64 68 67 69 65 70 6 71 7 72 8 73 9 74
REMARK SMILES IDX 10 75 27 76 11 77 26 78 12 79 25 80 13 81 24 82 14 83 28 85
REMARK SMILES IDX 29 86 30 87 31 88 32 89 15 90 16 91 17 92 18 93 23 94 19 95
REMARK SMILES IDX 21 96 20 97 22 98
REMARK H PARENT 89 23 57 34 14 84 22 99
REMARK Flexibility Score: inf
ROOT
ATOM      1  C   UNL A   1      30.998  31.447  26.146  1.00  0.00     0.274 C 
ENDROOT
BRANCH   1   2
ATOM      2  C   UNL A   1      31.807  32.565  26.855  1.00  0.00     0.275 C 
BRANCH   2   3
ATOM      3  O   UNL A   1      33.104  32.269  27.372  1.00  0.00    -0.458 OA
BRANCH   3   4
ATOM      4  C   UNL A   1      33.732  33.233  28.053  1.00  0.00     0.338 C 
ATOM      5  O   UNL A   1      33.429  34.423  28.056  1.00  0.00    -0.246 OA
BRANCH   4   6
ATOM      6  C   UNL A   1      35.026  32.663  28.511  1.00  0.00     0.060 A 
ATOM      7  C   UNL A   1      36.227  33.362  28.354  1.00  0.00     0.016 A 
ATOM      8  C   UNL A   1      35.013  31.519  29.302  1.00  0.00     0.016 A 
ATOM      9  C   UNL A   1      37.383  32.909  28.979  1.00  0.00     0.010 A 
ATOM     10  C   UNL A   1      36.139  31.096  29.987  1.00  0.00     0.010 A 
ATOM     11  C   UNL A   1      37.337  31.772  29.792  1.00  0.00    -0.014 A 
BRANCH  11  12
ATOM     12  C   UNL A   1      38.562  31.229  30.384  1.00  0.00     0.031 A 
ATOM     13  C   UNL A   1      38.956  31.690  31.751  1.00  0.00     0.074 A 
ATOM     14  C   UNL A   1      39.308  30.369  29.673  1.00  0.00     0.049 A 
ATOM     15  N   UNL A   1      39.845  31.187  32.561  1.00  0.00    -0.248 NA
ATOM     16  C   UNL A   1      38.274  32.887  32.275  1.00  0.00     0.031 C 
ATOM     17  C   UNL A   1      39.073  29.993  28.277  1.00  0.00     0.029 A 
ATOM     18  N   UNL A   1      40.417  29.656  30.031  1.00  0.00    -0.354 N 
ATOM     19  C   UNL A   1      39.799  31.982  33.697  1.00  0.00     0.074 A 
ATOM     20  C   UNL A   1      38.880  33.062  33.437  1.00  0.00     0.031 C 
ATOM     21  C   UNL A   1      40.002  29.098  27.903  1.00  0.00     0.029 A 
ATOM     22  C   UNL A   1      40.867  28.817  29.045  1.00  0.00     0.049 A 
ATOM     23  H   UNL A   1      40.851  29.737  30.912  1.00  0.00     0.167 HD
ATOM     24  C   UNL A   1      40.435  31.787  34.873  1.00  0.00     0.037 A 
ATOM     25  C   UNL A   1      41.837  27.886  29.098  1.00  0.00     0.037 A 
ATOM     26  C   UNL A   1      41.364  30.712  35.078  1.00  0.00     0.049 A 
ATOM     27  C   UNL A   1      42.500  27.641  30.428  1.00  0.00     0.074 A 
ATOM     28  C   UNL A   1      42.037  30.346  36.225  1.00  0.00     0.029 A 
ATOM     29  N   UNL A   1      41.763  29.835  34.075  1.00  0.00    -0.354 N 
ATOM     30  N   UNL A   1      42.319  28.266  31.570  1.00  0.00    -0.248 NA
ATOM     31  C   UNL A   1      43.461  26.536  30.493  1.00  0.00     0.031 C 
ATOM     32  C   UNL A   1      42.874  29.269  35.906  1.00  0.00     0.029 A 
ATOM     33  C   UNL A   1      42.687  28.937  34.571  1.00  0.00     0.049 A 
ATOM     34  H   UNL A   1      41.432  29.851  33.147  1.00  0.00     0.167 HD
ATOM     35  C   UNL A   1      43.119  27.613  32.495  1.00  0.00     0.074 A 
ATOM     36  C   UNL A   1      43.772  26.532  31.782  1.00  0.00     0.031 C 
ATOM     37  C   UNL A   1      43.304  27.876  33.814  1.00  0.00     0.037 A 
BRANCH  24  38
ATOM     38  C   UNL A   1      40.114  32.730  35.994  1.00  0.00     0.064 A 
ATOM     39  C   UNL A   1      39.018  32.502  36.845  1.00  0.00     0.173 A 
ATOM     40  C   UNL A   1      40.886  33.877  36.219  1.00  0.00     0.173 A 
ATOM     41  F   UNL A   1      38.233  31.429  36.663  1.00  0.00    -0.203 F 
ATOM     42  C   UNL A   1      38.687  33.405  37.852  1.00  0.00     0.198 A 
ATOM     43  C   UNL A   1      40.570  34.764  37.247  1.00  0.00     0.198 A 
ATOM     44  F   UNL A   1      41.941  34.147  35.435  1.00  0.00    -0.203 F 
ATOM     45  F   UNL A   1      37.601  33.194  38.609  1.00  0.00    -0.200 F 
ATOM     46  C   UNL A   1      39.467  34.532  38.055  1.00  0.00     0.200 A 
ATOM     47  F   UNL A   1      41.328  35.851  37.448  1.00  0.00    -0.200 F 
ATOM     48  F   UNL A   1      39.148  35.403  39.024  1.00  0.00    -0.200 F 
ENDBRANCH  24  38
BRANCH  25  49
ATOM     49  C   UNL A   1      42.129  27.055  27.903  1.00  0.00     0.064 A 
ATOM     50  C   UNL A   1      43.079  27.463  26.956  1.00  0.00     0.173 A 
ATOM     51  C   UNL A   1      41.499  25.819  27.700  1.00  0.00     0.173 A 
ATOM     52  F   UNL A   1      43.709  28.638  27.105  1.00  0.00    -0.203 F 
ATOM     53  C   UNL A   1      43.371  26.679  25.842  1.00  0.00     0.198 A 
ATOM     54  C   UNL A   1      41.806  25.026  26.595  1.00  0.00     0.198 A 
ATOM     55  F   UNL A   1      40.599  25.373  28.589  1.00  0.00    -0.203 F 
ATOM     56  F   UNL A   1      44.262  27.111  24.937  1.00  0.00    -0.200 F 
ATOM     57  C   UNL A   1      42.738  25.459  25.664  1.00  0.00     0.200 A 
ATOM     58  F   UNL A   1      41.203  23.841  26.433  1.00  0.00    -0.200 F 
ATOM     59  F   UNL A   1      43.025  24.704  24.595  1.00  0.00    -0.200 F 
ENDBRANCH  25  49
BRANCH  37  60
ATOM     60  C   UNL A   1      44.237  26.971  34.558  1.00  0.00     0.064 A 
ATOM     61  C   UNL A   1      45.584  27.309  34.747  1.00  0.00     0.173 A 
ATOM     62  C   UNL A   1      43.761  25.785  35.135  1.00  0.00     0.173 A 
ATOM     63  F   UNL A   1      46.081  28.431  34.202  1.00  0.00    -0.203 F 
ATOM     64  C   UNL A   1      46.430  26.478  35.470  1.00  0.00     0.198 A 
ATOM     65  C   UNL A   1      44.604  24.970  35.882  1.00  0.00     0.198 A 
ATOM     66  F   UNL A   1      42.477  25.427  34.988  1.00  0.00    -0.203 F 
ATOM     67  F   UNL A   1      47.725  26.796  35.604  1.00  0.00    -0.200 F 
ATOM     68  C   UNL A   1      45.938  25.313  36.044  1.00  0.00     0.200 A 
ATOM     69  F   UNL A   1      44.126  23.854  36.448  1.00  0.00    -0.200 F 
ATOM     70  F   UNL A   1      46.755  24.518  36.749  1.00  0.00    -0.200 F 
ENDBRANCH  37  60
ENDBRANCH  11  12
ENDBRANCH   4   6
ENDBRANCH   3   4
ENDBRANCH   2   3
ENDBRANCH   1   2
BRANCH   1  71
ATOM     71  O   UNL A   1      31.759  30.401  25.509  1.00  0.00    -0.461 OA
BRANCH  71  72
ATOM     72  C   UNL A   1      31.739  29.138  26.072  1.00  0.00     0.328 C 
ATOM     73  O   UNL A   1      31.793  28.901  27.269  1.00  0.00    -0.250 OA
BRANCH  72  74
ATOM     74  C   UNL A   1      31.867  28.089  24.943  1.00  0.00     0.195 C 
ATOM     75  C   UNL A   1      32.319  26.792  25.654  1.00  0.00     0.046 C 
ATOM     76  N   UNL A   1      30.804  27.629  24.020  1.00  0.00    -0.328 N 
ATOM     77  C   UNL A   1      31.970  25.620  24.716  1.00  0.00     0.001 C 
ATOM     78  C   UNL A   1      31.134  26.268  23.614  1.00  0.00     0.128 C 
ATOM     79  C   UNL A   1      31.130  24.554  25.446  1.00  0.00     0.071 C 
ATOM     80  C   UNL A   1      33.227  24.944  24.110  1.00  0.00     0.071 C 
ATOM     81  C   UNL A   1      31.964  23.811  26.479  1.00  0.00     0.271 C 
ATOM     82  C   UNL A   1      33.996  24.064  25.100  1.00  0.00     0.271 C 
ATOM     83  N   UNL A   1      33.105  23.170  25.830  1.00  0.00    -0.267 N 
ATOM     84  H   UNL A   1      32.198  23.438  25.555  1.00  0.00     0.357 HD
BRANCH  76  85
ATOM     85  C   UNL A   1      30.185  28.344  22.977  1.00  0.00     0.226 C 
ATOM     86  O   UNL A   1      30.396  28.014  21.807  1.00  0.00    -0.275 OA
BRANCH  85  87
ATOM     87  C   UNL A   1      29.075  29.335  23.203  1.00  0.00     0.079 C 
ATOM     88  C   UNL A   1      27.910  29.819  22.360  1.00  0.00     0.014 C 
ATOM     89  C   UNL A   1      27.693  28.617  23.184  1.00  0.00     0.014 C 
ENDBRANCH  85  87
ENDBRANCH  76  85
BRANCH  83  90
ATOM     90  C   UNL A   1      33.478  21.839  26.016  1.00  0.00     0.344 C 
ATOM     91  O   UNL A   1      34.183  21.448  26.940  1.00  0.00    -0.226 OA
BRANCH  90  92
ATOM     92  C   UNL A   1      32.984  20.838  25.045  1.00  0.00     0.083 A 
ATOM     93  C   UNL A   1      33.033  19.472  25.353  1.00  0.00     0.018 A 
ATOM     94  C   UNL A   1      32.511  21.274  23.808  1.00  0.00     0.064 A 
ATOM     95  C   UNL A   1      32.665  18.535  24.388  1.00  0.00     0.005 A 
ATOM     96  C   UNL A   1      32.142  20.328  22.860  1.00  0.00     0.116 A 
ATOM     97  C   UNL A   1      32.226  18.963  23.133  1.00  0.00     0.046 A 
BRANCH  96  98
ATOM     98  O   UNL A   1      31.714  20.780  21.646  1.00  0.00    -0.508 OA
ATOM     99  H   UNL A   1      31.633  20.185  20.927  1.00  0.00     0.293 HD
ENDBRANCH  96  98
ENDBRANCH  90  92
ENDBRANCH  83  90
ENDBRANCH  72  74
ENDBRANCH  71  72
ENDBRANCH   1  71
TORSDOF 16
ENDMDL
MODEL 2
REMARK VINA RESULT:     -12.7      1.123      2.089
REMARK SMILES O=C(OCCOC(=O)[C@H]1CC2(CC[NH+](C(=O)c3cccc(O)c3)CC2)CN1C(=O)C1CC1)c1ccc(-c2c3nc(c(-c4c(F)c(F)c(F)c(F)c4F)c4ccc([nH]4)c(-c4c(F)c(F)c(F)c(F)c4F)c4nc(c(-c5c(F)c(F)c(F)c(F)c5F)c5ccc2[nH]5)C=C4)C=C3)cc1
REMARK SMILES IDX 5 1 4 2 3 3 2 4 1 5 33 6 34 7 95 8 35 9 94 10 36 11 37 12
REMARK SMILES IDX 38 13 88 14 39 15 93 16 87 17 89 18 40 19 92 20 86 21 85 22
REMARK SMILES IDX 41 24 73 25 53 26 72 27 54 28 57 29 71 30 90 31 55 32 56 33
REMARK SMILES IDX 70 35 91 36 58 37 42 38 43 39 51 40 44 41 45 42 49 43 52 44
REMARK SMILES IDX 46 45 47 46 50 47 48 48 74 49 75 50 83 51 76 52 77 53 81 54
REMARK SMILES IDX 84 55 78 56 79 57 82 58 80 59 59 60 60 61 68 62 61 63 62 64
REMARK SMILES IDX 66 65 69 66 63 67 64 68 67 69 65 70 6 71 7 72 8 73 9 74
REMARK SMILES IDX 10 75 27 76 11 77 26 78 12 79 25 80 13 81 24 82 14 83 28 85
REMARK SMILES IDX 29 86 30 87 31 88 32 89 15 90 16 91 17 92 18 93 23 94 19 95
REMARK SMILES IDX 21 96 20 97 22 98
REMARK H PARENT 89 23 57 34 14 84 22 99
REMARK Flexibility Score: inf
ROOT
ATOM      1  C   UNL A   1      31.585  30.722  25.886  1.00  0.00     0.274 C 
ENDROOT
BRANCH   1   2
ATOM      2  C   UNL A   1      32.080  31.779  26.909  1.00  0.00     0.275 C 
BRANCH   2   3
ATOM      3  O   UNL A   1      33.303  31.555  27.609  1.00  0.00    -0.458 OA
BRANCH   3   4
ATOM      4  C   UNL A   1      34.105  32.607  27.806  1.00  0.00     0.338 C 
ATOM      5  O   UNL A   1      33.907  33.746  27.392  1.00  0.00    -0.246 OA
BRANCH   4   6
ATOM      6  C   UNL A   1      35.400  32.074  28.304  1.00  0.00     0.060 A 
ATOM      7  C   UNL A   1      36.543  32.877  28.366  1.00  0.00     0.016 A 
ATOM      8  C   UNL A   1      35.419  30.828  28.923  1.00  0.00     0.016 A 
ATOM      9  C   UNL A   1      37.677  32.425  29.032  1.00  0.00     0.010 A 
ATOM     10  C   UNL A   1      36.515  30.394  29.649  1.00  0.00     0.010 A 
ATOM     11  C   UNL A   1      37.660  31.179  29.669  1.00  0.00    -0.014 A 
BRANCH  11  12
ATOM     12  C   UNL A   1      38.873  30.649  30.297  1.00  0.00     0.031 A 
ATOM     13  C   UNL A   1      39.199  31.080  31.692  1.00  0.00     0.074 A 
ATOM     14  C   UNL A   1      39.668  29.825  29.596  1.00  0.00     0.049 A 
ATOM     15  N   UNL A   1      40.067  30.576  32.525  1.00  0.00    -0.248 NA
ATOM     16  C   UNL A   1      38.468  32.247  32.218  1.00  0.00     0.031 C 
ATOM     17  C   UNL A   1      39.499  29.482  28.181  1.00  0.00     0.029 A 
ATOM     18  N   UNL A   1      40.778  29.128  29.981  1.00  0.00    -0.354 N 
ATOM     19  C   UNL A   1      39.955  31.338  33.677  1.00  0.00     0.074 A 
ATOM     20  C   UNL A   1      39.021  32.404  33.408  1.00  0.00     0.031 C 
ATOM     21  C   UNL A   1      40.464  28.620  27.823  1.00  0.00     0.029 A 
ATOM     22  C   UNL A   1      41.288  28.327  28.992  1.00  0.00     0.049 A 
ATOM     23  H   UNL A   1      41.173  29.195  30.880  1.00  0.00     0.167 HD
ATOM     24  C   UNL A   1      40.547  31.125  34.873  1.00  0.00     0.037 A 
ATOM     25  C   UNL A   1      42.277  27.418  29.061  1.00  0.00     0.037 A 
ATOM     26  C   UNL A   1      41.492  30.067  35.088  1.00  0.00     0.049 A 
ATOM     27  C   UNL A   1      42.890  27.151  30.410  1.00  0.00     0.074 A 
ATOM     28  C   UNL A   1      42.126  29.685  36.253  1.00  0.00     0.029 A 
ATOM     29  N   UNL A   1      41.952  29.227  34.080  1.00  0.00    -0.354 N 
ATOM     30  N   UNL A   1      42.647  27.740  31.560  1.00  0.00    -0.248 NA
ATOM     31  C   UNL A   1      43.874  26.067  30.486  1.00  0.00     0.031 C 
ATOM     32  C   UNL A   1      43.000  28.637  35.940  1.00  0.00     0.029 A 
ATOM     33  C   UNL A   1      42.876  28.337  34.591  1.00  0.00     0.049 A 
ATOM     34  H   UNL A   1      41.659  29.261  33.140  1.00  0.00     0.167 HD
ATOM     35  C   UNL A   1      43.425  27.081  32.500  1.00  0.00     0.074 A 
ATOM     36  C   UNL A   1      44.132  26.034  31.787  1.00  0.00     0.031 C 
ATOM     37  C   UNL A   1      43.549  27.312  33.832  1.00  0.00     0.037 A 
BRANCH  24  38
ATOM     38  C   UNL A   1      40.157  32.030  36.005  1.00  0.00     0.064 A 
ATOM     39  C   UNL A   1      38.963  31.828  36.720  1.00  0.00     0.173 A 
ATOM     40  C   UNL A   1      40.963  33.115  36.375  1.00  0.00     0.173 A 
ATOM     41  F   UNL A   1      38.143  30.816  36.395  1.00  0.00    -0.203 F 
ATOM     42  C   UNL A   1      38.575  32.699  37.734  1.00  0.00     0.198 A 
ATOM     43  C   UNL A   1      40.586  33.967  37.411  1.00  0.00     0.198 A 
ATOM     44  F   UNL A   1      42.111  33.358  35.725  1.00  0.00    -0.203 F 
ATOM     45  F   UNL A   1      37.402  32.518  38.358  1.00  0.00    -0.200 F 
ATOM     46  C   UNL A   1      39.389  33.764  38.083  1.00  0.00     0.200 A 
ATOM     47  F   UNL A   1      41.376  34.994  37.753  1.00  0.00    -0.200 F 
ATOM     48  F   UNL A   1      39.015  34.604  39.059  1.00  0.00    -0.200 F 
ENDBRANCH  24  38
BRANCH  25  49
ATOM     49  C   UNL A   1      42.637  26.626  27.857  1.00  0.00     0.064 A 
ATOM     50  C   UNL A   1      41.967  25.433  27.553  1.00  0.00     0.173 A 
ATOM     51  C   UNL A   1      43.626  27.063  26.963  1.00  0.00     0.173 A 
ATOM     52  F   UNL A   1      41.013  24.973  28.377  1.00  0.00    -0.203 F 
ATOM     53  C   UNL A   1      42.287  24.695  26.416  1.00  0.00     0.198 A 
ATOM     54  C   UNL A   1      43.932  26.333  25.815  1.00  0.00     0.198 A 
ATOM     55  F   UNL A   1      44.280  28.210  27.197  1.00  0.00    -0.203 F 
ATOM     56  F   UNL A   1      41.651  23.541  26.168  1.00  0.00    -0.200 F 
ATOM     57  C   UNL A   1      43.267  25.147  25.545  1.00  0.00     0.200 A 
ATOM     58  F   UNL A   1      44.868  26.780  24.968  1.00  0.00    -0.200 F 
ATOM     59  F   UNL A   1      43.568  24.439  24.448  1.00  0.00    -0.200 F 
ENDBRANCH  25  49
BRANCH  37  60
ATOM     60  C   UNL A   1      44.472  26.408  34.590  1.00  0.00     0.064 A 
ATOM     61  C   UNL A   1      44.044  25.160  35.063  1.00  0.00     0.173 A 
ATOM     62  C   UNL A   1      45.811  26.773  34.791  1.00  0.00     0.173 A 
ATOM     63  F   UNL A   1      42.768  24.778  34.902  1.00  0.00    -0.203 F 
ATOM     64  C   UNL A   1      44.921  24.316  35.734  1.00  0.00     0.198 A 
ATOM     65  C   UNL A   1      46.692  25.913  35.436  1.00  0.00     0.198 A 
ATOM     66  F   UNL A   1      46.266  27.953  34.345  1.00  0.00    -0.203 F 
ATOM     67  F   UNL A   1      44.483  23.145  36.217  1.00  0.00    -0.200 F 
ATOM     68  C   UNL A   1      46.246  24.689  35.912  1.00  0.00     0.200 A 
ATOM     69  F   UNL A   1      47.975  26.267  35.595  1.00  0.00    -0.200 F 
ATOM     70  F   UNL A   1      47.092  23.869  36.550  1.00  0.00    -0.200 F 
ENDBRANCH  37  60
ENDBRANCH  11  12
ENDBRANCH   4   6
ENDBRANCH   3   4
ENDBRANCH   2   3
ENDBRANCH   1   2
BRANCH   1  71
ATOM     71  O   UNL A   1      32.452  29.596  25.647  1.00  0.00    -0.461 OA
BRANCH  71  72
ATOM     72  C   UNL A   1      31.901  28.328  25.660  1.00  0.00     0.328 C 
ATOM     73  O   UNL A   1      31.744  27.639  26.657  1.00  0.00    -0.250 OA
BRANCH  72  74
ATOM     74  C   UNL A   1      31.731  27.845  24.201  1.00  0.00     0.195 C 
ATOM     75  C   UNL A   1      31.962  26.317  24.258  1.00  0.00     0.046 C 
ATOM     76  N   UNL A   1      30.532  27.985  23.343  1.00  0.00    -0.328 N 
ATOM     77  C   UNL A   1      31.316  25.717  22.994  1.00  0.00     0.001 C 
ATOM     78  C   UNL A   1      30.550  26.888  22.382  1.00  0.00     0.128 C 
ATOM     79  C   UNL A   1      30.334  24.586  23.354  1.00  0.00     0.071 C 
ATOM     80  C   UNL A   1      32.363  25.175  21.987  1.00  0.00     0.071 C 
ATOM     81  C   UNL A   1      31.073  23.358  23.866  1.00  0.00     0.271 C 
ATOM     82  C   UNL A   1      33.009  23.854  22.414  1.00  0.00     0.271 C 
ATOM     83  N   UNL A   1      32.011  22.883  22.851  1.00  0.00    -0.267 N 
ATOM     84  H   UNL A   1      31.159  23.377  22.846  1.00  0.00     0.357 HD
BRANCH  76  85
ATOM     85  C   UNL A   1      29.995  29.158  22.778  1.00  0.00     0.226 C 
ATOM     86  O   UNL A   1      30.304  29.472  21.626  1.00  0.00    -0.275 OA
BRANCH  85  87
ATOM     87  C   UNL A   1      28.863  29.928  23.402  1.00  0.00     0.079 C 
ATOM     88  C   UNL A   1      27.654  30.657  22.844  1.00  0.00     0.014 C 
ATOM     89  C   UNL A   1      27.505  29.218  23.126  1.00  0.00     0.014 C 
ENDBRANCH  85  87
ENDBRANCH  76  85
BRANCH  83  90
ATOM     90  C   UNL A   1      32.120  21.558  22.432  1.00  0.00     0.344 C 
ATOM     91  O   UNL A   1      31.795  21.163  21.317  1.00  0.00    -0.226 OA
BRANCH  90  92
ATOM     92  C   UNL A   1      32.670  20.571  23.387  1.00  0.00     0.083 A 
ATOM     93  C   UNL A   1      33.723  20.927  24.240  1.00  0.00     0.018 A 
ATOM     94  C   UNL A   1      32.153  19.277  23.393  1.00  0.00     0.064 A 
ATOM     95  C   UNL A   1      34.303  19.958  25.058  1.00  0.00     0.005 A 
ATOM     96  C   UNL A   1      32.738  18.325  24.218  1.00  0.00     0.116 A 
ATOM     97  C   UNL A   1      33.815  18.649  25.042  1.00  0.00     0.046 A 
BRANCH  96  98
ATOM     98  O   UNL A   1      32.234  17.058  24.181  1.00  0.00    -0.508 OA
ATOM     99  H   UNL A   1      31.875  16.674  24.957  1.00  0.00     0.293 HD
ENDBRANCH  96  98
ENDBRANCH  90  92
ENDBRANCH  83  90
ENDBRANCH  72  74
ENDBRANCH  71  72
ENDBRANCH   1  71
TORSDOF 16
ENDMDL
MODEL 3
REMARK VINA RESULT:     -12.7      1.242      2.232
REMARK SMILES O=C(OCCOC(=O)[C@H]1CC2(CC[NH+](C(=O)c3cccc(O)c3)CC2)CN1C(=O)C1CC1)c1ccc(-c2c3nc(c(-c4c(F)c(F)c(F)c(F)c4F)c4ccc([nH]4)c(-c4c(F)c(F)c(F)c(F)c4F)c4nc(c(-c5c(F)c(F)c(F)c(F)c5F)c5ccc2[nH]5)C=C4)C=C3)cc1
REMARK SMILES IDX 5 1 4 2 3 3 2 4 1 5 33 6 34 7 95 8 35 9 94 10 36 11 37 12
REMARK SMILES IDX 38 13 88 14 39 15 93 16 87 17 89 18 40 19 92 20 86 21 85 22
REMARK SMILES IDX 41 24 73 25 53 26 72 27 54 28 57 29 71 30 90 31 55 32 56 33
REMARK SMILES IDX 70 35 91 36 58 37 42 38 43 39 51 40 44 41 45 42 49 43 52 44
REMARK SMILES IDX 46 45 47 46 50 47 48 48 74 49 75 50 83 51 76 52 77 53 81 54
REMARK SMILES IDX 84 55 78 56 79 57 82 58 80 59 59 60 60 61 68 62 61 63 62 64
REMARK SMILES IDX 66 65 69 66 63 67 64 68 67 69 65 70 6 71 7 72 8 73 9 74
REMARK SMILES IDX 10 75 27 76 11 77 26 78 12 79 25 80 13 81 24 82 14 83 28 85
REMARK SMILES IDX 29 86 30 87 31 88 32 89 15 90 16 91 17 92 18 93 23 94 19 95
REMARK SMILES IDX 21 96 20 97 22 98
REMARK H PARENT 89 23 57 34 14 84 22 99
REMARK Flexibility Score: inf
ROOT
ATOM      1  C   UNL A   1      31.650  31.513  26.508  1.00  0.00     0.274 C 
ENDROOT
BRANCH   1   2
ATOM      2  C   UNL A   1      32.625  32.172  27.518  1.00  0.00     0.275 C 
BRANCH   2   3
ATOM      3  O   UNL A   1      32.780  33.591  27.518  1.00  0.00    -0.458 OA
BRANCH   3   4
ATOM      4  C   UNL A   1      33.132  34.175  28.668  1.00  0.00     0.338 C 
ATOM      5  O   UNL A   1      32.650  35.210  29.123  1.00  0.00    -0.246 OA
BRANCH   4   6
ATOM      6  C   UNL A   1      34.406  33.545  29.100  1.00  0.00     0.060 A 
ATOM      7  C   UNL A   1      35.644  34.042  28.681  1.00  0.00     0.016 A 
ATOM      8  C   UNL A   1      34.374  32.586  30.107  1.00  0.00     0.016 A 
ATOM      9  C   UNL A   1      36.816  33.575  29.265  1.00  0.00     0.010 A 
ATOM     10  C   UNL A   1      35.526  32.163  30.746  1.00  0.00     0.010 A 
ATOM     11  C   UNL A   1      36.754  32.631  30.296  1.00  0.00    -0.014 A 
BRANCH  11  12
ATOM     12  C   UNL A   1      37.980  32.062  30.859  1.00  0.00     0.031 A 
ATOM     13  C   UNL A   1      38.433  32.536  32.203  1.00  0.00     0.074 A 
ATOM     14  C   UNL A   1      38.675  31.164  30.143  1.00  0.00     0.049 A 
ATOM     15  N   UNL A   1      39.333  32.022  32.995  1.00  0.00    -0.248 NA
ATOM     16  C   UNL A   1      37.806  33.765  32.723  1.00  0.00     0.031 C 
ATOM     17  C   UNL A   1      38.383  30.768  28.763  1.00  0.00     0.029 A 
ATOM     18  N   UNL A   1      39.772  30.423  30.480  1.00  0.00    -0.354 N 
ATOM     19  C   UNL A   1      39.349  32.841  34.114  1.00  0.00     0.074 A 
ATOM     20  C   UNL A   1      38.455  33.944  33.861  1.00  0.00     0.031 C 
ATOM     21  C   UNL A   1      39.271  29.837  28.378  1.00  0.00     0.029 A 
ATOM     22  C   UNL A   1      40.163  29.551  29.497  1.00  0.00     0.049 A 
ATOM     23  H   UNL A   1      40.237  30.508  31.344  1.00  0.00     0.167 HD
ATOM     24  C   UNL A   1      40.016  32.648  35.272  1.00  0.00     0.037 A 
ATOM     25  C   UNL A   1      41.106  28.591  29.538  1.00  0.00     0.037 A 
ATOM     26  C   UNL A   1      40.918  31.549  35.470  1.00  0.00     0.049 A 
ATOM     27  C   UNL A   1      41.804  28.352  30.851  1.00  0.00     0.074 A 
ATOM     28  C   UNL A   1      41.616  31.185  36.603  1.00  0.00     0.029 A 
ATOM     29  N   UNL A   1      41.255  30.639  34.473  1.00  0.00    -0.354 N 
ATOM     30  N   UNL A   1      41.679  29.004  31.985  1.00  0.00    -0.248 NA
ATOM     31  C   UNL A   1      42.732  27.217  30.908  1.00  0.00     0.031 C 
ATOM     32  C   UNL A   1      42.408  30.076  36.279  1.00  0.00     0.029 A 
ATOM     33  C   UNL A   1      42.167  29.723  34.958  1.00  0.00     0.049 A 
ATOM     34  H   UNL A   1      40.895  30.648  33.557  1.00  0.00     0.167 HD
ATOM     35  C   UNL A   1      42.489  28.345  32.898  1.00  0.00     0.074 A 
ATOM     36  C   UNL A   1      43.085  27.229  32.187  1.00  0.00     0.031 C 
ATOM     37  C   UNL A   1      42.725  28.628  34.204  1.00  0.00     0.037 A 
BRANCH  24  38
ATOM     38  C   UNL A   1      39.761  33.624  36.383  1.00  0.00     0.064 A 
ATOM     39  C   UNL A   1      40.428  34.861  36.433  1.00  0.00     0.173 A 
ATOM     40  C   UNL A   1      38.863  33.326  37.416  1.00  0.00     0.173 A 
ATOM     41  F   UNL A   1      41.315  35.190  35.480  1.00  0.00    -0.203 F 
ATOM     42  C   UNL A   1      40.232  35.743  37.492  1.00  0.00     0.198 A 
ATOM     43  C   UNL A   1      38.646  34.225  38.459  1.00  0.00     0.198 A 
ATOM     44  F   UNL A   1      38.202  32.159  37.423  1.00  0.00    -0.203 F 
ATOM     45  F   UNL A   1      40.927  36.888  37.545  1.00  0.00    -0.200 F 
ATOM     46  C   UNL A   1      39.338  35.427  38.501  1.00  0.00     0.200 A 
ATOM     47  F   UNL A   1      37.776  33.923  39.433  1.00  0.00    -0.200 F 
ATOM     48  F   UNL A   1      39.150  36.276  39.521  1.00  0.00    -0.200 F 
ENDBRANCH  24  38
BRANCH  25  49
ATOM     49  C   UNL A   1      41.332  27.727  28.352  1.00  0.00     0.064 A 
ATOM     50  C   UNL A   1      40.574  26.565  28.153  1.00  0.00     0.173 A 
ATOM     51  C   UNL A   1      42.277  28.063  27.372  1.00  0.00     0.173 A 
ATOM     52  F   UNL A   1      39.657  26.201  29.062  1.00  0.00    -0.203 F 
ATOM     53  C   UNL A   1      40.768  25.759  27.033  1.00  0.00     0.198 A 
ATOM     54  C   UNL A   1      42.457  27.267  26.242  1.00  0.00     0.198 A 
ATOM     55  F   UNL A   1      43.011  29.177  27.505  1.00  0.00    -0.203 F 
ATOM     56  F   UNL A   1      40.049  24.637  26.885  1.00  0.00    -0.200 F 
ATOM     57  C   UNL A   1      41.706  26.113  26.075  1.00  0.00     0.200 A 
ATOM     58  F   UNL A   1      43.354  27.618  25.311  1.00  0.00    -0.200 F 
ATOM     59  F   UNL A   1      41.886  25.340  24.996  1.00  0.00    -0.200 F 
ENDBRANCH  25  49
BRANCH  37  60
ATOM     60  C   UNL A   1      43.653  27.709  34.936  1.00  0.00     0.064 A 
ATOM     61  C   UNL A   1      45.034  27.945  34.973  1.00  0.00     0.173 A 
ATOM     62  C   UNL A   1      43.146  26.616  35.655  1.00  0.00     0.173 A 
ATOM     63  F   UNL A   1      45.561  28.974  34.291  1.00  0.00    -0.203 F 
ATOM     64  C   UNL A   1      45.880  27.104  35.686  1.00  0.00     0.198 A 
ATOM     65  C   UNL A   1      43.992  25.795  36.390  1.00  0.00     0.198 A 
ATOM     66  F   UNL A   1      41.829  26.359  35.656  1.00  0.00    -0.203 F 
ATOM     67  F   UNL A   1      47.203  27.322  35.675  1.00  0.00    -0.200 F 
ATOM     68  C   UNL A   1      45.358  26.035  36.401  1.00  0.00     0.200 A 
ATOM     69  F   UNL A   1      43.486  24.772  37.092  1.00  0.00    -0.200 F 
ATOM     70  F   UNL A   1      46.175  25.232  37.096  1.00  0.00    -0.200 F 
ENDBRANCH  37  60
ENDBRANCH  11  12
ENDBRANCH   4   6
ENDBRANCH   3   4
ENDBRANCH   2   3
ENDBRANCH   1   2
BRANCH   1  71
ATOM     71  O   UNL A   1      32.194  30.482  25.660  1.00  0.00    -0.461 OA
BRANCH  71  72
ATOM     72  C   UNL A   1      31.630  29.220  25.715  1.00  0.00     0.328 C 
ATOM     73  O   UNL A   1      31.409  28.593  26.740  1.00  0.00    -0.250 OA
BRANCH  72  74
ATOM     74  C   UNL A   1      31.541  28.653  24.280  1.00  0.00     0.195 C 
ATOM     75  C   UNL A   1      31.879  27.151  24.423  1.00  0.00     0.046 C 
ATOM     76  N   UNL A   1      30.362  28.660  23.383  1.00  0.00    -0.328 N 
ATOM     77  C   UNL A   1      31.317  26.442  23.176  1.00  0.00     0.001 C 
ATOM     78  C   UNL A   1      30.488  27.521  22.483  1.00  0.00     0.128 C 
ATOM     79  C   UNL A   1      30.409  25.261  23.569  1.00  0.00     0.071 C 
ATOM     80  C   UNL A   1      32.431  25.927  22.228  1.00  0.00     0.071 C 
ATOM     81  C   UNL A   1      31.219  24.119  24.165  1.00  0.00     0.271 C 
ATOM     82  C   UNL A   1      33.157  24.681  22.741  1.00  0.00     0.271 C 
ATOM     83  N   UNL A   1      32.219  23.663  23.202  1.00  0.00    -0.267 N 
ATOM     84  H   UNL A   1      31.334  24.093  23.148  1.00  0.00     0.357 HD
BRANCH  76  85
ATOM     85  C   UNL A   1      29.759  29.761  22.743  1.00  0.00     0.226 C 
ATOM     86  O   UNL A   1      29.530  29.706  21.532  1.00  0.00    -0.275 OA
BRANCH  85  87
ATOM     87  C   UNL A   1      29.142  30.912  23.491  1.00  0.00     0.079 C 
ATOM     88  C   UNL A   1      28.222  32.051  23.093  1.00  0.00     0.014 C 
ATOM     89  C   UNL A   1      27.590  30.784  23.501  1.00  0.00     0.014 C 
ENDBRANCH  85  87
ENDBRANCH  76  85
BRANCH  83  90
ATOM     90  C   UNL A   1      32.436  22.330  22.856  1.00  0.00     0.344 C 
ATOM     91  O   UNL A   1      32.155  21.851  21.762  1.00  0.00    -0.226 OA
BRANCH  90  92
ATOM     92  C   UNL A   1      33.051  21.443  23.867  1.00  0.00     0.083 A 
ATOM     93  C   UNL A   1      34.386  21.630  24.251  1.00  0.00     0.018 A 
ATOM     94  C   UNL A   1      32.296  20.398  24.398  1.00  0.00     0.064 A 
ATOM     95  C   UNL A   1      34.985  20.721  25.124  1.00  0.00     0.005 A 
ATOM     96  C   UNL A   1      32.905  19.505  25.271  1.00  0.00     0.116 A 
ATOM     97  C   UNL A   1      34.245  19.649  25.629  1.00  0.00     0.046 A 
BRANCH  96  98
ATOM     98  O   UNL A   1      32.153  18.473  25.750  1.00  0.00    -0.508 OA
ATOM     99  H   UNL A   1      31.330  18.647  26.163  1.00  0.00     0.293 HD
ENDBRANCH  96  98
ENDBRANCH  90  92
ENDBRANCH  83  90
ENDBRANCH  72  74
ENDBRANCH  71  72
ENDBRANCH   1  71
TORSDOF 16
ENDMDL
