MODEL 1
REMARK VINA RESULT:     -12.7      0.000      0.000
REMARK SMILES O=C(OCCOC(=O)[C@@H]1[C@@H](C(=O)Nc2cccc([N+](=O)[O-])c2)[C@@H]2C=C[C@H]1O2)c1ccc(-c2c3nc(c(-c4c(F)c(F)c(F)c(F)c4F)c4ccc([nH]4)c(-c4c(F)c(F)c(F)c(F)c4F)c4nc(c(-c5c(F)c(F)c(F)c(F)c5F)c5ccc2[nH]5)C=C4)C=C3)cc1
REMARK SMILES IDX 5 1 4 2 3 3 2 4 1 5 28 6 29 7 90 8 30 9 89 10 31 11 32 12
REMARK SMILES IDX 33 13 83 14 34 15 88 16 82 17 84 18 35 19 87 20 81 21 80 22
REMARK SMILES IDX 36 24 68 25 48 26 67 27 49 28 52 29 66 30 85 31 50 32 51 33
REMARK SMILES IDX 65 35 86 36 53 37 37 38 38 39 46 40 39 41 40 42 44 43 47 44
REMARK SMILES IDX 41 45 42 46 45 47 43 48 69 49 70 50 78 51 71 52 72 53 76 54
REMARK SMILES IDX 79 55 73 56 74 57 77 58 75 59 54 60 55 61 63 62 56 63 57 64
REMARK SMILES IDX 61 65 64 66 58 67 59 68 62 69 60 70 6 71 7 72 8 73 9 74
REMARK SMILES IDX 10 75 26 76 23 77 25 78 27 79 24 80 11 81 12 82 13 83 14 85
REMARK SMILES IDX 15 86 22 87 16 88 18 89 17 90 19 91 20 92 21 93
REMARK H PARENT 84 23 52 34 13 84
REMARK Flexibility Score: inf
ROOT
ATOM      1  C   UNL A   1      38.463  19.969  24.783  1.00  0.00     0.274 C 
ENDROOT
BRANCH   1   2
ATOM      2  C   UNL A   1      39.459  19.349  25.782  1.00  0.00     0.275 C 
BRANCH   2   3
ATOM      3  O   UNL A   1      40.628  20.145  26.009  1.00  0.00    -0.458 OA
BRANCH   3   4
ATOM      4  C   UNL A   1      41.063  20.336  27.282  1.00  0.00     0.338 C 
ATOM      5  O   UNL A   1      40.976  19.476  28.148  1.00  0.00    -0.246 OA
BRANCH   4   6
ATOM      6  C   UNL A   1      41.187  21.771  27.636  1.00  0.00     0.060 A 
ATOM      7  C   UNL A   1      41.975  22.257  28.682  1.00  0.00     0.016 A 
ATOM      8  C   UNL A   1      40.529  22.670  26.803  1.00  0.00     0.016 A 
ATOM      9  C   UNL A   1      42.237  23.628  28.798  1.00  0.00     0.010 A 
ATOM     10  C   UNL A   1      40.821  24.027  26.900  1.00  0.00     0.010 A 
ATOM     11  C   UNL A   1      41.712  24.529  27.868  1.00  0.00    -0.014 A 
BRANCH  11  12
ATOM     12  C   UNL A   1      41.998  25.996  27.904  1.00  0.00     0.031 A 
ATOM     13  C   UNL A   1      43.334  26.464  27.368  1.00  0.00     0.074 A 
ATOM     14  C   UNL A   1      41.174  26.871  28.529  1.00  0.00     0.049 A 
ATOM     15  N   UNL A   1      43.914  27.633  27.470  1.00  0.00    -0.248 NA
ATOM     16  C   UNL A   1      44.162  25.450  26.687  1.00  0.00     0.031 C 
ATOM     17  C   UNL A   1      39.894  26.554  29.171  1.00  0.00     0.029 A 
ATOM     18  N   UNL A   1      41.330  28.217  28.793  1.00  0.00    -0.354 N 
ATOM     19  C   UNL A   1      45.180  27.465  26.923  1.00  0.00     0.074 A 
ATOM     20  C   UNL A   1      45.327  26.067  26.599  1.00  0.00     0.031 C 
ATOM     21  C   UNL A   1      39.417  27.651  29.794  1.00  0.00     0.029 A 
ATOM     22  C   UNL A   1      40.356  28.753  29.611  1.00  0.00     0.049 A 
ATOM     23  H   UNL A   1      42.074  28.751  28.428  1.00  0.00     0.167 HD
ATOM     24  C   UNL A   1      46.115  28.400  26.640  1.00  0.00     0.037 A 
ATOM     25  C   UNL A   1      40.267  29.976  30.180  1.00  0.00     0.037 A 
ATOM     26  C   UNL A   1      45.955  29.791  26.934  1.00  0.00     0.049 A 
ATOM     27  C   UNL A   1      41.350  30.994  29.898  1.00  0.00     0.074 A 
ATOM     28  C   UNL A   1      46.743  30.857  26.545  1.00  0.00     0.029 A 
ATOM     29  N   UNL A   1      44.929  30.303  27.712  1.00  0.00    -0.354 N 
ATOM     30  N   UNL A   1      42.437  30.873  29.177  1.00  0.00    -0.248 NA
ATOM     31  C   UNL A   1      41.187  32.325  30.504  1.00  0.00     0.031 C 
ATOM     32  C   UNL A   1      46.205  32.017  27.108  1.00  0.00     0.029 A 
ATOM     33  C   UNL A   1      45.062  31.675  27.816  1.00  0.00     0.049 A 
ATOM     34  H   UNL A   1      44.212  29.770  28.128  1.00  0.00     0.167 HD
ATOM     35  C   UNL A   1      43.048  32.121  29.191  1.00  0.00     0.074 A 
ATOM     36  C   UNL A   1      42.223  32.983  30.008  1.00  0.00     0.031 C 
ATOM     37  C   UNL A   1      44.181  32.527  28.568  1.00  0.00     0.037 A 
BRANCH  24  38
ATOM     38  C   UNL A   1      47.335  27.939  25.897  1.00  0.00     0.064 A 
ATOM     39  C   UNL A   1      48.538  27.692  26.580  1.00  0.00     0.173 A 
ATOM     40  C   UNL A   1      47.322  27.760  24.508  1.00  0.00     0.173 A 
ATOM     41  F   UNL A   1      48.606  27.854  27.910  1.00  0.00    -0.203 F 
ATOM     42  C   UNL A   1      49.697  27.348  25.894  1.00  0.00     0.198 A 
ATOM     43  C   UNL A   1      48.476  27.376  23.828  1.00  0.00     0.198 A 
ATOM     44  F   UNL A   1      46.198  27.970  23.805  1.00  0.00    -0.203 F 
ATOM     45  F   UNL A   1      50.850  27.203  26.563  1.00  0.00    -0.200 F 
ATOM     46  C   UNL A   1      49.665  27.186  24.520  1.00  0.00     0.200 A 
ATOM     47  F   UNL A   1      48.444  27.205  22.499  1.00  0.00    -0.200 F 
ATOM     48  F   UNL A   1      50.784  26.860  23.858  1.00  0.00    -0.200 F 
ENDBRANCH  24  38
BRANCH  25  49
ATOM     49  C   UNL A   1      39.175  30.350  31.131  1.00  0.00     0.064 A 
ATOM     50  C   UNL A   1      38.076  31.121  30.730  1.00  0.00     0.173 A 
ATOM     51  C   UNL A   1      39.323  30.125  32.505  1.00  0.00     0.173 A 
ATOM     52  F   UNL A   1      37.915  31.429  29.435  1.00  0.00    -0.203 F 
ATOM     53  C   UNL A   1      37.203  31.682  31.669  1.00  0.00     0.198 A 
ATOM     54  C   UNL A   1      38.439  30.655  33.443  1.00  0.00     0.198 A 
ATOM     55  F   UNL A   1      40.386  29.455  32.953  1.00  0.00    -0.203 F 
ATOM     56  F   UNL A   1      36.225  32.502  31.263  1.00  0.00    -0.200 F 
ATOM     57  C   UNL A   1      37.388  31.451  33.025  1.00  0.00     0.200 A 
ATOM     58  F   UNL A   1      38.648  30.445  34.750  1.00  0.00    -0.200 F 
ATOM     59  F   UNL A   1      36.585  32.032  33.926  1.00  0.00    -0.200 F 
ENDBRANCH  25  49
BRANCH  37  60
ATOM     60  C   UNL A   1      44.524  33.986  28.612  1.00  0.00     0.064 A 
ATOM     61  C   UNL A   1      44.034  34.898  27.670  1.00  0.00     0.173 A 
ATOM     62  C   UNL A   1      45.282  34.484  29.685  1.00  0.00     0.173 A 
ATOM     63  F   UNL A   1      43.327  34.466  26.614  1.00  0.00    -0.203 F 
ATOM     64  C   UNL A   1      44.289  36.261  27.800  1.00  0.00     0.198 A 
ATOM     65  C   UNL A   1      45.507  35.848  29.829  1.00  0.00     0.198 A 
ATOM     66  F   UNL A   1      45.771  33.648  30.614  1.00  0.00    -0.203 F 
ATOM     67  F   UNL A   1      43.834  37.117  26.875  1.00  0.00    -0.200 F 
ATOM     68  C   UNL A   1      45.011  36.735  28.887  1.00  0.00     0.200 A 
ATOM     69  F   UNL A   1      46.190  36.305  30.888  1.00  0.00    -0.200 F 
ATOM     70  F   UNL A   1      45.229  38.050  29.026  1.00  0.00    -0.200 F 
ENDBRANCH  37  60
ENDBRANCH  11  12
ENDBRANCH   4   6
ENDBRANCH   3   4
ENDBRANCH   2   3
ENDBRANCH   1   2
BRANCH   1  71
ATOM     71  O   UNL A   1      37.517  20.906  25.357  1.00  0.00    -0.462 OA
BRANCH  71  72
ATOM     72  C   UNL A   1      36.206  20.603  25.163  1.00  0.00     0.312 C 
ATOM     73  O   UNL A   1      35.829  19.562  24.631  1.00  0.00    -0.252 OA
BRANCH  72  74
ATOM     74  C   UNL A   1      35.206  21.573  25.756  1.00  0.00     0.147 C 
ATOM     75  C   UNL A   1      33.907  22.087  25.013  1.00  0.00     0.129 C 
ATOM     76  C   UNL A   1      35.916  22.882  26.111  1.00  0.00     0.157 C 
ATOM     77  C   UNL A   1      34.068  23.596  25.242  1.00  0.00     0.155 C 
ATOM     78  C   UNL A   1      36.293  23.679  24.900  1.00  0.00     0.004 C 
ATOM     79  O   UNL A   1      34.754  23.645  26.519  1.00  0.00    -0.365 OA
ATOM     80  C   UNL A   1      35.146  24.107  24.365  1.00  0.00     0.004 C 
BRANCH  75  81
ATOM     81  C   UNL A   1      32.651  21.540  25.688  1.00  0.00     0.231 C 
ATOM     82  O   UNL A   1      32.084  22.219  26.554  1.00  0.00    -0.274 OA
ATOM     83  N   UNL A   1      32.071  20.341  25.382  1.00  0.00    -0.325 N 
ATOM     84  H   UNL A   1      31.137  20.283  25.691  1.00  0.00     0.169 HD
BRANCH  83  85
ATOM     85  C   UNL A   1      32.496  19.172  24.725  1.00  0.00     0.048 A 
ATOM     86  C   UNL A   1      32.330  19.139  23.331  1.00  0.00     0.026 A 
ATOM     87  C   UNL A   1      33.010  18.045  25.374  1.00  0.00     0.111 A 
ATOM     88  C   UNL A   1      32.708  18.022  22.579  1.00  0.00     0.009 A 
ATOM     89  C   UNL A   1      33.315  16.905  24.610  1.00  0.00     0.271 A 
ATOM     90  C   UNL A   1      33.188  16.888  23.218  1.00  0.00     0.086 A 
BRANCH  89  91
ATOM     91  N   UNL A   1      33.792  15.697  25.263  1.00  0.00     0.062 N 
ATOM     92  O   UNL A   1      33.008  14.740  25.334  1.00  0.00    -0.258 OA
ATOM     93  O   UNL A   1      34.963  15.705  25.655  1.00  0.00    -0.258 OA
ENDBRANCH  89  91
ENDBRANCH  83  85
ENDBRANCH  75  81
ENDBRANCH  72  74
ENDBRANCH  71  72
ENDBRANCH   1  71
TORSDOF 14
ENDMDL
MODEL 2
REMARK VINA RESULT:     -12.6      6.270     10.058
REMARK SMILES O=C(OCCOC(=O)[C@@H]1[C@@H](C(=O)Nc2cccc([N+](=O)[O-])c2)[C@@H]2C=C[C@H]1O2)c1ccc(-c2c3nc(c(-c4c(F)c(F)c(F)c(F)c4F)c4ccc([nH]4)c(-c4c(F)c(F)c(F)c(F)c4F)c4nc(c(-c5c(F)c(F)c(F)c(F)c5F)c5ccc2[nH]5)C=C4)C=C3)cc1
REMARK SMILES IDX 5 1 4 2 3 3 2 4 1 5 28 6 29 7 90 8 30 9 89 10 31 11 32 12
REMARK SMILES IDX 33 13 83 14 34 15 88 16 82 17 84 18 35 19 87 20 81 21 80 22
REMARK SMILES IDX 36 24 68 25 48 26 67 27 49 28 52 29 66 30 85 31 50 32 51 33
REMARK SMILES IDX 65 35 86 36 53 37 37 38 38 39 46 40 39 41 40 42 44 43 47 44
REMARK SMILES IDX 41 45 42 46 45 47 43 48 69 49 70 50 78 51 71 52 72 53 76 54
REMARK SMILES IDX 79 55 73 56 74 57 77 58 75 59 54 60 55 61 63 62 56 63 57 64
REMARK SMILES IDX 61 65 64 66 58 67 59 68 62 69 60 70 6 71 7 72 8 73 9 74
REMARK SMILES IDX 10 75 26 76 23 77 25 78 27 79 24 80 11 81 12 82 13 83 14 85
REMARK SMILES IDX 15 86 22 87 16 88 18 89 17 90 19 91 20 92 21 93
REMARK H PARENT 84 23 52 34 13 84
REMARK Flexibility Score: inf
ROOT
ATOM      1  C   UNL A   1      33.273  31.316  27.288  1.00  0.00     0.274 C 
ENDROOT
BRANCH   1   2
ATOM      2  C   UNL A   1      32.403  32.587  27.362  1.00  0.00     0.275 C 
BRANCH   2   3
ATOM      3  O   UNL A   1      33.156  33.803  27.435  1.00  0.00    -0.458 OA
BRANCH   3   4
ATOM      4  C   UNL A   1      33.151  34.518  28.591  1.00  0.00     0.338 C 
ATOM      5  O   UNL A   1      32.528  35.564  28.721  1.00  0.00    -0.246 OA
BRANCH   4   6
ATOM      6  C   UNL A   1      34.304  34.199  29.467  1.00  0.00     0.060 A 
ATOM      7  C   UNL A   1      34.189  33.679  30.759  1.00  0.00     0.016 A 
ATOM      8  C   UNL A   1      35.566  34.361  28.907  1.00  0.00     0.016 A 
ATOM      9  C   UNL A   1      35.313  33.173  31.425  1.00  0.00     0.010 A 
ATOM     10  C   UNL A   1      36.674  33.825  29.557  1.00  0.00     0.010 A 
ATOM     11  C   UNL A   1      36.565  33.182  30.805  1.00  0.00    -0.014 A 
BRANCH  11  12
ATOM     12  C   UNL A   1      37.792  32.608  31.439  1.00  0.00     0.031 A 
ATOM     13  C   UNL A   1      38.443  31.422  30.762  1.00  0.00     0.074 A 
ATOM     14  C   UNL A   1      38.228  33.020  32.654  1.00  0.00     0.049 A 
ATOM     15  N   UNL A   1      39.375  30.616  31.200  1.00  0.00    -0.248 NA
ATOM     16  C   UNL A   1      37.917  31.053  29.433  1.00  0.00     0.031 C 
ATOM     17  C   UNL A   1      37.649  34.092  33.470  1.00  0.00     0.029 A 
ATOM     18  N   UNL A   1      39.236  32.526  33.459  1.00  0.00    -0.354 N 
ATOM     19  C   UNL A   1      39.492  29.627  30.233  1.00  0.00     0.074 A 
ATOM     20  C   UNL A   1      38.466  29.865  29.247  1.00  0.00     0.031 C 
ATOM     21  C   UNL A   1      38.270  34.136  34.666  1.00  0.00     0.029 A 
ATOM     22  C   UNL A   1      39.285  33.089  34.718  1.00  0.00     0.049 A 
ATOM     23  H   UNL A   1      39.867  31.830  33.160  1.00  0.00     0.167 HD
ATOM     24  C   UNL A   1      40.418  28.647  30.124  1.00  0.00     0.037 A 
ATOM     25  C   UNL A   1      40.034  32.759  35.794  1.00  0.00     0.037 A 
ATOM     26  C   UNL A   1      41.454  28.430  31.087  1.00  0.00     0.049 A 
ATOM     27  C   UNL A   1      41.028  31.625  35.674  1.00  0.00     0.074 A 
ATOM     28  C   UNL A   1      42.550  27.593  31.009  1.00  0.00     0.029 A 
ATOM     29  N   UNL A   1      41.506  29.059  32.321  1.00  0.00    -0.354 N 
ATOM     30  N   UNL A   1      41.278  30.844  34.653  1.00  0.00    -0.248 NA
ATOM     31  C   UNL A   1      41.849  31.332  36.859  1.00  0.00     0.031 C 
ATOM     32  C   UNL A   1      43.257  27.698  32.210  1.00  0.00     0.029 A 
ATOM     33  C   UNL A   1      42.619  28.627  33.018  1.00  0.00     0.049 A 
ATOM     34  H   UNL A   1      40.849  29.714  32.652  1.00  0.00     0.167 HD
ATOM     35  C   UNL A   1      42.323  30.018  35.049  1.00  0.00     0.074 A 
ATOM     36  C   UNL A   1      42.648  30.376  36.411  1.00  0.00     0.031 C 
ATOM     37  C   UNL A   1      42.971  29.060  34.344  1.00  0.00     0.037 A 
BRANCH  24  38
ATOM     38  C   UNL A   1      40.388  27.817  28.874  1.00  0.00     0.064 A 
ATOM     39  C   UNL A   1      39.625  26.638  28.816  1.00  0.00     0.173 A 
ATOM     40  C   UNL A   1      41.128  28.175  27.740  1.00  0.00     0.173 A 
ATOM     41  F   UNL A   1      38.904  26.247  29.877  1.00  0.00    -0.203 F 
ATOM     42  C   UNL A   1      39.656  25.816  27.696  1.00  0.00     0.198 A 
ATOM     43  C   UNL A   1      41.124  27.368  26.603  1.00  0.00     0.198 A 
ATOM     44  F   UNL A   1      41.865  29.296  27.733  1.00  0.00    -0.203 F 
ATOM     45  F   UNL A   1      38.987  24.654  27.702  1.00  0.00    -0.200 F 
ATOM     46  C   UNL A   1      40.401  26.183  26.588  1.00  0.00     0.200 A 
ATOM     47  F   UNL A   1      41.834  27.729  25.525  1.00  0.00    -0.200 F 
ATOM     48  F   UNL A   1      40.436  25.387  25.511  1.00  0.00    -0.200 F 
ENDBRANCH  24  38
BRANCH  25  49
ATOM     49  C   UNL A   1      39.879  33.427  37.124  1.00  0.00     0.064 A 
ATOM     50  C   UNL A   1      38.880  33.049  38.030  1.00  0.00     0.173 A 
ATOM     51  C   UNL A   1      40.591  34.596  37.418  1.00  0.00     0.173 A 
ATOM     52  F   UNL A   1      38.117  31.976  37.772  1.00  0.00    -0.203 F 
ATOM     53  C   UNL A   1      38.577  33.838  39.145  1.00  0.00     0.198 A 
ATOM     54  C   UNL A   1      40.315  35.370  38.544  1.00  0.00     0.198 A 
ATOM     55  F   UNL A   1      41.509  35.043  36.559  1.00  0.00    -0.203 F 
ATOM     56  F   UNL A   1      37.546  33.509  39.935  1.00  0.00    -0.200 F 
ATOM     57  C   UNL A   1      39.293  35.000  39.399  1.00  0.00     0.200 A 
ATOM     58  F   UNL A   1      40.998  36.503  38.758  1.00  0.00    -0.200 F 
ATOM     59  F   UNL A   1      38.967  35.783  40.435  1.00  0.00    -0.200 F 
ENDBRANCH  25  49
BRANCH  37  60
ATOM     60  C   UNL A   1      44.185  28.433  34.960  1.00  0.00     0.064 A 
ATOM     61  C   UNL A   1      44.125  27.231  35.676  1.00  0.00     0.173 A 
ATOM     62  C   UNL A   1      45.447  29.008  34.737  1.00  0.00     0.173 A 
ATOM     63  F   UNL A   1      42.940  26.658  35.937  1.00  0.00    -0.203 F 
ATOM     64  C   UNL A   1      45.286  26.625  36.147  1.00  0.00     0.198 A 
ATOM     65  C   UNL A   1      46.607  28.383  35.181  1.00  0.00     0.198 A 
ATOM     66  F   UNL A   1      45.556  30.158  34.054  1.00  0.00    -0.203 F 
ATOM     67  F   UNL A   1      45.208  25.489  36.853  1.00  0.00    -0.200 F 
ATOM     68  C   UNL A   1      46.526  27.193  35.886  1.00  0.00     0.200 A 
ATOM     69  F   UNL A   1      47.803  28.925  34.912  1.00  0.00    -0.200 F 
ATOM     70  F   UNL A   1      47.644  26.591  36.314  1.00  0.00    -0.200 F 
ENDBRANCH  37  60
ENDBRANCH  11  12
ENDBRANCH   4   6
ENDBRANCH   3   4
ENDBRANCH   2   3
ENDBRANCH   1   2
BRANCH   1  71
ATOM     71  O   UNL A   1      32.865  30.348  26.289  1.00  0.00    -0.462 OA
BRANCH  71  72
ATOM     72  C   UNL A   1      33.677  29.265  26.161  1.00  0.00     0.312 C 
ATOM     73  O   UNL A   1      34.654  29.070  26.880  1.00  0.00    -0.252 OA
BRANCH  72  74
ATOM     74  C   UNL A   1      33.242  28.225  25.151  1.00  0.00     0.147 C 
ATOM     75  C   UNL A   1      31.842  28.224  24.413  1.00  0.00     0.129 C 
ATOM     76  C   UNL A   1      33.265  26.840  25.803  1.00  0.00     0.157 C 
ATOM     77  C   UNL A   1      31.427  26.768  24.665  1.00  0.00     0.155 C 
ATOM     78  C   UNL A   1      32.157  26.652  26.793  1.00  0.00     0.004 C 
ATOM     79  O   UNL A   1      32.704  26.082  24.703  1.00  0.00    -0.365 OA
ATOM     80  C   UNL A   1      31.026  26.618  26.083  1.00  0.00     0.004 C 
BRANCH  75  81
ATOM     81  C   UNL A   1      32.022  28.514  22.923  1.00  0.00     0.231 C 
ATOM     82  O   UNL A   1      33.106  28.260  22.383  1.00  0.00    -0.274 OA
ATOM     83  N   UNL A   1      31.044  29.016  22.112  1.00  0.00    -0.325 N 
ATOM     84  H   UNL A   1      31.232  28.868  21.157  1.00  0.00     0.169 HD
BRANCH  83  85
ATOM     85  C   UNL A   1      29.830  29.695  22.325  1.00  0.00     0.048 A 
ATOM     86  C   UNL A   1      28.743  28.917  22.754  1.00  0.00     0.026 A 
ATOM     87  C   UNL A   1      29.636  31.059  22.082  1.00  0.00     0.111 A 
ATOM     88  C   UNL A   1      27.487  29.487  22.985  1.00  0.00     0.009 A 
ATOM     89  C   UNL A   1      28.349  31.599  22.249  1.00  0.00     0.271 A 
ATOM     90  C   UNL A   1      27.278  30.832  22.716  1.00  0.00     0.086 A 
BRANCH  89  91
ATOM     91  N   UNL A   1      28.101  32.999  21.946  1.00  0.00     0.062 N 
ATOM     92  O   UNL A   1      28.402  33.831  22.813  1.00  0.00    -0.258 OA
ATOM     93  O   UNL A   1      27.653  33.251  20.823  1.00  0.00    -0.258 OA
ENDBRANCH  89  91
ENDBRANCH  83  85
ENDBRANCH  75  81
ENDBRANCH  72  74
ENDBRANCH  71  72
ENDBRANCH   1  71
TORSDOF 14
ENDMDL
MODEL 3
REMARK VINA RESULT:     -12.5      1.744      7.579
REMARK SMILES O=C(OCCOC(=O)[C@@H]1[C@@H](C(=O)Nc2cccc([N+](=O)[O-])c2)[C@@H]2C=C[C@H]1O2)c1ccc(-c2c3nc(c(-c4c(F)c(F)c(F)c(F)c4F)c4ccc([nH]4)c(-c4c(F)c(F)c(F)c(F)c4F)c4nc(c(-c5c(F)c(F)c(F)c(F)c5F)c5ccc2[nH]5)C=C4)C=C3)cc1
REMARK SMILES IDX 5 1 4 2 3 3 2 4 1 5 28 6 29 7 90 8 30 9 89 10 31 11 32 12
REMARK SMILES IDX 33 13 83 14 34 15 88 16 82 17 84 18 35 19 87 20 81 21 80 22
REMARK SMILES IDX 36 24 68 25 48 26 67 27 49 28 52 29 66 30 85 31 50 32 51 33
REMARK SMILES IDX 65 35 86 36 53 37 37 38 38 39 46 40 39 41 40 42 44 43 47 44
REMARK SMILES IDX 41 45 42 46 45 47 43 48 69 49 70 50 78 51 71 52 72 53 76 54
REMARK SMILES IDX 79 55 73 56 74 57 77 58 75 59 54 60 55 61 63 62 56 63 57 64
REMARK SMILES IDX 61 65 64 66 58 67 59 68 62 69 60 70 6 71 7 72 8 73 9 74
REMARK SMILES IDX 10 75 26 76 23 77 25 78 27 79 24 80 11 81 12 82 13 83 14 85
REMARK SMILES IDX 15 86 22 87 16 88 18 89 17 90 19 91 20 92 21 93
REMARK H PARENT 84 23 52 34 13 84
REMARK Flexibility Score: inf
ROOT
ATOM      1  C   UNL A   1      38.534  19.950  25.029  1.00  0.00     0.274 C 
ENDROOT
BRANCH   1   2
ATOM      2  C   UNL A   1      39.659  19.819  26.074  1.00  0.00     0.275 C 
BRANCH   2   3
ATOM      3  O   UNL A   1      40.639  18.826  25.751  1.00  0.00    -0.458 OA
BRANCH   3   4
ATOM      4  C   UNL A   1      41.958  19.125  25.892  1.00  0.00     0.338 C 
ATOM      5  O   UNL A   1      42.823  18.267  26.011  1.00  0.00    -0.246 OA
BRANCH   4   6
ATOM      6  C   UNL A   1      42.183  20.512  26.366  1.00  0.00     0.060 A 
ATOM      7  C   UNL A   1      42.250  20.881  27.712  1.00  0.00     0.016 A 
ATOM      8  C   UNL A   1      42.422  21.466  25.383  1.00  0.00     0.016 A 
ATOM      9  C   UNL A   1      42.711  22.153  28.078  1.00  0.00     0.010 A 
ATOM     10  C   UNL A   1      42.913  22.715  25.752  1.00  0.00     0.010 A 
ATOM     11  C   UNL A   1      43.109  23.069  27.101  1.00  0.00    -0.014 A 
BRANCH  11  12
ATOM     12  C   UNL A   1      43.660  24.420  27.428  1.00  0.00     0.031 A 
ATOM     13  C   UNL A   1      42.681  25.497  27.841  1.00  0.00     0.074 A 
ATOM     14  C   UNL A   1      44.962  24.731  27.220  1.00  0.00     0.049 A 
ATOM     15  N   UNL A   1      42.860  26.786  27.974  1.00  0.00    -0.248 NA
ATOM     16  C   UNL A   1      41.286  25.067  28.063  1.00  0.00     0.031 C 
ATOM     17  C   UNL A   1      46.008  23.822  26.739  1.00  0.00     0.029 A 
ATOM     18  N   UNL A   1      45.622  25.940  27.320  1.00  0.00    -0.354 N 
ATOM     19  C   UNL A   1      41.600  27.309  28.231  1.00  0.00     0.074 A 
ATOM     20  C   UNL A   1      40.654  26.226  28.123  1.00  0.00     0.031 C 
ATOM     21  C   UNL A   1      47.149  24.512  26.538  1.00  0.00     0.029 A 
ATOM     22  C   UNL A   1      46.923  25.917  26.860  1.00  0.00     0.049 A 
ATOM     23  H   UNL A   1      45.200  26.750  27.689  1.00  0.00     0.167 HD
ATOM     24  C   UNL A   1      41.260  28.565  28.602  1.00  0.00     0.037 A 
ATOM     25  C   UNL A   1      47.804  26.927  26.679  1.00  0.00     0.037 A 
ATOM     26  C   UNL A   1      42.204  29.631  28.740  1.00  0.00     0.049 A 
ATOM     27  C   UNL A   1      47.390  28.334  27.048  1.00  0.00     0.074 A 
ATOM     28  C   UNL A   1      42.018  30.891  29.273  1.00  0.00     0.029 A 
ATOM     29  N   UNL A   1      43.522  29.554  28.320  1.00  0.00    -0.354 N 
ATOM     30  N   UNL A   1      46.244  28.768  27.513  1.00  0.00    -0.248 NA
ATOM     31  C   UNL A   1      48.397  29.392  26.874  1.00  0.00     0.031 C 
ATOM     32  C   UNL A   1      43.223  31.589  29.156  1.00  0.00     0.029 A 
ATOM     33  C   UNL A   1      44.166  30.749  28.583  1.00  0.00     0.049 A 
ATOM     34  H   UNL A   1      43.939  28.767  27.898  1.00  0.00     0.167 HD
ATOM     35  C   UNL A   1      46.415  30.128  27.746  1.00  0.00     0.074 A 
ATOM     36  C   UNL A   1      47.768  30.454  27.352  1.00  0.00     0.031 C 
ATOM     37  C   UNL A   1      45.539  31.026  28.257  1.00  0.00     0.037 A 
BRANCH  24  38
ATOM     38  C   UNL A   1      39.824  28.800  28.971  1.00  0.00     0.064 A 
ATOM     39  C   UNL A   1      38.904  29.257  28.012  1.00  0.00     0.173 A 
ATOM     40  C   UNL A   1      39.360  28.591  30.277  1.00  0.00     0.173 A 
ATOM     41  F   UNL A   1      39.299  29.478  26.749  1.00  0.00    -0.203 F 
ATOM     42  C   UNL A   1      37.593  29.560  28.360  1.00  0.00     0.198 A 
ATOM     43  C   UNL A   1      38.033  28.858  30.612  1.00  0.00     0.198 A 
ATOM     44  F   UNL A   1      40.190  28.143  31.231  1.00  0.00    -0.203 F 
ATOM     45  F   UNL A   1      36.762  30.077  27.444  1.00  0.00    -0.200 F 
ATOM     46  C   UNL A   1      37.157  29.357  29.658  1.00  0.00     0.200 A 
ATOM     47  F   UNL A   1      37.606  28.649  31.866  1.00  0.00    -0.200 F 
ATOM     48  F   UNL A   1      35.895  29.654  29.995  1.00  0.00    -0.200 F 
ENDBRANCH  24  38
BRANCH  25  49
ATOM     49  C   UNL A   1      49.154  26.724  26.068  1.00  0.00     0.064 A 
ATOM     50  C   UNL A   1      50.298  26.518  26.850  1.00  0.00     0.173 A 
ATOM     51  C   UNL A   1      49.355  26.950  24.701  1.00  0.00     0.173 A 
ATOM     52  F   UNL A   1      50.178  26.363  28.177  1.00  0.00    -0.203 F 
ATOM     53  C   UNL A   1      51.579  26.590  26.294  1.00  0.00     0.198 A 
ATOM     54  C   UNL A   1      50.628  26.991  24.135  1.00  0.00     0.198 A 
ATOM     55  F   UNL A   1      48.310  27.218  23.916  1.00  0.00    -0.203 F 
ATOM     56  F   UNL A   1      52.656  26.495  27.085  1.00  0.00    -0.200 F 
ATOM     57  C   UNL A   1      51.743  26.830  24.937  1.00  0.00     0.200 A 
ATOM     58  F   UNL A   1      50.768  27.252  22.827  1.00  0.00    -0.200 F 
ATOM     59  F   UNL A   1      52.970  26.953  24.414  1.00  0.00    -0.200 F 
ENDBRANCH  25  49
BRANCH  37  60
ATOM     60  C   UNL A   1      46.043  32.403  28.565  1.00  0.00     0.064 A 
ATOM     61  C   UNL A   1      46.688  32.712  29.770  1.00  0.00     0.173 A 
ATOM     62  C   UNL A   1      45.959  33.404  27.583  1.00  0.00     0.173 A 
ATOM     63  F   UNL A   1      46.769  31.797  30.748  1.00  0.00    -0.203 F 
ATOM     64  C   UNL A   1      47.234  33.976  29.980  1.00  0.00     0.198 A 
ATOM     65  C   UNL A   1      46.534  34.654  27.784  1.00  0.00     0.198 A 
ATOM     66  F   UNL A   1      45.353  33.155  26.413  1.00  0.00    -0.203 F 
ATOM     67  F   UNL A   1      47.824  34.262  31.148  1.00  0.00    -0.200 F 
ATOM     68  C   UNL A   1      47.170  34.939  28.982  1.00  0.00     0.200 A 
ATOM     69  F   UNL A   1      46.486  35.576  26.813  1.00  0.00    -0.200 F 
ATOM     70  F   UNL A   1      47.723  36.144  29.176  1.00  0.00    -0.200 F 
ENDBRANCH  37  60
ENDBRANCH  11  12
ENDBRANCH   4   6
ENDBRANCH   3   4
ENDBRANCH   2   3
ENDBRANCH   1   2
BRANCH   1  71
ATOM     71  O   UNL A   1      37.575  21.007  25.286  1.00  0.00    -0.462 OA
BRANCH  71  72
ATOM     72  C   UNL A   1      36.270  20.664  25.118  1.00  0.00     0.312 C 
ATOM     73  O   UNL A   1      35.914  19.593  24.632  1.00  0.00    -0.252 OA
BRANCH  72  74
ATOM     74  C   UNL A   1      35.252  21.632  25.683  1.00  0.00     0.147 C 
ATOM     75  C   UNL A   1      33.920  22.062  24.945  1.00  0.00     0.129 C 
ATOM     76  C   UNL A   1      35.925  22.981  25.948  1.00  0.00     0.157 C 
ATOM     77  C   UNL A   1      34.035  23.586  25.089  1.00  0.00     0.155 C 
ATOM     78  C   UNL A   1      36.247  23.722  24.687  1.00  0.00     0.004 C 
ATOM     79  O   UNL A   1      34.748  23.728  26.343  1.00  0.00    -0.365 OA
ATOM     80  C   UNL A   1      35.074  24.083  24.158  1.00  0.00     0.004 C 
BRANCH  75  81
ATOM     81  C   UNL A   1      32.699  21.512  25.680  1.00  0.00     0.231 C 
ATOM     82  O   UNL A   1      32.154  22.203  26.551  1.00  0.00    -0.274 OA
ATOM     83  N   UNL A   1      32.127  20.298  25.425  1.00  0.00    -0.325 N 
ATOM     84  H   UNL A   1      31.207  20.233  25.770  1.00  0.00     0.169 HD
BRANCH  83  85
ATOM     85  C   UNL A   1      32.546  19.119  24.780  1.00  0.00     0.048 A 
ATOM     86  C   UNL A   1      32.527  19.131  23.376  1.00  0.00     0.026 A 
ATOM     87  C   UNL A   1      32.917  17.946  25.444  1.00  0.00     0.111 A 
ATOM     88  C   UNL A   1      32.913  18.010  22.633  1.00  0.00     0.009 A 
ATOM     89  C   UNL A   1      33.231  16.807  24.682  1.00  0.00     0.271 A 
ATOM     90  C   UNL A   1      33.251  16.833  23.284  1.00  0.00     0.086 A 
BRANCH  89  91
ATOM     91  N   UNL A   1      33.560  15.556  25.343  1.00  0.00     0.062 N 
ATOM     92  O   UNL A   1      32.619  14.877  25.778  1.00  0.00    -0.258 OA
ATOM     93  O   UNL A   1      34.754  15.245  25.377  1.00  0.00    -0.258 OA
ENDBRANCH  89  91
ENDBRANCH  83  85
ENDBRANCH  75  81
ENDBRANCH  72  74
ENDBRANCH  71  72
ENDBRANCH   1  71
TORSDOF 14
ENDMDL
